ligand
 OpenBabel02271912143D
libRbt.so/2013.1/901 2013/11/27
 12 12  0  0  0  0  0  0  0  0999 V2000
  -22.2568  -10.7878   95.9998 C   0  0  0  0  0  0  0  0  0  0  0  0
  -19.2917   -6.2980   94.8478 C   0  0  0  0  0  0  0  0  0  0  0  0
  -19.6664  -10.9385   95.2930 N   0  0  0  0  0  0  0  0  0  0  0  0
  -23.6475  -10.7731   95.5240 N   0  0  0  0  0  0  0  0  0  0  0  0
  -24.2800  -11.6415   95.8445 N   0  0  0  0  0  0  0  0  0  0  0  0
  -24.9161  -12.5078   96.1620 N   0  0  0  0  0  0  0  0  0  0  0  0
  -21.3520   -7.2855   95.4422 N   0  0  0  0  0  0  0  0  0  0  0  0
  -20.0609   -7.4244   95.1135 C   0  0  0  0  0  0  0  0  0  0  0  0
  -19.5153   -8.6415   94.9713 N   0  0  0  0  0  0  0  0  0  0  0  0
  -20.2452   -9.7494   95.1664 C   0  0  0  0  0  0  0  0  0  0  0  0
  -21.5872   -9.6692   95.5193 C   0  0  0  0  0  0  0  0  0  0  0  0
  -22.1599   -8.4097   95.6501 C   0  0  0  0  0  0  0  0  0  0  0  0
  1 11  1  0  0  0  0
  1  4  1  0  0  0  0
  2  8  1  0  0  0  0
  3 10  1  0  0  0  0
  4  5  1  0  0  0  0
  5  6  1  0  0  0  0
  7  8  2  0  0  0  0
  7 12  1  0  0  0  0
  8  9  1  0  0  0  0
  9 10  2  0  0  0  0
 10 11  1  0  0  0  0
 11 12  2  0  0  0  0
M  END
>  <CHROM.1>
-144.56614511,179.32301083,-175.17751225,-21.59521768,-9.52474102,95.46219822
-2.36046131,0.15087727,-0.05154992

>  <Name>
ligand

>  <RI>
0

>  <Rbt.Current_Directory>
/home/itssahil/PROJECTS/Mol_Feturizer/Test_systems_manuscript/rnas/4nya

>  <Rbt.Executable>
rbdock ($Id: //depot/dev/client3/rdock/2013.1/src/exe/rbdock.cxx#4 $)

>  <Rbt.Library>
libRbt.so (2013.1, Build901 2013/11/27)

>  <Rbt.Parameter_File>
/export/apps/rDock/src/rDock_2013.1_src/data/scripts/dock_solv.prm

>  <Rbt.Receptor>
prm/pocket_docking_3.prm

>  <SCORE>
-12.8701

>  <SCORE.INTER>
-11.5867

>  <SCORE.INTER.CONST>
1

>  <SCORE.INTER.POLAR>
0

>  <SCORE.INTER.ROT>
3

>  <SCORE.INTER.SOLV>
14.059

>  <SCORE.INTER.VDW>
-18.0108

>  <SCORE.INTER.norm>
-0.965561

>  <SCORE.INTRA>
-1.28338

>  <SCORE.INTRA.DIHEDRAL>
-2.12689

>  <SCORE.INTRA.DIHEDRAL.0>
3.34563

>  <SCORE.INTRA.POLAR>
0

>  <SCORE.INTRA.POLAR.0>
0

>  <SCORE.INTRA.REPUL>
0

>  <SCORE.INTRA.REPUL.0>
0

>  <SCORE.INTRA.SOLV>
-1.22146

>  <SCORE.INTRA.SOLV.lig_0>
-59.746

>  <SCORE.INTRA.VDW>
0.390795

>  <SCORE.INTRA.VDW.0>
-0.691186

>  <SCORE.INTRA.norm>
-0.106949

>  <SCORE.RESTR>
0

>  <SCORE.RESTR.CAVITY>
0

>  <SCORE.RESTR.norm>
0

>  <SCORE.SYSTEM>
0

>  <SCORE.SYSTEM.CONST>
0

>  <SCORE.SYSTEM.DIHEDRAL>
0

>  <SCORE.SYSTEM.SOLV>
0

>  <SCORE.SYSTEM.norm>
0

>  <SCORE.heavy>
12

>  <SCORE.norm>
-1.07251

>  <RMSD>
0.858

$$$$
ligand
 OpenBabel02271912143D
libRbt.so/2013.1/901 2013/11/27
 12 12  0  0  0  0  0  0  0  0999 V2000
  -22.2725  -10.7764   96.0062 C   0  0  0  0  0  0  0  0  0  0  0  0
  -19.2626   -6.3232   94.8284 C   0  0  0  0  0  0  0  0  0  0  0  0
  -19.6919  -10.9592   95.2713 N   0  0  0  0  0  0  0  0  0  0  0  0
  -23.6908  -10.6925   95.6293 N   0  0  0  0  0  0  0  0  0  0  0  0
  -24.3331  -11.5495   95.9604 N   0  0  0  0  0  0  0  0  0  0  0  0
  -24.9793  -12.4042   96.2891 N   0  0  0  0  0  0  0  0  0  0  0  0
  -21.3289   -7.2851   95.4437 N   0  0  0  0  0  0  0  0  0  0  0  0
  -20.0433   -7.4401   95.1009 C   0  0  0  0  0  0  0  0  0  0  0  0
  -19.5149   -8.6638   94.9512 N   0  0  0  0  0  0  0  0  0  0  0  0
  -20.2568   -9.7627   95.1526 C   0  0  0  0  0  0  0  0  0  0  0  0
  -21.5938   -9.6657   95.5201 C   0  0  0  0  0  0  0  0  0  0  0  0
  -22.1489   -8.3992   95.6587 C   0  0  0  0  0  0  0  0  0  0  0  0
  1 11  1  0  0  0  0
  1  4  1  0  0  0  0
  2  8  1  0  0  0  0
  3 10  1  0  0  0  0
  4  5  1  0  0  0  0
  5  6  1  0  0  0  0
  7  8  2  0  0  0  0
  7 12  1  0  0  0  0
  8  9  1  0  0  0  0
  9 10  2  0  0  0  0
 10 11  1  0  0  0  0
 11 12  2  0  0  0  0
M  END
>  <CHROM.1>
-148.73212743,179.20167369,-178.61316178,-21.60713792,-9.50692620,95.48647170
-2.38345241,0.17596766,-0.05238464

>  <Name>
ligand

>  <RI>
0

>  <Rbt.Current_Directory>
/home/itssahil/PROJECTS/Mol_Feturizer/Test_systems_manuscript/rnas/4nya

>  <Rbt.Executable>
rbdock ($Id: //depot/dev/client3/rdock/2013.1/src/exe/rbdock.cxx#4 $)

>  <Rbt.Library>
libRbt.so (2013.1, Build901 2013/11/27)

>  <Rbt.Parameter_File>
/export/apps/rDock/src/rDock_2013.1_src/data/scripts/dock_solv.prm

>  <Rbt.Receptor>
prm/pocket_docking_2.prm

>  <SCORE>
-12.8981

>  <SCORE.INTER>
-11.6211

>  <SCORE.INTER.CONST>
1

>  <SCORE.INTER.POLAR>
0

>  <SCORE.INTER.ROT>
3

>  <SCORE.INTER.SOLV>
13.8468

>  <SCORE.INTER.VDW>
-17.963

>  <SCORE.INTER.norm>
-0.968421

>  <SCORE.INTRA>
-1.27702

>  <SCORE.INTRA.DIHEDRAL>
-2.1967

>  <SCORE.INTRA.DIHEDRAL.0>
3.34563

>  <SCORE.INTRA.POLAR>
0

>  <SCORE.INTRA.POLAR.0>
0

>  <SCORE.INTRA.REPUL>
0

>  <SCORE.INTRA.REPUL.0>
0

>  <SCORE.INTRA.SOLV>
-1.25091

>  <SCORE.INTRA.SOLV.lig_0>
-59.746

>  <SCORE.INTRA.VDW>
0.44679

>  <SCORE.INTRA.VDW.0>
-0.691186

>  <SCORE.INTRA.norm>
-0.106418

>  <SCORE.RESTR>
0

>  <SCORE.RESTR.CAVITY>
0

>  <SCORE.RESTR.norm>
0

>  <SCORE.SYSTEM>
0

>  <SCORE.SYSTEM.CONST>
0

>  <SCORE.SYSTEM.DIHEDRAL>
0

>  <SCORE.SYSTEM.SOLV>
0

>  <SCORE.SYSTEM.norm>
0

>  <SCORE.heavy>
12

>  <SCORE.norm>
-1.07484

>  <RMSD>
0.877

$$$$
ligand
 OpenBabel02271912143D
libRbt.so/2013.1/901 2013/11/27
 12 12  0  0  0  0  0  0  0  0999 V2000
  -22.1166  -10.8443   95.9430 C   0  0  0  0  0  0  0  0  0  0  0  0
  -19.3487   -6.2049   94.8981 C   0  0  0  0  0  0  0  0  0  0  0  0
  -19.5148  -10.8646   95.2623 N   0  0  0  0  0  0  0  0  0  0  0  0
  -23.5571  -10.7738   95.6592 N   0  0  0  0  0  0  0  0  0  0  0  0
  -24.1630  -11.6535   95.9994 N   0  0  0  0  0  0  0  0  0  0  0  0
  -24.7658  -12.5359   96.3369 N   0  0  0  0  0  0  0  0  0  0  0  0
  -21.3676   -7.2954   95.4535 N   0  0  0  0  0  0  0  0  0  0  0  0
  -20.0682   -7.3697   95.1367 C   0  0  0  0  0  0  0  0  0  0  0  0
  -19.4659   -8.5579   94.9804 N   0  0  0  0  0  0  0  0  0  0  0  0
  -20.1462   -9.7012   95.1491 C   0  0  0  0  0  0  0  0  0  0  0  0
  -21.4941   -9.6883   95.4885 C   0  0  0  0  0  0  0  0  0  0  0  0
  -22.1252   -8.4587   95.6338 C   0  0  0  0  0  0  0  0  0  0  0  0
  1 11  1  0  0  0  0
  1  4  1  0  0  0  0
  2  8  1  0  0  0  0
  3 10  1  0  0  0  0
  4  5  1  0  0  0  0
  5  6  1  0  0  0  0
  7  8  2  0  0  0  0
  7 12  1  0  0  0  0
  8  9  1  0  0  0  0
  9 10  2  0  0  0  0
 10 11  1  0  0  0  0
 11 12  2  0  0  0  0
M  END
>  <CHROM.1>
-154.56810543,-179.12560007,-54.92163486,-21.52474379,-9.50911367,95.49841060
-2.34079094,0.17709834,-0.05499166

>  <Name>
ligand

>  <RI>
0

>  <Rbt.Current_Directory>
/home/itssahil/PROJECTS/Mol_Feturizer/Test_systems_manuscript/rnas/4nya

>  <Rbt.Executable>
rbdock ($Id: //depot/dev/client3/rdock/2013.1/src/exe/rbdock.cxx#4 $)

>  <Rbt.Library>
libRbt.so (2013.1, Build901 2013/11/27)

>  <Rbt.Parameter_File>
/export/apps/rDock/src/rDock_2013.1_src/data/scripts/dock_solv.prm

>  <Rbt.Receptor>
prm/pocket_docking_3.prm

>  <SCORE>
-12.9286

>  <SCORE.INTER>
-11.7086

>  <SCORE.INTER.CONST>
1

>  <SCORE.INTER.POLAR>
0

>  <SCORE.INTER.ROT>
3

>  <SCORE.INTER.SOLV>
14.62

>  <SCORE.INTER.VDW>
-18.2791

>  <SCORE.INTER.norm>
-0.975717

>  <SCORE.INTRA>
-1.22003

>  <SCORE.INTRA.DIHEDRAL>
-2.23708

>  <SCORE.INTRA.DIHEDRAL.0>
3.34563

>  <SCORE.INTRA.POLAR>
0

>  <SCORE.INTRA.POLAR.0>
0

>  <SCORE.INTRA.REPUL>
0

>  <SCORE.INTRA.REPUL.0>
0

>  <SCORE.INTRA.SOLV>
-1.27814

>  <SCORE.INTRA.SOLV.lig_0>
-59.746

>  <SCORE.INTRA.VDW>
0.537578

>  <SCORE.INTRA.VDW.0>
-0.691186

>  <SCORE.INTRA.norm>
-0.101669

>  <SCORE.RESTR>
0

>  <SCORE.RESTR.CAVITY>
0

>  <SCORE.RESTR.norm>
0

>  <SCORE.SYSTEM>
0

>  <SCORE.SYSTEM.CONST>
0

>  <SCORE.SYSTEM.DIHEDRAL>
0

>  <SCORE.SYSTEM.SOLV>
0

>  <SCORE.SYSTEM.norm>
0

>  <SCORE.heavy>
12

>  <SCORE.norm>
-1.07739

>  <RMSD>
0.913

$$$$
ligand
 OpenBabel02271912143D
libRbt.so/2013.1/901 2013/11/27
 12 12  0  0  0  0  0  0  0  0999 V2000
  -22.3439  -10.6131   95.8268 C   0  0  0  0  0  0  0  0  0  0  0  0
  -19.0743   -6.2966   94.8494 C   0  0  0  0  0  0  0  0  0  0  0  0
  -19.7708  -10.9143   95.1049 N   0  0  0  0  0  0  0  0  0  0  0  0
  -23.4857  -10.8231   94.9253 N   0  0  0  0  0  0  0  0  0  0  0  0
  -24.2186  -11.6092   95.2443 N   0  0  0  0  0  0  0  0  0  0  0  0
  -24.9522  -12.3923   95.5675 N   0  0  0  0  0  0  0  0  0  0  0  0
  -21.1979   -7.1621   95.4104 N   0  0  0  0  0  0  0  0  0  0  0  0
  -19.9199   -7.3769   95.0715 C   0  0  0  0  0  0  0  0  0  0  0  0
  -19.4604   -8.6220   94.8774 N   0  0  0  0  0  0  0  0  0  0  0  0
  -20.2655   -9.6836   95.0294 C   0  0  0  0  0  0  0  0  0  0  0  0
  -21.5984   -9.5249   95.3903 C   0  0  0  0  0  0  0  0  0  0  0  0
  -22.0819   -8.2351   95.5748 C   0  0  0  0  0  0  0  0  0  0  0  0
  1 11  1  0  0  0  0
  1  4  1  0  0  0  0
  2  8  1  0  0  0  0
  3 10  1  0  0  0  0
  4  5  1  0  0  0  0
  5  6  1  0  0  0  0
  7  8  2  0  0  0  0
  7 12  1  0  0  0  0
  8  9  1  0  0  0  0
  9 10  2  0  0  0  0
 10 11  1  0  0  0  0
 11 12  2  0  0  0  0
M  END
>  <CHROM.1>
-119.43868224,-173.71878011,60.76839545,-21.54319152,-9.45417683,95.23558934
-2.36921432,0.10702392,0.02578940

>  <Name>
ligand

>  <RI>
0

>  <Rbt.Current_Directory>
/home/itssahil/PROJECTS/Mol_Feturizer/Test_systems_manuscript/rnas/4nya

>  <Rbt.Executable>
rbdock ($Id: //depot/dev/client3/rdock/2013.1/src/exe/rbdock.cxx#4 $)

>  <Rbt.Library>
libRbt.so (2013.1, Build901 2013/11/27)

>  <Rbt.Parameter_File>
/export/apps/rDock/src/rDock_2013.1_src/data/scripts/dock_solv.prm

>  <Rbt.Receptor>
prm/blind_docking_100.prm

>  <SCORE>
-12.327

>  <SCORE.INTER>
-11.3113

>  <SCORE.INTER.CONST>
1

>  <SCORE.INTER.POLAR>
0

>  <SCORE.INTER.ROT>
3

>  <SCORE.INTER.SOLV>
14.4909

>  <SCORE.INTER.VDW>
-17.9712

>  <SCORE.INTER.norm>
-0.942609

>  <SCORE.INTRA>
-1.01572

>  <SCORE.INTRA.DIHEDRAL>
-1.41504

>  <SCORE.INTRA.DIHEDRAL.0>
3.34563

>  <SCORE.INTRA.POLAR>
0

>  <SCORE.INTRA.POLAR.0>
0

>  <SCORE.INTRA.REPUL>
0

>  <SCORE.INTRA.REPUL.0>
0

>  <SCORE.INTRA.SOLV>
-0.923892

>  <SCORE.INTRA.SOLV.lig_0>
-59.746

>  <SCORE.INTRA.VDW>
0.153751

>  <SCORE.INTRA.VDW.0>
-0.691186

>  <SCORE.INTRA.norm>
-0.084643

>  <SCORE.RESTR>
0

>  <SCORE.RESTR.CAVITY>
0

>  <SCORE.RESTR.norm>
0

>  <SCORE.SYSTEM>
0

>  <SCORE.SYSTEM.CONST>
0

>  <SCORE.SYSTEM.DIHEDRAL>
0

>  <SCORE.SYSTEM.SOLV>
0

>  <SCORE.SYSTEM.norm>
0

>  <SCORE.heavy>
12

>  <SCORE.norm>
-1.02725

>  <RMSD>
0.915

$$$$
ligand
 OpenBabel02271912143D
libRbt.so/2013.1/901 2013/11/27
 12 12  0  0  0  0  0  0  0  0999 V2000
  -22.1601  -10.7861   96.0100 C   0  0  0  0  0  0  0  0  0  0  0  0
  -19.1643   -6.3238   94.8308 C   0  0  0  0  0  0  0  0  0  0  0  0
  -19.6582  -10.9698   95.0408 N   0  0  0  0  0  0  0  0  0  0  0  0
  -23.2224  -11.1738   95.0709 N   0  0  0  0  0  0  0  0  0  0  0  0
  -23.7818  -12.1102   95.3295 N   0  0  0  0  0  0  0  0  0  0  0  0
  -24.3428  -13.0441   95.5924 N   0  0  0  0  0  0  0  0  0  0  0  0
  -21.1904   -7.2845   95.5694 N   0  0  0  0  0  0  0  0  0  0  0  0
  -19.9434   -7.4412   95.1060 C   0  0  0  0  0  0  0  0  0  0  0  0
  -19.4578   -8.6629   94.8397 N   0  0  0  0  0  0  0  0  0  0  0  0
  -20.2040   -9.7586   95.0419 C   0  0  0  0  0  0  0  0  0  0  0  0
  -21.5014   -9.6605   95.5310 C   0  0  0  0  0  0  0  0  0  0  0  0
  -22.0135   -8.3950   95.7911 C   0  0  0  0  0  0  0  0  0  0  0  0
  1 11  1  0  0  0  0
  1  4  1  0  0  0  0
  2  8  1  0  0  0  0
  3 10  1  0  0  0  0
  4  5  1  0  0  0  0
  5  6  1  0  0  0  0
  7  8  2  0  0  0  0
  7 12  1  0  0  0  0
  8  9  1  0  0  0  0
  9 10  2  0  0  0  0
 10 11  1  0  0  0  0
 11 12  2  0  0  0  0
M  END
>  <CHROM.1>
-108.74363943,176.54009597,62.80508092,-21.39593889,-9.65388229,95.30709653
2.26198354,-0.18845860,-3.07291670

>  <Name>
ligand

>  <RI>
0

>  <Rbt.Current_Directory>
/home/itssahil/PROJECTS/Mol_Feturizer/Test_systems_manuscript/rnas/4nya

>  <Rbt.Executable>
rbdock ($Id: //depot/dev/client3/rdock/2013.1/src/exe/rbdock.cxx#4 $)

>  <Rbt.Library>
libRbt.so (2013.1, Build901 2013/11/27)

>  <Rbt.Parameter_File>
/export/apps/rDock/src/rDock_2013.1_src/data/scripts/dock_solv.prm

>  <Rbt.Receptor>
prm/pocket_docking_6.prm

>  <SCORE>
-12.1639

>  <SCORE.INTER>
-11.4027

>  <SCORE.INTER.CONST>
1

>  <SCORE.INTER.POLAR>
0

>  <SCORE.INTER.ROT>
3

>  <SCORE.INTER.SOLV>
14.9495

>  <SCORE.INTER.VDW>
-18.185

>  <SCORE.INTER.norm>
-0.950227

>  <SCORE.INTRA>
-0.761132

>  <SCORE.INTRA.DIHEDRAL>
-1.18159

>  <SCORE.INTRA.DIHEDRAL.0>
3.34563

>  <SCORE.INTRA.POLAR>
0

>  <SCORE.INTRA.POLAR.0>
0

>  <SCORE.INTRA.REPUL>
0

>  <SCORE.INTRA.REPUL.0>
0

>  <SCORE.INTRA.SOLV>
-0.564267

>  <SCORE.INTRA.SOLV.lig_0>
-59.746

>  <SCORE.INTRA.VDW>
0.111798

>  <SCORE.INTRA.VDW.0>
-0.691186

>  <SCORE.INTRA.norm>
-0.0634277

>  <SCORE.RESTR>
0

>  <SCORE.RESTR.CAVITY>
0

>  <SCORE.RESTR.norm>
0

>  <SCORE.SYSTEM>
0

>  <SCORE.SYSTEM.CONST>
0

>  <SCORE.SYSTEM.DIHEDRAL>
0

>  <SCORE.SYSTEM.SOLV>
0

>  <SCORE.SYSTEM.norm>
0

>  <SCORE.heavy>
12

>  <SCORE.norm>
-1.01365

>  <RMSD>
0.922

$$$$
ligand
 OpenBabel02271912143D
libRbt.so/2013.1/901 2013/11/27
 12 12  0  0  0  0  0  0  0  0999 V2000
  -22.3037  -10.7641   96.0206 C   0  0  0  0  0  0  0  0  0  0  0  0
  -19.2198   -6.3618   94.8427 C   0  0  0  0  0  0  0  0  0  0  0  0
  -19.7139  -10.9869   95.3304 N   0  0  0  0  0  0  0  0  0  0  0  0
  -23.7374  -10.5979   95.7423 N   0  0  0  0  0  0  0  0  0  0  0  0
  -24.4178  -11.3372   96.2395 N   0  0  0  0  0  0  0  0  0  0  0  0
  -25.0957  -12.0800   96.7342 N   0  0  0  0  0  0  0  0  0  0  0  0
  -21.3077   -7.2913   95.4346 N   0  0  0  0  0  0  0  0  0  0  0  0
  -20.0186   -7.4659   95.1147 C   0  0  0  0  0  0  0  0  0  0  0  0
  -19.5031   -8.6976   94.9875 N   0  0  0  0  0  0  0  0  0  0  0  0
  -20.2618   -9.7849   95.1890 C   0  0  0  0  0  0  0  0  0  0  0  0
  -21.6034   -9.6675   95.5333 C   0  0  0  0  0  0  0  0  0  0  0  0
  -22.1448   -8.3927   95.6485 C   0  0  0  0  0  0  0  0  0  0  0  0
  1 11  1  0  0  0  0
  1  4  1  0  0  0  0
  2  8  1  0  0  0  0
  3 10  1  0  0  0  0
  4  5  1  0  0  0  0
  5  6  1  0  0  0  0
  7  8  2  0  0  0  0
  7 12  1  0  0  0  0
  8  9  1  0  0  0  0
  9 10  2  0  0  0  0
 10 11  1  0  0  0  0
 11 12  2  0  0  0  0
M  END
>  <CHROM.1>
-154.64340924,-170.16984434,-59.90659389,-21.62535993,-9.46370239,95.57328627
-2.42951924,0.21195283,-0.07496363

>  <Name>
ligand

>  <RI>
0

>  <Rbt.Current_Directory>
/home/itssahil/PROJECTS/Mol_Feturizer/Test_systems_manuscript/rnas/4nya

>  <Rbt.Executable>
rbdock ($Id: //depot/dev/client3/rdock/2013.1/src/exe/rbdock.cxx#4 $)

>  <Rbt.Library>
libRbt.so (2013.1, Build901 2013/11/27)

>  <Rbt.Parameter_File>
/export/apps/rDock/src/rDock_2013.1_src/data/scripts/dock_solv.prm

>  <Rbt.Receptor>
prm/pocket_docking_6.prm

>  <SCORE>
-12.8663

>  <SCORE.INTER>
-11.6714

>  <SCORE.INTER.CONST>
1

>  <SCORE.INTER.POLAR>
0

>  <SCORE.INTER.ROT>
3

>  <SCORE.INTER.SOLV>
13.5826

>  <SCORE.INTER.VDW>
-17.9084

>  <SCORE.INTER.norm>
-0.972615

>  <SCORE.INTRA>
-1.19488

>  <SCORE.INTRA.DIHEDRAL>
-2.16725

>  <SCORE.INTRA.DIHEDRAL.0>
3.34563

>  <SCORE.INTRA.POLAR>
0

>  <SCORE.INTRA.POLAR.0>
0

>  <SCORE.INTRA.REPUL>
0

>  <SCORE.INTRA.REPUL.0>
0

>  <SCORE.INTRA.SOLV>
-1.25837

>  <SCORE.INTRA.SOLV.lig_0>
-59.746

>  <SCORE.INTRA.VDW>
0.517933

>  <SCORE.INTRA.VDW.0>
-0.691186

>  <SCORE.INTRA.norm>
-0.0995733

>  <SCORE.RESTR>
0

>  <SCORE.RESTR.CAVITY>
0

>  <SCORE.RESTR.norm>
0

>  <SCORE.SYSTEM>
0

>  <SCORE.SYSTEM.CONST>
0

>  <SCORE.SYSTEM.DIHEDRAL>
0

>  <SCORE.SYSTEM.SOLV>
0

>  <SCORE.SYSTEM.norm>
0

>  <SCORE.heavy>
12

>  <SCORE.norm>
-1.07219

>  <RMSD>
0.931

$$$$
ligand
 OpenBabel02271912143D
libRbt.so/2013.1/901 2013/11/27
 12 12  0  0  0  0  0  0  0  0999 V2000
  -22.2818  -10.6305   95.8894 C   0  0  0  0  0  0  0  0  0  0  0  0
  -19.1194   -6.2597   94.8066 C   0  0  0  0  0  0  0  0  0  0  0  0
  -19.7120  -10.8869   95.1391 N   0  0  0  0  0  0  0  0  0  0  0  0
  -23.6930  -10.4992   95.4996 N   0  0  0  0  0  0  0  0  0  0  0  0
  -24.2825  -11.4525   95.4800 N   0  0  0  0  0  0  0  0  0  0  0  0
  -24.8709  -12.4062   95.4654 N   0  0  0  0  0  0  0  0  0  0  0  0
  -21.2165   -7.1623   95.4074 N   0  0  0  0  0  0  0  0  0  0  0  0
  -19.9384   -7.3545   95.0554 C   0  0  0  0  0  0  0  0  0  0  0  0
  -19.4544   -8.5922   94.8738 N   0  0  0  0  0  0  0  0  0  0  0  0
  -20.2342   -9.6685   95.0519 C   0  0  0  0  0  0  0  0  0  0  0  0
  -21.5657   -9.5332   95.4274 C   0  0  0  0  0  0  0  0  0  0  0  0
  -22.0749   -8.2515   95.5990 C   0  0  0  0  0  0  0  0  0  0  0  0
  1 11  1  0  0  0  0
  1  4  1  0  0  0  0
  2  8  1  0  0  0  0
  3 10  1  0  0  0  0
  4  5  1  0  0  0  0
  5  6  1  0  0  0  0
  7  8  2  0  0  0  0
  7 12  1  0  0  0  0
  8  9  1  0  0  0  0
  9 10  2  0  0  0  0
 10 11  1  0  0  0  0
 11 12  2  0  0  0  0
M  END
>  <CHROM.1>
-147.70428730,158.77874384,59.71880578,-21.55057173,-9.40576268,95.30600994
-2.38452472,0.12698641,0.00618531

>  <Name>
ligand

>  <RI>
0

>  <Rbt.Current_Directory>
/home/itssahil/PROJECTS/Mol_Feturizer/Test_systems_manuscript/rnas/4nya

>  <Rbt.Executable>
rbdock ($Id: //depot/dev/client3/rdock/2013.1/src/exe/rbdock.cxx#4 $)

>  <Rbt.Library>
libRbt.so (2013.1, Build901 2013/11/27)

>  <Rbt.Parameter_File>
/export/apps/rDock/src/rDock_2013.1_src/data/scripts/dock_solv.prm

>  <Rbt.Receptor>
prm/blind_docking_100.prm

>  <SCORE>
-12.8316

>  <SCORE.INTER>
-11.6977

>  <SCORE.INTER.CONST>
1

>  <SCORE.INTER.POLAR>
0

>  <SCORE.INTER.ROT>
3

>  <SCORE.INTER.SOLV>
13.7971

>  <SCORE.INTER.VDW>
-17.9975

>  <SCORE.INTER.norm>
-0.974808

>  <SCORE.INTRA>
-1.13391

>  <SCORE.INTRA.DIHEDRAL>
-1.85033

>  <SCORE.INTRA.DIHEDRAL.0>
3.34563

>  <SCORE.INTRA.POLAR>
0

>  <SCORE.INTRA.POLAR.0>
0

>  <SCORE.INTRA.REPUL>
0

>  <SCORE.INTRA.REPUL.0>
0

>  <SCORE.INTRA.SOLV>
-1.24648

>  <SCORE.INTRA.SOLV.lig_0>
-59.746

>  <SCORE.INTRA.VDW>
0.414496

>  <SCORE.INTRA.VDW.0>
-0.691186

>  <SCORE.INTRA.norm>
-0.0944924

>  <SCORE.RESTR>
0

>  <SCORE.RESTR.CAVITY>
0

>  <SCORE.RESTR.norm>
0

>  <SCORE.SYSTEM>
0

>  <SCORE.SYSTEM.CONST>
0

>  <SCORE.SYSTEM.DIHEDRAL>
0

>  <SCORE.SYSTEM.SOLV>
0

>  <SCORE.SYSTEM.norm>
0

>  <SCORE.heavy>
12

>  <SCORE.norm>
-1.0693

>  <RMSD>
0.959

$$$$
ligand
 OpenBabel02271912143D
libRbt.so/2013.1/901 2013/11/27
 12 12  0  0  0  0  0  0  0  0999 V2000
  -22.1235  -10.7712   95.8874 C   0  0  0  0  0  0  0  0  0  0  0  0
  -19.2599   -6.1888   94.8482 C   0  0  0  0  0  0  0  0  0  0  0  0
  -19.5346  -10.8470   95.1629 N   0  0  0  0  0  0  0  0  0  0  0  0
  -23.5731  -10.6360   95.6855 N   0  0  0  0  0  0  0  0  0  0  0  0
  -24.1881  -11.5312   95.9634 N   0  0  0  0  0  0  0  0  0  0  0  0
  -24.8068  -12.4241   96.2387 N   0  0  0  0  0  0  0  0  0  0  0  0
  -21.2956   -7.2361   95.4252 N   0  0  0  0  0  0  0  0  0  0  0  0
  -20.0038   -7.3384   95.0858 C   0  0  0  0  0  0  0  0  0  0  0  0
  -19.4336   -8.5391   94.9061 N   0  0  0  0  0  0  0  0  0  0  0  0
  -20.1389   -9.6673   95.0734 C   0  0  0  0  0  0  0  0  0  0  0  0
  -21.4803   -9.6255   95.4356 C   0  0  0  0  0  0  0  0  0  0  0  0
  -22.0785   -8.3826   95.6052 C   0  0  0  0  0  0  0  0  0  0  0  0
  1 11  1  0  0  0  0
  1  4  1  0  0  0  0
  2  8  1  0  0  0  0
  3 10  1  0  0  0  0
  4  5  1  0  0  0  0
  5  6  1  0  0  0  0
  7  8  2  0  0  0  0
  7 12  1  0  0  0  0
  8  9  1  0  0  0  0
  9 10  2  0  0  0  0
 10 11  1  0  0  0  0
 11 12  2  0  0  0  0
M  END
>  <CHROM.1>
-157.17360952,176.68685223,-166.96658782,-21.50701192,-9.44537268,95.44647116
-2.36467075,0.19326816,-0.03676336

>  <Name>
ligand

>  <RI>
0

>  <Rbt.Current_Directory>
/home/itssahil/PROJECTS/Mol_Feturizer/Test_systems_manuscript/rnas/4nya

>  <Rbt.Executable>
rbdock ($Id: //depot/dev/client3/rdock/2013.1/src/exe/rbdock.cxx#4 $)

>  <Rbt.Library>
libRbt.so (2013.1, Build901 2013/11/27)

>  <Rbt.Parameter_File>
/export/apps/rDock/src/rDock_2013.1_src/data/scripts/dock_solv.prm

>  <Rbt.Receptor>
prm/pocket_docking_6.prm

>  <SCORE>
-12.8518

>  <SCORE.INTER>
-11.6857

>  <SCORE.INTER.CONST>
1

>  <SCORE.INTER.POLAR>
0

>  <SCORE.INTER.ROT>
3

>  <SCORE.INTER.SOLV>
14.4521

>  <SCORE.INTER.VDW>
-18.2078

>  <SCORE.INTER.norm>
-0.97381

>  <SCORE.INTRA>
-1.16612

>  <SCORE.INTRA.DIHEDRAL>
-2.19467

>  <SCORE.INTRA.DIHEDRAL.0>
3.34563

>  <SCORE.INTRA.POLAR>
0

>  <SCORE.INTRA.POLAR.0>
0

>  <SCORE.INTRA.REPUL>
0

>  <SCORE.INTRA.REPUL.0>
0

>  <SCORE.INTRA.SOLV>
-1.29905

>  <SCORE.INTRA.SOLV.lig_0>
-59.746

>  <SCORE.INTRA.VDW>
0.580746

>  <SCORE.INTRA.VDW.0>
-0.691186

>  <SCORE.INTRA.norm>
-0.0971763

>  <SCORE.RESTR>
0

>  <SCORE.RESTR.CAVITY>
0

>  <SCORE.RESTR.norm>
0

>  <SCORE.SYSTEM>
0

>  <SCORE.SYSTEM.CONST>
0

>  <SCORE.SYSTEM.DIHEDRAL>
0

>  <SCORE.SYSTEM.SOLV>
0

>  <SCORE.SYSTEM.norm>
0

>  <SCORE.heavy>
12

>  <SCORE.norm>
-1.07099

>  <RMSD>
0.959

$$$$
ligand
 OpenBabel02271912143D
libRbt.so/2013.1/901 2013/11/27
 12 12  0  0  0  0  0  0  0  0999 V2000
  -22.2555  -10.6414   96.0135 C   0  0  0  0  0  0  0  0  0  0  0  0
  -19.1242   -6.3120   94.6986 C   0  0  0  0  0  0  0  0  0  0  0  0
  -19.7410  -10.9303   95.1043 N   0  0  0  0  0  0  0  0  0  0  0  0
  -23.4024  -10.9486   95.1470 N   0  0  0  0  0  0  0  0  0  0  0  0
  -23.9021  -11.9346   95.3336 N   0  0  0  0  0  0  0  0  0  0  0  0
  -24.3972  -12.9227   95.5195 N   0  0  0  0  0  0  0  0  0  0  0  0
  -21.1880   -7.1882   95.4378 N   0  0  0  0  0  0  0  0  0  0  0  0
  -19.9368   -7.3963   95.0072 C   0  0  0  0  0  0  0  0  0  0  0  0
  -19.4777   -8.6403   94.8052 N   0  0  0  0  0  0  0  0  0  0  0  0
  -20.2555   -9.7071   95.0406 C   0  0  0  0  0  0  0  0  0  0  0  0
  -21.5591   -9.5551   95.4985 C   0  0  0  0  0  0  0  0  0  0  0  0
  -22.0434   -8.2669   95.6918 C   0  0  0  0  0  0  0  0  0  0  0  0
  1 11  1  0  0  0  0
  1  4  1  0  0  0  0
  2  8  1  0  0  0  0
  3 10  1  0  0  0  0
  4  5  1  0  0  0  0
  5  6  1  0  0  0  0
  7  8  2  0  0  0  0
  7 12  1  0  0  0  0
  8  9  1  0  0  0  0
  9 10  2  0  0  0  0
 10 11  1  0  0  0  0
 11 12  2  0  0  0  0
M  END
>  <CHROM.1>
-115.10436966,167.05388307,-56.05961402,-21.44992108,-9.55643640,95.26949374
2.28354707,-0.15941182,-3.11135778

>  <Name>
ligand

>  <RI>
0

>  <Rbt.Current_Directory>
/home/itssahil/PROJECTS/Mol_Feturizer/Test_systems_manuscript/rnas/4nya

>  <Rbt.Executable>
rbdock ($Id: //depot/dev/client3/rdock/2013.1/src/exe/rbdock.cxx#4 $)

>  <Rbt.Library>
libRbt.so (2013.1, Build901 2013/11/27)

>  <Rbt.Parameter_File>
/export/apps/rDock/src/rDock_2013.1_src/data/scripts/dock_solv.prm

>  <Rbt.Receptor>
prm/pocket_docking_3.prm

>  <SCORE>
-12.157

>  <SCORE.INTER>
-11.3504

>  <SCORE.INTER.CONST>
1

>  <SCORE.INTER.POLAR>
0

>  <SCORE.INTER.ROT>
3

>  <SCORE.INTER.SOLV>
14.6137

>  <SCORE.INTER.VDW>
-18.0381

>  <SCORE.INTER.norm>
-0.945863

>  <SCORE.INTRA>
-0.806679

>  <SCORE.INTRA.DIHEDRAL>
-1.19444

>  <SCORE.INTRA.DIHEDRAL.0>
3.34563

>  <SCORE.INTRA.POLAR>
0

>  <SCORE.INTRA.POLAR.0>
0

>  <SCORE.INTRA.REPUL>
0

>  <SCORE.INTRA.REPUL.0>
0

>  <SCORE.INTRA.SOLV>
-0.680458

>  <SCORE.INTRA.SOLV.lig_0>
-59.746

>  <SCORE.INTRA.VDW>
0.13077

>  <SCORE.INTRA.VDW.0>
-0.691186

>  <SCORE.INTRA.norm>
-0.0672233

>  <SCORE.RESTR>
0

>  <SCORE.RESTR.CAVITY>
0

>  <SCORE.RESTR.norm>
0

>  <SCORE.SYSTEM>
0

>  <SCORE.SYSTEM.CONST>
0

>  <SCORE.SYSTEM.DIHEDRAL>
0

>  <SCORE.SYSTEM.SOLV>
0

>  <SCORE.SYSTEM.norm>
0

>  <SCORE.heavy>
12

>  <SCORE.norm>
-1.01309

>  <RMSD>
0.961

$$$$
ligand
 OpenBabel02271912143D
libRbt.so/2013.1/901 2013/11/27
 12 12  0  0  0  0  0  0  0  0999 V2000
  -22.2730  -10.6213   95.8445 C   0  0  0  0  0  0  0  0  0  0  0  0
  -19.0800   -6.2588   94.8194 C   0  0  0  0  0  0  0  0  0  0  0  0
  -19.7054  -10.8858   95.0893 N   0  0  0  0  0  0  0  0  0  0  0  0
  -23.6721  -10.5012   95.4102 N   0  0  0  0  0  0  0  0  0  0  0  0
  -24.2786  -11.4428   95.4589 N   0  0  0  0  0  0  0  0  0  0  0  0
  -24.8816  -12.3863   95.5044 N   0  0  0  0  0  0  0  0  0  0  0  0
  -21.1832   -7.1545   95.4091 N   0  0  0  0  0  0  0  0  0  0  0  0
  -19.9067   -7.3510   95.0537 C   0  0  0  0  0  0  0  0  0  0  0  0
  -19.4316   -8.5895   94.8551 N   0  0  0  0  0  0  0  0  0  0  0  0
  -20.2190   -9.6626   95.0189 C   0  0  0  0  0  0  0  0  0  0  0  0
  -21.5493   -9.5229   95.3970 C   0  0  0  0  0  0  0  0  0  0  0  0
  -22.0492   -8.2401   95.5864 C   0  0  0  0  0  0  0  0  0  0  0  0
  1 11  1  0  0  0  0
  1  4  1  0  0  0  0
  2  8  1  0  0  0  0
  3 10  1  0  0  0  0
  4  5  1  0  0  0  0
  5  6  1  0  0  0  0
  7  8  2  0  0  0  0
  7 12  1  0  0  0  0
  8  9  1  0  0  0  0
  9 10  2  0  0  0  0
 10 11  1  0  0  0  0
 11 12  2  0  0  0  0
M  END
>  <CHROM.1>
-145.41844596,163.56650490,-58.11502160,-21.53280031,-9.39917740,95.28549449
-2.38978761,0.13230677,0.01590470

>  <Name>
ligand

>  <RI>
0

>  <Rbt.Current_Directory>
/home/itssahil/PROJECTS/Mol_Feturizer/Test_systems_manuscript/rnas/4nya

>  <Rbt.Executable>
rbdock ($Id: //depot/dev/client3/rdock/2013.1/src/exe/rbdock.cxx#4 $)

>  <Rbt.Library>
libRbt.so (2013.1, Build901 2013/11/27)

>  <Rbt.Parameter_File>
/export/apps/rDock/src/rDock_2013.1_src/data/scripts/dock_solv.prm

>  <Rbt.Receptor>
prm/blind_docking_100.prm

>  <SCORE>
-12.7738

>  <SCORE.INTER>
-11.5724

>  <SCORE.INTER.CONST>
1

>  <SCORE.INTER.POLAR>
0

>  <SCORE.INTER.ROT>
3

>  <SCORE.INTER.SOLV>
13.9703

>  <SCORE.INTER.VDW>
-17.9717

>  <SCORE.INTER.norm>
-0.964369

>  <SCORE.INTRA>
-1.2014

>  <SCORE.INTRA.DIHEDRAL>
-1.93894

>  <SCORE.INTRA.DIHEDRAL.0>
3.34563

>  <SCORE.INTRA.POLAR>
0

>  <SCORE.INTRA.POLAR.0>
0

>  <SCORE.INTRA.REPUL>
0

>  <SCORE.INTRA.REPUL.0>
0

>  <SCORE.INTRA.SOLV>
-1.23511

>  <SCORE.INTRA.SOLV.lig_0>
-59.746

>  <SCORE.INTRA.VDW>
0.385623

>  <SCORE.INTRA.VDW.0>
-0.691186

>  <SCORE.INTRA.norm>
-0.100117

>  <SCORE.RESTR>
0

>  <SCORE.RESTR.CAVITY>
0

>  <SCORE.RESTR.norm>
0

>  <SCORE.SYSTEM>
0

>  <SCORE.SYSTEM.CONST>
0

>  <SCORE.SYSTEM.DIHEDRAL>
0

>  <SCORE.SYSTEM.SOLV>
0

>  <SCORE.SYSTEM.norm>
0

>  <SCORE.heavy>
12

>  <SCORE.norm>
-1.06449

>  <RMSD>
0.972

$$$$
ligand
 OpenBabel02271912143D
libRbt.so/2013.1/901 2013/11/27
 12 12  0  0  0  0  0  0  0  0999 V2000
  -22.1290  -10.6669   95.9036 C   0  0  0  0  0  0  0  0  0  0  0  0
  -19.1906   -6.1534   94.7756 C   0  0  0  0  0  0  0  0  0  0  0  0
  -19.5611  -10.8031   95.1162 N   0  0  0  0  0  0  0  0  0  0  0  0
  -23.5135  -10.6753   95.4099 N   0  0  0  0  0  0  0  0  0  0  0  0
  -24.1440  -11.5391   95.7459 N   0  0  0  0  0  0  0  0  0  0  0  0
  -24.7782  -12.4010   96.0790 N   0  0  0  0  0  0  0  0  0  0  0  0
  -21.2343   -7.1529   95.4066 N   0  0  0  0  0  0  0  0  0  0  0  0
  -19.9538   -7.2852   95.0361 C   0  0  0  0  0  0  0  0  0  0  0  0
  -19.4151   -8.4990   94.8474 N   0  0  0  0  0  0  0  0  0  0  0  0
  -20.1410   -9.6106   95.0366 C   0  0  0  0  0  0  0  0  0  0  0  0
  -21.4718   -9.5375   95.4313 C   0  0  0  0  0  0  0  0  0  0  0  0
  -22.0379   -8.2809   95.6104 C   0  0  0  0  0  0  0  0  0  0  0  0
  1 11  1  0  0  0  0
  1  4  1  0  0  0  0
  2  8  1  0  0  0  0
  3 10  1  0  0  0  0
  4  5  1  0  0  0  0
  5  6  1  0  0  0  0
  7  8  2  0  0  0  0
  7 12  1  0  0  0  0
  8  9  1  0  0  0  0
  9 10  2  0  0  0  0
 10 11  1  0  0  0  0
 11 12  2  0  0  0  0
M  END
>  <CHROM.1>
-141.53969776,-179.04321971,-177.81985946,-21.47767021,-9.39824093,95.36719648
-2.35624771,0.17517322,-0.02475364

>  <Name>
ligand

>  <RI>
0

>  <Rbt.Current_Directory>
/home/itssahil/PROJECTS/Mol_Feturizer/Test_systems_manuscript/rnas/4nya

>  <Rbt.Executable>
rbdock ($Id: //depot/dev/client3/rdock/2013.1/src/exe/rbdock.cxx#4 $)

>  <Rbt.Library>
libRbt.so (2013.1, Build901 2013/11/27)

>  <Rbt.Parameter_File>
/export/apps/rDock/src/rDock_2013.1_src/data/scripts/dock_solv.prm

>  <Rbt.Receptor>
prm/pocket_docking_3.prm

>  <SCORE>
-13.027

>  <SCORE.INTER>
-11.7488

>  <SCORE.INTER.CONST>
1

>  <SCORE.INTER.POLAR>
0

>  <SCORE.INTER.ROT>
3

>  <SCORE.INTER.SOLV>
14.6731

>  <SCORE.INTER.VDW>
-18.3236

>  <SCORE.INTER.norm>
-0.979066

>  <SCORE.INTRA>
-1.27824

>  <SCORE.INTRA.DIHEDRAL>
-2.07084

>  <SCORE.INTRA.DIHEDRAL.0>
3.34563

>  <SCORE.INTRA.POLAR>
0

>  <SCORE.INTRA.POLAR.0>
0

>  <SCORE.INTRA.REPUL>
0

>  <SCORE.INTRA.REPUL.0>
0

>  <SCORE.INTRA.SOLV>
-1.19419

>  <SCORE.INTRA.SOLV.lig_0>
-59.746

>  <SCORE.INTRA.VDW>
0.354269

>  <SCORE.INTRA.VDW.0>
-0.691186

>  <SCORE.INTRA.norm>
-0.10652

>  <SCORE.RESTR>
0

>  <SCORE.RESTR.CAVITY>
0

>  <SCORE.RESTR.norm>
0

>  <SCORE.SYSTEM>
0

>  <SCORE.SYSTEM.CONST>
0

>  <SCORE.SYSTEM.DIHEDRAL>
0

>  <SCORE.SYSTEM.SOLV>
0

>  <SCORE.SYSTEM.norm>
0

>  <SCORE.heavy>
12

>  <SCORE.norm>
-1.08559

>  <RMSD>
0.982

$$$$
ligand
 OpenBabel02271912143D
libRbt.so/2013.1/901 2013/11/27
 12 12  0  0  0  0  0  0  0  0999 V2000
  -22.1319  -10.6664   95.8960 C   0  0  0  0  0  0  0  0  0  0  0  0
  -19.1801   -6.1578   94.7835 C   0  0  0  0  0  0  0  0  0  0  0  0
  -19.5611  -10.8071   95.1186 N   0  0  0  0  0  0  0  0  0  0  0  0
  -23.5210  -10.6600   95.4155 N   0  0  0  0  0  0  0  0  0  0  0  0
  -24.1503  -11.5305   95.7365 N   0  0  0  0  0  0  0  0  0  0  0  0
  -24.7832  -12.3989   96.0547 N   0  0  0  0  0  0  0  0  0  0  0  0
  -21.2282   -7.1538   95.4056 N   0  0  0  0  0  0  0  0  0  0  0  0
  -19.9466   -7.2883   95.0400 C   0  0  0  0  0  0  0  0  0  0  0  0
  -19.4095   -8.5030   94.8524 N   0  0  0  0  0  0  0  0  0  0  0  0
  -20.1384   -9.6133   95.0378 C   0  0  0  0  0  0  0  0  0  0  0  0
  -21.4706   -9.5379   95.4273 C   0  0  0  0  0  0  0  0  0  0  0  0
  -22.0348   -8.2804   95.6053 C   0  0  0  0  0  0  0  0  0  0  0  0
  1 11  1  0  0  0  0
  1  4  1  0  0  0  0
  2  8  1  0  0  0  0
  3 10  1  0  0  0  0
  4  5  1  0  0  0  0
  5  6  1  0  0  0  0
  7  8  2  0  0  0  0
  7 12  1  0  0  0  0
  8  9  1  0  0  0  0
  9 10  2  0  0  0  0
 10 11  1  0  0  0  0
 11 12  2  0  0  0  0
M  END
>  <CHROM.1>
-142.48730552,-179.97783720,-176.40730989,-21.47650918,-9.39754954,95.36508928
-2.35887918,0.17200082,-0.02367915

>  <Name>
ligand

>  <RI>
0

>  <Rbt.Current_Directory>
/home/itssahil/PROJECTS/Mol_Feturizer/Test_systems_manuscript/rnas/4nya

>  <Rbt.Executable>
rbdock ($Id: //depot/dev/client3/rdock/2013.1/src/exe/rbdock.cxx#4 $)

>  <Rbt.Library>
libRbt.so (2013.1, Build901 2013/11/27)

>  <Rbt.Parameter_File>
/export/apps/rDock/src/rDock_2013.1_src/data/scripts/dock_solv.prm

>  <Rbt.Receptor>
prm/pocket_docking_3.prm

>  <SCORE>
-13.025

>  <SCORE.INTER>
-11.7437

>  <SCORE.INTER.CONST>
1

>  <SCORE.INTER.POLAR>
0

>  <SCORE.INTER.ROT>
3

>  <SCORE.INTER.SOLV>
14.6495

>  <SCORE.INTER.VDW>
-18.3123

>  <SCORE.INTER.norm>
-0.97864

>  <SCORE.INTRA>
-1.28131

>  <SCORE.INTRA.DIHEDRAL>
-2.08955

>  <SCORE.INTRA.DIHEDRAL.0>
3.34563

>  <SCORE.INTRA.POLAR>
0

>  <SCORE.INTRA.POLAR.0>
0

>  <SCORE.INTRA.REPUL>
0

>  <SCORE.INTRA.REPUL.0>
0

>  <SCORE.INTRA.SOLV>
-1.20387

>  <SCORE.INTRA.SOLV.lig_0>
-59.746

>  <SCORE.INTRA.VDW>
0.365399

>  <SCORE.INTRA.VDW.0>
-0.691186

>  <SCORE.INTRA.norm>
-0.106776

>  <SCORE.RESTR>
0

>  <SCORE.RESTR.CAVITY>
0

>  <SCORE.RESTR.norm>
0

>  <SCORE.SYSTEM>
0

>  <SCORE.SYSTEM.CONST>
0

>  <SCORE.SYSTEM.DIHEDRAL>
0

>  <SCORE.SYSTEM.SOLV>
0

>  <SCORE.SYSTEM.norm>
0

>  <SCORE.heavy>
12

>  <SCORE.norm>
-1.08542

>  <RMSD>
0.983

$$$$
ligand
 OpenBabel02271912143D
libRbt.so/2013.1/901 2013/11/27
 12 12  0  0  0  0  0  0  0  0999 V2000
  -22.3974  -10.4974   95.8199 C   0  0  0  0  0  0  0  0  0  0  0  0
  -19.0414   -6.2651   94.7698 C   0  0  0  0  0  0  0  0  0  0  0  0
  -19.7985  -10.8574   95.2292 N   0  0  0  0  0  0  0  0  0  0  0  0
  -23.5948  -10.6325   94.9781 N   0  0  0  0  0  0  0  0  0  0  0  0
  -24.4964  -11.0684   95.4820 N   0  0  0  0  0  0  0  0  0  0  0  0
  -25.3979  -11.5002   95.9888 N   0  0  0  0  0  0  0  0  0  0  0  0
  -21.1969   -7.0824   95.2794 N   0  0  0  0  0  0  0  0  0  0  0  0
  -19.9076   -7.3252   95.0089 C   0  0  0  0  0  0  0  0  0  0  0  0
  -19.4536   -8.5826   94.8991 N   0  0  0  0  0  0  0  0  0  0  0  0
  -20.2761   -9.6280   95.0693 C   0  0  0  0  0  0  0  0  0  0  0  0
  -21.6218   -9.4395   95.3620 C   0  0  0  0  0  0  0  0  0  0  0  0
  -22.0989   -8.1378   95.4589 C   0  0  0  0  0  0  0  0  0  0  0  0
  1 11  1  0  0  0  0
  1  4  1  0  0  0  0
  2  8  1  0  0  0  0
  3 10  1  0  0  0  0
  4  5  1  0  0  0  0
  5  6  1  0  0  0  0
  7  8  2  0  0  0  0
  7 12  1  0  0  0  0
  8  9  1  0  0  0  0
  9 10  2  0  0  0  0
 10 11  1  0  0  0  0
 11 12  2  0  0  0  0
M  END
>  <CHROM.1>
-126.69959824,-151.72890731,63.61266826,-21.62174891,-9.26313733,95.27828569
-2.47597623,0.11032926,-0.03799287

>  <Name>
ligand

>  <RI>
0

>  <Rbt.Current_Directory>
/home/itssahil/PROJECTS/Mol_Feturizer/Test_systems_manuscript/rnas/4nya

>  <Rbt.Executable>
rbdock ($Id: //depot/dev/client3/rdock/2013.1/src/exe/rbdock.cxx#4 $)

>  <Rbt.Library>
libRbt.so (2013.1, Build901 2013/11/27)

>  <Rbt.Parameter_File>
/export/apps/rDock/src/rDock_2013.1_src/data/scripts/dock_solv.prm

>  <Rbt.Receptor>
prm/blind_docking_100.prm

>  <SCORE>
-12.0213

>  <SCORE.INTER>
-11.1752

>  <SCORE.INTER.CONST>
1

>  <SCORE.INTER.POLAR>
0

>  <SCORE.INTER.ROT>
3

>  <SCORE.INTER.SOLV>
14.2475

>  <SCORE.INTER.VDW>
-17.7993

>  <SCORE.INTER.norm>
-0.931268

>  <SCORE.INTRA>
-0.846043

>  <SCORE.INTRA.DIHEDRAL>
-1.11422

>  <SCORE.INTRA.DIHEDRAL.0>
3.34563

>  <SCORE.INTRA.POLAR>
0

>  <SCORE.INTRA.POLAR.0>
0

>  <SCORE.INTRA.REPUL>
0

>  <SCORE.INTRA.REPUL.0>
0

>  <SCORE.INTRA.SOLV>
-0.929118

>  <SCORE.INTRA.SOLV.lig_0>
-59.746

>  <SCORE.INTRA.VDW>
0.175624

>  <SCORE.INTRA.VDW.0>
-0.691186

>  <SCORE.INTRA.norm>
-0.0705036

>  <SCORE.RESTR>
0

>  <SCORE.RESTR.CAVITY>
0

>  <SCORE.RESTR.norm>
0

>  <SCORE.SYSTEM>
0

>  <SCORE.SYSTEM.CONST>
0

>  <SCORE.SYSTEM.DIHEDRAL>
0

>  <SCORE.SYSTEM.SOLV>
0

>  <SCORE.SYSTEM.norm>
0

>  <SCORE.heavy>
12

>  <SCORE.norm>
-1.00177

>  <RMSD>
0.987

$$$$
ligand
 OpenBabel02271912143D
libRbt.so/2013.1/901 2013/11/27
 12 12  0  0  0  0  0  0  0  0999 V2000
  -22.1552  -10.7213   95.9693 C   0  0  0  0  0  0  0  0  0  0  0  0
  -19.1669   -6.2531   94.7933 C   0  0  0  0  0  0  0  0  0  0  0  0
  -19.6279  -10.8991   95.0671 N   0  0  0  0  0  0  0  0  0  0  0  0
  -23.6018  -10.5713   95.7566 N   0  0  0  0  0  0  0  0  0  0  0  0
  -24.2366  -11.4233   96.1144 N   0  0  0  0  0  0  0  0  0  0  0  0
  -24.8752  -12.2726   96.4704 N   0  0  0  0  0  0  0  0  0  0  0  0
  -21.2033   -7.2191   95.4960 N   0  0  0  0  0  0  0  0  0  0  0  0
  -19.9436   -7.3725   95.0670 C   0  0  0  0  0  0  0  0  0  0  0  0
  -19.4414   -8.5941   94.8332 N   0  0  0  0  0  0  0  0  0  0  0  0
  -20.1835   -9.6928   95.0344 C   0  0  0  0  0  0  0  0  0  0  0  0
  -21.4937   -9.5980   95.4887 C   0  0  0  0  0  0  0  0  0  0  0  0
  -22.0226   -8.3328   95.7150 C   0  0  0  0  0  0  0  0  0  0  0  0
  1 11  1  0  0  0  0
  1  4  1  0  0  0  0
  2  8  1  0  0  0  0
  3 10  1  0  0  0  0
  4  5  1  0  0  0  0
  5  6  1  0  0  0  0
  7  8  2  0  0  0  0
  7 12  1  0  0  0  0
  8  9  1  0  0  0  0
  9 10  2  0  0  0  0
 10 11  1  0  0  0  0
 11 12  2  0  0  0  0
M  END
>  <CHROM.1>
-152.02115302,-179.68406828,-178.20343792,-21.51019683,-9.42539186,95.48723181
-2.40296981,0.25365887,-0.01209675

>  <Name>
ligand

>  <RI>
0

>  <Rbt.Current_Directory>
/home/itssahil/PROJECTS/Mol_Feturizer/Test_systems_manuscript/rnas/4nya

>  <Rbt.Executable>
rbdock ($Id: //depot/dev/client3/rdock/2013.1/src/exe/rbdock.cxx#4 $)

>  <Rbt.Library>
libRbt.so (2013.1, Build901 2013/11/27)

>  <Rbt.Parameter_File>
/export/apps/rDock/src/rDock_2013.1_src/data/scripts/dock_solv.prm

>  <Rbt.Receptor>
prm/pocket_docking_2.prm

>  <SCORE>
-12.9227

>  <SCORE.INTER>
-11.669

>  <SCORE.INTER.CONST>
1

>  <SCORE.INTER.POLAR>
0

>  <SCORE.INTER.ROT>
3

>  <SCORE.INTER.SOLV>
14.1309

>  <SCORE.INTER.VDW>
-18.0896

>  <SCORE.INTER.norm>
-0.972417

>  <SCORE.INTRA>
-1.2537

>  <SCORE.INTRA.DIHEDRAL>
-2.22972

>  <SCORE.INTRA.DIHEDRAL.0>
3.34563

>  <SCORE.INTRA.POLAR>
0

>  <SCORE.INTRA.POLAR.0>
0

>  <SCORE.INTRA.REPUL>
0

>  <SCORE.INTRA.REPUL.0>
0

>  <SCORE.INTRA.SOLV>
-1.26897

>  <SCORE.INTRA.SOLV.lig_0>
-59.746

>  <SCORE.INTRA.VDW>
0.495644

>  <SCORE.INTRA.VDW.0>
-0.691186

>  <SCORE.INTRA.norm>
-0.104475

>  <SCORE.RESTR>
0

>  <SCORE.RESTR.CAVITY>
0

>  <SCORE.RESTR.norm>
0

>  <SCORE.SYSTEM>
0

>  <SCORE.SYSTEM.CONST>
0

>  <SCORE.SYSTEM.DIHEDRAL>
0

>  <SCORE.SYSTEM.SOLV>
0

>  <SCORE.SYSTEM.norm>
0

>  <SCORE.heavy>
12

>  <SCORE.norm>
-1.07689

>  <RMSD>
0.987

$$$$
ligand
 OpenBabel02271912143D
libRbt.so/2013.1/901 2013/11/27
 12 12  0  0  0  0  0  0  0  0999 V2000
  -22.1049  -10.7060   95.8745 C   0  0  0  0  0  0  0  0  0  0  0  0
  -19.1956   -6.1627   94.7921 C   0  0  0  0  0  0  0  0  0  0  0  0
  -19.5665  -10.8205   94.9933 N   0  0  0  0  0  0  0  0  0  0  0  0
  -23.5204  -10.6676   95.4802 N   0  0  0  0  0  0  0  0  0  0  0  0
  -24.1238  -11.5740   95.7467 N   0  0  0  0  0  0  0  0  0  0  0  0
  -24.7260  -12.4794   96.0180 N   0  0  0  0  0  0  0  0  0  0  0  0
  -21.2185   -7.1790   95.4615 N   0  0  0  0  0  0  0  0  0  0  0  0
  -19.9522   -7.3012   95.0421 C   0  0  0  0  0  0  0  0  0  0  0  0
  -19.4238   -8.5090   94.7950 N   0  0  0  0  0  0  0  0  0  0  0  0
  -20.1457   -9.6250   94.9732 C   0  0  0  0  0  0  0  0  0  0  0  0
  -21.4616   -9.5628   95.4166 C   0  0  0  0  0  0  0  0  0  0  0  0
  -22.0175   -8.3119   95.6565 C   0  0  0  0  0  0  0  0  0  0  0  0
  1 11  1  0  0  0  0
  1  4  1  0  0  0  0
  2  8  1  0  0  0  0
  3 10  1  0  0  0  0
  4  5  1  0  0  0  0
  5  6  1  0  0  0  0
  7  8  2  0  0  0  0
  7 12  1  0  0  0  0
  8  9  1  0  0  0  0
  9 10  2  0  0  0  0
 10 11  1  0  0  0  0
 11 12  2  0  0  0  0
M  END
>  <CHROM.1>
-144.00753387,176.51361818,59.02167248,-21.46814537,-9.42278653,95.35467602
-2.35534304,0.20786889,0.01012574

>  <Name>
ligand

>  <RI>
0

>  <Rbt.Current_Directory>
/home/itssahil/PROJECTS/Mol_Feturizer/Test_systems_manuscript/rnas/4nya

>  <Rbt.Executable>
rbdock ($Id: //depot/dev/client3/rdock/2013.1/src/exe/rbdock.cxx#4 $)

>  <Rbt.Library>
libRbt.so (2013.1, Build901 2013/11/27)

>  <Rbt.Parameter_File>
/export/apps/rDock/src/rDock_2013.1_src/data/scripts/dock_solv.prm

>  <Rbt.Receptor>
prm/pocket_docking_3.prm

>  <SCORE>
-12.9613

>  <SCORE.INTER>
-11.6811

>  <SCORE.INTER.CONST>
1

>  <SCORE.INTER.POLAR>
0

>  <SCORE.INTER.ROT>
3

>  <SCORE.INTER.SOLV>
14.6563

>  <SCORE.INTER.VDW>
-18.2729

>  <SCORE.INTER.norm>
-0.973426

>  <SCORE.INTRA>
-1.28017

>  <SCORE.INTRA.DIHEDRAL>
-2.11301

>  <SCORE.INTRA.DIHEDRAL.0>
3.34563

>  <SCORE.INTRA.POLAR>
0

>  <SCORE.INTRA.POLAR.0>
0

>  <SCORE.INTRA.REPUL>
0

>  <SCORE.INTRA.REPUL.0>
0

>  <SCORE.INTRA.SOLV>
-1.21836

>  <SCORE.INTRA.SOLV.lig_0>
-59.746

>  <SCORE.INTRA.VDW>
0.385517

>  <SCORE.INTRA.VDW.0>
-0.691186

>  <SCORE.INTRA.norm>
-0.106681

>  <SCORE.RESTR>
0

>  <SCORE.RESTR.CAVITY>
0

>  <SCORE.RESTR.norm>
0

>  <SCORE.SYSTEM>
0

>  <SCORE.SYSTEM.CONST>
0

>  <SCORE.SYSTEM.DIHEDRAL>
0

>  <SCORE.SYSTEM.SOLV>
0

>  <SCORE.SYSTEM.norm>
0

>  <SCORE.heavy>
12

>  <SCORE.norm>
-1.08011

>  <RMSD>
0.987

$$$$
ligand
 OpenBabel02271912143D
libRbt.so/2013.1/901 2013/11/27
 12 12  0  0  0  0  0  0  0  0999 V2000
  -22.1148  -10.6846   95.8659 C   0  0  0  0  0  0  0  0  0  0  0  0
  -19.1784   -6.1607   94.7753 C   0  0  0  0  0  0  0  0  0  0  0  0
  -19.5589  -10.8146   95.0392 N   0  0  0  0  0  0  0  0  0  0  0  0
  -23.5100  -10.6733   95.4037 N   0  0  0  0  0  0  0  0  0  0  0  0
  -24.1399  -11.5380   95.7386 N   0  0  0  0  0  0  0  0  0  0  0  0
  -24.7736  -12.4007   96.0707 N   0  0  0  0  0  0  0  0  0  0  0  0
  -21.2160   -7.1650   95.4181 N   0  0  0  0  0  0  0  0  0  0  0  0
  -19.9414   -7.2946   95.0268 C   0  0  0  0  0  0  0  0  0  0  0  0
  -19.4094   -8.5065   94.8090 N   0  0  0  0  0  0  0  0  0  0  0  0
  -20.1361   -9.6191   94.9891 C   0  0  0  0  0  0  0  0  0  0  0  0
  -21.4608   -9.5490   95.4042 C   0  0  0  0  0  0  0  0  0  0  0  0
  -22.0201   -8.2941   95.6136 C   0  0  0  0  0  0  0  0  0  0  0  0
  1 11  1  0  0  0  0
  1  4  1  0  0  0  0
  2  8  1  0  0  0  0
  3 10  1  0  0  0  0
  4  5  1  0  0  0  0
  5  6  1  0  0  0  0
  7  8  2  0  0  0  0
  7 12  1  0  0  0  0
  8  9  1  0  0  0  0
  9 10  2  0  0  0  0
 10 11  1  0  0  0  0
 11 12  2  0  0  0  0
M  END
>  <CHROM.1>
-142.11043072,-178.75721314,-175.77685935,-21.46850793,-9.40604395,95.34695010
-2.36135505,0.19208035,-0.00754241

>  <Name>
ligand

>  <RI>
0

>  <Rbt.Current_Directory>
/home/itssahil/PROJECTS/Mol_Feturizer/Test_systems_manuscript/rnas/4nya

>  <Rbt.Executable>
rbdock ($Id: //depot/dev/client3/rdock/2013.1/src/exe/rbdock.cxx#4 $)

>  <Rbt.Library>
libRbt.so (2013.1, Build901 2013/11/27)

>  <Rbt.Parameter_File>
/export/apps/rDock/src/rDock_2013.1_src/data/scripts/dock_solv.prm

>  <Rbt.Receptor>
prm/pocket_docking_3.prm

>  <SCORE>
-13.0513

>  <SCORE.INTER>
-11.7733

>  <SCORE.INTER.CONST>
1

>  <SCORE.INTER.POLAR>
0

>  <SCORE.INTER.ROT>
3

>  <SCORE.INTER.SOLV>
14.7226

>  <SCORE.INTER.VDW>
-18.3564

>  <SCORE.INTER.norm>
-0.98111

>  <SCORE.INTRA>
-1.27796

>  <SCORE.INTRA.DIHEDRAL>
-2.07903

>  <SCORE.INTRA.DIHEDRAL.0>
3.34563

>  <SCORE.INTRA.POLAR>
0

>  <SCORE.INTRA.POLAR.0>
0

>  <SCORE.INTRA.REPUL>
0

>  <SCORE.INTRA.REPUL.0>
0

>  <SCORE.INTRA.SOLV>
-1.19835

>  <SCORE.INTRA.SOLV.lig_0>
-59.746

>  <SCORE.INTRA.VDW>
0.360736

>  <SCORE.INTRA.VDW.0>
-0.691186

>  <SCORE.INTRA.norm>
-0.106496

>  <SCORE.RESTR>
0

>  <SCORE.RESTR.CAVITY>
0

>  <SCORE.RESTR.norm>
0

>  <SCORE.SYSTEM>
0

>  <SCORE.SYSTEM.CONST>
0

>  <SCORE.SYSTEM.DIHEDRAL>
0

>  <SCORE.SYSTEM.SOLV>
0

>  <SCORE.SYSTEM.norm>
0

>  <SCORE.heavy>
12

>  <SCORE.norm>
-1.08761

>  <RMSD>
0.987

$$$$
ligand
 OpenBabel02271912143D
libRbt.so/2013.1/901 2013/11/27
 12 12  0  0  0  0  0  0  0  0999 V2000
  -22.1150  -10.6841   95.8601 C   0  0  0  0  0  0  0  0  0  0  0  0
  -19.1843   -6.1528   94.7849 C   0  0  0  0  0  0  0  0  0  0  0  0
  -19.5447  -10.8065   95.0782 N   0  0  0  0  0  0  0  0  0  0  0  0
  -23.5116  -10.6671   95.4020 N   0  0  0  0  0  0  0  0  0  0  0  0
  -24.1509  -11.5153   95.7605 N   0  0  0  0  0  0  0  0  0  0  0  0
  -24.7940  -12.3615   96.1161 N   0  0  0  0  0  0  0  0  0  0  0  0
  -21.2273   -7.1632   95.4005 N   0  0  0  0  0  0  0  0  0  0  0  0
  -19.9456   -7.2889   95.0320 C   0  0  0  0  0  0  0  0  0  0  0  0
  -19.4035   -8.4995   94.8327 N   0  0  0  0  0  0  0  0  0  0  0  0
  -20.1272   -9.6146   95.0089 C   0  0  0  0  0  0  0  0  0  0  0  0
  -21.4592   -9.5485   95.4009 C   0  0  0  0  0  0  0  0  0  0  0  0
  -22.0287   -8.2951   95.5910 C   0  0  0  0  0  0  0  0  0  0  0  0
  1 11  1  0  0  0  0
  1  4  1  0  0  0  0
  2  8  1  0  0  0  0
  3 10  1  0  0  0  0
  4  5  1  0  0  0  0
  5  6  1  0  0  0  0
  7  8  2  0  0  0  0
  7 12  1  0  0  0  0
  8  9  1  0  0  0  0
  9 10  2  0  0  0  0
 10 11  1  0  0  0  0
 11 12  2  0  0  0  0
M  END
>  <CHROM.1>
-143.51581177,-177.01101487,-177.20214285,-21.47136488,-9.39714413,95.35690244
-2.36377616,0.18360997,-0.01948150

>  <Name>
ligand

>  <RI>
0

>  <Rbt.Current_Directory>
/home/itssahil/PROJECTS/Mol_Feturizer/Test_systems_manuscript/rnas/4nya

>  <Rbt.Executable>
rbdock ($Id: //depot/dev/client3/rdock/2013.1/src/exe/rbdock.cxx#4 $)

>  <Rbt.Library>
libRbt.so (2013.1, Build901 2013/11/27)

>  <Rbt.Parameter_File>
/export/apps/rDock/src/rDock_2013.1_src/data/scripts/dock_solv.prm

>  <Rbt.Receptor>
prm/pocket_docking_2.prm

>  <SCORE>
-13.0343

>  <SCORE.INTER>
-11.7561

>  <SCORE.INTER.CONST>
1

>  <SCORE.INTER.POLAR>
0

>  <SCORE.INTER.ROT>
3

>  <SCORE.INTER.SOLV>
14.7331

>  <SCORE.INTER.VDW>
-18.3484

>  <SCORE.INTER.norm>
-0.979673

>  <SCORE.INTRA>
-1.27822

>  <SCORE.INTRA.DIHEDRAL>
-2.10432

>  <SCORE.INTRA.DIHEDRAL.0>
3.34563

>  <SCORE.INTRA.POLAR>
0

>  <SCORE.INTRA.POLAR.0>
0

>  <SCORE.INTRA.REPUL>
0

>  <SCORE.INTRA.REPUL.0>
0

>  <SCORE.INTRA.SOLV>
-1.20596

>  <SCORE.INTRA.SOLV.lig_0>
-59.746

>  <SCORE.INTRA.VDW>
0.376917

>  <SCORE.INTRA.VDW.0>
-0.691186

>  <SCORE.INTRA.norm>
-0.106519

>  <SCORE.RESTR>
0

>  <SCORE.RESTR.CAVITY>
0

>  <SCORE.RESTR.norm>
0

>  <SCORE.SYSTEM>
0

>  <SCORE.SYSTEM.CONST>
0

>  <SCORE.SYSTEM.DIHEDRAL>
0

>  <SCORE.SYSTEM.SOLV>
0

>  <SCORE.SYSTEM.norm>
0

>  <SCORE.heavy>
12

>  <SCORE.norm>
-1.08619

>  <RMSD>
0.988

$$$$
ligand
 OpenBabel02271912143D
libRbt.so/2013.1/901 2013/11/27
 12 12  0  0  0  0  0  0  0  0999 V2000
  -22.1139  -10.6795   95.8723 C   0  0  0  0  0  0  0  0  0  0  0  0
  -19.1724   -6.1581   94.7847 C   0  0  0  0  0  0  0  0  0  0  0  0
  -19.5504  -10.8109   95.0697 N   0  0  0  0  0  0  0  0  0  0  0  0
  -23.5066  -10.6690   95.4025 N   0  0  0  0  0  0  0  0  0  0  0  0
  -24.1420  -11.5261   95.7465 N   0  0  0  0  0  0  0  0  0  0  0  0
  -24.7739  -12.3863   96.0881 N   0  0  0  0  0  0  0  0  0  0  0  0
  -21.2147   -7.1613   95.4141 N   0  0  0  0  0  0  0  0  0  0  0  0
  -19.9365   -7.2915   95.0352 C   0  0  0  0  0  0  0  0  0  0  0  0
  -19.4012   -8.5039   94.8287 N   0  0  0  0  0  0  0  0  0  0  0  0
  -20.1284   -9.6164   95.0079 C   0  0  0  0  0  0  0  0  0  0  0  0
  -21.4569   -9.5456   95.4106 C   0  0  0  0  0  0  0  0  0  0  0  0
  -22.0195   -8.2903   95.6082 C   0  0  0  0  0  0  0  0  0  0  0  0
  1 11  1  0  0  0  0
  1  4  1  0  0  0  0
  2  8  1  0  0  0  0
  3 10  1  0  0  0  0
  4  5  1  0  0  0  0
  5  6  1  0  0  0  0
  7  8  2  0  0  0  0
  7 12  1  0  0  0  0
  8  9  1  0  0  0  0
  9 10  2  0  0  0  0
 10 11  1  0  0  0  0
 11 12  2  0  0  0  0
M  END
>  <CHROM.1>
-142.37792255,-178.07748600,-58.60467870,-21.46495946,-9.40085068,95.35659681
-2.36193190,0.18544128,-0.01406255

>  <Name>
ligand

>  <RI>
0

>  <Rbt.Current_Directory>
/home/itssahil/PROJECTS/Mol_Feturizer/Test_systems_manuscript/rnas/4nya

>  <Rbt.Executable>
rbdock ($Id: //depot/dev/client3/rdock/2013.1/src/exe/rbdock.cxx#4 $)

>  <Rbt.Library>
libRbt.so (2013.1, Build901 2013/11/27)

>  <Rbt.Parameter_File>
/export/apps/rDock/src/rDock_2013.1_src/data/scripts/dock_solv.prm

>  <Rbt.Receptor>
prm/pocket_docking_4.prm

>  <SCORE>
-13.0553

>  <SCORE.INTER>
-11.7787

>  <SCORE.INTER.CONST>
1

>  <SCORE.INTER.POLAR>
0

>  <SCORE.INTER.ROT>
3

>  <SCORE.INTER.SOLV>
14.7224

>  <SCORE.INTER.VDW>
-18.3599

>  <SCORE.INTER.norm>
-0.981559

>  <SCORE.INTRA>
-1.27657

>  <SCORE.INTRA.DIHEDRAL>
-2.08723

>  <SCORE.INTRA.DIHEDRAL.0>
3.34563

>  <SCORE.INTRA.POLAR>
0

>  <SCORE.INTRA.POLAR.0>
0

>  <SCORE.INTRA.REPUL>
0

>  <SCORE.INTRA.REPUL.0>
0

>  <SCORE.INTRA.SOLV>
-1.19583

>  <SCORE.INTRA.SOLV.lig_0>
-59.746

>  <SCORE.INTRA.VDW>
0.364955

>  <SCORE.INTRA.VDW.0>
-0.691186

>  <SCORE.INTRA.norm>
-0.106381

>  <SCORE.RESTR>
0

>  <SCORE.RESTR.CAVITY>
0

>  <SCORE.RESTR.norm>
0

>  <SCORE.SYSTEM>
0

>  <SCORE.SYSTEM.CONST>
0

>  <SCORE.SYSTEM.DIHEDRAL>
0

>  <SCORE.SYSTEM.SOLV>
0

>  <SCORE.SYSTEM.norm>
0

>  <SCORE.heavy>
12

>  <SCORE.norm>
-1.08794

>  <RMSD>
0.988

$$$$
ligand
 OpenBabel02271912143D
libRbt.so/2013.1/901 2013/11/27
 12 12  0  0  0  0  0  0  0  0999 V2000
  -22.0741  -10.8648   95.9461 C   0  0  0  0  0  0  0  0  0  0  0  0
  -19.3390   -6.2044   94.9083 C   0  0  0  0  0  0  0  0  0  0  0  0
  -19.5565  -10.8752   95.0003 N   0  0  0  0  0  0  0  0  0  0  0  0
  -23.1057  -11.2888   94.9888 N   0  0  0  0  0  0  0  0  0  0  0  0
  -23.6104  -12.2632   95.2180 N   0  0  0  0  0  0  0  0  0  0  0  0
  -24.1103  -13.2396   95.4475 N   0  0  0  0  0  0  0  0  0  0  0  0
  -21.3110   -7.3018   95.6011 N   0  0  0  0  0  0  0  0  0  0  0  0
  -20.0525   -7.3726   95.1478 C   0  0  0  0  0  0  0  0  0  0  0  0
  -19.4924   -8.5562   94.8573 N   0  0  0  0  0  0  0  0  0  0  0  0
  -20.1737   -9.6990   95.0247 C   0  0  0  0  0  0  0  0  0  0  0  0
  -21.4793   -9.6904   95.5018 C   0  0  0  0  0  0  0  0  0  0  0  0
  -22.0684   -8.4644   95.7868 C   0  0  0  0  0  0  0  0  0  0  0  0
  1 11  1  0  0  0  0
  1  4  1  0  0  0  0
  2  8  1  0  0  0  0
  3 10  1  0  0  0  0
  4  5  1  0  0  0  0
  5  6  1  0  0  0  0
  7  8  2  0  0  0  0
  7 12  1  0  0  0  0
  8  9  1  0  0  0  0
  9 10  2  0  0  0  0
 10 11  1  0  0  0  0
 11 12  2  0  0  0  0
M  END
>  <CHROM.1>
-108.94508245,176.47968850,-52.70483882,-21.37246057,-9.67173555,95.27943037
2.20074204,-0.18253949,-3.05982003

>  <Name>
ligand

>  <RI>
0

>  <Rbt.Current_Directory>
/home/itssahil/PROJECTS/Mol_Feturizer/Test_systems_manuscript/rnas/4nya

>  <Rbt.Executable>
rbdock ($Id: //depot/dev/client3/rdock/2013.1/src/exe/rbdock.cxx#4 $)

>  <Rbt.Library>
libRbt.so (2013.1, Build901 2013/11/27)

>  <Rbt.Parameter_File>
/export/apps/rDock/src/rDock_2013.1_src/data/scripts/dock_solv.prm

>  <Rbt.Receptor>
prm/pocket_docking_7.prm

>  <SCORE>
-12.1098

>  <SCORE.INTER>
-11.3505

>  <SCORE.INTER.CONST>
1

>  <SCORE.INTER.POLAR>
0

>  <SCORE.INTER.ROT>
3

>  <SCORE.INTER.SOLV>
15.5898

>  <SCORE.INTER.VDW>
-18.3636

>  <SCORE.INTER.norm>
-0.945877

>  <SCORE.INTRA>
-0.759302

>  <SCORE.INTRA.DIHEDRAL>
-1.17262

>  <SCORE.INTRA.DIHEDRAL.0>
3.34563

>  <SCORE.INTRA.POLAR>
0

>  <SCORE.INTRA.POLAR.0>
0

>  <SCORE.INTRA.REPUL>
0

>  <SCORE.INTRA.REPUL.0>
0

>  <SCORE.INTRA.SOLV>
-0.571069

>  <SCORE.INTRA.SOLV.lig_0>
-59.746

>  <SCORE.INTRA.VDW>
0.112543

>  <SCORE.INTRA.VDW.0>
-0.691186

>  <SCORE.INTRA.norm>
-0.0632752

>  <SCORE.RESTR>
0

>  <SCORE.RESTR.CAVITY>
0

>  <SCORE.RESTR.norm>
0

>  <SCORE.SYSTEM>
0

>  <SCORE.SYSTEM.CONST>
0

>  <SCORE.SYSTEM.DIHEDRAL>
0

>  <SCORE.SYSTEM.SOLV>
0

>  <SCORE.SYSTEM.norm>
0

>  <SCORE.heavy>
12

>  <SCORE.norm>
-1.00915

>  <RMSD>
0.988

$$$$
ligand
 OpenBabel02271912143D
libRbt.so/2013.1/901 2013/11/27
 12 12  0  0  0  0  0  0  0  0999 V2000
  -22.0754  -10.6905   95.9219 C   0  0  0  0  0  0  0  0  0  0  0  0
  -19.2061   -6.1389   94.7697 C   0  0  0  0  0  0  0  0  0  0  0  0
  -19.5120  -10.7930   95.1149 N   0  0  0  0  0  0  0  0  0  0  0  0
  -23.4725  -10.7014   95.4652 N   0  0  0  0  0  0  0  0  0  0  0  0
  -24.0727  -11.6017   95.7585 N   0  0  0  0  0  0  0  0  0  0  0  0
  -24.6767  -12.4998   96.0492 N   0  0  0  0  0  0  0  0  0  0  0  0
  -21.2314   -7.1651   95.4167 N   0  0  0  0  0  0  0  0  0  0  0  0
  -19.9521   -7.2806   95.0365 C   0  0  0  0  0  0  0  0  0  0  0  0
  -19.3988   -8.4872   94.8441 N   0  0  0  0  0  0  0  0  0  0  0  0
  -20.1084   -9.6082   95.0393 C   0  0  0  0  0  0  0  0  0  0  0  0
  -21.4370   -9.5527   95.4442 C   0  0  0  0  0  0  0  0  0  0  0  0
  -22.0183   -8.3037   95.6272 C   0  0  0  0  0  0  0  0  0  0  0  0
  1 11  1  0  0  0  0
  1  4  1  0  0  0  0
  2  8  1  0  0  0  0
  3 10  1  0  0  0  0
  4  5  1  0  0  0  0
  5  6  1  0  0  0  0
  7  8  2  0  0  0  0
  7 12  1  0  0  0  0
  8  9  1  0  0  0  0
  9 10  2  0  0  0  0
 10 11  1  0  0  0  0
 11 12  2  0  0  0  0
M  END
>  <CHROM.1>
-142.86689793,177.52077359,-177.62311309,-21.44330210,-9.41669017,95.37448770
-2.33880666,0.17851319,-0.02541369

>  <Name>
ligand

>  <RI>
0

>  <Rbt.Current_Directory>
/home/itssahil/PROJECTS/Mol_Feturizer/Test_systems_manuscript/rnas/4nya

>  <Rbt.Executable>
rbdock ($Id: //depot/dev/client3/rdock/2013.1/src/exe/rbdock.cxx#4 $)

>  <Rbt.Library>
libRbt.so (2013.1, Build901 2013/11/27)

>  <Rbt.Parameter_File>
/export/apps/rDock/src/rDock_2013.1_src/data/scripts/dock_solv.prm

>  <Rbt.Receptor>
prm/pocket_docking_2.prm

>  <SCORE>
-12.9723

>  <SCORE.INTER>
-11.6899

>  <SCORE.INTER.CONST>
1

>  <SCORE.INTER.POLAR>
0

>  <SCORE.INTER.ROT>
3

>  <SCORE.INTER.SOLV>
14.843

>  <SCORE.INTER.VDW>
-18.3409

>  <SCORE.INTER.norm>
-0.974156

>  <SCORE.INTRA>
-1.28246

>  <SCORE.INTRA.DIHEDRAL>
-2.09428

>  <SCORE.INTRA.DIHEDRAL.0>
3.34563

>  <SCORE.INTRA.POLAR>
0

>  <SCORE.INTRA.POLAR.0>
0

>  <SCORE.INTRA.REPUL>
0

>  <SCORE.INTRA.REPUL.0>
0

>  <SCORE.INTRA.SOLV>
-1.21125

>  <SCORE.INTRA.SOLV.lig_0>
-59.746

>  <SCORE.INTRA.VDW>
0.370299

>  <SCORE.INTRA.VDW.0>
-0.691186

>  <SCORE.INTRA.norm>
-0.106872

>  <SCORE.RESTR>
0

>  <SCORE.RESTR.CAVITY>
0

>  <SCORE.RESTR.norm>
0

>  <SCORE.SYSTEM>
0

>  <SCORE.SYSTEM.CONST>
0

>  <SCORE.SYSTEM.DIHEDRAL>
0

>  <SCORE.SYSTEM.SOLV>
0

>  <SCORE.SYSTEM.norm>
0

>  <SCORE.heavy>
12

>  <SCORE.norm>
-1.08103

>  <RMSD>
0.990

$$$$
ligand
 OpenBabel02271912143D
libRbt.so/2013.1/901 2013/11/27
 12 12  0  0  0  0  0  0  0  0999 V2000
  -22.1082  -10.6773   95.8744 C   0  0  0  0  0  0  0  0  0  0  0  0
  -19.1719   -6.1531   94.7846 C   0  0  0  0  0  0  0  0  0  0  0  0
  -19.5423  -10.8060   95.0790 N   0  0  0  0  0  0  0  0  0  0  0  0
  -23.4999  -10.6699   95.4017 N   0  0  0  0  0  0  0  0  0  0  0  0
  -24.1357  -11.5254   95.7489 N   0  0  0  0  0  0  0  0  0  0  0  0
  -24.7680  -12.3840   96.0941 N   0  0  0  0  0  0  0  0  0  0  0  0
  -21.2141   -7.1586   95.4107 N   0  0  0  0  0  0  0  0  0  0  0  0
  -19.9347   -7.2873   95.0355 C   0  0  0  0  0  0  0  0  0  0  0  0
  -19.3966   -8.4992   94.8332 N   0  0  0  0  0  0  0  0  0  0  0  0
  -20.1223   -9.6126   95.0130 C   0  0  0  0  0  0  0  0  0  0  0  0
  -21.4520   -9.5433   95.4119 C   0  0  0  0  0  0  0  0  0  0  0  0
  -22.0174   -8.2885   95.6052 C   0  0  0  0  0  0  0  0  0  0  0  0
  1 11  1  0  0  0  0
  1  4  1  0  0  0  0
  2  8  1  0  0  0  0
  3 10  1  0  0  0  0
  4  5  1  0  0  0  0
  5  6  1  0  0  0  0
  7  8  2  0  0  0  0
  7 12  1  0  0  0  0
  8  9  1  0  0  0  0
  9 10  2  0  0  0  0
 10 11  1  0  0  0  0
 11 12  2  0  0  0  0
M  END
>  <CHROM.1>
-142.41659888,-177.86539771,-56.89952767,-21.46050414,-9.39803998,95.35862159
-2.36072263,0.18335222,-0.01690219

>  <Name>
ligand

>  <RI>
0

>  <Rbt.Current_Directory>
/home/itssahil/PROJECTS/Mol_Feturizer/Test_systems_manuscript/rnas/4nya

>  <Rbt.Executable>
rbdock ($Id: //depot/dev/client3/rdock/2013.1/src/exe/rbdock.cxx#4 $)

>  <Rbt.Library>
libRbt.so (2013.1, Build901 2013/11/27)

>  <Rbt.Parameter_File>
/export/apps/rDock/src/rDock_2013.1_src/data/scripts/dock_solv.prm

>  <Rbt.Receptor>
prm/pocket_docking_3.prm

>  <SCORE>
-13.0504

>  <SCORE.INTER>
-11.7753

>  <SCORE.INTER.CONST>
1

>  <SCORE.INTER.POLAR>
0

>  <SCORE.INTER.ROT>
3

>  <SCORE.INTER.SOLV>
14.7476

>  <SCORE.INTER.VDW>
-18.3661

>  <SCORE.INTER.norm>
-0.981277

>  <SCORE.INTRA>
-1.27506

>  <SCORE.INTRA.DIHEDRAL>
-2.08524

>  <SCORE.INTRA.DIHEDRAL.0>
3.34563

>  <SCORE.INTRA.POLAR>
0

>  <SCORE.INTRA.POLAR.0>
0

>  <SCORE.INTRA.REPUL>
0

>  <SCORE.INTRA.REPUL.0>
0

>  <SCORE.INTRA.SOLV>
-1.19563

>  <SCORE.INTRA.SOLV.lig_0>
-59.746

>  <SCORE.INTRA.VDW>
0.365372

>  <SCORE.INTRA.VDW.0>
-0.691186

>  <SCORE.INTRA.norm>
-0.106255

>  <SCORE.RESTR>
0

>  <SCORE.RESTR.CAVITY>
0

>  <SCORE.RESTR.norm>
0

>  <SCORE.SYSTEM>
0

>  <SCORE.SYSTEM.CONST>
0

>  <SCORE.SYSTEM.DIHEDRAL>
0

>  <SCORE.SYSTEM.SOLV>
0

>  <SCORE.SYSTEM.norm>
0

>  <SCORE.heavy>
12

>  <SCORE.norm>
-1.08753

>  <RMSD>
0.990

$$$$
ligand
 OpenBabel02271912143D
libRbt.so/2013.1/901 2013/11/27
 12 12  0  0  0  0  0  0  0  0999 V2000
  -22.1243  -10.6852   95.8802 C   0  0  0  0  0  0  0  0  0  0  0  0
  -19.2023   -6.1532   94.7847 C   0  0  0  0  0  0  0  0  0  0  0  0
  -19.5743  -10.8085   95.0345 N   0  0  0  0  0  0  0  0  0  0  0  0
  -23.5415  -10.6371   95.4934 N   0  0  0  0  0  0  0  0  0  0  0  0
  -24.1470  -11.5444   95.7522 N   0  0  0  0  0  0  0  0  0  0  0  0
  -24.7564  -12.4493   96.0088 N   0  0  0  0  0  0  0  0  0  0  0  0
  -21.2337   -7.1627   95.4386 N   0  0  0  0  0  0  0  0  0  0  0  0
  -19.9619   -7.2891   95.0376 C   0  0  0  0  0  0  0  0  0  0  0  0
  -19.4297   -8.4994   94.8116 N   0  0  0  0  0  0  0  0  0  0  0  0
  -20.1535   -9.6137   94.9929 C   0  0  0  0  0  0  0  0  0  0  0  0
  -21.4753   -9.5470   95.4179 C   0  0  0  0  0  0  0  0  0  0  0  0
  -22.0349   -8.2937   95.6358 C   0  0  0  0  0  0  0  0  0  0  0  0
  1 11  1  0  0  0  0
  1  4  1  0  0  0  0
  2  8  1  0  0  0  0
  3 10  1  0  0  0  0
  4  5  1  0  0  0  0
  5  6  1  0  0  0  0
  7  8  2  0  0  0  0
  7 12  1  0  0  0  0
  8  9  1  0  0  0  0
  9 10  2  0  0  0  0
 10 11  1  0  0  0  0
 11 12  2  0  0  0  0
M  END
>  <CHROM.1>
-145.31496491,175.76113436,179.57230313,-21.48307125,-9.40468189,95.35803927
-2.35737468,0.19621373,-0.00176966

>  <Name>
ligand

>  <RI>
0

>  <Rbt.Current_Directory>
/home/itssahil/PROJECTS/Mol_Feturizer/Test_systems_manuscript/rnas/4nya

>  <Rbt.Executable>
rbdock ($Id: //depot/dev/client3/rdock/2013.1/src/exe/rbdock.cxx#4 $)

>  <Rbt.Library>
libRbt.so (2013.1, Build901 2013/11/27)

>  <Rbt.Parameter_File>
/export/apps/rDock/src/rDock_2013.1_src/data/scripts/dock_solv.prm

>  <Rbt.Receptor>
prm/pocket_docking_2.prm

>  <SCORE>
-12.9942

>  <SCORE.INTER>
-11.7127

>  <SCORE.INTER.CONST>
1

>  <SCORE.INTER.POLAR>
0

>  <SCORE.INTER.ROT>
3

>  <SCORE.INTER.SOLV>
14.5843

>  <SCORE.INTER.VDW>
-18.2699

>  <SCORE.INTER.norm>
-0.976061

>  <SCORE.INTRA>
-1.28145

>  <SCORE.INTRA.DIHEDRAL>
-2.13211

>  <SCORE.INTRA.DIHEDRAL.0>
3.34563

>  <SCORE.INTRA.POLAR>
0

>  <SCORE.INTRA.POLAR.0>
0

>  <SCORE.INTRA.REPUL>
0

>  <SCORE.INTRA.REPUL.0>
0

>  <SCORE.INTRA.SOLV>
-1.2324

>  <SCORE.INTRA.SOLV.lig_0>
-59.746

>  <SCORE.INTRA.VDW>
0.400801

>  <SCORE.INTRA.VDW.0>
-0.691186

>  <SCORE.INTRA.norm>
-0.106788

>  <SCORE.RESTR>
0

>  <SCORE.RESTR.CAVITY>
0

>  <SCORE.RESTR.norm>
0

>  <SCORE.SYSTEM>
0

>  <SCORE.SYSTEM.CONST>
0

>  <SCORE.SYSTEM.DIHEDRAL>
0

>  <SCORE.SYSTEM.SOLV>
0

>  <SCORE.SYSTEM.norm>
0

>  <SCORE.heavy>
12

>  <SCORE.norm>
-1.08285

>  <RMSD>
0.991

$$$$
ligand
 OpenBabel02271912143D
libRbt.so/2013.1/901 2013/11/27
 12 12  0  0  0  0  0  0  0  0999 V2000
  -22.0998  -10.6807   95.8867 C   0  0  0  0  0  0  0  0  0  0  0  0
  -19.1851   -6.1487   94.7719 C   0  0  0  0  0  0  0  0  0  0  0  0
  -19.5358  -10.8019   95.0842 N   0  0  0  0  0  0  0  0  0  0  0  0
  -23.4965  -10.6742   95.4286 N   0  0  0  0  0  0  0  0  0  0  0  0
  -24.1232  -11.5397   95.7677 N   0  0  0  0  0  0  0  0  0  0  0  0
  -24.7490  -12.4035   96.1115 N   0  0  0  0  0  0  0  0  0  0  0  0
  -21.2213   -7.1601   95.4077 N   0  0  0  0  0  0  0  0  0  0  0  0
  -19.9425   -7.2851   95.0292 C   0  0  0  0  0  0  0  0  0  0  0  0
  -19.4002   -8.4955   94.8297 N   0  0  0  0  0  0  0  0  0  0  0  0
  -20.1208   -9.6111   95.0157 C   0  0  0  0  0  0  0  0  0  0  0  0
  -21.4496   -9.5457   95.4183 C   0  0  0  0  0  0  0  0  0  0  0  0
  -22.0194   -8.2926   95.6086 C   0  0  0  0  0  0  0  0  0  0  0  0
  1 11  1  0  0  0  0
  1  4  1  0  0  0  0
  2  8  1  0  0  0  0
  3 10  1  0  0  0  0
  4  5  1  0  0  0  0
  5  6  1  0  0  0  0
  7  8  2  0  0  0  0
  7 12  1  0  0  0  0
  8  9  1  0  0  0  0
  9 10  2  0  0  0  0
 10 11  1  0  0  0  0
 11 12  2  0  0  0  0
M  END
>  <CHROM.1>
-142.94600937,-178.85900411,62.25056581,-21.45877297,-9.40091010,95.36434612
-2.35619030,0.18595219,-0.02108869

>  <Name>
ligand

>  <RI>
0

>  <Rbt.Current_Directory>
/home/itssahil/PROJECTS/Mol_Feturizer/Test_systems_manuscript/rnas/4nya

>  <Rbt.Executable>
rbdock ($Id: //depot/dev/client3/rdock/2013.1/src/exe/rbdock.cxx#4 $)

>  <Rbt.Library>
libRbt.so (2013.1, Build901 2013/11/27)

>  <Rbt.Parameter_File>
/export/apps/rDock/src/rDock_2013.1_src/data/scripts/dock_solv.prm

>  <Rbt.Receptor>
prm/pocket_docking_2.prm

>  <SCORE>
-13.0438

>  <SCORE.INTER>
-11.7645

>  <SCORE.INTER.CONST>
1

>  <SCORE.INTER.POLAR>
0

>  <SCORE.INTER.ROT>
3

>  <SCORE.INTER.SOLV>
14.7664

>  <SCORE.INTER.VDW>
-18.3651

>  <SCORE.INTER.norm>
-0.980373

>  <SCORE.INTRA>
-1.27931

>  <SCORE.INTRA.DIHEDRAL>
-2.10002

>  <SCORE.INTRA.DIHEDRAL.0>
3.34563

>  <SCORE.INTRA.POLAR>
0

>  <SCORE.INTRA.POLAR.0>
0

>  <SCORE.INTRA.REPUL>
0

>  <SCORE.INTRA.REPUL.0>
0

>  <SCORE.INTRA.SOLV>
-1.2022

>  <SCORE.INTRA.SOLV.lig_0>
-59.746

>  <SCORE.INTRA.VDW>
0.371803

>  <SCORE.INTRA.VDW.0>
-0.691186

>  <SCORE.INTRA.norm>
-0.106609

>  <SCORE.RESTR>
0

>  <SCORE.RESTR.CAVITY>
0

>  <SCORE.RESTR.norm>
0

>  <SCORE.SYSTEM>
0

>  <SCORE.SYSTEM.CONST>
0

>  <SCORE.SYSTEM.DIHEDRAL>
0

>  <SCORE.SYSTEM.SOLV>
0

>  <SCORE.SYSTEM.norm>
0

>  <SCORE.heavy>
12

>  <SCORE.norm>
-1.08698

>  <RMSD>
0.992

$$$$
ligand
 OpenBabel02271912143D
libRbt.so/2013.1/901 2013/11/27
 12 12  0  0  0  0  0  0  0  0999 V2000
  -22.1112  -10.6845   95.8766 C   0  0  0  0  0  0  0  0  0  0  0  0
  -19.1831   -6.1595   94.7682 C   0  0  0  0  0  0  0  0  0  0  0  0
  -19.5561  -10.8131   95.0470 N   0  0  0  0  0  0  0  0  0  0  0  0
  -23.5217  -10.6484   95.4646 N   0  0  0  0  0  0  0  0  0  0  0  0
  -24.1364  -11.5390   95.7575 N   0  0  0  0  0  0  0  0  0  0  0  0
  -24.7502  -12.4281   96.0552 N   0  0  0  0  0  0  0  0  0  0  0  0
  -21.2183   -7.1650   95.4166 N   0  0  0  0  0  0  0  0  0  0  0  0
  -19.9441   -7.2938   95.0241 C   0  0  0  0  0  0  0  0  0  0  0  0
  -19.4105   -8.5055   94.8095 N   0  0  0  0  0  0  0  0  0  0  0  0
  -20.1352   -9.6187   94.9939 C   0  0  0  0  0  0  0  0  0  0  0  0
  -21.4595   -9.5493   95.4105 C   0  0  0  0  0  0  0  0  0  0  0  0
  -22.0205   -8.2947   95.6167 C   0  0  0  0  0  0  0  0  0  0  0  0
  1 11  1  0  0  0  0
  1  4  1  0  0  0  0
  2  8  1  0  0  0  0
  3 10  1  0  0  0  0
  4  5  1  0  0  0  0
  5  6  1  0  0  0  0
  7  8  2  0  0  0  0
  7 12  1  0  0  0  0
  8  9  1  0  0  0  0
  9 10  2  0  0  0  0
 10 11  1  0  0  0  0
 11 12  2  0  0  0  0
M  END
>  <CHROM.1>
-144.51610693,177.89133644,62.66296847,-21.46744562,-9.40597973,95.35426074
-2.35891793,0.19334833,-0.01041067

>  <Name>
ligand

>  <RI>
0

>  <Rbt.Current_Directory>
/home/itssahil/PROJECTS/Mol_Feturizer/Test_systems_manuscript/rnas/4nya

>  <Rbt.Executable>
rbdock ($Id: //depot/dev/client3/rdock/2013.1/src/exe/rbdock.cxx#4 $)

>  <Rbt.Library>
libRbt.so (2013.1, Build901 2013/11/27)

>  <Rbt.Parameter_File>
/export/apps/rDock/src/rDock_2013.1_src/data/scripts/dock_solv.prm

>  <Rbt.Receptor>
prm/pocket_docking_2.prm

>  <SCORE>
-13.0498

>  <SCORE.INTER>
-11.7677

>  <SCORE.INTER.CONST>
1

>  <SCORE.INTER.POLAR>
0

>  <SCORE.INTER.ROT>
3

>  <SCORE.INTER.SOLV>
14.6764

>  <SCORE.INTER.VDW>
-18.3373

>  <SCORE.INTER.norm>
-0.980645

>  <SCORE.INTRA>
-1.28207

>  <SCORE.INTRA.DIHEDRAL>
-2.12711

>  <SCORE.INTRA.DIHEDRAL.0>
3.34563

>  <SCORE.INTRA.POLAR>
0

>  <SCORE.INTRA.POLAR.0>
0

>  <SCORE.INTRA.REPUL>
0

>  <SCORE.INTRA.REPUL.0>
0

>  <SCORE.INTRA.SOLV>
-1.22031

>  <SCORE.INTRA.SOLV.lig_0>
-59.746

>  <SCORE.INTRA.VDW>
0.391635

>  <SCORE.INTRA.VDW.0>
-0.691186

>  <SCORE.INTRA.norm>
-0.106839

>  <SCORE.RESTR>
0

>  <SCORE.RESTR.CAVITY>
0

>  <SCORE.RESTR.norm>
0

>  <SCORE.SYSTEM>
0

>  <SCORE.SYSTEM.CONST>
0

>  <SCORE.SYSTEM.DIHEDRAL>
0

>  <SCORE.SYSTEM.SOLV>
0

>  <SCORE.SYSTEM.norm>
0

>  <SCORE.heavy>
12

>  <SCORE.norm>
-1.08748

>  <RMSD>
0.993

$$$$
ligand
 OpenBabel02271912143D
libRbt.so/2013.1/901 2013/11/27
 12 12  0  0  0  0  0  0  0  0999 V2000
  -22.1331  -10.6466   95.9175 C   0  0  0  0  0  0  0  0  0  0  0  0
  -19.1841   -6.1435   94.7761 C   0  0  0  0  0  0  0  0  0  0  0  0
  -19.5562  -10.7896   95.1612 N   0  0  0  0  0  0  0  0  0  0  0  0
  -23.5256  -10.6364   95.4469 N   0  0  0  0  0  0  0  0  0  0  0  0
  -24.1545  -11.5060   95.7710 N   0  0  0  0  0  0  0  0  0  0  0  0
  -24.7871  -12.3735   96.0923 N   0  0  0  0  0  0  0  0  0  0  0  0
  -21.2344   -7.1375   95.3939 N   0  0  0  0  0  0  0  0  0  0  0  0
  -19.9497   -7.2729   95.0396 C   0  0  0  0  0  0  0  0  0  0  0  0
  -19.4082   -8.4883   94.8699 N   0  0  0  0  0  0  0  0  0  0  0  0
  -20.1358   -9.5983   95.0624 C   0  0  0  0  0  0  0  0  0  0  0  0
  -21.4711   -9.5218   95.4410 C   0  0  0  0  0  0  0  0  0  0  0  0
  -22.0397   -8.2638   95.6003 C   0  0  0  0  0  0  0  0  0  0  0  0
  1 11  1  0  0  0  0
  1  4  1  0  0  0  0
  2  8  1  0  0  0  0
  3 10  1  0  0  0  0
  4  5  1  0  0  0  0
  5  6  1  0  0  0  0
  7  8  2  0  0  0  0
  7 12  1  0  0  0  0
  8  9  1  0  0  0  0
  9 10  2  0  0  0  0
 10 11  1  0  0  0  0
 11 12  2  0  0  0  0
M  END
>  <CHROM.1>
-143.52796163,179.75311756,-177.72448613,-21.47853723,-9.37917853,95.38193206
-2.35886580,0.16697594,-0.03637850

>  <Name>
ligand

>  <RI>
0

>  <Rbt.Current_Directory>
/home/itssahil/PROJECTS/Mol_Feturizer/Test_systems_manuscript/rnas/4nya

>  <Rbt.Executable>
rbdock ($Id: //depot/dev/client3/rdock/2013.1/src/exe/rbdock.cxx#4 $)

>  <Rbt.Library>
libRbt.so (2013.1, Build901 2013/11/27)

>  <Rbt.Parameter_File>
/export/apps/rDock/src/rDock_2013.1_src/data/scripts/dock_solv.prm

>  <Rbt.Receptor>
prm/pocket_docking_2.prm

>  <SCORE>
-13.0162

>  <SCORE.INTER>
-11.7314

>  <SCORE.INTER.CONST>
1

>  <SCORE.INTER.POLAR>
0

>  <SCORE.INTER.ROT>
3

>  <SCORE.INTER.SOLV>
14.6471

>  <SCORE.INTER.VDW>
-18.3033

>  <SCORE.INTER.norm>
-0.977617

>  <SCORE.INTRA>
-1.28476

>  <SCORE.INTRA.DIHEDRAL>
-2.11257

>  <SCORE.INTRA.DIHEDRAL.0>
3.34563

>  <SCORE.INTRA.POLAR>
0

>  <SCORE.INTRA.POLAR.0>
0

>  <SCORE.INTRA.REPUL>
0

>  <SCORE.INTRA.REPUL.0>
0

>  <SCORE.INTRA.SOLV>
-1.21269

>  <SCORE.INTRA.SOLV.lig_0>
-59.746

>  <SCORE.INTRA.VDW>
0.377873

>  <SCORE.INTRA.VDW.0>
-0.691186

>  <SCORE.INTRA.norm>
-0.107063

>  <SCORE.RESTR>
0

>  <SCORE.RESTR.CAVITY>
0

>  <SCORE.RESTR.norm>
0

>  <SCORE.SYSTEM>
0

>  <SCORE.SYSTEM.CONST>
0

>  <SCORE.SYSTEM.DIHEDRAL>
0

>  <SCORE.SYSTEM.SOLV>
0

>  <SCORE.SYSTEM.norm>
0

>  <SCORE.heavy>
12

>  <SCORE.norm>
-1.08468

>  <RMSD>
0.993

$$$$
ligand
 OpenBabel02271912143D
libRbt.so/2013.1/901 2013/11/27
 12 12  0  0  0  0  0  0  0  0999 V2000
  -22.1232  -10.6852   95.8584 C   0  0  0  0  0  0  0  0  0  0  0  0
  -19.2059   -6.1391   94.8096 C   0  0  0  0  0  0  0  0  0  0  0  0
  -19.5763  -10.7973   95.0018 N   0  0  0  0  0  0  0  0  0  0  0  0
  -23.5257  -10.6645   95.4193 N   0  0  0  0  0  0  0  0  0  0  0  0
  -24.1538  -11.5293   95.7577 N   0  0  0  0  0  0  0  0  0  0  0  0
  -24.7785  -12.3969   96.0936 N   0  0  0  0  0  0  0  0  0  0  0  0
  -21.2347   -7.1573   95.4581 N   0  0  0  0  0  0  0  0  0  0  0  0
  -19.9643   -7.2783   95.0509 C   0  0  0  0  0  0  0  0  0  0  0  0
  -19.4329   -8.4855   94.8076 N   0  0  0  0  0  0  0  0  0  0  0  0
  -20.1558   -9.6022   94.9774 C   0  0  0  0  0  0  0  0  0  0  0  0
  -21.4760   -9.5411   95.4082 C   0  0  0  0  0  0  0  0  0  0  0  0
  -22.0350   -8.2908   95.6440 C   0  0  0  0  0  0  0  0  0  0  0  0
  1 11  1  0  0  0  0
  1  4  1  0  0  0  0
  2  8  1  0  0  0  0
  3 10  1  0  0  0  0
  4  5  1  0  0  0  0
  5  6  1  0  0  0  0
  7  8  2  0  0  0  0
  7 12  1  0  0  0  0
  8  9  1  0  0  0  0
  9 10  2  0  0  0  0
 10 11  1  0  0  0  0
 11 12  2  0  0  0  0
M  END
>  <CHROM.1>
-142.48469595,-178.07136340,-59.96015456,-21.48541056,-9.39491688,95.35809779
-2.36156254,0.20589738,0.00721612

>  <Name>
ligand

>  <RI>
0

>  <Rbt.Current_Directory>
/home/itssahil/PROJECTS/Mol_Feturizer/Test_systems_manuscript/rnas/4nya

>  <Rbt.Executable>
rbdock ($Id: //depot/dev/client3/rdock/2013.1/src/exe/rbdock.cxx#4 $)

>  <Rbt.Library>
libRbt.so (2013.1, Build901 2013/11/27)

>  <Rbt.Parameter_File>
/export/apps/rDock/src/rDock_2013.1_src/data/scripts/dock_solv.prm

>  <Rbt.Receptor>
prm/pocket_docking_4.prm

>  <SCORE>
-12.9678

>  <SCORE.INTER>
-11.6906

>  <SCORE.INTER.CONST>
1

>  <SCORE.INTER.POLAR>
0

>  <SCORE.INTER.ROT>
3

>  <SCORE.INTER.SOLV>
14.6746

>  <SCORE.INTER.VDW>
-18.2853

>  <SCORE.INTER.norm>
-0.974216

>  <SCORE.INTRA>
-1.27717

>  <SCORE.INTRA.DIHEDRAL>
-2.08997

>  <SCORE.INTRA.DIHEDRAL.0>
3.34563

>  <SCORE.INTRA.POLAR>
0

>  <SCORE.INTRA.POLAR.0>
0

>  <SCORE.INTRA.REPUL>
0

>  <SCORE.INTRA.REPUL.0>
0

>  <SCORE.INTRA.SOLV>
-1.19674

>  <SCORE.INTRA.SOLV.lig_0>
-59.746

>  <SCORE.INTRA.VDW>
0.366185

>  <SCORE.INTRA.VDW.0>
-0.691186

>  <SCORE.INTRA.norm>
-0.106431

>  <SCORE.RESTR>
0

>  <SCORE.RESTR.CAVITY>
0

>  <SCORE.RESTR.norm>
0

>  <SCORE.SYSTEM>
0

>  <SCORE.SYSTEM.CONST>
0

>  <SCORE.SYSTEM.DIHEDRAL>
0

>  <SCORE.SYSTEM.SOLV>
0

>  <SCORE.SYSTEM.norm>
0

>  <SCORE.heavy>
12

>  <SCORE.norm>
-1.08065

>  <RMSD>
0.993

$$$$
ligand
 OpenBabel02271912143D
libRbt.so/2013.1/901 2013/11/27
 12 12  0  0  0  0  0  0  0  0999 V2000
  -22.1738  -10.7087   95.9065 C   0  0  0  0  0  0  0  0  0  0  0  0
  -19.1725   -6.2318   94.7985 C   0  0  0  0  0  0  0  0  0  0  0  0
  -19.5937  -10.8752   95.1660 N   0  0  0  0  0  0  0  0  0  0  0  0
  -23.1616  -11.1427   94.9083 N   0  0  0  0  0  0  0  0  0  0  0  0
  -23.7060  -12.0937   95.1449 N   0  0  0  0  0  0  0  0  0  0  0  0
  -24.2527  -13.0440   95.3770 N   0  0  0  0  0  0  0  0  0  0  0  0
  -21.2366   -7.2071   95.4002 N   0  0  0  0  0  0  0  0  0  0  0  0
  -19.9511   -7.3543   95.0535 C   0  0  0  0  0  0  0  0  0  0  0  0
  -19.4208   -8.5746   94.8832 N   0  0  0  0  0  0  0  0  0  0  0  0
  -20.1606   -9.6778   95.0675 C   0  0  0  0  0  0  0  0  0  0  0  0
  -21.4975   -9.5891   95.4379 C   0  0  0  0  0  0  0  0  0  0  0  0
  -22.0545   -8.3259   95.5978 C   0  0  0  0  0  0  0  0  0  0  0  0
  1 11  1  0  0  0  0
  1  4  1  0  0  0  0
  2  8  1  0  0  0  0
  3 10  1  0  0  0  0
  4  5  1  0  0  0  0
  5  6  1  0  0  0  0
  7  8  2  0  0  0  0
  7 12  1  0  0  0  0
  8  9  1  0  0  0  0
  9 10  2  0  0  0  0
 10 11  1  0  0  0  0
 11 12  2  0  0  0  0
M  END
>  <CHROM.1>
-109.88895067,174.95472957,-178.14808334,-21.37348539,-9.58880782,95.22276184
2.23628536,-0.10086739,-3.11892652

>  <Name>
ligand

>  <RI>
0

>  <Rbt.Current_Directory>
/home/itssahil/PROJECTS/Mol_Feturizer/Test_systems_manuscript/rnas/4nya

>  <Rbt.Executable>
rbdock ($Id: //depot/dev/client3/rdock/2013.1/src/exe/rbdock.cxx#4 $)

>  <Rbt.Library>
libRbt.so (2013.1, Build901 2013/11/27)

>  <Rbt.Parameter_File>
/export/apps/rDock/src/rDock_2013.1_src/data/scripts/dock_solv.prm

>  <Rbt.Receptor>
prm/pocket_docking_2.prm

>  <SCORE>
-12.1872

>  <SCORE.INTER>
-11.4088

>  <SCORE.INTER.CONST>
1

>  <SCORE.INTER.POLAR>
0

>  <SCORE.INTER.ROT>
3

>  <SCORE.INTER.SOLV>
15.5629

>  <SCORE.INTER.VDW>
-18.3935

>  <SCORE.INTER.norm>
-0.950732

>  <SCORE.INTRA>
-0.778368

>  <SCORE.INTRA.DIHEDRAL>
-1.19316

>  <SCORE.INTRA.DIHEDRAL.0>
3.34563

>  <SCORE.INTRA.POLAR>
0

>  <SCORE.INTRA.POLAR.0>
0

>  <SCORE.INTRA.REPUL>
0

>  <SCORE.INTRA.REPUL.0>
0

>  <SCORE.INTRA.SOLV>
-0.591066

>  <SCORE.INTRA.SOLV.lig_0>
-59.746

>  <SCORE.INTRA.VDW>
0.113745

>  <SCORE.INTRA.VDW.0>
-0.691186

>  <SCORE.INTRA.norm>
-0.064864

>  <SCORE.RESTR>
0

>  <SCORE.RESTR.CAVITY>
0

>  <SCORE.RESTR.norm>
0

>  <SCORE.SYSTEM>
0

>  <SCORE.SYSTEM.CONST>
0

>  <SCORE.SYSTEM.DIHEDRAL>
0

>  <SCORE.SYSTEM.SOLV>
0

>  <SCORE.SYSTEM.norm>
0

>  <SCORE.heavy>
12

>  <SCORE.norm>
-1.0156

>  <RMSD>
0.994

$$$$
ligand
 OpenBabel02271912143D
libRbt.so/2013.1/901 2013/11/27
 12 12  0  0  0  0  0  0  0  0999 V2000
  -22.0835  -10.7059   95.9177 C   0  0  0  0  0  0  0  0  0  0  0  0
  -19.2040   -6.1579   94.7765 C   0  0  0  0  0  0  0  0  0  0  0  0
  -19.5465  -10.8152   95.0319 N   0  0  0  0  0  0  0  0  0  0  0  0
  -23.5201  -10.6323   95.6158 N   0  0  0  0  0  0  0  0  0  0  0  0
  -24.1143  -11.5529   95.8530 N   0  0  0  0  0  0  0  0  0  0  0  0
  -24.7054  -12.4759   96.0868 N   0  0  0  0  0  0  0  0  0  0  0  0
  -21.2193   -7.1786   95.4622 N   0  0  0  0  0  0  0  0  0  0  0  0
  -19.9533   -7.2980   95.0413 C   0  0  0  0  0  0  0  0  0  0  0  0
  -19.4181   -8.5053   94.8068 N   0  0  0  0  0  0  0  0  0  0  0  0
  -20.1328   -9.6236   94.9994 C   0  0  0  0  0  0  0  0  0  0  0  0
  -21.4481   -9.5642   95.4452 C   0  0  0  0  0  0  0  0  0  0  0  0
  -22.0111   -8.3139   95.6720 C   0  0  0  0  0  0  0  0  0  0  0  0
  1 11  1  0  0  0  0
  1  4  1  0  0  0  0
  2  8  1  0  0  0  0
  3 10  1  0  0  0  0
  4  5  1  0  0  0  0
  5  6  1  0  0  0  0
  7  8  2  0  0  0  0
  7 12  1  0  0  0  0
  8  9  1  0  0  0  0
  9 10  2  0  0  0  0
 10 11  1  0  0  0  0
 11 12  2  0  0  0  0
M  END
>  <CHROM.1>
-148.29735482,173.58262864,-60.43363835,-21.45990724,-9.41622241,95.39362345
-2.35543813,0.21613202,-0.00337129

>  <Name>
ligand

>  <RI>
0

>  <Rbt.Current_Directory>
/home/itssahil/PROJECTS/Mol_Feturizer/Test_systems_manuscript/rnas/4nya

>  <Rbt.Executable>
rbdock ($Id: //depot/dev/client3/rdock/2013.1/src/exe/rbdock.cxx#4 $)

>  <Rbt.Library>
libRbt.so (2013.1, Build901 2013/11/27)

>  <Rbt.Parameter_File>
/export/apps/rDock/src/rDock_2013.1_src/data/scripts/dock_solv.prm

>  <Rbt.Receptor>
prm/pocket_docking_2.prm

>  <SCORE>
-12.9742

>  <SCORE.INTER>
-11.7114

>  <SCORE.INTER.CONST>
1

>  <SCORE.INTER.POLAR>
0

>  <SCORE.INTER.ROT>
3

>  <SCORE.INTER.SOLV>
14.6072

>  <SCORE.INTER.VDW>
-18.2767

>  <SCORE.INTER.norm>
-0.97595

>  <SCORE.INTRA>
-1.26283

>  <SCORE.INTRA.DIHEDRAL>
-2.15859

>  <SCORE.INTRA.DIHEDRAL.0>
3.34563

>  <SCORE.INTRA.POLAR>
0

>  <SCORE.INTRA.POLAR.0>
0

>  <SCORE.INTRA.REPUL>
0

>  <SCORE.INTRA.REPUL.0>
0

>  <SCORE.INTRA.SOLV>
-1.25191

>  <SCORE.INTRA.SOLV.lig_0>
-59.746

>  <SCORE.INTRA.VDW>
0.44242

>  <SCORE.INTRA.VDW.0>
-0.691186

>  <SCORE.INTRA.norm>
-0.105236

>  <SCORE.RESTR>
0

>  <SCORE.RESTR.CAVITY>
0

>  <SCORE.RESTR.norm>
0

>  <SCORE.SYSTEM>
0

>  <SCORE.SYSTEM.CONST>
0

>  <SCORE.SYSTEM.DIHEDRAL>
0

>  <SCORE.SYSTEM.SOLV>
0

>  <SCORE.SYSTEM.norm>
0

>  <SCORE.heavy>
12

>  <SCORE.norm>
-1.08119

>  <RMSD>
0.998

$$$$
ligand
 OpenBabel02271912143D
libRbt.so/2013.1/901 2013/11/27
 12 12  0  0  0  0  0  0  0  0999 V2000
  -22.1158  -10.6665   95.8909 C   0  0  0  0  0  0  0  0  0  0  0  0
  -19.1901   -6.1405   94.7805 C   0  0  0  0  0  0  0  0  0  0  0  0
  -19.5607  -10.7942   95.0615 N   0  0  0  0  0  0  0  0  0  0  0  0
  -23.5275  -10.6289   95.4832 N   0  0  0  0  0  0  0  0  0  0  0  0
  -24.1409  -11.5214   95.7728 N   0  0  0  0  0  0  0  0  0  0  0  0
  -24.7511  -12.4166   96.0596 N   0  0  0  0  0  0  0  0  0  0  0  0
  -21.2248   -7.1467   95.4294 N   0  0  0  0  0  0  0  0  0  0  0  0
  -19.9505   -7.2751   95.0370 C   0  0  0  0  0  0  0  0  0  0  0  0
  -19.4162   -8.4866   94.8228 N   0  0  0  0  0  0  0  0  0  0  0  0
  -20.1404   -9.6000   95.0078 C   0  0  0  0  0  0  0  0  0  0  0  0
  -21.4648   -9.5312   95.4243 C   0  0  0  0  0  0  0  0  0  0  0  0
  -22.0264   -8.2768   95.6299 C   0  0  0  0  0  0  0  0  0  0  0  0
  1 11  1  0  0  0  0
  1  4  1  0  0  0  0
  2  8  1  0  0  0  0
  3 10  1  0  0  0  0
  4  5  1  0  0  0  0
  5  6  1  0  0  0  0
  7  8  2  0  0  0  0
  7 12  1  0  0  0  0
  8  9  1  0  0  0  0
  9 10  2  0  0  0  0
 10 11  1  0  0  0  0
 11 12  2  0  0  0  0
M  END
>  <CHROM.1>
-144.72792777,177.63097083,-59.80699248,-21.47262534,-9.38808077,95.36750613
-2.35807442,0.19292696,-0.01067140

>  <Name>
ligand

>  <RI>
0

>  <Rbt.Current_Directory>
/home/itssahil/PROJECTS/Mol_Feturizer/Test_systems_manuscript/rnas/4nya

>  <Rbt.Executable>
rbdock ($Id: //depot/dev/client3/rdock/2013.1/src/exe/rbdock.cxx#4 $)

>  <Rbt.Library>
libRbt.so (2013.1, Build901 2013/11/27)

>  <Rbt.Parameter_File>
/export/apps/rDock/src/rDock_2013.1_src/data/scripts/dock_solv.prm

>  <Rbt.Receptor>
prm/pocket_docking_4.prm

>  <SCORE>
-12.9859

>  <SCORE.INTER>
-11.7032

>  <SCORE.INTER.CONST>
1

>  <SCORE.INTER.POLAR>
0

>  <SCORE.INTER.ROT>
3

>  <SCORE.INTER.SOLV>
14.638

>  <SCORE.INTER.VDW>
-18.2815

>  <SCORE.INTER.norm>
-0.975271

>  <SCORE.INTRA>
-1.28269

>  <SCORE.INTRA.DIHEDRAL>
-2.13192

>  <SCORE.INTRA.DIHEDRAL.0>
3.34563

>  <SCORE.INTRA.POLAR>
0

>  <SCORE.INTRA.POLAR.0>
0

>  <SCORE.INTRA.REPUL>
0

>  <SCORE.INTRA.REPUL.0>
0

>  <SCORE.INTRA.SOLV>
-1.2222

>  <SCORE.INTRA.SOLV.lig_0>
-59.746

>  <SCORE.INTRA.VDW>
0.394374

>  <SCORE.INTRA.VDW.0>
-0.691186

>  <SCORE.INTRA.norm>
-0.106891

>  <SCORE.RESTR>
0

>  <SCORE.RESTR.CAVITY>
0

>  <SCORE.RESTR.norm>
0

>  <SCORE.SYSTEM>
0

>  <SCORE.SYSTEM.CONST>
0

>  <SCORE.SYSTEM.DIHEDRAL>
0

>  <SCORE.SYSTEM.SOLV>
0

>  <SCORE.SYSTEM.norm>
0

>  <SCORE.heavy>
12

>  <SCORE.norm>
-1.08216

>  <RMSD>
1.001

$$$$
ligand
 OpenBabel02271912143D
libRbt.so/2013.1/901 2013/11/27
 12 12  0  0  0  0  0  0  0  0999 V2000
  -22.0886  -10.6766   95.8902 C   0  0  0  0  0  0  0  0  0  0  0  0
  -19.1873   -6.1348   94.7801 C   0  0  0  0  0  0  0  0  0  0  0  0
  -19.5185  -10.7885   95.1060 N   0  0  0  0  0  0  0  0  0  0  0  0
  -23.4978  -10.6483   95.4732 N   0  0  0  0  0  0  0  0  0  0  0  0
  -24.1081  -11.5432   95.7622 N   0  0  0  0  0  0  0  0  0  0  0  0
  -24.7150  -12.4408   96.0485 N   0  0  0  0  0  0  0  0  0  0  0  0
  -21.2232   -7.1536   95.4052 N   0  0  0  0  0  0  0  0  0  0  0  0
  -19.9412   -7.2738   95.0361 C   0  0  0  0  0  0  0  0  0  0  0  0
  -19.3918   -8.4824   94.8445 N   0  0  0  0  0  0  0  0  0  0  0  0
  -20.1085   -9.6007   95.0293 C   0  0  0  0  0  0  0  0  0  0  0  0
  -21.4404   -9.5402   95.4223 C   0  0  0  0  0  0  0  0  0  0  0  0
  -22.0174   -8.2891   95.6044 C   0  0  0  0  0  0  0  0  0  0  0  0
  1 11  1  0  0  0  0
  1  4  1  0  0  0  0
  2  8  1  0  0  0  0
  3 10  1  0  0  0  0
  4  5  1  0  0  0  0
  5  6  1  0  0  0  0
  7  8  2  0  0  0  0
  7 12  1  0  0  0  0
  8  9  1  0  0  0  0
  9 10  2  0  0  0  0
 10 11  1  0  0  0  0
 11 12  2  0  0  0  0
M  END
>  <CHROM.1>
-145.47557197,177.56127912,-57.24084023,-21.44992167,-9.39537051,95.36780367
-2.35049925,0.17784156,-0.02413195

>  <Name>
ligand

>  <RI>
0

>  <Rbt.Current_Directory>
/home/itssahil/PROJECTS/Mol_Feturizer/Test_systems_manuscript/rnas/4nya

>  <Rbt.Executable>
rbdock ($Id: //depot/dev/client3/rdock/2013.1/src/exe/rbdock.cxx#4 $)

>  <Rbt.Library>
libRbt.so (2013.1, Build901 2013/11/27)

>  <Rbt.Parameter_File>
/export/apps/rDock/src/rDock_2013.1_src/data/scripts/dock_solv.prm

>  <Rbt.Receptor>
prm/pocket_docking_7.prm

>  <SCORE>
-13.0439

>  <SCORE.INTER>
-11.7627

>  <SCORE.INTER.CONST>
1

>  <SCORE.INTER.POLAR>
0

>  <SCORE.INTER.ROT>
3

>  <SCORE.INTER.SOLV>
14.771

>  <SCORE.INTER.VDW>
-18.3654

>  <SCORE.INTER.norm>
-0.980222

>  <SCORE.INTRA>
-1.28122

>  <SCORE.INTRA.DIHEDRAL>
-2.14266

>  <SCORE.INTRA.DIHEDRAL.0>
3.34563

>  <SCORE.INTRA.POLAR>
0

>  <SCORE.INTRA.POLAR.0>
0

>  <SCORE.INTRA.REPUL>
0

>  <SCORE.INTRA.REPUL.0>
0

>  <SCORE.INTRA.SOLV>
-1.22775

>  <SCORE.INTRA.SOLV.lig_0>
-59.746

>  <SCORE.INTRA.VDW>
0.403988

>  <SCORE.INTRA.VDW.0>
-0.691186

>  <SCORE.INTRA.norm>
-0.106768

>  <SCORE.RESTR>
0

>  <SCORE.RESTR.CAVITY>
0

>  <SCORE.RESTR.norm>
0

>  <SCORE.SYSTEM>
0

>  <SCORE.SYSTEM.CONST>
0

>  <SCORE.SYSTEM.DIHEDRAL>
0

>  <SCORE.SYSTEM.SOLV>
0

>  <SCORE.SYSTEM.norm>
0

>  <SCORE.heavy>
12

>  <SCORE.norm>
-1.08699

>  <RMSD>
1.001

$$$$
ligand
 OpenBabel02271912143D
libRbt.so/2013.1/901 2013/11/27
 12 12  0  0  0  0  0  0  0  0999 V2000
  -22.0909  -10.6866   95.8973 C   0  0  0  0  0  0  0  0  0  0  0  0
  -19.1969   -6.1441   94.7714 C   0  0  0  0  0  0  0  0  0  0  0  0
  -19.5306  -10.7987   95.0818 N   0  0  0  0  0  0  0  0  0  0  0  0
  -23.5043  -10.6562   95.4949 N   0  0  0  0  0  0  0  0  0  0  0  0
  -24.1388  -11.4941   95.8850 N   0  0  0  0  0  0  0  0  0  0  0  0
  -24.7770  -12.3300   96.2721 N   0  0  0  0  0  0  0  0  0  0  0  0
  -21.2265   -7.1628   95.4166 N   0  0  0  0  0  0  0  0  0  0  0  0
  -19.9492   -7.2832   95.0316 C   0  0  0  0  0  0  0  0  0  0  0  0
  -19.4039   -8.4917   94.8284 N   0  0  0  0  0  0  0  0  0  0  0  0
  -20.1198   -9.6098   95.0171 C   0  0  0  0  0  0  0  0  0  0  0  0
  -21.4468   -9.5492   95.4265 C   0  0  0  0  0  0  0  0  0  0  0  0
  -22.0198   -8.2981   95.6207 C   0  0  0  0  0  0  0  0  0  0  0  0
  1 11  1  0  0  0  0
  1  4  1  0  0  0  0
  2  8  1  0  0  0  0
  3 10  1  0  0  0  0
  4  5  1  0  0  0  0
  5  6  1  0  0  0  0
  7  8  2  0  0  0  0
  7 12  1  0  0  0  0
  8  9  1  0  0  0  0
  9 10  2  0  0  0  0
 10 11  1  0  0  0  0
 11 12  2  0  0  0  0
M  END
>  <CHROM.1>
-145.35274169,-175.83365669,-175.87283210,-21.46413638,-9.38912062,95.39739065
-2.36567160,0.20575847,-0.02636042

>  <Name>
ligand

>  <RI>
0

>  <Rbt.Current_Directory>
/home/itssahil/PROJECTS/Mol_Feturizer/Test_systems_manuscript/rnas/4nya

>  <Rbt.Executable>
rbdock ($Id: //depot/dev/client3/rdock/2013.1/src/exe/rbdock.cxx#4 $)

>  <Rbt.Library>
libRbt.so (2013.1, Build901 2013/11/27)

>  <Rbt.Parameter_File>
/export/apps/rDock/src/rDock_2013.1_src/data/scripts/dock_solv.prm

>  <Rbt.Receptor>
prm/pocket_docking_2.prm

>  <SCORE>
-12.9953

>  <SCORE.INTER>
-11.7218

>  <SCORE.INTER.CONST>
1

>  <SCORE.INTER.POLAR>
0

>  <SCORE.INTER.ROT>
3

>  <SCORE.INTER.SOLV>
14.7228

>  <SCORE.INTER.VDW>
-18.3221

>  <SCORE.INTER.norm>
-0.976818

>  <SCORE.INTRA>
-1.27348

>  <SCORE.INTRA.DIHEDRAL>
-2.12866

>  <SCORE.INTRA.DIHEDRAL.0>
3.34563

>  <SCORE.INTRA.POLAR>
0

>  <SCORE.INTRA.POLAR.0>
0

>  <SCORE.INTRA.REPUL>
0

>  <SCORE.INTRA.REPUL.0>
0

>  <SCORE.INTRA.SOLV>
-1.21739

>  <SCORE.INTRA.SOLV.lig_0>
-59.746

>  <SCORE.INTRA.VDW>
0.399547

>  <SCORE.INTRA.VDW.0>
-0.691186

>  <SCORE.INTRA.norm>
-0.106123

>  <SCORE.RESTR>
0

>  <SCORE.RESTR.CAVITY>
0

>  <SCORE.RESTR.norm>
0

>  <SCORE.SYSTEM>
0

>  <SCORE.SYSTEM.CONST>
0

>  <SCORE.SYSTEM.DIHEDRAL>
0

>  <SCORE.SYSTEM.SOLV>
0

>  <SCORE.SYSTEM.norm>
0

>  <SCORE.heavy>
12

>  <SCORE.norm>
-1.08294

>  <RMSD>
1.002

$$$$
ligand
 OpenBabel02271912143D
libRbt.so/2013.1/901 2013/11/27
 12 12  0  0  0  0  0  0  0  0999 V2000
  -22.0885  -10.6852   95.9424 C   0  0  0  0  0  0  0  0  0  0  0  0
  -19.1959   -6.1530   94.7724 C   0  0  0  0  0  0  0  0  0  0  0  0
  -19.5222  -10.8034   95.1468 N   0  0  0  0  0  0  0  0  0  0  0  0
  -23.5203  -10.6140   95.6176 N   0  0  0  0  0  0  0  0  0  0  0  0
  -24.1414  -11.4796   95.9663 N   0  0  0  0  0  0  0  0  0  0  0  0
  -24.7664  -12.3431   96.3125 N   0  0  0  0  0  0  0  0  0  0  0  0
  -21.2280   -7.1667   95.4177 N   0  0  0  0  0  0  0  0  0  0  0  0
  -19.9477   -7.2899   95.0435 C   0  0  0  0  0  0  0  0  0  0  0  0
  -19.3985   -8.4999   94.8614 N   0  0  0  0  0  0  0  0  0  0  0  0
  -20.1134   -9.6168   95.0610 C   0  0  0  0  0  0  0  0  0  0  0  0
  -21.4434   -9.5532   95.4600 C   0  0  0  0  0  0  0  0  0  0  0  0
  -22.0204   -8.3007   95.6323 C   0  0  0  0  0  0  0  0  0  0  0  0
  1 11  1  0  0  0  0
  1  4  1  0  0  0  0
  2  8  1  0  0  0  0
  3 10  1  0  0  0  0
  4  5  1  0  0  0  0
  5  6  1  0  0  0  0
  7  8  2  0  0  0  0
  7 12  1  0  0  0  0
  8  9  1  0  0  0  0
  9 10  2  0  0  0  0
 10 11  1  0  0  0  0
 11 12  2  0  0  0  0
M  END
>  <CHROM.1>
-149.62706706,-179.73646965,-174.80510920,-21.46268969,-9.38901773,95.43878289
-2.36594210,0.20351301,-0.04189929

>  <Name>
ligand

>  <RI>
0

>  <Rbt.Current_Directory>
/home/itssahil/PROJECTS/Mol_Feturizer/Test_systems_manuscript/rnas/4nya

>  <Rbt.Executable>
rbdock ($Id: //depot/dev/client3/rdock/2013.1/src/exe/rbdock.cxx#4 $)

>  <Rbt.Library>
libRbt.so (2013.1, Build901 2013/11/27)

>  <Rbt.Parameter_File>
/export/apps/rDock/src/rDock_2013.1_src/data/scripts/dock_solv.prm

>  <Rbt.Receptor>
prm/pocket_docking_2.prm

>  <SCORE>
-13.0511

>  <SCORE.INTER>
-11.7828

>  <SCORE.INTER.CONST>
1

>  <SCORE.INTER.POLAR>
0

>  <SCORE.INTER.ROT>
3

>  <SCORE.INTER.SOLV>
14.6412

>  <SCORE.INTER.VDW>
-18.3356

>  <SCORE.INTER.norm>
-0.981899

>  <SCORE.INTRA>
-1.26834

>  <SCORE.INTRA.DIHEDRAL>
-2.20091

>  <SCORE.INTRA.DIHEDRAL.0>
3.34563

>  <SCORE.INTRA.POLAR>
0

>  <SCORE.INTRA.POLAR.0>
0

>  <SCORE.INTRA.REPUL>
0

>  <SCORE.INTRA.REPUL.0>
0

>  <SCORE.INTRA.SOLV>
-1.25481

>  <SCORE.INTRA.SOLV.lig_0>
-59.746

>  <SCORE.INTRA.VDW>
0.459521

>  <SCORE.INTRA.VDW.0>
-0.691186

>  <SCORE.INTRA.norm>
-0.105695

>  <SCORE.RESTR>
0

>  <SCORE.RESTR.CAVITY>
0

>  <SCORE.RESTR.norm>
0

>  <SCORE.SYSTEM>
0

>  <SCORE.SYSTEM.CONST>
0

>  <SCORE.SYSTEM.DIHEDRAL>
0

>  <SCORE.SYSTEM.SOLV>
0

>  <SCORE.SYSTEM.norm>
0

>  <SCORE.heavy>
12

>  <SCORE.norm>
-1.08759

>  <RMSD>
1.006

$$$$
ligand
 OpenBabel02271912143D
libRbt.so/2013.1/901 2013/11/27
 12 12  0  0  0  0  0  0  0  0999 V2000
  -22.0874  -10.6946   95.9371 C   0  0  0  0  0  0  0  0  0  0  0  0
  -19.1985   -6.1579   94.7752 C   0  0  0  0  0  0  0  0  0  0  0  0
  -19.5350  -10.8115   95.0978 N   0  0  0  0  0  0  0  0  0  0  0  0
  -23.5198  -10.6264   95.6146 N   0  0  0  0  0  0  0  0  0  0  0  0
  -24.1409  -11.4868   95.9762 N   0  0  0  0  0  0  0  0  0  0  0  0
  -24.7606  -12.3457   96.3425 N   0  0  0  0  0  0  0  0  0  0  0  0
  -21.2233   -7.1728   95.4415 N   0  0  0  0  0  0  0  0  0  0  0  0
  -19.9497   -7.2955   95.0447 C   0  0  0  0  0  0  0  0  0  0  0  0
  -19.4078   -8.5051   94.8387 N   0  0  0  0  0  0  0  0  0  0  0  0
  -20.1233   -9.6219   95.0363 C   0  0  0  0  0  0  0  0  0  0  0  0
  -21.4464   -9.5589   95.4580 C   0  0  0  0  0  0  0  0  0  0  0  0
  -22.0160   -8.3066   95.6552 C   0  0  0  0  0  0  0  0  0  0  0  0
  1 11  1  0  0  0  0
  1  4  1  0  0  0  0
  2  8  1  0  0  0  0
  3 10  1  0  0  0  0
  4  5  1  0  0  0  0
  5  6  1  0  0  0  0
  7  8  2  0  0  0  0
  7 12  1  0  0  0  0
  8  9  1  0  0  0  0
  9 10  2  0  0  0  0
 10 11  1  0  0  0  0
 11 12  2  0  0  0  0
M  END
>  <CHROM.1>
-148.56637881,-178.73330905,61.94995715,-21.46451942,-9.39556396,95.43742213
-2.36795730,0.21947323,-0.02915665

>  <Name>
ligand

>  <RI>
0

>  <Rbt.Current_Directory>
/home/itssahil/PROJECTS/Mol_Feturizer/Test_systems_manuscript/rnas/4nya

>  <Rbt.Executable>
rbdock ($Id: //depot/dev/client3/rdock/2013.1/src/exe/rbdock.cxx#4 $)

>  <Rbt.Library>
libRbt.so (2013.1, Build901 2013/11/27)

>  <Rbt.Parameter_File>
/export/apps/rDock/src/rDock_2013.1_src/data/scripts/dock_solv.prm

>  <Rbt.Receptor>
prm/pocket_docking_2.prm

>  <SCORE>
-13.0135

>  <SCORE.INTER>
-11.7406

>  <SCORE.INTER.CONST>
1

>  <SCORE.INTER.POLAR>
0

>  <SCORE.INTER.ROT>
3

>  <SCORE.INTER.SOLV>
14.6212

>  <SCORE.INTER.VDW>
-18.3008

>  <SCORE.INTER.norm>
-0.978384

>  <SCORE.INTRA>
-1.27293

>  <SCORE.INTRA.DIHEDRAL>
-2.1933

>  <SCORE.INTRA.DIHEDRAL.0>
3.34563

>  <SCORE.INTRA.POLAR>
0

>  <SCORE.INTRA.POLAR.0>
0

>  <SCORE.INTRA.REPUL>
0

>  <SCORE.INTRA.REPUL.0>
0

>  <SCORE.INTRA.SOLV>
-1.243

>  <SCORE.INTRA.SOLV.lig_0>
-59.746

>  <SCORE.INTRA.VDW>
0.445225

>  <SCORE.INTRA.VDW.0>
-0.691186

>  <SCORE.INTRA.norm>
-0.106077

>  <SCORE.RESTR>
0

>  <SCORE.RESTR.CAVITY>
0

>  <SCORE.RESTR.norm>
0

>  <SCORE.SYSTEM>
0

>  <SCORE.SYSTEM.CONST>
0

>  <SCORE.SYSTEM.DIHEDRAL>
0

>  <SCORE.SYSTEM.SOLV>
0

>  <SCORE.SYSTEM.norm>
0

>  <SCORE.heavy>
12

>  <SCORE.norm>
-1.08446

>  <RMSD>
1.006

$$$$
ligand
 OpenBabel02271912143D
libRbt.so/2013.1/901 2013/11/27
 12 12  0  0  0  0  0  0  0  0999 V2000
  -22.0845  -10.7105   95.9300 C   0  0  0  0  0  0  0  0  0  0  0  0
  -19.1953   -6.1691   94.7872 C   0  0  0  0  0  0  0  0  0  0  0  0
  -19.5625  -10.8265   95.0032 N   0  0  0  0  0  0  0  0  0  0  0  0
  -23.5196  -10.6416   95.6197 N   0  0  0  0  0  0  0  0  0  0  0  0
  -24.1402  -11.4950   95.9984 N   0  0  0  0  0  0  0  0  0  0  0  0
  -24.7647  -12.3459   96.3750 N   0  0  0  0  0  0  0  0  0  0  0  0
  -21.2059   -7.1842   95.4949 N   0  0  0  0  0  0  0  0  0  0  0  0
  -19.9474   -7.3071   95.0528 C   0  0  0  0  0  0  0  0  0  0  0  0
  -19.4234   -8.5154   94.7983 N   0  0  0  0  0  0  0  0  0  0  0  0
  -20.1419   -9.6311   94.9915 C   0  0  0  0  0  0  0  0  0  0  0  0
  -21.4496   -9.5681   95.4586 C   0  0  0  0  0  0  0  0  0  0  0  0
  -22.0012   -8.3168   95.7063 C   0  0  0  0  0  0  0  0  0  0  0  0
  1 11  1  0  0  0  0
  1  4  1  0  0  0  0
  2  8  1  0  0  0  0
  3 10  1  0  0  0  0
  4  5  1  0  0  0  0
  5  6  1  0  0  0  0
  7  8  2  0  0  0  0
  7 12  1  0  0  0  0
  8  9  1  0  0  0  0
  9 10  2  0  0  0  0
 10 11  1  0  0  0  0
 11 12  2  0  0  0  0
M  END
>  <CHROM.1>
-146.79941012,-177.29552141,178.51091967,-21.46684282,-9.40624335,95.43714649
-2.37526952,0.24996205,-0.00106297

>  <Name>
ligand

>  <RI>
0

>  <Rbt.Current_Directory>
/home/itssahil/PROJECTS/Mol_Feturizer/Test_systems_manuscript/rnas/4nya

>  <Rbt.Executable>
rbdock ($Id: //depot/dev/client3/rdock/2013.1/src/exe/rbdock.cxx#4 $)

>  <Rbt.Library>
libRbt.so (2013.1, Build901 2013/11/27)

>  <Rbt.Parameter_File>
/export/apps/rDock/src/rDock_2013.1_src/data/scripts/dock_solv.prm

>  <Rbt.Receptor>
prm/pocket_docking_2.prm

>  <SCORE>
-13.0455

>  <SCORE.INTER>
-11.7668

>  <SCORE.INTER.CONST>
1

>  <SCORE.INTER.POLAR>
0

>  <SCORE.INTER.ROT>
3

>  <SCORE.INTER.SOLV>
14.5796

>  <SCORE.INTER.VDW>
-18.3044

>  <SCORE.INTER.norm>
-0.980568

>  <SCORE.INTRA>
-1.27869

>  <SCORE.INTRA.DIHEDRAL>
-2.16436

>  <SCORE.INTRA.DIHEDRAL.0>
3.34563

>  <SCORE.INTRA.POLAR>
0

>  <SCORE.INTRA.POLAR.0>
0

>  <SCORE.INTRA.REPUL>
0

>  <SCORE.INTRA.REPUL.0>
0

>  <SCORE.INTRA.SOLV>
-1.23123

>  <SCORE.INTRA.SOLV.lig_0>
-59.746

>  <SCORE.INTRA.VDW>
0.419105

>  <SCORE.INTRA.VDW.0>
-0.691186

>  <SCORE.INTRA.norm>
-0.106557

>  <SCORE.RESTR>
0

>  <SCORE.RESTR.CAVITY>
0

>  <SCORE.RESTR.norm>
0

>  <SCORE.SYSTEM>
0

>  <SCORE.SYSTEM.CONST>
0

>  <SCORE.SYSTEM.DIHEDRAL>
0

>  <SCORE.SYSTEM.SOLV>
0

>  <SCORE.SYSTEM.norm>
0

>  <SCORE.heavy>
12

>  <SCORE.norm>
-1.08713

>  <RMSD>
1.006

$$$$
ligand
 OpenBabel02271912143D
libRbt.so/2013.1/901 2013/11/27
 12 12  0  0  0  0  0  0  0  0999 V2000
  -22.0823  -10.7235   95.9229 C   0  0  0  0  0  0  0  0  0  0  0  0
  -19.2100   -6.1714   94.7804 C   0  0  0  0  0  0  0  0  0  0  0  0
  -19.5772  -10.8307   94.9503 N   0  0  0  0  0  0  0  0  0  0  0  0
  -23.5263  -10.6390   95.6615 N   0  0  0  0  0  0  0  0  0  0  0  0
  -24.1324  -11.5226   95.9910 N   0  0  0  0  0  0  0  0  0  0  0  0
  -24.7424  -12.4038   96.3185 N   0  0  0  0  0  0  0  0  0  0  0  0
  -21.2085   -7.1932   95.5121 N   0  0  0  0  0  0  0  0  0  0  0  0
  -19.9581   -7.3119   95.0464 C   0  0  0  0  0  0  0  0  0  0  0  0
  -19.4398   -8.5175   94.7691 N   0  0  0  0  0  0  0  0  0  0  0  0
  -20.1557   -9.6349   94.9623 C   0  0  0  0  0  0  0  0  0  0  0  0
  -21.4549   -9.5763   95.4532 C   0  0  0  0  0  0  0  0  0  0  0  0
  -22.0009   -8.3275   95.7247 C   0  0  0  0  0  0  0  0  0  0  0  0
  1 11  1  0  0  0  0
  1  4  1  0  0  0  0
  2  8  1  0  0  0  0
  3 10  1  0  0  0  0
  4  5  1  0  0  0  0
  5  6  1  0  0  0  0
  7  8  2  0  0  0  0
  7 12  1  0  0  0  0
  8  9  1  0  0  0  0
  9 10  2  0  0  0  0
 10 11  1  0  0  0  0
 11 12  2  0  0  0  0
M  END
>  <CHROM.1>
-147.85423703,179.31599959,-177.58078520,-21.47109832,-9.41816655,95.42666132
-2.37206623,0.26264417,0.01273764

>  <Name>
ligand

>  <RI>
0

>  <Rbt.Current_Directory>
/home/itssahil/PROJECTS/Mol_Feturizer/Test_systems_manuscript/rnas/4nya

>  <Rbt.Executable>
rbdock ($Id: //depot/dev/client3/rdock/2013.1/src/exe/rbdock.cxx#4 $)

>  <Rbt.Library>
libRbt.so (2013.1, Build901 2013/11/27)

>  <Rbt.Parameter_File>
/export/apps/rDock/src/rDock_2013.1_src/data/scripts/dock_solv.prm

>  <Rbt.Receptor>
prm/pocket_docking_2.prm

>  <SCORE>
-13.0753

>  <SCORE.INTER>
-11.7951

>  <SCORE.INTER.CONST>
1

>  <SCORE.INTER.POLAR>
0

>  <SCORE.INTER.ROT>
3

>  <SCORE.INTER.SOLV>
14.5587

>  <SCORE.INTER.VDW>
-18.3163

>  <SCORE.INTER.norm>
-0.982927

>  <SCORE.INTRA>
-1.28022

>  <SCORE.INTRA.DIHEDRAL>
-2.18426

>  <SCORE.INTRA.DIHEDRAL.0>
3.34563

>  <SCORE.INTRA.POLAR>
0

>  <SCORE.INTRA.POLAR.0>
0

>  <SCORE.INTRA.REPUL>
0

>  <SCORE.INTRA.REPUL.0>
0

>  <SCORE.INTRA.SOLV>
-1.24494

>  <SCORE.INTRA.SOLV.lig_0>
-59.746

>  <SCORE.INTRA.VDW>
0.434386

>  <SCORE.INTRA.VDW.0>
-0.691186

>  <SCORE.INTRA.norm>
-0.106685

>  <SCORE.RESTR>
0

>  <SCORE.RESTR.CAVITY>
0

>  <SCORE.RESTR.norm>
0

>  <SCORE.SYSTEM>
0

>  <SCORE.SYSTEM.CONST>
0

>  <SCORE.SYSTEM.DIHEDRAL>
0

>  <SCORE.SYSTEM.SOLV>
0

>  <SCORE.SYSTEM.norm>
0

>  <SCORE.heavy>
12

>  <SCORE.norm>
-1.08961

>  <RMSD>
1.007

$$$$
ligand
 OpenBabel02271912143D
libRbt.so/2013.1/901 2013/11/27
 12 12  0  0  0  0  0  0  0  0999 V2000
  -22.0837  -10.7147   95.9313 C   0  0  0  0  0  0  0  0  0  0  0  0
  -19.2019   -6.1697   94.7843 C   0  0  0  0  0  0  0  0  0  0  0  0
  -19.5673  -10.8278   94.9890 N   0  0  0  0  0  0  0  0  0  0  0  0
  -23.5219  -10.6416   95.6368 N   0  0  0  0  0  0  0  0  0  0  0  0
  -24.1402  -11.4953   96.0185 N   0  0  0  0  0  0  0  0  0  0  0  0
  -24.7624  -12.3465   96.3981 N   0  0  0  0  0  0  0  0  0  0  0  0
  -21.2080   -7.1871   95.5011 N   0  0  0  0  0  0  0  0  0  0  0  0
  -19.9522   -7.3086   95.0512 C   0  0  0  0  0  0  0  0  0  0  0  0
  -19.4297   -8.5160   94.7900 N   0  0  0  0  0  0  0  0  0  0  0  0
  -20.1469   -9.6324   94.9843 C   0  0  0  0  0  0  0  0  0  0  0  0
  -21.4518   -9.5709   95.4594 C   0  0  0  0  0  0  0  0  0  0  0  0
  -22.0020   -8.3203   95.7140 C   0  0  0  0  0  0  0  0  0  0  0  0
  1 11  1  0  0  0  0
  1  4  1  0  0  0  0
  2  8  1  0  0  0  0
  3 10  1  0  0  0  0
  4  5  1  0  0  0  0
  5  6  1  0  0  0  0
  7  8  2  0  0  0  0
  7 12  1  0  0  0  0
  8  9  1  0  0  0  0
  9 10  2  0  0  0  0
 10 11  1  0  0  0  0
 11 12  2  0  0  0  0
M  END
>  <CHROM.1>
-147.12294405,-177.22013418,179.75761682,-21.46948222,-9.40782941,95.44079404
-2.37606281,0.25729201,0.00138032

>  <Name>
ligand

>  <RI>
0

>  <Rbt.Current_Directory>
/home/itssahil/PROJECTS/Mol_Feturizer/Test_systems_manuscript/rnas/4nya

>  <Rbt.Executable>
rbdock ($Id: //depot/dev/client3/rdock/2013.1/src/exe/rbdock.cxx#4 $)

>  <Rbt.Library>
libRbt.so (2013.1, Build901 2013/11/27)

>  <Rbt.Parameter_File>
/export/apps/rDock/src/rDock_2013.1_src/data/scripts/dock_solv.prm

>  <Rbt.Receptor>
prm/pocket_docking_2.prm

>  <SCORE>
-13.0497

>  <SCORE.INTER>
-11.7718

>  <SCORE.INTER.CONST>
1

>  <SCORE.INTER.POLAR>
0

>  <SCORE.INTER.ROT>
3

>  <SCORE.INTER.SOLV>
14.5717

>  <SCORE.INTER.VDW>
-18.3051

>  <SCORE.INTER.norm>
-0.98098

>  <SCORE.INTRA>
-1.27793

>  <SCORE.INTRA.DIHEDRAL>
-2.16946

>  <SCORE.INTRA.DIHEDRAL.0>
3.34563

>  <SCORE.INTRA.POLAR>
0

>  <SCORE.INTRA.POLAR.0>
0

>  <SCORE.INTRA.REPUL>
0

>  <SCORE.INTRA.REPUL.0>
0

>  <SCORE.INTRA.SOLV>
-1.23334

>  <SCORE.INTRA.SOLV.lig_0>
-59.746

>  <SCORE.INTRA.VDW>
0.423472

>  <SCORE.INTRA.VDW.0>
-0.691186

>  <SCORE.INTRA.norm>
-0.106494

>  <SCORE.RESTR>
0

>  <SCORE.RESTR.CAVITY>
0

>  <SCORE.RESTR.norm>
0

>  <SCORE.SYSTEM>
0

>  <SCORE.SYSTEM.CONST>
0

>  <SCORE.SYSTEM.DIHEDRAL>
0

>  <SCORE.SYSTEM.SOLV>
0

>  <SCORE.SYSTEM.norm>
0

>  <SCORE.heavy>
12

>  <SCORE.norm>
-1.08747

>  <RMSD>
1.008

$$$$
ligand
 OpenBabel02271912143D
libRbt.so/2013.1/901 2013/11/27
 12 12  0  0  0  0  0  0  0  0999 V2000
  -22.0926  -10.7123   95.9148 C   0  0  0  0  0  0  0  0  0  0  0  0
  -19.1963   -6.1700   94.7944 C   0  0  0  0  0  0  0  0  0  0  0  0
  -19.5717  -10.8278   94.9850 N   0  0  0  0  0  0  0  0  0  0  0  0
  -23.5353  -10.6173   95.6499 N   0  0  0  0  0  0  0  0  0  0  0  0
  -24.1507  -11.4897   95.9918 N   0  0  0  0  0  0  0  0  0  0  0  0
  -24.7646  -12.3609   96.3385 N   0  0  0  0  0  0  0  0  0  0  0  0
  -21.2080   -7.1853   95.4984 N   0  0  0  0  0  0  0  0  0  0  0  0
  -19.9501   -7.3081   95.0544 C   0  0  0  0  0  0  0  0  0  0  0  0
  -19.4286   -8.5159   94.7928 N   0  0  0  0  0  0  0  0  0  0  0  0
  -20.1490   -9.6313   94.9804 C   0  0  0  0  0  0  0  0  0  0  0  0
  -21.4561   -9.5685   95.4491 C   0  0  0  0  0  0  0  0  0  0  0  0
  -22.0051   -8.3176   95.7043 C   0  0  0  0  0  0  0  0  0  0  0  0
  1 11  1  0  0  0  0
  1  4  1  0  0  0  0
  2  8  1  0  0  0  0
  3 10  1  0  0  0  0
  4  5  1  0  0  0  0
  5  6  1  0  0  0  0
  7  8  2  0  0  0  0
  7 12  1  0  0  0  0
  8  9  1  0  0  0  0
  9 10  2  0  0  0  0
 10 11  1  0  0  0  0
 11 12  2  0  0  0  0
M  END
>  <CHROM.1>
-148.83659567,-179.67636730,62.29877262,-21.47282885,-9.40564383,95.43204940
-2.37692018,0.25236729,0.00485966

>  <Name>
ligand

>  <RI>
0

>  <Rbt.Current_Directory>
/home/itssahil/PROJECTS/Mol_Feturizer/Test_systems_manuscript/rnas/4nya

>  <Rbt.Executable>
rbdock ($Id: //depot/dev/client3/rdock/2013.1/src/exe/rbdock.cxx#4 $)

>  <Rbt.Library>
libRbt.so (2013.1, Build901 2013/11/27)

>  <Rbt.Parameter_File>
/export/apps/rDock/src/rDock_2013.1_src/data/scripts/dock_solv.prm

>  <Rbt.Receptor>
prm/pocket_docking_2.prm

>  <SCORE>
-13.0457

>  <SCORE.INTER>
-11.773

>  <SCORE.INTER.CONST>
1

>  <SCORE.INTER.POLAR>
0

>  <SCORE.INTER.ROT>
3

>  <SCORE.INTER.SOLV>
14.5321

>  <SCORE.INTER.VDW>
-18.2927

>  <SCORE.INTER.norm>
-0.981081

>  <SCORE.INTRA>
-1.27271

>  <SCORE.INTRA.DIHEDRAL>
-2.19751

>  <SCORE.INTRA.DIHEDRAL.0>
3.34563

>  <SCORE.INTRA.POLAR>
0

>  <SCORE.INTRA.POLAR.0>
0

>  <SCORE.INTRA.REPUL>
0

>  <SCORE.INTRA.REPUL.0>
0

>  <SCORE.INTRA.SOLV>
-1.24651

>  <SCORE.INTRA.SOLV.lig_0>
-59.746

>  <SCORE.INTRA.VDW>
0.449297

>  <SCORE.INTRA.VDW.0>
-0.691186

>  <SCORE.INTRA.norm>
-0.106059

>  <SCORE.RESTR>
0

>  <SCORE.RESTR.CAVITY>
0

>  <SCORE.RESTR.norm>
0

>  <SCORE.SYSTEM>
0

>  <SCORE.SYSTEM.CONST>
0

>  <SCORE.SYSTEM.DIHEDRAL>
0

>  <SCORE.SYSTEM.SOLV>
0

>  <SCORE.SYSTEM.norm>
0

>  <SCORE.heavy>
12

>  <SCORE.norm>
-1.08714

>  <RMSD>
1.009

$$$$
ligand
 OpenBabel02271912143D
libRbt.so/2013.1/901 2013/11/27
 12 12  0  0  0  0  0  0  0  0999 V2000
  -22.0795  -10.6990   95.9389 C   0  0  0  0  0  0  0  0  0  0  0  0
  -19.1938   -6.1598   94.7791 C   0  0  0  0  0  0  0  0  0  0  0  0
  -19.5540  -10.8164   95.0221 N   0  0  0  0  0  0  0  0  0  0  0  0
  -23.5106  -10.6423   95.6084 N   0  0  0  0  0  0  0  0  0  0  0  0
  -24.1282  -11.5040   95.9727 N   0  0  0  0  0  0  0  0  0  0  0  0
  -24.7427  -12.3687   96.3342 N   0  0  0  0  0  0  0  0  0  0  0  0
  -21.2052   -7.1740   95.4856 N   0  0  0  0  0  0  0  0  0  0  0  0
  -19.9449   -7.2975   95.0489 C   0  0  0  0  0  0  0  0  0  0  0  0
  -19.4180   -8.5064   94.8037 N   0  0  0  0  0  0  0  0  0  0  0  0
  -20.1353   -9.6221   95.0010 C   0  0  0  0  0  0  0  0  0  0  0  0
  -21.4448   -9.5585   95.4629 C   0  0  0  0  0  0  0  0  0  0  0  0
  -21.9994   -8.3066   95.7009 C   0  0  0  0  0  0  0  0  0  0  0  0
  1 11  1  0  0  0  0
  1  4  1  0  0  0  0
  2  8  1  0  0  0  0
  3 10  1  0  0  0  0
  4  5  1  0  0  0  0
  5  6  1  0  0  0  0
  7  8  2  0  0  0  0
  7 12  1  0  0  0  0
  8  9  1  0  0  0  0
  9 10  2  0  0  0  0
 10 11  1  0  0  0  0
 11 12  2  0  0  0  0
M  END
>  <CHROM.1>
-146.10220748,-178.34436951,-61.28613121,-21.46007838,-9.40178858,95.43204978
-2.36905628,0.24123769,-0.00586396

>  <Name>
ligand

>  <RI>
0

>  <Rbt.Current_Directory>
/home/itssahil/PROJECTS/Mol_Feturizer/Test_systems_manuscript/rnas/4nya

>  <Rbt.Executable>
rbdock ($Id: //depot/dev/client3/rdock/2013.1/src/exe/rbdock.cxx#4 $)

>  <Rbt.Library>
libRbt.so (2013.1, Build901 2013/11/27)

>  <Rbt.Parameter_File>
/export/apps/rDock/src/rDock_2013.1_src/data/scripts/dock_solv.prm

>  <Rbt.Receptor>
prm/pocket_docking_2.prm

>  <SCORE>
-13.0371

>  <SCORE.INTER>
-11.7571

>  <SCORE.INTER.CONST>
1

>  <SCORE.INTER.POLAR>
0

>  <SCORE.INTER.ROT>
3

>  <SCORE.INTER.SOLV>
14.6214

>  <SCORE.INTER.VDW>
-18.3119

>  <SCORE.INTER.norm>
-0.979762

>  <SCORE.INTRA>
-1.27994

>  <SCORE.INTRA.DIHEDRAL>
-2.15732

>  <SCORE.INTRA.DIHEDRAL.0>
3.34563

>  <SCORE.INTRA.POLAR>
0

>  <SCORE.INTRA.POLAR.0>
0

>  <SCORE.INTRA.REPUL>
0

>  <SCORE.INTRA.REPUL.0>
0

>  <SCORE.INTRA.SOLV>
-1.22522

>  <SCORE.INTRA.SOLV.lig_0>
-59.746

>  <SCORE.INTRA.VDW>
0.411335

>  <SCORE.INTRA.VDW.0>
-0.691186

>  <SCORE.INTRA.norm>
-0.106661

>  <SCORE.RESTR>
0

>  <SCORE.RESTR.CAVITY>
0

>  <SCORE.RESTR.norm>
0

>  <SCORE.SYSTEM>
0

>  <SCORE.SYSTEM.CONST>
0

>  <SCORE.SYSTEM.DIHEDRAL>
0

>  <SCORE.SYSTEM.SOLV>
0

>  <SCORE.SYSTEM.norm>
0

>  <SCORE.heavy>
12

>  <SCORE.norm>
-1.08642

>  <RMSD>
1.009

$$$$
ligand
 OpenBabel02271912143D
libRbt.so/2013.1/901 2013/11/27
 12 12  0  0  0  0  0  0  0  0999 V2000
  -22.0781  -10.7191   95.9416 C   0  0  0  0  0  0  0  0  0  0  0  0
  -19.2070   -6.1709   94.7809 C   0  0  0  0  0  0  0  0  0  0  0  0
  -19.5649  -10.8293   94.9905 N   0  0  0  0  0  0  0  0  0  0  0  0
  -23.5166  -10.6507   95.6474 N   0  0  0  0  0  0  0  0  0  0  0  0
  -24.1331  -11.5027   96.0356 N   0  0  0  0  0  0  0  0  0  0  0  0
  -24.7466  -12.3578   96.4210 N   0  0  0  0  0  0  0  0  0  0  0  0
  -21.2091   -7.1906   95.5056 N   0  0  0  0  0  0  0  0  0  0  0  0
  -19.9547   -7.3106   95.0513 C   0  0  0  0  0  0  0  0  0  0  0  0
  -19.4313   -8.5175   94.7892 N   0  0  0  0  0  0  0  0  0  0  0  0
  -20.1463   -9.6347   94.9868 C   0  0  0  0  0  0  0  0  0  0  0  0
  -21.4495   -9.5748   95.4665 C   0  0  0  0  0  0  0  0  0  0  0  0
  -22.0006   -8.3248   95.7221 C   0  0  0  0  0  0  0  0  0  0  0  0
  1 11  1  0  0  0  0
  1  4  1  0  0  0  0
  2  8  1  0  0  0  0
  3 10  1  0  0  0  0
  4  5  1  0  0  0  0
  5  6  1  0  0  0  0
  7  8  2  0  0  0  0
  7 12  1  0  0  0  0
  8  9  1  0  0  0  0
  9 10  2  0  0  0  0
 10 11  1  0  0  0  0
 11 12  2  0  0  0  0
M  END
>  <CHROM.1>
-146.90301633,-176.94813684,-58.58988322,-21.46691710,-9.41226006,95.44754421
-2.37391313,0.26076927,0.00012359

>  <Name>
ligand

>  <RI>
0

>  <Rbt.Current_Directory>
/home/itssahil/PROJECTS/Mol_Feturizer/Test_systems_manuscript/rnas/4nya

>  <Rbt.Executable>
rbdock ($Id: //depot/dev/client3/rdock/2013.1/src/exe/rbdock.cxx#4 $)

>  <Rbt.Library>
libRbt.so (2013.1, Build901 2013/11/27)

>  <Rbt.Parameter_File>
/export/apps/rDock/src/rDock_2013.1_src/data/scripts/dock_solv.prm

>  <Rbt.Receptor>
prm/pocket_docking_3.prm

>  <SCORE>
-13.0455

>  <SCORE.INTER>
-11.771

>  <SCORE.INTER.CONST>
1

>  <SCORE.INTER.POLAR>
0

>  <SCORE.INTER.ROT>
3

>  <SCORE.INTER.SOLV>
14.5897

>  <SCORE.INTER.VDW>
-18.3106

>  <SCORE.INTER.norm>
-0.98092

>  <SCORE.INTRA>
-1.27444

>  <SCORE.INTRA.DIHEDRAL>
-2.16435

>  <SCORE.INTRA.DIHEDRAL.0>
3.34563

>  <SCORE.INTRA.POLAR>
0

>  <SCORE.INTRA.POLAR.0>
0

>  <SCORE.INTRA.REPUL>
0

>  <SCORE.INTRA.REPUL.0>
0

>  <SCORE.INTRA.SOLV>
-1.22791

>  <SCORE.INTRA.SOLV.lig_0>
-59.746

>  <SCORE.INTRA.VDW>
0.421691

>  <SCORE.INTRA.VDW.0>
-0.691186

>  <SCORE.INTRA.norm>
-0.106203

>  <SCORE.RESTR>
0

>  <SCORE.RESTR.CAVITY>
0

>  <SCORE.RESTR.norm>
0

>  <SCORE.SYSTEM>
0

>  <SCORE.SYSTEM.CONST>
0

>  <SCORE.SYSTEM.DIHEDRAL>
0

>  <SCORE.SYSTEM.SOLV>
0

>  <SCORE.SYSTEM.norm>
0

>  <SCORE.heavy>
12

>  <SCORE.norm>
-1.08712

>  <RMSD>
1.009

$$$$
ligand
 OpenBabel02271912143D
libRbt.so/2013.1/901 2013/11/27
 12 12  0  0  0  0  0  0  0  0999 V2000
  -22.1481  -10.6607   95.9532 C   0  0  0  0  0  0  0  0  0  0  0  0
  -19.1987   -6.1676   94.7739 C   0  0  0  0  0  0  0  0  0  0  0  0
  -19.5800  -10.8121   95.1692 N   0  0  0  0  0  0  0  0  0  0  0  0
  -23.5743  -10.5834   95.6061 N   0  0  0  0  0  0  0  0  0  0  0  0
  -24.2232  -11.3910   96.0345 N   0  0  0  0  0  0  0  0  0  0  0  0
  -24.8692  -12.2018   96.4603 N   0  0  0  0  0  0  0  0  0  0  0  0
  -21.2451   -7.1549   95.4153 N   0  0  0  0  0  0  0  0  0  0  0  0
  -19.9647   -7.2945   95.0472 C   0  0  0  0  0  0  0  0  0  0  0  0
  -19.4286   -8.5117   94.8733 N   0  0  0  0  0  0  0  0  0  0  0  0
  -20.1572   -9.6193   95.0751 C   0  0  0  0  0  0  0  0  0  0  0  0
  -21.4880   -9.5385   95.4681 C   0  0  0  0  0  0  0  0  0  0  0  0
  -22.0513   -8.2786   95.6319 C   0  0  0  0  0  0  0  0  0  0  0  0
  1 11  1  0  0  0  0
  1  4  1  0  0  0  0
  2  8  1  0  0  0  0
  3 10  1  0  0  0  0
  4  5  1  0  0  0  0
  5  6  1  0  0  0  0
  7  8  2  0  0  0  0
  7 12  1  0  0  0  0
  8  9  1  0  0  0  0
  9 10  2  0  0  0  0
 10 11  1  0  0  0  0
 11 12  2  0  0  0  0
M  END
>  <CHROM.1>
-148.86502633,-174.32633556,-59.78854151,-21.50814775,-9.36415481,95.46230234
-2.38621741,0.21125561,-0.04858152

>  <Name>
ligand

>  <RI>
0

>  <Rbt.Current_Directory>
/home/itssahil/PROJECTS/Mol_Feturizer/Test_systems_manuscript/rnas/4nya

>  <Rbt.Executable>
rbdock ($Id: //depot/dev/client3/rdock/2013.1/src/exe/rbdock.cxx#4 $)

>  <Rbt.Library>
libRbt.so (2013.1, Build901 2013/11/27)

>  <Rbt.Parameter_File>
/export/apps/rDock/src/rDock_2013.1_src/data/scripts/dock_solv.prm

>  <Rbt.Receptor>
prm/pocket_docking_4.prm

>  <SCORE>
-12.9895

>  <SCORE.INTER>
-11.7334

>  <SCORE.INTER.CONST>
1

>  <SCORE.INTER.POLAR>
0

>  <SCORE.INTER.ROT>
3

>  <SCORE.INTER.SOLV>
14.39

>  <SCORE.INTER.VDW>
-18.219

>  <SCORE.INTER.norm>
-0.977785

>  <SCORE.INTRA>
-1.25604

>  <SCORE.INTRA.DIHEDRAL>
-2.1731

>  <SCORE.INTRA.DIHEDRAL.0>
3.34563

>  <SCORE.INTRA.POLAR>
0

>  <SCORE.INTRA.POLAR.0>
0

>  <SCORE.INTRA.REPUL>
0

>  <SCORE.INTRA.REPUL.0>
0

>  <SCORE.INTRA.SOLV>
-1.23524

>  <SCORE.INTRA.SOLV.lig_0>
-59.746

>  <SCORE.INTRA.VDW>
0.448129

>  <SCORE.INTRA.VDW.0>
-0.691186

>  <SCORE.INTRA.norm>
-0.10467

>  <SCORE.RESTR>
0

>  <SCORE.RESTR.CAVITY>
0

>  <SCORE.RESTR.norm>
0

>  <SCORE.SYSTEM>
0

>  <SCORE.SYSTEM.CONST>
0

>  <SCORE.SYSTEM.DIHEDRAL>
0

>  <SCORE.SYSTEM.SOLV>
0

>  <SCORE.SYSTEM.norm>
0

>  <SCORE.heavy>
12

>  <SCORE.norm>
-1.08245

>  <RMSD>
1.009

$$$$
ligand
 OpenBabel02271912143D
libRbt.so/2013.1/901 2013/11/27
 12 12  0  0  0  0  0  0  0  0999 V2000
  -22.0620  -10.7013   95.9202 C   0  0  0  0  0  0  0  0  0  0  0  0
  -19.2162   -6.1317   94.7808 C   0  0  0  0  0  0  0  0  0  0  0  0
  -19.5073  -10.7896   95.0843 N   0  0  0  0  0  0  0  0  0  0  0  0
  -23.4909  -10.6550   95.5786 N   0  0  0  0  0  0  0  0  0  0  0  0
  -24.1049  -11.5211   95.9386 N   0  0  0  0  0  0  0  0  0  0  0  0
  -24.7229  -12.3848   96.2964 N   0  0  0  0  0  0  0  0  0  0  0  0
  -21.2318   -7.1691   95.4399 N   0  0  0  0  0  0  0  0  0  0  0  0
  -19.9566   -7.2778   95.0446 C   0  0  0  0  0  0  0  0  0  0  0  0
  -19.4025   -8.4811   94.8346 N   0  0  0  0  0  0  0  0  0  0  0  0
  -20.1072   -9.6057   95.0267 C   0  0  0  0  0  0  0  0  0  0  0  0
  -21.4314   -9.5574   95.4466 C   0  0  0  0  0  0  0  0  0  0  0  0
  -22.0137   -8.3116   95.6479 C   0  0  0  0  0  0  0  0  0  0  0  0
  1 11  1  0  0  0  0
  1  4  1  0  0  0  0
  2  8  1  0  0  0  0
  3 10  1  0  0  0  0
  4  5  1  0  0  0  0
  5  6  1  0  0  0  0
  7  8  2  0  0  0  0
  7 12  1  0  0  0  0
  8  9  1  0  0  0  0
  9 10  2  0  0  0  0
 10 11  1  0  0  0  0
 11 12  2  0  0  0  0
M  END
>  <CHROM.1>
-147.75073739,-178.44394667,179.99266964,-21.45093802,-9.39600935,95.42228086
-2.35690129,0.21511426,-0.02647009

>  <Name>
ligand

>  <RI>
0

>  <Rbt.Current_Directory>
/home/itssahil/PROJECTS/Mol_Feturizer/Test_systems_manuscript/rnas/4nya

>  <Rbt.Executable>
rbdock ($Id: //depot/dev/client3/rdock/2013.1/src/exe/rbdock.cxx#4 $)

>  <Rbt.Library>
libRbt.so (2013.1, Build901 2013/11/27)

>  <Rbt.Parameter_File>
/export/apps/rDock/src/rDock_2013.1_src/data/scripts/dock_solv.prm

>  <Rbt.Receptor>
prm/pocket_docking_2.prm

>  <SCORE>
-13.0215

>  <SCORE.INTER>
-11.7424

>  <SCORE.INTER.CONST>
1

>  <SCORE.INTER.POLAR>
0

>  <SCORE.INTER.ROT>
3

>  <SCORE.INTER.SOLV>
14.7677

>  <SCORE.INTER.VDW>
-18.3508

>  <SCORE.INTER.norm>
-0.978534

>  <SCORE.INTRA>
-1.27906

>  <SCORE.INTRA.DIHEDRAL>
-2.18283

>  <SCORE.INTRA.DIHEDRAL.0>
3.34563

>  <SCORE.INTRA.POLAR>
0

>  <SCORE.INTRA.POLAR.0>
0

>  <SCORE.INTRA.REPUL>
0

>  <SCORE.INTRA.REPUL.0>
0

>  <SCORE.INTRA.SOLV>
-1.24018

>  <SCORE.INTRA.SOLV.lig_0>
-59.746

>  <SCORE.INTRA.VDW>
0.432448

>  <SCORE.INTRA.VDW.0>
-0.691186

>  <SCORE.INTRA.norm>
-0.106588

>  <SCORE.RESTR>
0

>  <SCORE.RESTR.CAVITY>
0

>  <SCORE.RESTR.norm>
0

>  <SCORE.SYSTEM>
0

>  <SCORE.SYSTEM.CONST>
0

>  <SCORE.SYSTEM.DIHEDRAL>
0

>  <SCORE.SYSTEM.SOLV>
0

>  <SCORE.SYSTEM.norm>
0

>  <SCORE.heavy>
12

>  <SCORE.norm>
-1.08512

>  <RMSD>
1.010

$$$$
ligand
 OpenBabel02271912143D
libRbt.so/2013.1/901 2013/11/27
 12 12  0  0  0  0  0  0  0  0999 V2000
  -22.0904  -10.7205   95.9059 C   0  0  0  0  0  0  0  0  0  0  0  0
  -19.2024   -6.1714   94.7913 C   0  0  0  0  0  0  0  0  0  0  0  0
  -19.5772  -10.8303   94.9546 N   0  0  0  0  0  0  0  0  0  0  0  0
  -23.5361  -10.6202   95.6604 N   0  0  0  0  0  0  0  0  0  0  0  0
  -24.1493  -11.4932   96.0048 N   0  0  0  0  0  0  0  0  0  0  0  0
  -24.7664  -12.3637   96.3474 N   0  0  0  0  0  0  0  0  0  0  0  0
  -21.2085   -7.1910   95.5052 N   0  0  0  0  0  0  0  0  0  0  0  0
  -19.9543   -7.3111   95.0501 C   0  0  0  0  0  0  0  0  0  0  0  0
  -19.4352   -8.5172   94.7763 N   0  0  0  0  0  0  0  0  0  0  0  0
  -20.1542   -9.6337   94.9626 C   0  0  0  0  0  0  0  0  0  0  0  0
  -21.4575   -9.5738   95.4424 C   0  0  0  0  0  0  0  0  0  0  0  0
  -22.0042   -8.3245   95.7102 C   0  0  0  0  0  0  0  0  0  0  0  0
  1 11  1  0  0  0  0
  1  4  1  0  0  0  0
  2  8  1  0  0  0  0
  3 10  1  0  0  0  0
  4  5  1  0  0  0  0
  5  6  1  0  0  0  0
  7  8  2  0  0  0  0
  7 12  1  0  0  0  0
  8  9  1  0  0  0  0
  9 10  2  0  0  0  0
 10 11  1  0  0  0  0
 11 12  2  0  0  0  0
M  END
>  <CHROM.1>
-149.15924666,-179.51351943,-178.58558319,-21.47516640,-9.40942754,95.42861677
-2.37855194,0.26167908,0.01119094

>  <Name>
ligand

>  <RI>
0

>  <Rbt.Current_Directory>
/home/itssahil/PROJECTS/Mol_Feturizer/Test_systems_manuscript/rnas/4nya

>  <Rbt.Executable>
rbdock ($Id: //depot/dev/client3/rdock/2013.1/src/exe/rbdock.cxx#4 $)

>  <Rbt.Library>
libRbt.so (2013.1, Build901 2013/11/27)

>  <Rbt.Parameter_File>
/export/apps/rDock/src/rDock_2013.1_src/data/scripts/dock_solv.prm

>  <Rbt.Receptor>
prm/pocket_docking_2.prm

>  <SCORE>
-13.0781

>  <SCORE.INTER>
-11.804

>  <SCORE.INTER.CONST>
1

>  <SCORE.INTER.POLAR>
0

>  <SCORE.INTER.ROT>
3

>  <SCORE.INTER.SOLV>
14.5315

>  <SCORE.INTER.VDW>
-18.3132

>  <SCORE.INTER.norm>
-0.983664

>  <SCORE.INTRA>
-1.27417

>  <SCORE.INTRA.DIHEDRAL>
-2.2022

>  <SCORE.INTRA.DIHEDRAL.0>
3.34563

>  <SCORE.INTRA.POLAR>
0

>  <SCORE.INTRA.POLAR.0>
0

>  <SCORE.INTRA.REPUL>
0

>  <SCORE.INTRA.REPUL.0>
0

>  <SCORE.INTRA.SOLV>
-1.25147

>  <SCORE.INTRA.SOLV.lig_0>
-59.746

>  <SCORE.INTRA.VDW>
0.452665

>  <SCORE.INTRA.VDW.0>
-0.691186

>  <SCORE.INTRA.norm>
-0.106181

>  <SCORE.RESTR>
0

>  <SCORE.RESTR.CAVITY>
0

>  <SCORE.RESTR.norm>
0

>  <SCORE.SYSTEM>
0

>  <SCORE.SYSTEM.CONST>
0

>  <SCORE.SYSTEM.DIHEDRAL>
0

>  <SCORE.SYSTEM.SOLV>
0

>  <SCORE.SYSTEM.norm>
0

>  <SCORE.heavy>
12

>  <SCORE.norm>
-1.08985

>  <RMSD>
1.010

$$$$
ligand
 OpenBabel02271912143D
libRbt.so/2013.1/901 2013/11/27
 12 12  0  0  0  0  0  0  0  0999 V2000
  -22.0692  -10.6760   95.9357 C   0  0  0  0  0  0  0  0  0  0  0  0
  -19.1714   -6.1469   94.7662 C   0  0  0  0  0  0  0  0  0  0  0  0
  -19.5248  -10.8003   95.0736 N   0  0  0  0  0  0  0  0  0  0  0  0
  -23.4956  -10.6228   95.5848 N   0  0  0  0  0  0  0  0  0  0  0  0
  -24.0942  -11.5345   95.8441 N   0  0  0  0  0  0  0  0  0  0  0  0
  -24.6967  -12.4438   96.1011 N   0  0  0  0  0  0  0  0  0  0  0  0
  -21.1945   -7.1559   95.4463 N   0  0  0  0  0  0  0  0  0  0  0  0
  -19.9251   -7.2825   95.0378 C   0  0  0  0  0  0  0  0  0  0  0  0
  -19.3901   -8.4935   94.8224 N   0  0  0  0  0  0  0  0  0  0  0  0
  -20.1086   -9.6081   95.0219 C   0  0  0  0  0  0  0  0  0  0  0  0
  -21.4276   -9.5411   95.4554 C   0  0  0  0  0  0  0  0  0  0  0  0
  -21.9902   -8.2873   95.6625 C   0  0  0  0  0  0  0  0  0  0  0  0
  1 11  1  0  0  0  0
  1  4  1  0  0  0  0
  2  8  1  0  0  0  0
  3 10  1  0  0  0  0
  4  5  1  0  0  0  0
  5  6  1  0  0  0  0
  7  8  2  0  0  0  0
  7 12  1  0  0  0  0
  8  9  1  0  0  0  0
  9 10  2  0  0  0  0
 10 11  1  0  0  0  0
 11 12  2  0  0  0  0
M  END
>  <CHROM.1>
-146.59313841,174.73680907,-177.11858256,-21.43750302,-9.39707702,95.39706001
-2.35532450,0.20475468,-0.01444884

>  <Name>
ligand

>  <RI>
0

>  <Rbt.Current_Directory>
/home/itssahil/PROJECTS/Mol_Feturizer/Test_systems_manuscript/rnas/4nya

>  <Rbt.Executable>
rbdock ($Id: //depot/dev/client3/rdock/2013.1/src/exe/rbdock.cxx#4 $)

>  <Rbt.Library>
libRbt.so (2013.1, Build901 2013/11/27)

>  <Rbt.Parameter_File>
/export/apps/rDock/src/rDock_2013.1_src/data/scripts/dock_solv.prm

>  <Rbt.Receptor>
prm/pocket_docking_3.prm

>  <SCORE>
-12.9674

>  <SCORE.INTER>
-11.6923

>  <SCORE.INTER.CONST>
1

>  <SCORE.INTER.POLAR>
0

>  <SCORE.INTER.ROT>
3

>  <SCORE.INTER.SOLV>
14.6833

>  <SCORE.INTER.VDW>
-18.2893

>  <SCORE.INTER.norm>
-0.974357

>  <SCORE.INTRA>
-1.2751

>  <SCORE.INTRA.DIHEDRAL>
-2.14289

>  <SCORE.INTRA.DIHEDRAL.0>
3.34563

>  <SCORE.INTRA.POLAR>
0

>  <SCORE.INTRA.POLAR.0>
0

>  <SCORE.INTRA.REPUL>
0

>  <SCORE.INTRA.REPUL.0>
0

>  <SCORE.INTRA.SOLV>
-1.24266

>  <SCORE.INTRA.SOLV.lig_0>
-59.746

>  <SCORE.INTRA.VDW>
0.417678

>  <SCORE.INTRA.VDW.0>
-0.691186

>  <SCORE.INTRA.norm>
-0.106258

>  <SCORE.RESTR>
0

>  <SCORE.RESTR.CAVITY>
0

>  <SCORE.RESTR.norm>
0

>  <SCORE.SYSTEM>
0

>  <SCORE.SYSTEM.CONST>
0

>  <SCORE.SYSTEM.DIHEDRAL>
0

>  <SCORE.SYSTEM.SOLV>
0

>  <SCORE.SYSTEM.norm>
0

>  <SCORE.heavy>
12

>  <SCORE.norm>
-1.08061

>  <RMSD>
1.010

$$$$
ligand
 OpenBabel02271912143D
libRbt.so/2013.1/901 2013/11/27
 12 12  0  0  0  0  0  0  0  0999 V2000
  -22.0859  -10.7129   95.9285 C   0  0  0  0  0  0  0  0  0  0  0  0
  -19.1994   -6.1694   94.7872 C   0  0  0  0  0  0  0  0  0  0  0  0
  -19.5666  -10.8273   94.9943 N   0  0  0  0  0  0  0  0  0  0  0  0
  -23.5277  -10.6262   95.6559 N   0  0  0  0  0  0  0  0  0  0  0  0
  -24.1430  -11.4920   96.0145 N   0  0  0  0  0  0  0  0  0  0  0  0
  -24.7553  -12.3606   96.3702 N   0  0  0  0  0  0  0  0  0  0  0  0
  -21.2080   -7.1858   95.4985 N   0  0  0  0  0  0  0  0  0  0  0  0
  -19.9508   -7.3079   95.0525 C   0  0  0  0  0  0  0  0  0  0  0  0
  -19.4278   -8.5157   94.7940 N   0  0  0  0  0  0  0  0  0  0  0  0
  -20.1459   -9.6317   94.9868 C   0  0  0  0  0  0  0  0  0  0  0  0
  -21.4522   -9.5696   95.4577 C   0  0  0  0  0  0  0  0  0  0  0  0
  -22.0029   -8.3187   95.7097 C   0  0  0  0  0  0  0  0  0  0  0  0
  1 11  1  0  0  0  0
  1  4  1  0  0  0  0
  2  8  1  0  0  0  0
  3 10  1  0  0  0  0
  4  5  1  0  0  0  0
  5  6  1  0  0  0  0
  7  8  2  0  0  0  0
  7 12  1  0  0  0  0
  8  9  1  0  0  0  0
  9 10  2  0  0  0  0
 10 11  1  0  0  0  0
 11 12  2  0  0  0  0
M  END
>  <CHROM.1>
-148.36455746,-178.80879344,-58.39482317,-21.46925546,-9.40674626,95.44012996
-2.37535532,0.25440976,0.00082614

>  <Name>
ligand

>  <RI>
0

>  <Rbt.Current_Directory>
/home/itssahil/PROJECTS/Mol_Feturizer/Test_systems_manuscript/rnas/4nya

>  <Rbt.Executable>
rbdock ($Id: //depot/dev/client3/rdock/2013.1/src/exe/rbdock.cxx#4 $)

>  <Rbt.Library>
libRbt.so (2013.1, Build901 2013/11/27)

>  <Rbt.Parameter_File>
/export/apps/rDock/src/rDock_2013.1_src/data/scripts/dock_solv.prm

>  <Rbt.Receptor>
prm/pocket_docking_3.prm

>  <SCORE>
-13.049

>  <SCORE.INTER>
-11.7749

>  <SCORE.INTER.CONST>
1

>  <SCORE.INTER.POLAR>
0

>  <SCORE.INTER.ROT>
3

>  <SCORE.INTER.SOLV>
14.5558

>  <SCORE.INTER.VDW>
-18.3019

>  <SCORE.INTER.norm>
-0.981246

>  <SCORE.INTRA>
-1.27402

>  <SCORE.INTRA.DIHEDRAL>
-2.1912

>  <SCORE.INTRA.DIHEDRAL.0>
3.34563

>  <SCORE.INTRA.POLAR>
0

>  <SCORE.INTRA.POLAR.0>
0

>  <SCORE.INTRA.REPUL>
0

>  <SCORE.INTRA.REPUL.0>
0

>  <SCORE.INTRA.SOLV>
-1.2417

>  <SCORE.INTRA.SOLV.lig_0>
-59.746

>  <SCORE.INTRA.VDW>
0.44243

>  <SCORE.INTRA.VDW.0>
-0.691186

>  <SCORE.INTRA.norm>
-0.106168

>  <SCORE.RESTR>
0

>  <SCORE.RESTR.CAVITY>
0

>  <SCORE.RESTR.norm>
0

>  <SCORE.SYSTEM>
0

>  <SCORE.SYSTEM.CONST>
0

>  <SCORE.SYSTEM.DIHEDRAL>
0

>  <SCORE.SYSTEM.SOLV>
0

>  <SCORE.SYSTEM.norm>
0

>  <SCORE.heavy>
12

>  <SCORE.norm>
-1.08741

>  <RMSD>
1.010

$$$$
ligand
 OpenBabel02271912143D
libRbt.so/2013.1/901 2013/11/27
 12 12  0  0  0  0  0  0  0  0999 V2000
  -22.0888  -10.7039   95.9169 C   0  0  0  0  0  0  0  0  0  0  0  0
  -19.2060   -6.1583   94.7749 C   0  0  0  0  0  0  0  0  0  0  0  0
  -19.5515  -10.8153   95.0324 N   0  0  0  0  0  0  0  0  0  0  0  0
  -23.5308  -10.6131   95.6467 N   0  0  0  0  0  0  0  0  0  0  0  0
  -24.1433  -11.4925   95.9759 N   0  0  0  0  0  0  0  0  0  0  0  0
  -24.7527  -12.3746   96.3020 N   0  0  0  0  0  0  0  0  0  0  0  0
  -21.2222   -7.1774   95.4602 N   0  0  0  0  0  0  0  0  0  0  0  0
  -19.9561   -7.2978   95.0399 C   0  0  0  0  0  0  0  0  0  0  0  0
  -19.4216   -8.5056   94.8063 N   0  0  0  0  0  0  0  0  0  0  0  0
  -20.1371   -9.6233   94.9991 C   0  0  0  0  0  0  0  0  0  0  0  0
  -21.4525   -9.5628   95.4443 C   0  0  0  0  0  0  0  0  0  0  0  0
  -22.0148   -8.3121   95.6702 C   0  0  0  0  0  0  0  0  0  0  0  0
  1 11  1  0  0  0  0
  1  4  1  0  0  0  0
  2  8  1  0  0  0  0
  3 10  1  0  0  0  0
  4  5  1  0  0  0  0
  5  6  1  0  0  0  0
  7  8  2  0  0  0  0
  7 12  1  0  0  0  0
  8  9  1  0  0  0  0
  9 10  2  0  0  0  0
 10 11  1  0  0  0  0
 11 12  2  0  0  0  0
M  END
>  <CHROM.1>
-149.81499800,179.19427387,-59.21150021,-21.47023499,-9.40001870,95.42496140
-2.36941693,0.23519734,-0.01220148

>  <Name>
ligand

>  <RI>
0

>  <Rbt.Current_Directory>
/home/itssahil/PROJECTS/Mol_Feturizer/Test_systems_manuscript/rnas/4nya

>  <Rbt.Executable>
rbdock ($Id: //depot/dev/client3/rdock/2013.1/src/exe/rbdock.cxx#4 $)

>  <Rbt.Library>
libRbt.so (2013.1, Build901 2013/11/27)

>  <Rbt.Parameter_File>
/export/apps/rDock/src/rDock_2013.1_src/data/scripts/dock_solv.prm

>  <Rbt.Receptor>
prm/pocket_docking_2.prm

>  <SCORE>
-13.0399

>  <SCORE.INTER>
-11.7716

>  <SCORE.INTER.CONST>
1

>  <SCORE.INTER.POLAR>
0

>  <SCORE.INTER.ROT>
3

>  <SCORE.INTER.SOLV>
14.5852

>  <SCORE.INTER.VDW>
-18.3095

>  <SCORE.INTER.norm>
-0.980964

>  <SCORE.INTRA>
-1.26832

>  <SCORE.INTRA.DIHEDRAL>
-2.20969

>  <SCORE.INTRA.DIHEDRAL.0>
3.34563

>  <SCORE.INTRA.POLAR>
0

>  <SCORE.INTRA.POLAR.0>
0

>  <SCORE.INTRA.REPUL>
0

>  <SCORE.INTRA.REPUL.0>
0

>  <SCORE.INTRA.SOLV>
-1.25449

>  <SCORE.INTRA.SOLV.lig_0>
-59.746

>  <SCORE.INTRA.VDW>
0.463766

>  <SCORE.INTRA.VDW.0>
-0.691186

>  <SCORE.INTRA.norm>
-0.105694

>  <SCORE.RESTR>
0

>  <SCORE.RESTR.CAVITY>
0

>  <SCORE.RESTR.norm>
0

>  <SCORE.SYSTEM>
0

>  <SCORE.SYSTEM.CONST>
0

>  <SCORE.SYSTEM.DIHEDRAL>
0

>  <SCORE.SYSTEM.SOLV>
0

>  <SCORE.SYSTEM.norm>
0

>  <SCORE.heavy>
12

>  <SCORE.norm>
-1.08666

>  <RMSD>
1.011

$$$$
ligand
 OpenBabel02271912143D
libRbt.so/2013.1/901 2013/11/27
 12 12  0  0  0  0  0  0  0  0999 V2000
  -22.0873  -10.7206   95.9203 C   0  0  0  0  0  0  0  0  0  0  0  0
  -19.2060   -6.1720   94.7863 C   0  0  0  0  0  0  0  0  0  0  0  0
  -19.5776  -10.8308   94.9599 N   0  0  0  0  0  0  0  0  0  0  0  0
  -23.5344  -10.6202   95.6828 N   0  0  0  0  0  0  0  0  0  0  0  0
  -24.1447  -11.4969   96.0231 N   0  0  0  0  0  0  0  0  0  0  0  0
  -24.7590  -12.3708   96.3618 N   0  0  0  0  0  0  0  0  0  0  0  0
  -21.2088   -7.1914   95.5096 N   0  0  0  0  0  0  0  0  0  0  0  0
  -19.9563   -7.3116   95.0501 C   0  0  0  0  0  0  0  0  0  0  0  0
  -19.4376   -8.5180   94.7767 N   0  0  0  0  0  0  0  0  0  0  0  0
  -20.1553   -9.6345   94.9678 C   0  0  0  0  0  0  0  0  0  0  0  0
  -21.4567   -9.5744   95.4523 C   0  0  0  0  0  0  0  0  0  0  0  0
  -22.0031   -8.3249   95.7198 C   0  0  0  0  0  0  0  0  0  0  0  0
  1 11  1  0  0  0  0
  1  4  1  0  0  0  0
  2  8  1  0  0  0  0
  3 10  1  0  0  0  0
  4  5  1  0  0  0  0
  5  6  1  0  0  0  0
  7  8  2  0  0  0  0
  7 12  1  0  0  0  0
  8  9  1  0  0  0  0
  9 10  2  0  0  0  0
 10 11  1  0  0  0  0
 11 12  2  0  0  0  0
M  END
>  <CHROM.1>
-149.28898200,179.95532576,178.15553315,-21.47439492,-9.41075005,95.43691893
-2.37736911,0.26450576,0.00957151

>  <Name>
ligand

>  <RI>
0

>  <Rbt.Current_Directory>
/home/itssahil/PROJECTS/Mol_Feturizer/Test_systems_manuscript/rnas/4nya

>  <Rbt.Executable>
rbdock ($Id: //depot/dev/client3/rdock/2013.1/src/exe/rbdock.cxx#4 $)

>  <Rbt.Library>
libRbt.so (2013.1, Build901 2013/11/27)

>  <Rbt.Parameter_File>
/export/apps/rDock/src/rDock_2013.1_src/data/scripts/dock_solv.prm

>  <Rbt.Receptor>
prm/pocket_docking_2.prm

>  <SCORE>
-13.0842

>  <SCORE.INTER>
-11.8105

>  <SCORE.INTER.CONST>
1

>  <SCORE.INTER.POLAR>
0

>  <SCORE.INTER.ROT>
3

>  <SCORE.INTER.SOLV>
14.5245

>  <SCORE.INTER.VDW>
-18.3151

>  <SCORE.INTER.norm>
-0.984208

>  <SCORE.INTRA>
-1.27372

>  <SCORE.INTRA.DIHEDRAL>
-2.20353

>  <SCORE.INTRA.DIHEDRAL.0>
3.34563

>  <SCORE.INTRA.POLAR>
0

>  <SCORE.INTRA.POLAR.0>
0

>  <SCORE.INTRA.REPUL>
0

>  <SCORE.INTRA.REPUL.0>
0

>  <SCORE.INTRA.SOLV>
-1.25322

>  <SCORE.INTRA.SOLV.lig_0>
-59.746

>  <SCORE.INTRA.VDW>
0.454658

>  <SCORE.INTRA.VDW.0>
-0.691186

>  <SCORE.INTRA.norm>
-0.106143

>  <SCORE.RESTR>
0

>  <SCORE.RESTR.CAVITY>
0

>  <SCORE.RESTR.norm>
0

>  <SCORE.SYSTEM>
0

>  <SCORE.SYSTEM.CONST>
0

>  <SCORE.SYSTEM.DIHEDRAL>
0

>  <SCORE.SYSTEM.SOLV>
0

>  <SCORE.SYSTEM.norm>
0

>  <SCORE.heavy>
12

>  <SCORE.norm>
-1.09035

>  <RMSD>
1.012

$$$$
ligand
 OpenBabel02271912143D
libRbt.so/2013.1/901 2013/11/27
 12 12  0  0  0  0  0  0  0  0999 V2000
  -22.0845  -10.7198   95.9207 C   0  0  0  0  0  0  0  0  0  0  0  0
  -19.2084   -6.1698   94.7791 C   0  0  0  0  0  0  0  0  0  0  0  0
  -19.5763  -10.8288   94.9563 N   0  0  0  0  0  0  0  0  0  0  0  0
  -23.5275  -10.6360   95.6537 N   0  0  0  0  0  0  0  0  0  0  0  0
  -24.1399  -11.5021   96.0165 N   0  0  0  0  0  0  0  0  0  0  0  0
  -24.7496  -12.3710   96.3761 N   0  0  0  0  0  0  0  0  0  0  0  0
  -21.2093   -7.1902   95.5063 N   0  0  0  0  0  0  0  0  0  0  0  0
  -19.9575   -7.3098   95.0448 C   0  0  0  0  0  0  0  0  0  0  0  0
  -19.4383   -8.5159   94.7714 N   0  0  0  0  0  0  0  0  0  0  0  0
  -20.1548   -9.6329   94.9643 C   0  0  0  0  0  0  0  0  0  0  0  0
  -21.4556   -9.5734   95.4509 C   0  0  0  0  0  0  0  0  0  0  0  0
  -22.0024   -8.3241   95.7184 C   0  0  0  0  0  0  0  0  0  0  0  0
  1 11  1  0  0  0  0
  1  4  1  0  0  0  0
  2  8  1  0  0  0  0
  3 10  1  0  0  0  0
  4  5  1  0  0  0  0
  5  6  1  0  0  0  0
  7  8  2  0  0  0  0
  7 12  1  0  0  0  0
  8  9  1  0  0  0  0
  9 10  2  0  0  0  0
 10 11  1  0  0  0  0
 11 12  2  0  0  0  0
M  END
>  <CHROM.1>
-147.81823243,-178.52311853,-62.50098313,-21.47245082,-9.41145748,95.43249311
-2.37536534,0.26487218,0.00865433

>  <Name>
ligand

>  <RI>
0

>  <Rbt.Current_Directory>
/home/itssahil/PROJECTS/Mol_Feturizer/Test_systems_manuscript/rnas/4nya

>  <Rbt.Executable>
rbdock ($Id: //depot/dev/client3/rdock/2013.1/src/exe/rbdock.cxx#4 $)

>  <Rbt.Library>
libRbt.so (2013.1, Build901 2013/11/27)

>  <Rbt.Parameter_File>
/export/apps/rDock/src/rDock_2013.1_src/data/scripts/dock_solv.prm

>  <Rbt.Receptor>
prm/pocket_docking_2.prm

>  <SCORE>
-13.0782

>  <SCORE.INTER>
-11.8029

>  <SCORE.INTER.CONST>
1

>  <SCORE.INTER.POLAR>
0

>  <SCORE.INTER.ROT>
3

>  <SCORE.INTER.SOLV>
14.5661

>  <SCORE.INTER.VDW>
-18.324

>  <SCORE.INTER.norm>
-0.983578

>  <SCORE.INTRA>
-1.27529

>  <SCORE.INTRA.DIHEDRAL>
-2.18225

>  <SCORE.INTRA.DIHEDRAL.0>
3.34563

>  <SCORE.INTRA.POLAR>
0

>  <SCORE.INTRA.POLAR.0>
0

>  <SCORE.INTRA.REPUL>
0

>  <SCORE.INTRA.REPUL.0>
0

>  <SCORE.INTRA.SOLV>
-1.23762

>  <SCORE.INTRA.SOLV.lig_0>
-59.746

>  <SCORE.INTRA.VDW>
0.434644

>  <SCORE.INTRA.VDW.0>
-0.691186

>  <SCORE.INTRA.norm>
-0.106274

>  <SCORE.RESTR>
0

>  <SCORE.RESTR.CAVITY>
0

>  <SCORE.RESTR.norm>
0

>  <SCORE.SYSTEM>
0

>  <SCORE.SYSTEM.CONST>
0

>  <SCORE.SYSTEM.DIHEDRAL>
0

>  <SCORE.SYSTEM.SOLV>
0

>  <SCORE.SYSTEM.norm>
0

>  <SCORE.heavy>
12

>  <SCORE.norm>
-1.08985

>  <RMSD>
1.012

$$$$
ligand
 OpenBabel02271912143D
libRbt.so/2013.1/901 2013/11/27
 12 12  0  0  0  0  0  0  0  0999 V2000
  -22.1057  -10.6815   95.9120 C   0  0  0  0  0  0  0  0  0  0  0  0
  -19.1821   -6.1608   94.7748 C   0  0  0  0  0  0  0  0  0  0  0  0
  -19.5394  -10.8113   95.1183 N   0  0  0  0  0  0  0  0  0  0  0  0
  -23.5279  -10.6206   95.5458 N   0  0  0  0  0  0  0  0  0  0  0  0
  -24.1838  -11.4006   96.0129 N   0  0  0  0  0  0  0  0  0  0  0  0
  -24.8386  -12.1783   96.4845 N   0  0  0  0  0  0  0  0  0  0  0  0
  -21.2215   -7.1653   95.4113 N   0  0  0  0  0  0  0  0  0  0  0  0
  -19.9416   -7.2944   95.0377 C   0  0  0  0  0  0  0  0  0  0  0  0
  -19.4001   -8.5069   94.8482 N   0  0  0  0  0  0  0  0  0  0  0  0
  -20.1226   -9.6203   95.0396 C   0  0  0  0  0  0  0  0  0  0  0  0
  -21.4526   -9.5506   95.4377 C   0  0  0  0  0  0  0  0  0  0  0  0
  -22.0215   -8.2954   95.6176 C   0  0  0  0  0  0  0  0  0  0  0  0
  1 11  1  0  0  0  0
  1  4  1  0  0  0  0
  2  8  1  0  0  0  0
  3 10  1  0  0  0  0
  4  5  1  0  0  0  0
  5  6  1  0  0  0  0
  7  8  2  0  0  0  0
  7 12  1  0  0  0  0
  8  9  1  0  0  0  0
  9 10  2  0  0  0  0
 10 11  1  0  0  0  0
 11 12  2  0  0  0  0
M  END
>  <CHROM.1>
-147.68698978,-170.82223138,64.01072492,-21.47557025,-9.36998944,95.44014650
-2.38677763,0.21948690,-0.03961010

>  <Name>
ligand

>  <RI>
0

>  <Rbt.Current_Directory>
/home/itssahil/PROJECTS/Mol_Feturizer/Test_systems_manuscript/rnas/4nya

>  <Rbt.Executable>
rbdock ($Id: //depot/dev/client3/rdock/2013.1/src/exe/rbdock.cxx#4 $)

>  <Rbt.Library>
libRbt.so (2013.1, Build901 2013/11/27)

>  <Rbt.Parameter_File>
/export/apps/rDock/src/rDock_2013.1_src/data/scripts/dock_solv.prm

>  <Rbt.Receptor>
prm/pocket_docking_2.prm

>  <SCORE>
-13.042

>  <SCORE.INTER>
-11.7903

>  <SCORE.INTER.CONST>
1

>  <SCORE.INTER.POLAR>
0

>  <SCORE.INTER.ROT>
3

>  <SCORE.INTER.SOLV>
14.588

>  <SCORE.INTER.VDW>
-18.3229

>  <SCORE.INTER.norm>
-0.982525

>  <SCORE.INTRA>
-1.25172

>  <SCORE.INTRA.DIHEDRAL>
-2.11158

>  <SCORE.INTRA.DIHEDRAL.0>
3.34563

>  <SCORE.INTRA.POLAR>
0

>  <SCORE.INTRA.POLAR.0>
0

>  <SCORE.INTRA.REPUL>
0

>  <SCORE.INTRA.REPUL.0>
0

>  <SCORE.INTRA.SOLV>
-1.21781

>  <SCORE.INTRA.SOLV.lig_0>
-59.746

>  <SCORE.INTRA.VDW>
0.412978

>  <SCORE.INTRA.VDW.0>
-0.691186

>  <SCORE.INTRA.norm>
-0.10431

>  <SCORE.RESTR>
0

>  <SCORE.RESTR.CAVITY>
0

>  <SCORE.RESTR.norm>
0

>  <SCORE.SYSTEM>
0

>  <SCORE.SYSTEM.CONST>
0

>  <SCORE.SYSTEM.DIHEDRAL>
0

>  <SCORE.SYSTEM.SOLV>
0

>  <SCORE.SYSTEM.norm>
0

>  <SCORE.heavy>
12

>  <SCORE.norm>
-1.08683

>  <RMSD>
1.013

$$$$
ligand
 OpenBabel02271912143D
libRbt.so/2013.1/901 2013/11/27
 12 12  0  0  0  0  0  0  0  0999 V2000
  -22.0811  -10.6969   95.9404 C   0  0  0  0  0  0  0  0  0  0  0  0
  -19.1916   -6.1616   94.7745 C   0  0  0  0  0  0  0  0  0  0  0  0
  -19.5565  -10.8177   95.0212 N   0  0  0  0  0  0  0  0  0  0  0  0
  -23.5204  -10.6168   95.6532 N   0  0  0  0  0  0  0  0  0  0  0  0
  -24.1314  -11.4971   95.9826 N   0  0  0  0  0  0  0  0  0  0  0  0
  -24.7410  -12.3762   96.3167 N   0  0  0  0  0  0  0  0  0  0  0  0
  -21.2034   -7.1732   95.4836 N   0  0  0  0  0  0  0  0  0  0  0  0
  -19.9437   -7.2983   95.0458 C   0  0  0  0  0  0  0  0  0  0  0  0
  -19.4183   -8.5079   94.8010 N   0  0  0  0  0  0  0  0  0  0  0  0
  -20.1367   -9.6227   94.9998 C   0  0  0  0  0  0  0  0  0  0  0  0
  -21.4456   -9.5574   95.4629 C   0  0  0  0  0  0  0  0  0  0  0  0
  -21.9986   -8.3047   95.7006 C   0  0  0  0  0  0  0  0  0  0  0  0
  1 11  1  0  0  0  0
  1  4  1  0  0  0  0
  2  8  1  0  0  0  0
  3 10  1  0  0  0  0
  4  5  1  0  0  0  0
  5  6  1  0  0  0  0
  7  8  2  0  0  0  0
  7 12  1  0  0  0  0
  8  9  1  0  0  0  0
  9 10  2  0  0  0  0
 10 11  1  0  0  0  0
 11 12  2  0  0  0  0
M  END
>  <CHROM.1>
-148.09266371,179.05543931,61.91865587,-21.46110533,-9.39965713,95.43412845
-2.37029363,0.24286745,-0.00596036

>  <Name>
ligand

>  <RI>
0

>  <Rbt.Current_Directory>
/home/itssahil/PROJECTS/Mol_Feturizer/Test_systems_manuscript/rnas/4nya

>  <Rbt.Executable>
rbdock ($Id: //depot/dev/client3/rdock/2013.1/src/exe/rbdock.cxx#4 $)

>  <Rbt.Library>
libRbt.so (2013.1, Build901 2013/11/27)

>  <Rbt.Parameter_File>
/export/apps/rDock/src/rDock_2013.1_src/data/scripts/dock_solv.prm

>  <Rbt.Receptor>
prm/pocket_docking_8.prm

>  <SCORE>
-13.0423

>  <SCORE.INTER>
-11.7656

>  <SCORE.INTER.CONST>
1

>  <SCORE.INTER.POLAR>
0

>  <SCORE.INTER.ROT>
3

>  <SCORE.INTER.SOLV>
14.5825

>  <SCORE.INTER.VDW>
-18.3046

>  <SCORE.INTER.norm>
-0.980465

>  <SCORE.INTRA>
-1.27675

>  <SCORE.INTRA.DIHEDRAL>
-2.18774

>  <SCORE.INTRA.DIHEDRAL.0>
3.34563

>  <SCORE.INTRA.POLAR>
0

>  <SCORE.INTRA.POLAR.0>
0

>  <SCORE.INTRA.REPUL>
0

>  <SCORE.INTRA.REPUL.0>
0

>  <SCORE.INTRA.SOLV>
-1.24377

>  <SCORE.INTRA.SOLV.lig_0>
-59.746

>  <SCORE.INTRA.VDW>
0.439009

>  <SCORE.INTRA.VDW.0>
-0.691186

>  <SCORE.INTRA.norm>
-0.106396

>  <SCORE.RESTR>
0

>  <SCORE.RESTR.CAVITY>
0

>  <SCORE.RESTR.norm>
0

>  <SCORE.SYSTEM>
0

>  <SCORE.SYSTEM.CONST>
0

>  <SCORE.SYSTEM.DIHEDRAL>
0

>  <SCORE.SYSTEM.SOLV>
0

>  <SCORE.SYSTEM.norm>
0

>  <SCORE.heavy>
12

>  <SCORE.norm>
-1.08686

>  <RMSD>
1.013

$$$$
ligand
 OpenBabel02271912143D
libRbt.so/2013.1/901 2013/11/27
 12 12  0  0  0  0  0  0  0  0999 V2000
  -22.0842  -10.7011   95.9362 C   0  0  0  0  0  0  0  0  0  0  0  0
  -19.1931   -6.1647   94.7786 C   0  0  0  0  0  0  0  0  0  0  0  0
  -19.5613  -10.8212   95.0124 N   0  0  0  0  0  0  0  0  0  0  0  0
  -23.5224  -10.6235   95.6430 N   0  0  0  0  0  0  0  0  0  0  0  0
  -24.1410  -11.4818   96.0137 N   0  0  0  0  0  0  0  0  0  0  0  0
  -24.7581  -12.3387   96.3891 N   0  0  0  0  0  0  0  0  0  0  0  0
  -21.2045   -7.1768   95.4882 N   0  0  0  0  0  0  0  0  0  0  0  0
  -19.9455   -7.3016   95.0479 C   0  0  0  0  0  0  0  0  0  0  0  0
  -19.4216   -8.5109   94.7987 N   0  0  0  0  0  0  0  0  0  0  0  0
  -20.1404   -9.6257   94.9955 C   0  0  0  0  0  0  0  0  0  0  0  0
  -21.4486   -9.5607   95.4610 C   0  0  0  0  0  0  0  0  0  0  0  0
  -22.0002   -8.3083   95.7032 C   0  0  0  0  0  0  0  0  0  0  0  0
  1 11  1  0  0  0  0
  1  4  1  0  0  0  0
  2  8  1  0  0  0  0
  3 10  1  0  0  0  0
  4  5  1  0  0  0  0
  5  6  1  0  0  0  0
  7  8  2  0  0  0  0
  7 12  1  0  0  0  0
  8  9  1  0  0  0  0
  9 10  2  0  0  0  0
 10 11  1  0  0  0  0
 11 12  2  0  0  0  0
M  END
>  <CHROM.1>
-147.68425292,-178.11822926,62.64432469,-21.46554452,-9.39818058,95.44160481
-2.37553273,0.25039227,-0.00534706

>  <Name>
ligand

>  <RI>
0

>  <Rbt.Current_Directory>
/home/itssahil/PROJECTS/Mol_Feturizer/Test_systems_manuscript/rnas/4nya

>  <Rbt.Executable>
rbdock ($Id: //depot/dev/client3/rdock/2013.1/src/exe/rbdock.cxx#4 $)

>  <Rbt.Library>
libRbt.so (2013.1, Build901 2013/11/27)

>  <Rbt.Parameter_File>
/export/apps/rDock/src/rDock_2013.1_src/data/scripts/dock_solv.prm

>  <Rbt.Receptor>
prm/pocket_docking_2.prm

>  <SCORE>
-13.0478

>  <SCORE.INTER>
-11.773

>  <SCORE.INTER.CONST>
1

>  <SCORE.INTER.POLAR>
0

>  <SCORE.INTER.ROT>
3

>  <SCORE.INTER.SOLV>
14.5751

>  <SCORE.INTER.VDW>
-18.307

>  <SCORE.INTER.norm>
-0.981084

>  <SCORE.INTRA>
-1.27482

>  <SCORE.INTRA.DIHEDRAL>
-2.17907

>  <SCORE.INTRA.DIHEDRAL.0>
3.34563

>  <SCORE.INTRA.POLAR>
0

>  <SCORE.INTRA.POLAR.0>
0

>  <SCORE.INTRA.REPUL>
0

>  <SCORE.INTRA.REPUL.0>
0

>  <SCORE.INTRA.SOLV>
-1.23592

>  <SCORE.INTRA.SOLV.lig_0>
-59.746

>  <SCORE.INTRA.VDW>
0.432673

>  <SCORE.INTRA.VDW.0>
-0.691186

>  <SCORE.INTRA.norm>
-0.106235

>  <SCORE.RESTR>
0

>  <SCORE.RESTR.CAVITY>
0

>  <SCORE.RESTR.norm>
0

>  <SCORE.SYSTEM>
0

>  <SCORE.SYSTEM.CONST>
0

>  <SCORE.SYSTEM.DIHEDRAL>
0

>  <SCORE.SYSTEM.SOLV>
0

>  <SCORE.SYSTEM.norm>
0

>  <SCORE.heavy>
12

>  <SCORE.norm>
-1.08732

>  <RMSD>
1.014

$$$$
ligand
 OpenBabel02271912143D
libRbt.so/2013.1/901 2013/11/27
 12 12  0  0  0  0  0  0  0  0999 V2000
  -22.0884  -10.7069   95.9193 C   0  0  0  0  0  0  0  0  0  0  0  0
  -19.2059   -6.1611   94.7771 C   0  0  0  0  0  0  0  0  0  0  0  0
  -19.5552  -10.8184   95.0228 N   0  0  0  0  0  0  0  0  0  0  0  0
  -23.5303  -10.6175   95.6485 N   0  0  0  0  0  0  0  0  0  0  0  0
  -24.1480  -11.4780   96.0155 N   0  0  0  0  0  0  0  0  0  0  0  0
  -24.7641  -12.3372   96.3872 N   0  0  0  0  0  0  0  0  0  0  0  0
  -21.2201   -7.1800   95.4688 N   0  0  0  0  0  0  0  0  0  0  0  0
  -19.9560   -7.3005   95.0423 C   0  0  0  0  0  0  0  0  0  0  0  0
  -19.4238   -8.5082   94.8027 N   0  0  0  0  0  0  0  0  0  0  0  0
  -20.1397   -9.6257   94.9956 C   0  0  0  0  0  0  0  0  0  0  0  0
  -21.4530   -9.5651   95.4470 C   0  0  0  0  0  0  0  0  0  0  0  0
  -22.0129   -8.3145   95.6791 C   0  0  0  0  0  0  0  0  0  0  0  0
  1 11  1  0  0  0  0
  1  4  1  0  0  0  0
  2  8  1  0  0  0  0
  3 10  1  0  0  0  0
  4  5  1  0  0  0  0
  5  6  1  0  0  0  0
  7  8  2  0  0  0  0
  7 12  1  0  0  0  0
  8  9  1  0  0  0  0
  9 10  2  0  0  0  0
 10 11  1  0  0  0  0
 11 12  2  0  0  0  0
M  END
>  <CHROM.1>
-149.46674908,-178.35108222,62.50569748,-21.47194703,-9.39785741,95.43677038
-2.37449638,0.24544196,-0.01150043

>  <Name>
ligand

>  <RI>
0

>  <Rbt.Current_Directory>
/home/itssahil/PROJECTS/Mol_Feturizer/Test_systems_manuscript/rnas/4nya

>  <Rbt.Executable>
rbdock ($Id: //depot/dev/client3/rdock/2013.1/src/exe/rbdock.cxx#4 $)

>  <Rbt.Library>
libRbt.so (2013.1, Build901 2013/11/27)

>  <Rbt.Parameter_File>
/export/apps/rDock/src/rDock_2013.1_src/data/scripts/dock_solv.prm

>  <Rbt.Receptor>
prm/pocket_docking_2.prm

>  <SCORE>
-13.0416

>  <SCORE.INTER>
-11.7744

>  <SCORE.INTER.CONST>
1

>  <SCORE.INTER.POLAR>
0

>  <SCORE.INTER.ROT>
3

>  <SCORE.INTER.SOLV>
14.5813

>  <SCORE.INTER.VDW>
-18.31

>  <SCORE.INTER.norm>
-0.9812

>  <SCORE.INTRA>
-1.26725

>  <SCORE.INTRA.DIHEDRAL>
-2.20256

>  <SCORE.INTRA.DIHEDRAL.0>
3.34563

>  <SCORE.INTRA.POLAR>
0

>  <SCORE.INTRA.POLAR.0>
0

>  <SCORE.INTRA.REPUL>
0

>  <SCORE.INTRA.REPUL.0>
0

>  <SCORE.INTRA.SOLV>
-1.2481

>  <SCORE.INTRA.SOLV.lig_0>
-59.746

>  <SCORE.INTRA.VDW>
0.458082

>  <SCORE.INTRA.VDW.0>
-0.691186

>  <SCORE.INTRA.norm>
-0.105604

>  <SCORE.RESTR>
0

>  <SCORE.RESTR.CAVITY>
0

>  <SCORE.RESTR.norm>
0

>  <SCORE.SYSTEM>
0

>  <SCORE.SYSTEM.CONST>
0

>  <SCORE.SYSTEM.DIHEDRAL>
0

>  <SCORE.SYSTEM.SOLV>
0

>  <SCORE.SYSTEM.norm>
0

>  <SCORE.heavy>
12

>  <SCORE.norm>
-1.0868

>  <RMSD>
1.014

$$$$
ligand
 OpenBabel02271912143D
libRbt.so/2013.1/901 2013/11/27
 12 12  0  0  0  0  0  0  0  0999 V2000
  -22.0855  -10.7091   95.9302 C   0  0  0  0  0  0  0  0  0  0  0  0
  -19.1981   -6.1680   94.7819 C   0  0  0  0  0  0  0  0  0  0  0  0
  -19.5681  -10.8255   94.9913 N   0  0  0  0  0  0  0  0  0  0  0  0
  -23.5330  -10.6033   95.6974 N   0  0  0  0  0  0  0  0  0  0  0  0
  -24.1437  -11.4843   96.0255 N   0  0  0  0  0  0  0  0  0  0  0  0
  -24.7517  -12.3680   96.3501 N   0  0  0  0  0  0  0  0  0  0  0  0
  -21.2061   -7.1828   95.4973 N   0  0  0  0  0  0  0  0  0  0  0  0
  -19.9498   -7.3059   95.0490 C   0  0  0  0  0  0  0  0  0  0  0  0
  -19.4280   -8.5141   94.7899 N   0  0  0  0  0  0  0  0  0  0  0  0
  -20.1465   -9.6296   94.9844 C   0  0  0  0  0  0  0  0  0  0  0  0
  -21.4519   -9.5663   95.4578 C   0  0  0  0  0  0  0  0  0  0  0  0
  -22.0013   -8.3150   95.7104 C   0  0  0  0  0  0  0  0  0  0  0  0
  1 11  1  0  0  0  0
  1  4  1  0  0  0  0
  2  8  1  0  0  0  0
  3 10  1  0  0  0  0
  4  5  1  0  0  0  0
  5  6  1  0  0  0  0
  7  8  2  0  0  0  0
  7 12  1  0  0  0  0
  8  9  1  0  0  0  0
  9 10  2  0  0  0  0
 10 11  1  0  0  0  0
 11 12  2  0  0  0  0
M  END
>  <CHROM.1>
-150.09163652,178.94375491,-61.87523125,-21.46912269,-9.40287252,95.44149231
-2.37601417,0.25651252,0.00128209

>  <Name>
ligand

>  <RI>
0

>  <Rbt.Current_Directory>
/home/itssahil/PROJECTS/Mol_Feturizer/Test_systems_manuscript/rnas/4nya

>  <Rbt.Executable>
rbdock ($Id: //depot/dev/client3/rdock/2013.1/src/exe/rbdock.cxx#4 $)

>  <Rbt.Library>
libRbt.so (2013.1, Build901 2013/11/27)

>  <Rbt.Parameter_File>
/export/apps/rDock/src/rDock_2013.1_src/data/scripts/dock_solv.prm

>  <Rbt.Receptor>
prm/pocket_docking_2.prm

>  <SCORE>
-13.0464

>  <SCORE.INTER>
-11.7802

>  <SCORE.INTER.CONST>
1

>  <SCORE.INTER.POLAR>
0

>  <SCORE.INTER.ROT>
3

>  <SCORE.INTER.SOLV>
14.5279

>  <SCORE.INTER.VDW>
-18.2961

>  <SCORE.INTER.norm>
-0.981683

>  <SCORE.INTRA>
-1.26621

>  <SCORE.INTRA.DIHEDRAL>
-2.21146

>  <SCORE.INTRA.DIHEDRAL.0>
3.34563

>  <SCORE.INTRA.POLAR>
0

>  <SCORE.INTRA.POLAR.0>
0

>  <SCORE.INTRA.REPUL>
0

>  <SCORE.INTRA.REPUL.0>
0

>  <SCORE.INTRA.SOLV>
-1.25667

>  <SCORE.INTRA.SOLV.lig_0>
-59.746

>  <SCORE.INTRA.VDW>
0.467859

>  <SCORE.INTRA.VDW.0>
-0.691186

>  <SCORE.INTRA.norm>
-0.105517

>  <SCORE.RESTR>
0

>  <SCORE.RESTR.CAVITY>
0

>  <SCORE.RESTR.norm>
0

>  <SCORE.SYSTEM>
0

>  <SCORE.SYSTEM.CONST>
0

>  <SCORE.SYSTEM.DIHEDRAL>
0

>  <SCORE.SYSTEM.SOLV>
0

>  <SCORE.SYSTEM.norm>
0

>  <SCORE.heavy>
12

>  <SCORE.norm>
-1.0872

>  <RMSD>
1.016

$$$$
ligand
 OpenBabel02271912143D
libRbt.so/2013.1/901 2013/11/27
 12 12  0  0  0  0  0  0  0  0999 V2000
  -22.0760  -10.7041   95.9248 C   0  0  0  0  0  0  0  0  0  0  0  0
  -19.2151   -6.1470   94.7736 C   0  0  0  0  0  0  0  0  0  0  0  0
  -19.5353  -10.8048   95.0488 N   0  0  0  0  0  0  0  0  0  0  0  0
  -23.5139  -10.6336   95.6282 N   0  0  0  0  0  0  0  0  0  0  0  0
  -24.1313  -11.4879   96.0097 N   0  0  0  0  0  0  0  0  0  0  0  0
  -24.7458  -12.3453   96.3883 N   0  0  0  0  0  0  0  0  0  0  0  0
  -21.2278   -7.1747   95.4566 N   0  0  0  0  0  0  0  0  0  0  0  0
  -19.9596   -7.2896   95.0408 C   0  0  0  0  0  0  0  0  0  0  0  0
  -19.4176   -8.4953   94.8138 N   0  0  0  0  0  0  0  0  0  0  0  0
  -20.1274   -9.6162   95.0088 C   0  0  0  0  0  0  0  0  0  0  0  0
  -21.4446   -9.5614   95.4496 C   0  0  0  0  0  0  0  0  0  0  0  0
  -22.0146   -8.3130   95.6687 C   0  0  0  0  0  0  0  0  0  0  0  0
  1 11  1  0  0  0  0
  1  4  1  0  0  0  0
  2  8  1  0  0  0  0
  3 10  1  0  0  0  0
  4  5  1  0  0  0  0
  5  6  1  0  0  0  0
  7  8  2  0  0  0  0
  7 12  1  0  0  0  0
  8  9  1  0  0  0  0
  9 10  2  0  0  0  0
 10 11  1  0  0  0  0
 11 12  2  0  0  0  0
M  END
>  <CHROM.1>
-148.80535867,-177.38577406,-59.50237008,-21.46452135,-9.39458807,95.43720319
-2.36773070,0.23725148,-0.02007946

>  <Name>
ligand

>  <RI>
0

>  <Rbt.Current_Directory>
/home/itssahil/PROJECTS/Mol_Feturizer/Test_systems_manuscript/rnas/4nya

>  <Rbt.Executable>
rbdock ($Id: //depot/dev/client3/rdock/2013.1/src/exe/rbdock.cxx#4 $)

>  <Rbt.Library>
libRbt.so (2013.1, Build901 2013/11/27)

>  <Rbt.Parameter_File>
/export/apps/rDock/src/rDock_2013.1_src/data/scripts/dock_solv.prm

>  <Rbt.Receptor>
prm/pocket_docking_2.prm

>  <SCORE>
-13.0384

>  <SCORE.INTER>
-11.7693

>  <SCORE.INTER.CONST>
1

>  <SCORE.INTER.POLAR>
0

>  <SCORE.INTER.ROT>
3

>  <SCORE.INTER.SOLV>
14.6633

>  <SCORE.INTER.VDW>
-18.334

>  <SCORE.INTER.norm>
-0.980777

>  <SCORE.INTRA>
-1.26908

>  <SCORE.INTRA.DIHEDRAL>
-2.19298

>  <SCORE.INTRA.DIHEDRAL.0>
3.34563

>  <SCORE.INTRA.POLAR>
0

>  <SCORE.INTRA.POLAR.0>
0

>  <SCORE.INTRA.REPUL>
0

>  <SCORE.INTRA.REPUL.0>
0

>  <SCORE.INTRA.SOLV>
-1.2418

>  <SCORE.INTRA.SOLV.lig_0>
-59.746

>  <SCORE.INTRA.VDW>
0.448307

>  <SCORE.INTRA.VDW.0>
-0.691186

>  <SCORE.INTRA.norm>
-0.105757

>  <SCORE.RESTR>
0

>  <SCORE.RESTR.CAVITY>
0

>  <SCORE.RESTR.norm>
0

>  <SCORE.SYSTEM>
0

>  <SCORE.SYSTEM.CONST>
0

>  <SCORE.SYSTEM.DIHEDRAL>
0

>  <SCORE.SYSTEM.SOLV>
0

>  <SCORE.SYSTEM.norm>
0

>  <SCORE.heavy>
12

>  <SCORE.norm>
-1.08653

>  <RMSD>
1.016

$$$$
ligand
 OpenBabel02271912143D
libRbt.so/2013.1/901 2013/11/27
 12 12  0  0  0  0  0  0  0  0999 V2000
  -22.0935  -10.6831   95.9349 C   0  0  0  0  0  0  0  0  0  0  0  0
  -19.2052   -6.1486   94.7631 C   0  0  0  0  0  0  0  0  0  0  0  0
  -19.5303  -10.7997   95.1293 N   0  0  0  0  0  0  0  0  0  0  0  0
  -23.5319  -10.5953   95.6456 N   0  0  0  0  0  0  0  0  0  0  0  0
  -24.1532  -11.4571   96.0036 N   0  0  0  0  0  0  0  0  0  0  0  0
  -24.7781  -12.3170   96.3586 N   0  0  0  0  0  0  0  0  0  0  0  0
  -21.2349   -7.1635   95.4141 N   0  0  0  0  0  0  0  0  0  0  0  0
  -19.9560   -7.2860   95.0348 C   0  0  0  0  0  0  0  0  0  0  0  0
  -19.4075   -8.4957   94.8481 N   0  0  0  0  0  0  0  0  0  0  0  0
  -20.1217   -9.6129   95.0481 C   0  0  0  0  0  0  0  0  0  0  0  0
  -21.4502   -9.5501   95.4523 C   0  0  0  0  0  0  0  0  0  0  0  0
  -22.0265   -8.2979   95.6294 C   0  0  0  0  0  0  0  0  0  0  0  0
  1 11  1  0  0  0  0
  1  4  1  0  0  0  0
  2  8  1  0  0  0  0
  3 10  1  0  0  0  0
  4  5  1  0  0  0  0
  5  6  1  0  0  0  0
  7  8  2  0  0  0  0
  7 12  1  0  0  0  0
  8  9  1  0  0  0  0
  9 10  2  0  0  0  0
 10 11  1  0  0  0  0
 11 12  2  0  0  0  0
M  END
>  <CHROM.1>
-151.04093267,-179.34286550,-166.88287557,-21.47130761,-9.38059914,95.44154636
-2.36974906,0.21344490,-0.04176025

>  <Name>
ligand

>  <RI>
0

>  <Rbt.Current_Directory>
/home/itssahil/PROJECTS/Mol_Feturizer/Test_systems_manuscript/rnas/4nya

>  <Rbt.Executable>
rbdock ($Id: //depot/dev/client3/rdock/2013.1/src/exe/rbdock.cxx#4 $)

>  <Rbt.Library>
libRbt.so (2013.1, Build901 2013/11/27)

>  <Rbt.Parameter_File>
/export/apps/rDock/src/rDock_2013.1_src/data/scripts/dock_solv.prm

>  <Rbt.Receptor>
prm/pocket_docking_3.prm

>  <SCORE>
-13.0091

>  <SCORE.INTER>
-11.7699

>  <SCORE.INTER.CONST>
1

>  <SCORE.INTER.POLAR>
0

>  <SCORE.INTER.ROT>
3

>  <SCORE.INTER.SOLV>
14.6046

>  <SCORE.INTER.VDW>
-18.3148

>  <SCORE.INTER.norm>
-0.980824

>  <SCORE.INTRA>
-1.23925

>  <SCORE.INTRA.DIHEDRAL>
-2.17688

>  <SCORE.INTRA.DIHEDRAL.0>
3.34563

>  <SCORE.INTRA.POLAR>
0

>  <SCORE.INTRA.POLAR.0>
0

>  <SCORE.INTRA.REPUL>
0

>  <SCORE.INTRA.REPUL.0>
0

>  <SCORE.INTRA.SOLV>
-1.26267

>  <SCORE.INTRA.SOLV.lig_0>
-59.746

>  <SCORE.INTRA.VDW>
0.480532

>  <SCORE.INTRA.VDW.0>
-0.691186

>  <SCORE.INTRA.norm>
-0.10327

>  <SCORE.RESTR>
0

>  <SCORE.RESTR.CAVITY>
0

>  <SCORE.RESTR.norm>
0

>  <SCORE.SYSTEM>
0

>  <SCORE.SYSTEM.CONST>
0

>  <SCORE.SYSTEM.DIHEDRAL>
0

>  <SCORE.SYSTEM.SOLV>
0

>  <SCORE.SYSTEM.norm>
0

>  <SCORE.heavy>
12

>  <SCORE.norm>
-1.08409

>  <RMSD>
1.016

$$$$
ligand
 OpenBabel02271912143D
libRbt.so/2013.1/901 2013/11/27
 12 12  0  0  0  0  0  0  0  0999 V2000
  -22.1374  -10.6284   95.8709 C   0  0  0  0  0  0  0  0  0  0  0  0
  -19.1819   -6.1283   94.7341 C   0  0  0  0  0  0  0  0  0  0  0  0
  -19.5597  -10.7741   95.1181 N   0  0  0  0  0  0  0  0  0  0  0  0
  -23.5362  -10.6034   95.4199 N   0  0  0  0  0  0  0  0  0  0  0  0
  -24.1758  -11.4538   95.7727 N   0  0  0  0  0  0  0  0  0  0  0  0
  -24.8121  -12.3072   96.1230 N   0  0  0  0  0  0  0  0  0  0  0  0
  -21.2342   -7.1201   95.3490 N   0  0  0  0  0  0  0  0  0  0  0  0
  -19.9491   -7.2570   94.9964 C   0  0  0  0  0  0  0  0  0  0  0  0
  -19.4088   -8.4729   94.8273 N   0  0  0  0  0  0  0  0  0  0  0  0
  -20.1378   -9.5821   95.0187 C   0  0  0  0  0  0  0  0  0  0  0  0
  -21.4735   -9.5043   95.3955 C   0  0  0  0  0  0  0  0  0  0  0  0
  -22.0410   -8.2456   95.5542 C   0  0  0  0  0  0  0  0  0  0  0  0
  1 11  1  0  0  0  0
  1  4  1  0  0  0  0
  2  8  1  0  0  0  0
  3 10  1  0  0  0  0
  4  5  1  0  0  0  0
  5  6  1  0  0  0  0
  7  8  2  0  0  0  0
  7 12  1  0  0  0  0
  8  9  1  0  0  0  0
  9 10  2  0  0  0  0
 10 11  1  0  0  0  0
 11 12  2  0  0  0  0
M  END
>  <CHROM.1>
-144.61129545,-178.31932216,-59.79812609,-21.48436969,-9.35374730,95.34976741
-2.36636370,0.17388228,-0.03931220

>  <Name>
ligand

>  <RI>
0

>  <Rbt.Current_Directory>
/home/itssahil/PROJECTS/Mol_Feturizer/Test_systems_manuscript/rnas/4nya

>  <Rbt.Executable>
rbdock ($Id: //depot/dev/client3/rdock/2013.1/src/exe/rbdock.cxx#4 $)

>  <Rbt.Library>
libRbt.so (2013.1, Build901 2013/11/27)

>  <Rbt.Parameter_File>
/export/apps/rDock/src/rDock_2013.1_src/data/scripts/dock_solv.prm

>  <Rbt.Receptor>
prm/pocket_docking_2.prm

>  <SCORE>
-12.9726

>  <SCORE.INTER>
-11.6916

>  <SCORE.INTER.CONST>
1

>  <SCORE.INTER.POLAR>
0

>  <SCORE.INTER.ROT>
3

>  <SCORE.INTER.SOLV>
14.6888

>  <SCORE.INTER.VDW>
-18.2907

>  <SCORE.INTER.norm>
-0.9743

>  <SCORE.INTRA>
-1.28097

>  <SCORE.INTRA.DIHEDRAL>
-2.1321

>  <SCORE.INTRA.DIHEDRAL.0>
3.34563

>  <SCORE.INTRA.POLAR>
0

>  <SCORE.INTRA.POLAR.0>
0

>  <SCORE.INTRA.REPUL>
0

>  <SCORE.INTRA.REPUL.0>
0

>  <SCORE.INTRA.SOLV>
-1.21405

>  <SCORE.INTRA.SOLV.lig_0>
-59.746

>  <SCORE.INTRA.VDW>
0.392106

>  <SCORE.INTRA.VDW.0>
-0.691186

>  <SCORE.INTRA.norm>
-0.106748

>  <SCORE.RESTR>
0

>  <SCORE.RESTR.CAVITY>
0

>  <SCORE.RESTR.norm>
0

>  <SCORE.SYSTEM>
0

>  <SCORE.SYSTEM.CONST>
0

>  <SCORE.SYSTEM.DIHEDRAL>
0

>  <SCORE.SYSTEM.SOLV>
0

>  <SCORE.SYSTEM.norm>
0

>  <SCORE.heavy>
12

>  <SCORE.norm>
-1.08105

>  <RMSD>
1.017

$$$$
ligand
 OpenBabel02271912143D
libRbt.so/2013.1/901 2013/11/27
 12 12  0  0  0  0  0  0  0  0999 V2000
  -22.0736  -10.6924   95.9276 C   0  0  0  0  0  0  0  0  0  0  0  0
  -19.2067   -6.1409   94.7693 C   0  0  0  0  0  0  0  0  0  0  0  0
  -19.5275  -10.7972   95.0677 N   0  0  0  0  0  0  0  0  0  0  0  0
  -23.5083  -10.6276   95.6146 N   0  0  0  0  0  0  0  0  0  0  0  0
  -24.1259  -11.4865   95.9854 N   0  0  0  0  0  0  0  0  0  0  0  0
  -24.7475  -12.3431   96.3541 N   0  0  0  0  0  0  0  0  0  0  0  0
  -21.2233   -7.1653   95.4455 N   0  0  0  0  0  0  0  0  0  0  0  0
  -19.9525   -7.2822   95.0381 C   0  0  0  0  0  0  0  0  0  0  0  0
  -19.4089   -8.4890   94.8209 N   0  0  0  0  0  0  0  0  0  0  0  0
  -20.1196   -9.6090   95.0177 C   0  0  0  0  0  0  0  0  0  0  0  0
  -21.4395   -9.5521   95.4500 C   0  0  0  0  0  0  0  0  0  0  0  0
  -22.0111   -8.3027   95.6589 C   0  0  0  0  0  0  0  0  0  0  0  0
  1 11  1  0  0  0  0
  1  4  1  0  0  0  0
  2  8  1  0  0  0  0
  3 10  1  0  0  0  0
  4  5  1  0  0  0  0
  5  6  1  0  0  0  0
  7  8  2  0  0  0  0
  7 12  1  0  0  0  0
  8  9  1  0  0  0  0
  9 10  2  0  0  0  0
 10 11  1  0  0  0  0
 11 12  2  0  0  0  0
M  END
>  <CHROM.1>
-148.46615346,-178.10261732,-179.23822562,-21.45912812,-9.38760060,95.43184653
-2.36615324,0.22803962,-0.02436234

>  <Name>
ligand

>  <RI>
0

>  <Rbt.Current_Directory>
/home/itssahil/PROJECTS/Mol_Feturizer/Test_systems_manuscript/rnas/4nya

>  <Rbt.Executable>
rbdock ($Id: //depot/dev/client3/rdock/2013.1/src/exe/rbdock.cxx#4 $)

>  <Rbt.Library>
libRbt.so (2013.1, Build901 2013/11/27)

>  <Rbt.Parameter_File>
/export/apps/rDock/src/rDock_2013.1_src/data/scripts/dock_solv.prm

>  <Rbt.Receptor>
prm/pocket_docking_4.prm

>  <SCORE>
-13.0365

>  <SCORE.INTER>
-11.7611

>  <SCORE.INTER.CONST>
1

>  <SCORE.INTER.POLAR>
0

>  <SCORE.INTER.ROT>
3

>  <SCORE.INTER.SOLV>
14.6807

>  <SCORE.INTER.VDW>
-18.3343

>  <SCORE.INTER.norm>
-0.980095

>  <SCORE.INTRA>
-1.27538

>  <SCORE.INTRA.DIHEDRAL>
-2.19127

>  <SCORE.INTRA.DIHEDRAL.0>
3.34563

>  <SCORE.INTRA.POLAR>
0

>  <SCORE.INTRA.POLAR.0>
0

>  <SCORE.INTRA.REPUL>
0

>  <SCORE.INTRA.REPUL.0>
0

>  <SCORE.INTRA.SOLV>
-1.2443

>  <SCORE.INTRA.SOLV.lig_0>
-59.746

>  <SCORE.INTRA.VDW>
0.442398

>  <SCORE.INTRA.VDW.0>
-0.691186

>  <SCORE.INTRA.norm>
-0.106282

>  <SCORE.RESTR>
0

>  <SCORE.RESTR.CAVITY>
0

>  <SCORE.RESTR.norm>
0

>  <SCORE.SYSTEM>
0

>  <SCORE.SYSTEM.CONST>
0

>  <SCORE.SYSTEM.DIHEDRAL>
0

>  <SCORE.SYSTEM.SOLV>
0

>  <SCORE.SYSTEM.norm>
0

>  <SCORE.heavy>
12

>  <SCORE.norm>
-1.08638

>  <RMSD>
1.017

$$$$
ligand
 OpenBabel02271912143D
libRbt.so/2013.1/901 2013/11/27
 12 12  0  0  0  0  0  0  0  0999 V2000
  -22.1190  -10.6345   95.9032 C   0  0  0  0  0  0  0  0  0  0  0  0
  -19.1895   -6.1280   94.7257 C   0  0  0  0  0  0  0  0  0  0  0  0
  -19.5564  -10.7754   95.0996 N   0  0  0  0  0  0  0  0  0  0  0  0
  -23.5219  -10.6180   95.4648 N   0  0  0  0  0  0  0  0  0  0  0  0
  -24.1434  -11.4921   95.7911 N   0  0  0  0  0  0  0  0  0  0  0  0
  -24.7615  -12.3691   96.1149 N   0  0  0  0  0  0  0  0  0  0  0  0
  -21.2286   -7.1237   95.3769 N   0  0  0  0  0  0  0  0  0  0  0  0
  -19.9506   -7.2582   94.9987 C   0  0  0  0  0  0  0  0  0  0  0  0
  -19.4128   -8.4731   94.8145 N   0  0  0  0  0  0  0  0  0  0  0  0
  -20.1372   -9.5836   95.0160 C   0  0  0  0  0  0  0  0  0  0  0  0
  -21.4653   -9.5082   95.4191 C   0  0  0  0  0  0  0  0  0  0  0  0
  -22.0305   -8.2506   95.5936 C   0  0  0  0  0  0  0  0  0  0  0  0
  1 11  1  0  0  0  0
  1  4  1  0  0  0  0
  2  8  1  0  0  0  0
  3 10  1  0  0  0  0
  4  5  1  0  0  0  0
  5  6  1  0  0  0  0
  7  8  2  0  0  0  0
  7 12  1  0  0  0  0
  8  9  1  0  0  0  0
  9 10  2  0  0  0  0
 10 11  1  0  0  0  0
 11 12  2  0  0  0  0
M  END
>  <CHROM.1>
-143.86133545,179.32067912,-59.35232556,-21.47326368,-9.36553472,95.36095278
-2.35788734,0.18525261,-0.03254833

>  <Name>
ligand

>  <RI>
0

>  <Rbt.Current_Directory>
/home/itssahil/PROJECTS/Mol_Feturizer/Test_systems_manuscript/rnas/4nya

>  <Rbt.Executable>
rbdock ($Id: //depot/dev/client3/rdock/2013.1/src/exe/rbdock.cxx#4 $)

>  <Rbt.Library>
libRbt.so (2013.1, Build901 2013/11/27)

>  <Rbt.Parameter_File>
/export/apps/rDock/src/rDock_2013.1_src/data/scripts/dock_solv.prm

>  <Rbt.Receptor>
prm/pocket_docking_7.prm

>  <SCORE>
-12.9679

>  <SCORE.INTER>
-11.6848

>  <SCORE.INTER.CONST>
1

>  <SCORE.INTER.POLAR>
0

>  <SCORE.INTER.ROT>
3

>  <SCORE.INTER.SOLV>
14.696

>  <SCORE.INTER.VDW>
-18.2885

>  <SCORE.INTER.norm>
-0.973732

>  <SCORE.INTRA>
-1.28308

>  <SCORE.INTRA.DIHEDRAL>
-2.11997

>  <SCORE.INTRA.DIHEDRAL.0>
3.34563

>  <SCORE.INTRA.POLAR>
0

>  <SCORE.INTRA.POLAR.0>
0

>  <SCORE.INTRA.REPUL>
0

>  <SCORE.INTRA.REPUL.0>
0

>  <SCORE.INTRA.SOLV>
-1.2128

>  <SCORE.INTRA.SOLV.lig_0>
-59.746

>  <SCORE.INTRA.VDW>
0.383305

>  <SCORE.INTRA.VDW.0>
-0.691186

>  <SCORE.INTRA.norm>
-0.106924

>  <SCORE.RESTR>
0

>  <SCORE.RESTR.CAVITY>
0

>  <SCORE.RESTR.norm>
0

>  <SCORE.SYSTEM>
0

>  <SCORE.SYSTEM.CONST>
0

>  <SCORE.SYSTEM.DIHEDRAL>
0

>  <SCORE.SYSTEM.SOLV>
0

>  <SCORE.SYSTEM.norm>
0

>  <SCORE.heavy>
12

>  <SCORE.norm>
-1.08066

>  <RMSD>
1.018

$$$$
ligand
 OpenBabel02271912143D
libRbt.so/2013.1/901 2013/11/27
 12 12  0  0  0  0  0  0  0  0999 V2000
  -22.0945  -10.6886   95.9266 C   0  0  0  0  0  0  0  0  0  0  0  0
  -19.1952   -6.1568   94.7715 C   0  0  0  0  0  0  0  0  0  0  0  0
  -19.5345  -10.8089   95.1114 N   0  0  0  0  0  0  0  0  0  0  0  0
  -23.5353  -10.5891   95.6530 N   0  0  0  0  0  0  0  0  0  0  0  0
  -24.1601  -11.4440   96.0211 N   0  0  0  0  0  0  0  0  0  0  0  0
  -24.7836  -12.2973   96.3940 N   0  0  0  0  0  0  0  0  0  0  0  0
  -21.2260   -7.1689   95.4234 N   0  0  0  0  0  0  0  0  0  0  0  0
  -19.9489   -7.2933   95.0390 C   0  0  0  0  0  0  0  0  0  0  0  0
  -19.4050   -8.5037   94.8434 N   0  0  0  0  0  0  0  0  0  0  0  0
  -20.1223   -9.6197   95.0393 C   0  0  0  0  0  0  0  0  0  0  0  0
  -21.4492   -9.5549   95.4484 C   0  0  0  0  0  0  0  0  0  0  0  0
  -22.0206   -8.3019   95.6348 C   0  0  0  0  0  0  0  0  0  0  0  0
  1 11  1  0  0  0  0
  1  4  1  0  0  0  0
  2  8  1  0  0  0  0
  3 10  1  0  0  0  0
  4  5  1  0  0  0  0
  5  6  1  0  0  0  0
  7  8  2  0  0  0  0
  7 12  1  0  0  0  0
  8  9  1  0  0  0  0
  9 10  2  0  0  0  0
 10 11  1  0  0  0  0
 11 12  2  0  0  0  0
M  END
>  <CHROM.1>
-151.52446411,-178.55142152,67.34612260,-21.47021111,-9.38210612,95.44546495
-2.37522157,0.22138814,-0.03676566

>  <Name>
ligand

>  <RI>
0

>  <Rbt.Current_Directory>
/home/itssahil/PROJECTS/Mol_Feturizer/Test_systems_manuscript/rnas/4nya

>  <Rbt.Executable>
rbdock ($Id: //depot/dev/client3/rdock/2013.1/src/exe/rbdock.cxx#4 $)

>  <Rbt.Library>
libRbt.so (2013.1, Build901 2013/11/27)

>  <Rbt.Parameter_File>
/export/apps/rDock/src/rDock_2013.1_src/data/scripts/dock_solv.prm

>  <Rbt.Receptor>
prm/pocket_docking_8.prm

>  <SCORE>
-13.0511

>  <SCORE.INTER>
-11.8042

>  <SCORE.INTER.CONST>
1

>  <SCORE.INTER.POLAR>
0

>  <SCORE.INTER.ROT>
3

>  <SCORE.INTER.SOLV>
14.5807

>  <SCORE.INTER.VDW>
-18.3297

>  <SCORE.INTER.norm>
-0.983684

>  <SCORE.INTRA>
-1.24691

>  <SCORE.INTRA.DIHEDRAL>
-2.21043

>  <SCORE.INTRA.DIHEDRAL.0>
3.34563

>  <SCORE.INTRA.POLAR>
0

>  <SCORE.INTRA.POLAR.0>
0

>  <SCORE.INTRA.REPUL>
0

>  <SCORE.INTRA.REPUL.0>
0

>  <SCORE.INTRA.SOLV>
-1.26113

>  <SCORE.INTRA.SOLV.lig_0>
-59.746

>  <SCORE.INTRA.VDW>
0.488873

>  <SCORE.INTRA.VDW.0>
-0.691186

>  <SCORE.INTRA.norm>
-0.103909

>  <SCORE.RESTR>
0

>  <SCORE.RESTR.CAVITY>
0

>  <SCORE.RESTR.norm>
0

>  <SCORE.SYSTEM>
0

>  <SCORE.SYSTEM.CONST>
0

>  <SCORE.SYSTEM.DIHEDRAL>
0

>  <SCORE.SYSTEM.SOLV>
0

>  <SCORE.SYSTEM.norm>
0

>  <SCORE.heavy>
12

>  <SCORE.norm>
-1.08759

>  <RMSD>
1.018

$$$$
ligand
 OpenBabel02271912143D
libRbt.so/2013.1/901 2013/11/27
 12 12  0  0  0  0  0  0  0  0999 V2000
  -22.0858  -10.7247   95.9114 C   0  0  0  0  0  0  0  0  0  0  0  0
  -19.2079   -6.1710   94.7891 C   0  0  0  0  0  0  0  0  0  0  0  0
  -19.5815  -10.8306   94.9367 N   0  0  0  0  0  0  0  0  0  0  0  0
  -23.5317  -10.6305   95.6645 N   0  0  0  0  0  0  0  0  0  0  0  0
  -24.1486  -11.4787   96.0605 N   0  0  0  0  0  0  0  0  0  0  0  0
  -24.7628  -12.3298   96.4533 N   0  0  0  0  0  0  0  0  0  0  0  0
  -21.2073   -7.1936   95.5172 N   0  0  0  0  0  0  0  0  0  0  0  0
  -19.9574   -7.3117   95.0501 C   0  0  0  0  0  0  0  0  0  0  0  0
  -19.4410   -8.5167   94.7666 N   0  0  0  0  0  0  0  0  0  0  0  0
  -20.1583   -9.6340   94.9549 C   0  0  0  0  0  0  0  0  0  0  0  0
  -21.4570   -9.5760   95.4469 C   0  0  0  0  0  0  0  0  0  0  0  0
  -22.0012   -8.3278   95.7248 C   0  0  0  0  0  0  0  0  0  0  0  0
  1 11  1  0  0  0  0
  1  4  1  0  0  0  0
  2  8  1  0  0  0  0
  3 10  1  0  0  0  0
  4  5  1  0  0  0  0
  5  6  1  0  0  0  0
  7  8  2  0  0  0  0
  7 12  1  0  0  0  0
  8  9  1  0  0  0  0
  9 10  2  0  0  0  0
 10 11  1  0  0  0  0
 11 12  2  0  0  0  0
M  END
>  <CHROM.1>
-148.46200029,-176.23288735,-62.70047690,-21.47554262,-9.40713216,95.44279495
-2.38275486,0.27694463,0.01286254

>  <Name>
ligand

>  <RI>
0

>  <Rbt.Current_Directory>
/home/itssahil/PROJECTS/Mol_Feturizer/Test_systems_manuscript/rnas/4nya

>  <Rbt.Executable>
rbdock ($Id: //depot/dev/client3/rdock/2013.1/src/exe/rbdock.cxx#4 $)

>  <Rbt.Library>
libRbt.so (2013.1, Build901 2013/11/27)

>  <Rbt.Parameter_File>
/export/apps/rDock/src/rDock_2013.1_src/data/scripts/dock_solv.prm

>  <Rbt.Receptor>
prm/pocket_docking_2.prm

>  <SCORE>
-13.0715

>  <SCORE.INTER>
-11.8056

>  <SCORE.INTER.CONST>
1

>  <SCORE.INTER.POLAR>
0

>  <SCORE.INTER.ROT>
3

>  <SCORE.INTER.SOLV>
14.5474

>  <SCORE.INTER.VDW>
-18.3196

>  <SCORE.INTER.norm>
-0.983803

>  <SCORE.INTRA>
-1.26591

>  <SCORE.INTRA.DIHEDRAL>
-2.1807

>  <SCORE.INTRA.DIHEDRAL.0>
3.34563

>  <SCORE.INTRA.POLAR>
0

>  <SCORE.INTRA.POLAR.0>
0

>  <SCORE.INTRA.REPUL>
0

>  <SCORE.INTRA.REPUL.0>
0

>  <SCORE.INTRA.SOLV>
-1.23715

>  <SCORE.INTRA.SOLV.lig_0>
-59.746

>  <SCORE.INTRA.VDW>
0.443021

>  <SCORE.INTRA.VDW.0>
-0.691186

>  <SCORE.INTRA.norm>
-0.105492

>  <SCORE.RESTR>
0

>  <SCORE.RESTR.CAVITY>
0

>  <SCORE.RESTR.norm>
0

>  <SCORE.SYSTEM>
0

>  <SCORE.SYSTEM.CONST>
0

>  <SCORE.SYSTEM.DIHEDRAL>
0

>  <SCORE.SYSTEM.SOLV>
0

>  <SCORE.SYSTEM.norm>
0

>  <SCORE.heavy>
12

>  <SCORE.norm>
-1.08929

>  <RMSD>
1.019

$$$$
ligand
 OpenBabel02271912143D
libRbt.so/2013.1/901 2013/11/27
 12 12  0  0  0  0  0  0  0  0999 V2000
  -22.0851  -10.6970   95.9327 C   0  0  0  0  0  0  0  0  0  0  0  0
  -19.1871   -6.1647   94.7763 C   0  0  0  0  0  0  0  0  0  0  0  0
  -19.5571  -10.8203   95.0232 N   0  0  0  0  0  0  0  0  0  0  0  0
  -23.5236  -10.6146   95.6423 N   0  0  0  0  0  0  0  0  0  0  0  0
  -24.1475  -11.4600   96.0329 N   0  0  0  0  0  0  0  0  0  0  0  0
  -24.7698  -12.3041   96.4282 N   0  0  0  0  0  0  0  0  0  0  0  0
  -21.2025   -7.1742   95.4781 N   0  0  0  0  0  0  0  0  0  0  0  0
  -19.9412   -7.3006   95.0452 C   0  0  0  0  0  0  0  0  0  0  0  0
  -19.4160   -8.5108   94.8027 N   0  0  0  0  0  0  0  0  0  0  0  0
  -20.1361   -9.6249   94.9991 C   0  0  0  0  0  0  0  0  0  0  0  0
  -21.4468   -9.5582   95.4572 C   0  0  0  0  0  0  0  0  0  0  0  0
  -21.9996   -8.3050   95.6924 C   0  0  0  0  0  0  0  0  0  0  0  0
  1 11  1  0  0  0  0
  1  4  1  0  0  0  0
  2  8  1  0  0  0  0
  3 10  1  0  0  0  0
  4  5  1  0  0  0  0
  5  6  1  0  0  0  0
  7  8  2  0  0  0  0
  7 12  1  0  0  0  0
  8  9  1  0  0  0  0
  9 10  2  0  0  0  0
 10 11  1  0  0  0  0
 11 12  2  0  0  0  0
M  END
>  <CHROM.1>
-148.20225226,-176.82716647,60.11476175,-21.46492158,-9.39125043,95.44547994
-2.37941431,0.25006179,-0.01031543

>  <Name>
ligand

>  <RI>
0

>  <Rbt.Current_Directory>
/home/itssahil/PROJECTS/Mol_Feturizer/Test_systems_manuscript/rnas/4nya

>  <Rbt.Executable>
rbdock ($Id: //depot/dev/client3/rdock/2013.1/src/exe/rbdock.cxx#4 $)

>  <Rbt.Library>
libRbt.so (2013.1, Build901 2013/11/27)

>  <Rbt.Parameter_File>
/export/apps/rDock/src/rDock_2013.1_src/data/scripts/dock_solv.prm

>  <Rbt.Receptor>
prm/pocket_docking_2.prm

>  <SCORE>
-13.0493

>  <SCORE.INTER>
-11.7792

>  <SCORE.INTER.CONST>
1

>  <SCORE.INTER.POLAR>
0

>  <SCORE.INTER.ROT>
3

>  <SCORE.INTER.SOLV>
14.5741

>  <SCORE.INTER.VDW>
-18.3108

>  <SCORE.INTER.norm>
-0.981598

>  <SCORE.INTRA>
-1.27009

>  <SCORE.INTRA.DIHEDRAL>
-2.18268

>  <SCORE.INTRA.DIHEDRAL.0>
3.34563

>  <SCORE.INTRA.POLAR>
0

>  <SCORE.INTRA.POLAR.0>
0

>  <SCORE.INTRA.REPUL>
0

>  <SCORE.INTRA.REPUL.0>
0

>  <SCORE.INTRA.SOLV>
-1.23664

>  <SCORE.INTRA.SOLV.lig_0>
-59.746

>  <SCORE.INTRA.VDW>
0.439569

>  <SCORE.INTRA.VDW.0>
-0.691186

>  <SCORE.INTRA.norm>
-0.105841

>  <SCORE.RESTR>
0

>  <SCORE.RESTR.CAVITY>
0

>  <SCORE.RESTR.norm>
0

>  <SCORE.SYSTEM>
0

>  <SCORE.SYSTEM.CONST>
0

>  <SCORE.SYSTEM.DIHEDRAL>
0

>  <SCORE.SYSTEM.SOLV>
0

>  <SCORE.SYSTEM.norm>
0

>  <SCORE.heavy>
12

>  <SCORE.norm>
-1.08744

>  <RMSD>
1.019

$$$$
ligand
 OpenBabel02271912143D
libRbt.so/2013.1/901 2013/11/27
 12 12  0  0  0  0  0  0  0  0999 V2000
  -22.1108  -10.6828   95.9212 C   0  0  0  0  0  0  0  0  0  0  0  0
  -19.1977   -6.1586   94.7709 C   0  0  0  0  0  0  0  0  0  0  0  0
  -19.5491  -10.8097   95.1120 N   0  0  0  0  0  0  0  0  0  0  0  0
  -23.5565  -10.5585   95.6871 N   0  0  0  0  0  0  0  0  0  0  0  0
  -24.1804  -11.4253   96.0281 N   0  0  0  0  0  0  0  0  0  0  0  0
  -24.8011  -12.2949   96.3663 N   0  0  0  0  0  0  0  0  0  0  0  0
  -21.2325   -7.1655   95.4186 N   0  0  0  0  0  0  0  0  0  0  0  0
  -19.9548   -7.2932   95.0372 C   0  0  0  0  0  0  0  0  0  0  0  0
  -19.4134   -8.5050   94.8433 N   0  0  0  0  0  0  0  0  0  0  0  0
  -20.1339   -9.6192   95.0380 C   0  0  0  0  0  0  0  0  0  0  0  0
  -21.4615   -9.5509   95.4440 C   0  0  0  0  0  0  0  0  0  0  0  0
  -22.0304   -8.2964   95.6286 C   0  0  0  0  0  0  0  0  0  0  0  0
  1 11  1  0  0  0  0
  1  4  1  0  0  0  0
  2  8  1  0  0  0  0
  3 10  1  0  0  0  0
  4  5  1  0  0  0  0
  5  6  1  0  0  0  0
  7  8  2  0  0  0  0
  7 12  1  0  0  0  0
  8  9  1  0  0  0  0
  9 10  2  0  0  0  0
 10 11  1  0  0  0  0
 11 12  2  0  0  0  0
M  END
>  <CHROM.1>
-153.52295787,179.53516477,-53.45833484,-21.48250870,-9.37641734,95.44468392
-2.37843244,0.22096748,-0.03639817

>  <Name>
ligand

>  <RI>
0

>  <Rbt.Current_Directory>
/home/itssahil/PROJECTS/Mol_Feturizer/Test_systems_manuscript/rnas/4nya

>  <Rbt.Executable>
rbdock ($Id: //depot/dev/client3/rdock/2013.1/src/exe/rbdock.cxx#4 $)

>  <Rbt.Library>
libRbt.so (2013.1, Build901 2013/11/27)

>  <Rbt.Parameter_File>
/export/apps/rDock/src/rDock_2013.1_src/data/scripts/dock_solv.prm

>  <Rbt.Receptor>
prm/pocket_docking_3.prm

>  <SCORE>
-13.0503

>  <SCORE.INTER>
-11.8195

>  <SCORE.INTER.CONST>
1

>  <SCORE.INTER.POLAR>
0

>  <SCORE.INTER.ROT>
3

>  <SCORE.INTER.SOLV>
14.4923

>  <SCORE.INTER.VDW>
-18.3104

>  <SCORE.INTER.norm>
-0.98496

>  <SCORE.INTRA>
-1.23076

>  <SCORE.INTRA.DIHEDRAL>
-2.22841

>  <SCORE.INTRA.DIHEDRAL.0>
3.34563

>  <SCORE.INTRA.POLAR>
0

>  <SCORE.INTRA.POLAR.0>
0

>  <SCORE.INTRA.REPUL>
0

>  <SCORE.INTRA.REPUL.0>
0

>  <SCORE.INTRA.SOLV>
-1.2749

>  <SCORE.INTRA.SOLV.lig_0>
-59.746

>  <SCORE.INTRA.VDW>
0.520894

>  <SCORE.INTRA.VDW.0>
-0.691186

>  <SCORE.INTRA.norm>
-0.102563

>  <SCORE.RESTR>
0

>  <SCORE.RESTR.CAVITY>
0

>  <SCORE.RESTR.norm>
0

>  <SCORE.SYSTEM>
0

>  <SCORE.SYSTEM.CONST>
0

>  <SCORE.SYSTEM.DIHEDRAL>
0

>  <SCORE.SYSTEM.SOLV>
0

>  <SCORE.SYSTEM.norm>
0

>  <SCORE.heavy>
12

>  <SCORE.norm>
-1.08752

>  <RMSD>
1.020

$$$$
ligand
 OpenBabel02271912143D
libRbt.so/2013.1/901 2013/11/27
 12 12  0  0  0  0  0  0  0  0999 V2000
  -22.1161  -10.6345   95.9015 C   0  0  0  0  0  0  0  0  0  0  0  0
  -19.1889   -6.1246   94.7311 C   0  0  0  0  0  0  0  0  0  0  0  0
  -19.5490  -10.7720   95.1114 N   0  0  0  0  0  0  0  0  0  0  0  0
  -23.5274  -10.5996   95.4922 N   0  0  0  0  0  0  0  0  0  0  0  0
  -24.1372  -11.4974   95.7731 N   0  0  0  0  0  0  0  0  0  0  0  0
  -24.7437  -12.3978   96.0513 N   0  0  0  0  0  0  0  0  0  0  0  0
  -21.2295   -7.1229   95.3736 N   0  0  0  0  0  0  0  0  0  0  0  0
  -19.9494   -7.2557   95.0022 C   0  0  0  0  0  0  0  0  0  0  0  0
  -19.4083   -8.4699   94.8230 N   0  0  0  0  0  0  0  0  0  0  0  0
  -20.1316   -9.5814   95.0227 C   0  0  0  0  0  0  0  0  0  0  0  0
  -21.4620   -9.5078   95.4188 C   0  0  0  0  0  0  0  0  0  0  0  0
  -22.0304   -8.2509   95.5882 C   0  0  0  0  0  0  0  0  0  0  0  0
  1 11  1  0  0  0  0
  1  4  1  0  0  0  0
  2  8  1  0  0  0  0
  3 10  1  0  0  0  0
  4  5  1  0  0  0  0
  5  6  1  0  0  0  0
  7  8  2  0  0  0  0
  7 12  1  0  0  0  0
  8  9  1  0  0  0  0
  9 10  2  0  0  0  0
 10 11  1  0  0  0  0
 11 12  2  0  0  0  0
M  END
>  <CHROM.1>
-145.66788903,176.22987864,-59.48572618,-21.46963215,-9.36556721,95.35842846
-2.35492568,0.17826218,-0.03307057

>  <Name>
ligand

>  <RI>
0

>  <Rbt.Current_Directory>
/home/itssahil/PROJECTS/Mol_Feturizer/Test_systems_manuscript/rnas/4nya

>  <Rbt.Executable>
rbdock ($Id: //depot/dev/client3/rdock/2013.1/src/exe/rbdock.cxx#4 $)

>  <Rbt.Library>
libRbt.so (2013.1, Build901 2013/11/27)

>  <Rbt.Parameter_File>
/export/apps/rDock/src/rDock_2013.1_src/data/scripts/dock_solv.prm

>  <Rbt.Receptor>
prm/pocket_docking_3.prm

>  <SCORE>
-12.9741

>  <SCORE.INTER>
-11.6946

>  <SCORE.INTER.CONST>
1

>  <SCORE.INTER.POLAR>
0

>  <SCORE.INTER.ROT>
3

>  <SCORE.INTER.SOLV>
14.6747

>  <SCORE.INTER.VDW>
-18.2879

>  <SCORE.INTER.norm>
-0.974548

>  <SCORE.INTRA>
-1.27951

>  <SCORE.INTRA.DIHEDRAL>
-2.14115

>  <SCORE.INTRA.DIHEDRAL.0>
3.34563

>  <SCORE.INTRA.POLAR>
0

>  <SCORE.INTRA.POLAR.0>
0

>  <SCORE.INTRA.REPUL>
0

>  <SCORE.INTRA.REPUL.0>
0

>  <SCORE.INTRA.SOLV>
-1.23108

>  <SCORE.INTRA.SOLV.lig_0>
-59.746

>  <SCORE.INTRA.VDW>
0.406607

>  <SCORE.INTRA.VDW.0>
-0.691186

>  <SCORE.INTRA.norm>
-0.106626

>  <SCORE.RESTR>
0

>  <SCORE.RESTR.CAVITY>
0

>  <SCORE.RESTR.norm>
0

>  <SCORE.SYSTEM>
0

>  <SCORE.SYSTEM.CONST>
0

>  <SCORE.SYSTEM.DIHEDRAL>
0

>  <SCORE.SYSTEM.SOLV>
0

>  <SCORE.SYSTEM.norm>
0

>  <SCORE.heavy>
12

>  <SCORE.norm>
-1.08117

>  <RMSD>
1.020

$$$$
ligand
 OpenBabel02271912143D
libRbt.so/2013.1/901 2013/11/27
 12 12  0  0  0  0  0  0  0  0999 V2000
  -22.0632  -10.6741   95.9421 C   0  0  0  0  0  0  0  0  0  0  0  0
  -19.1743   -6.1393   94.7731 C   0  0  0  0  0  0  0  0  0  0  0  0
  -19.5168  -10.7931   95.0851 N   0  0  0  0  0  0  0  0  0  0  0  0
  -23.4883  -10.6265   95.5853 N   0  0  0  0  0  0  0  0  0  0  0  0
  -24.1077  -11.4903   95.9417 N   0  0  0  0  0  0  0  0  0  0  0  0
  -24.7239  -12.3570   96.2955 N   0  0  0  0  0  0  0  0  0  0  0  0
  -21.1962   -7.1524   95.4503 N   0  0  0  0  0  0  0  0  0  0  0  0
  -19.9257   -7.2764   95.0445 C   0  0  0  0  0  0  0  0  0  0  0  0
  -19.3873   -8.4863   94.8315 N   0  0  0  0  0  0  0  0  0  0  0  0
  -20.1034   -9.6024   95.0309 C   0  0  0  0  0  0  0  0  0  0  0  0
  -21.4234   -9.5382   95.4618 C   0  0  0  0  0  0  0  0  0  0  0  0
  -21.9895   -8.2855   95.6663 C   0  0  0  0  0  0  0  0  0  0  0  0
  1 11  1  0  0  0  0
  1  4  1  0  0  0  0
  2  8  1  0  0  0  0
  3 10  1  0  0  0  0
  4  5  1  0  0  0  0
  5  6  1  0  0  0  0
  7  8  2  0  0  0  0
  7 12  1  0  0  0  0
  8  9  1  0  0  0  0
  9 10  2  0  0  0  0
 10 11  1  0  0  0  0
 11 12  2  0  0  0  0
M  END
>  <CHROM.1>
-146.44718449,-178.92924159,-58.71183614,-21.43866608,-9.38234940,95.42775124
-2.36375240,0.21806147,-0.02333932

>  <Name>
ligand

>  <RI>
0

>  <Rbt.Current_Directory>
/home/itssahil/PROJECTS/Mol_Feturizer/Test_systems_manuscript/rnas/4nya

>  <Rbt.Executable>
rbdock ($Id: //depot/dev/client3/rdock/2013.1/src/exe/rbdock.cxx#4 $)

>  <Rbt.Library>
libRbt.so (2013.1, Build901 2013/11/27)

>  <Rbt.Parameter_File>
/export/apps/rDock/src/rDock_2013.1_src/data/scripts/dock_solv.prm

>  <Rbt.Receptor>
prm/pocket_docking_7.prm

>  <SCORE>
-13.0037

>  <SCORE.INTER>
-11.7233

>  <SCORE.INTER.CONST>
1

>  <SCORE.INTER.POLAR>
0

>  <SCORE.INTER.ROT>
3

>  <SCORE.INTER.SOLV>
14.7243

>  <SCORE.INTER.VDW>
-18.3237

>  <SCORE.INTER.norm>
-0.976945

>  <SCORE.INTRA>
-1.28035

>  <SCORE.INTRA.DIHEDRAL>
-2.16413

>  <SCORE.INTRA.DIHEDRAL.0>
3.34563

>  <SCORE.INTRA.POLAR>
0

>  <SCORE.INTRA.POLAR.0>
0

>  <SCORE.INTRA.REPUL>
0

>  <SCORE.INTRA.REPUL.0>
0

>  <SCORE.INTRA.SOLV>
-1.22877

>  <SCORE.INTRA.SOLV.lig_0>
-59.746

>  <SCORE.INTRA.VDW>
0.416097

>  <SCORE.INTRA.VDW.0>
-0.691186

>  <SCORE.INTRA.norm>
-0.106696

>  <SCORE.RESTR>
0

>  <SCORE.RESTR.CAVITY>
0

>  <SCORE.RESTR.norm>
0

>  <SCORE.SYSTEM>
0

>  <SCORE.SYSTEM.CONST>
0

>  <SCORE.SYSTEM.DIHEDRAL>
0

>  <SCORE.SYSTEM.SOLV>
0

>  <SCORE.SYSTEM.norm>
0

>  <SCORE.heavy>
12

>  <SCORE.norm>
-1.08364

>  <RMSD>
1.020

$$$$
ligand
 OpenBabel02271912143D
libRbt.so/2013.1/901 2013/11/27
 12 12  0  0  0  0  0  0  0  0999 V2000
  -22.1221  -10.6838   95.9167 C   0  0  0  0  0  0  0  0  0  0  0  0
  -19.2066   -6.1576   94.7808 C   0  0  0  0  0  0  0  0  0  0  0  0
  -19.5661  -10.8104   95.0900 N   0  0  0  0  0  0  0  0  0  0  0  0
  -23.5619  -10.5811   95.6393 N   0  0  0  0  0  0  0  0  0  0  0  0
  -24.1975  -11.4040   96.0583 N   0  0  0  0  0  0  0  0  0  0  0  0
  -24.8303  -12.2301   96.4745 N   0  0  0  0  0  0  0  0  0  0  0  0
  -21.2393   -7.1648   95.4343 N   0  0  0  0  0  0  0  0  0  0  0  0
  -19.9644   -7.2924   95.0437 C   0  0  0  0  0  0  0  0  0  0  0  0
  -19.4270   -8.5040   94.8373 N   0  0  0  0  0  0  0  0  0  0  0  0
  -20.1486   -9.6180   95.0285 C   0  0  0  0  0  0  0  0  0  0  0  0
  -21.4735   -9.5499   95.4437 C   0  0  0  0  0  0  0  0  0  0  0  0
  -22.0383   -8.2955   95.6411 C   0  0  0  0  0  0  0  0  0  0  0  0
  1 11  1  0  0  0  0
  1  4  1  0  0  0  0
  2  8  1  0  0  0  0
  3 10  1  0  0  0  0
  4  5  1  0  0  0  0
  5  6  1  0  0  0  0
  7  8  2  0  0  0  0
  7 12  1  0  0  0  0
  8  9  1  0  0  0  0
  9 10  2  0  0  0  0
 10 11  1  0  0  0  0
 11 12  2  0  0  0  0
M  END
>  <CHROM.1>
-151.03019650,-174.90345860,-60.25845697,-21.49536545,-9.37050468,95.45271731
-2.38532082,0.23324338,-0.03147685

>  <Name>
ligand

>  <RI>
0

>  <Rbt.Current_Directory>
/home/itssahil/PROJECTS/Mol_Feturizer/Test_systems_manuscript/rnas/4nya

>  <Rbt.Executable>
rbdock ($Id: //depot/dev/client3/rdock/2013.1/src/exe/rbdock.cxx#4 $)

>  <Rbt.Library>
libRbt.so (2013.1, Build901 2013/11/27)

>  <Rbt.Parameter_File>
/export/apps/rDock/src/rDock_2013.1_src/data/scripts/dock_solv.prm

>  <Rbt.Receptor>
prm/pocket_docking_2.prm

>  <SCORE>
-13.001

>  <SCORE.INTER>
-11.7556

>  <SCORE.INTER.CONST>
1

>  <SCORE.INTER.POLAR>
0

>  <SCORE.INTER.ROT>
3

>  <SCORE.INTER.SOLV>
14.4634

>  <SCORE.INTER.VDW>
-18.2582

>  <SCORE.INTER.norm>
-0.97963

>  <SCORE.INTRA>
-1.24548

>  <SCORE.INTRA.DIHEDRAL>
-2.20123

>  <SCORE.INTRA.DIHEDRAL.0>
3.34563

>  <SCORE.INTRA.POLAR>
0

>  <SCORE.INTRA.POLAR.0>
0

>  <SCORE.INTRA.REPUL>
0

>  <SCORE.INTRA.REPUL.0>
0

>  <SCORE.INTRA.SOLV>
-1.25033

>  <SCORE.INTRA.SOLV.lig_0>
-59.746

>  <SCORE.INTRA.VDW>
0.480301

>  <SCORE.INTRA.VDW.0>
-0.691186

>  <SCORE.INTRA.norm>
-0.10379

>  <SCORE.RESTR>
0

>  <SCORE.RESTR.CAVITY>
0

>  <SCORE.RESTR.norm>
0

>  <SCORE.SYSTEM>
0

>  <SCORE.SYSTEM.CONST>
0

>  <SCORE.SYSTEM.DIHEDRAL>
0

>  <SCORE.SYSTEM.SOLV>
0

>  <SCORE.SYSTEM.norm>
0

>  <SCORE.heavy>
12

>  <SCORE.norm>
-1.08342

>  <RMSD>
1.021

$$$$
ligand
 OpenBabel02271912143D
libRbt.so/2013.1/901 2013/11/27
 12 12  0  0  0  0  0  0  0  0999 V2000
  -22.0669  -10.7238   95.9078 C   0  0  0  0  0  0  0  0  0  0  0  0
  -19.1975   -6.1658   94.7813 C   0  0  0  0  0  0  0  0  0  0  0  0
  -19.5500  -10.8257   94.9656 N   0  0  0  0  0  0  0  0  0  0  0  0
  -23.5117  -10.6336   95.6530 N   0  0  0  0  0  0  0  0  0  0  0  0
  -24.1296  -11.4784   96.0546 N   0  0  0  0  0  0  0  0  0  0  0  0
  -24.7515  -12.3210   96.4538 N   0  0  0  0  0  0  0  0  0  0  0  0
  -21.2009   -7.1919   95.4933 N   0  0  0  0  0  0  0  0  0  0  0  0
  -19.9447   -7.3079   95.0430 C   0  0  0  0  0  0  0  0  0  0  0  0
  -19.4187   -8.5128   94.7767 N   0  0  0  0  0  0  0  0  0  0  0  0
  -20.1329   -9.6319   94.9659 C   0  0  0  0  0  0  0  0  0  0  0  0
  -21.4380   -9.5761   95.4410 C   0  0  0  0  0  0  0  0  0  0  0  0
  -21.9917   -8.3283   95.7010 C   0  0  0  0  0  0  0  0  0  0  0  0
  1 11  1  0  0  0  0
  1  4  1  0  0  0  0
  2  8  1  0  0  0  0
  3 10  1  0  0  0  0
  4  5  1  0  0  0  0
  5  6  1  0  0  0  0
  7  8  2  0  0  0  0
  7 12  1  0  0  0  0
  8  9  1  0  0  0  0
  9 10  2  0  0  0  0
 10 11  1  0  0  0  0
 11 12  2  0  0  0  0
M  END
>  <CHROM.1>
-148.97697533,-175.91655271,-173.52237008,-21.45838797,-9.40473725,95.43968313
-2.37990961,0.26707423,0.00185714

>  <Name>
ligand

>  <RI>
0

>  <Rbt.Current_Directory>
/home/itssahil/PROJECTS/Mol_Feturizer/Test_systems_manuscript/rnas/4nya

>  <Rbt.Executable>
rbdock ($Id: //depot/dev/client3/rdock/2013.1/src/exe/rbdock.cxx#4 $)

>  <Rbt.Library>
libRbt.so (2013.1, Build901 2013/11/27)

>  <Rbt.Parameter_File>
/export/apps/rDock/src/rDock_2013.1_src/data/scripts/dock_solv.prm

>  <Rbt.Receptor>
prm/pocket_docking_5.prm

>  <SCORE>
-13.0447

>  <SCORE.INTER>
-11.7844

>  <SCORE.INTER.CONST>
1

>  <SCORE.INTER.POLAR>
0

>  <SCORE.INTER.ROT>
3

>  <SCORE.INTER.SOLV>
14.6414

>  <SCORE.INTER.VDW>
-18.3367

>  <SCORE.INTER.norm>
-0.982029

>  <SCORE.INTRA>
-1.26031

>  <SCORE.INTRA.DIHEDRAL>
-2.1757

>  <SCORE.INTRA.DIHEDRAL.0>
3.34563

>  <SCORE.INTRA.POLAR>
0

>  <SCORE.INTRA.POLAR.0>
0

>  <SCORE.INTRA.REPUL>
0

>  <SCORE.INTRA.REPUL.0>
0

>  <SCORE.INTRA.SOLV>
-1.24299

>  <SCORE.INTRA.SOLV.lig_0>
-59.746

>  <SCORE.INTRA.VDW>
0.449039

>  <SCORE.INTRA.VDW.0>
-0.691186

>  <SCORE.INTRA.norm>
-0.105026

>  <SCORE.RESTR>
0

>  <SCORE.RESTR.CAVITY>
0

>  <SCORE.RESTR.norm>
0

>  <SCORE.SYSTEM>
0

>  <SCORE.SYSTEM.CONST>
0

>  <SCORE.SYSTEM.DIHEDRAL>
0

>  <SCORE.SYSTEM.SOLV>
0

>  <SCORE.SYSTEM.norm>
0

>  <SCORE.heavy>
12

>  <SCORE.norm>
-1.08706

>  <RMSD>
1.021

$$$$
ligand
 OpenBabel02271912143D
libRbt.so/2013.1/901 2013/11/27
 12 12  0  0  0  0  0  0  0  0999 V2000
  -22.0814  -10.7065   95.9396 C   0  0  0  0  0  0  0  0  0  0  0  0
  -19.1988   -6.1652   94.7798 C   0  0  0  0  0  0  0  0  0  0  0  0
  -19.5621  -10.8225   95.0055 N   0  0  0  0  0  0  0  0  0  0  0  0
  -23.5213  -10.6281   95.6551 N   0  0  0  0  0  0  0  0  0  0  0  0
  -24.1457  -11.4591   96.0751 N   0  0  0  0  0  0  0  0  0  0  0  0
  -24.7682  -12.2887   96.4996 N   0  0  0  0  0  0  0  0  0  0  0  0
  -21.2065   -7.1805   95.4954 N   0  0  0  0  0  0  0  0  0  0  0  0
  -19.9492   -7.3033   95.0498 C   0  0  0  0  0  0  0  0  0  0  0  0
  -19.4252   -8.5117   94.7960 N   0  0  0  0  0  0  0  0  0  0  0  0
  -20.1424   -9.6275   94.9933 C   0  0  0  0  0  0  0  0  0  0  0  0
  -21.4487   -9.5646   95.4642 C   0  0  0  0  0  0  0  0  0  0  0  0
  -22.0004   -8.3131   95.7112 C   0  0  0  0  0  0  0  0  0  0  0  0
  1 11  1  0  0  0  0
  1  4  1  0  0  0  0
  2  8  1  0  0  0  0
  3 10  1  0  0  0  0
  4  5  1  0  0  0  0
  5  6  1  0  0  0  0
  7  8  2  0  0  0  0
  7 12  1  0  0  0  0
  8  9  1  0  0  0  0
  9 10  2  0  0  0  0
 10 11  1  0  0  0  0
 11 12  2  0  0  0  0
M  END
>  <CHROM.1>
-147.81758373,-174.90825220,58.92887409,-21.46803813,-9.39417899,95.45860675
-2.38143038,0.26315451,-0.00654854

>  <Name>
ligand

>  <RI>
0

>  <Rbt.Current_Directory>
/home/itssahil/PROJECTS/Mol_Feturizer/Test_systems_manuscript/rnas/4nya

>  <Rbt.Executable>
rbdock ($Id: //depot/dev/client3/rdock/2013.1/src/exe/rbdock.cxx#4 $)

>  <Rbt.Library>
libRbt.so (2013.1, Build901 2013/11/27)

>  <Rbt.Parameter_File>
/export/apps/rDock/src/rDock_2013.1_src/data/scripts/dock_solv.prm

>  <Rbt.Receptor>
prm/pocket_docking_7.prm

>  <SCORE>
-13.0472

>  <SCORE.INTER>
-11.7839

>  <SCORE.INTER.CONST>
1

>  <SCORE.INTER.POLAR>
0

>  <SCORE.INTER.ROT>
3

>  <SCORE.INTER.SOLV>
14.5722

>  <SCORE.INTER.VDW>
-18.3133

>  <SCORE.INTER.norm>
-0.981991

>  <SCORE.INTRA>
-1.26335

>  <SCORE.INTRA.DIHEDRAL>
-2.16423

>  <SCORE.INTRA.DIHEDRAL.0>
3.34563

>  <SCORE.INTRA.POLAR>
0

>  <SCORE.INTRA.POLAR.0>
0

>  <SCORE.INTRA.REPUL>
0

>  <SCORE.INTRA.REPUL.0>
0

>  <SCORE.INTRA.SOLV>
-1.22958

>  <SCORE.INTRA.SOLV.lig_0>
-59.746

>  <SCORE.INTRA.VDW>
0.433553

>  <SCORE.INTRA.VDW.0>
-0.691186

>  <SCORE.INTRA.norm>
-0.105279

>  <SCORE.RESTR>
0

>  <SCORE.RESTR.CAVITY>
0

>  <SCORE.RESTR.norm>
0

>  <SCORE.SYSTEM>
0

>  <SCORE.SYSTEM.CONST>
0

>  <SCORE.SYSTEM.DIHEDRAL>
0

>  <SCORE.SYSTEM.SOLV>
0

>  <SCORE.SYSTEM.norm>
0

>  <SCORE.heavy>
12

>  <SCORE.norm>
-1.08727

>  <RMSD>
1.021

$$$$
ligand
 OpenBabel02271912143D
libRbt.so/2013.1/901 2013/11/27
 12 12  0  0  0  0  0  0  0  0999 V2000
  -22.1171  -10.6229   95.8931 C   0  0  0  0  0  0  0  0  0  0  0  0
  -19.2063   -6.1051   94.7124 C   0  0  0  0  0  0  0  0  0  0  0  0
  -19.5376  -10.7503   95.1427 N   0  0  0  0  0  0  0  0  0  0  0  0
  -23.5016  -10.6425   95.4000 N   0  0  0  0  0  0  0  0  0  0  0  0
  -24.1224  -11.5161   95.7291 N   0  0  0  0  0  0  0  0  0  0  0  0
  -24.7395  -12.3926   96.0562 N   0  0  0  0  0  0  0  0  0  0  0  0
  -21.2488   -7.1112   95.3365 N   0  0  0  0  0  0  0  0  0  0  0  0
  -19.9623   -7.2387   94.9858 C   0  0  0  0  0  0  0  0  0  0  0  0
  -19.4097   -8.4508   94.8290 N   0  0  0  0  0  0  0  0  0  0  0  0
  -20.1276   -9.5652   95.0312 C   0  0  0  0  0  0  0  0  0  0  0  0
  -21.4642   -9.4970   95.4067 C   0  0  0  0  0  0  0  0  0  0  0  0
  -22.0444   -8.2426   95.5526 C   0  0  0  0  0  0  0  0  0  0  0  0
  1 11  1  0  0  0  0
  1  4  1  0  0  0  0
  2  8  1  0  0  0  0
  3 10  1  0  0  0  0
  4  5  1  0  0  0  0
  5  6  1  0  0  0  0
  7  8  2  0  0  0  0
  7 12  1  0  0  0  0
  8  9  1  0  0  0  0
  9 10  2  0  0  0  0
 10 11  1  0  0  0  0
 11 12  2  0  0  0  0
M  END
>  <CHROM.1>
-142.50148792,179.70116110,-55.52005325,-21.47010641,-9.35918528,95.34041459
-2.34627013,0.16159940,-0.04651996

>  <Name>
ligand

>  <RI>
0

>  <Rbt.Current_Directory>
/home/itssahil/PROJECTS/Mol_Feturizer/Test_systems_manuscript/rnas/4nya

>  <Rbt.Executable>
rbdock ($Id: //depot/dev/client3/rdock/2013.1/src/exe/rbdock.cxx#4 $)

>  <Rbt.Library>
libRbt.so (2013.1, Build901 2013/11/27)

>  <Rbt.Parameter_File>
/export/apps/rDock/src/rDock_2013.1_src/data/scripts/dock_solv.prm

>  <Rbt.Receptor>
prm/pocket_docking_8.prm

>  <SCORE>
-12.965

>  <SCORE.INTER>
-11.6874

>  <SCORE.INTER.CONST>
1

>  <SCORE.INTER.POLAR>
0

>  <SCORE.INTER.ROT>
3

>  <SCORE.INTER.SOLV>
14.8692

>  <SCORE.INTER.VDW>
-18.348

>  <SCORE.INTER.norm>
-0.973953

>  <SCORE.INTRA>
-1.27756

>  <SCORE.INTRA.DIHEDRAL>
-2.08782

>  <SCORE.INTRA.DIHEDRAL.0>
3.34563

>  <SCORE.INTRA.POLAR>
0

>  <SCORE.INTRA.POLAR.0>
0

>  <SCORE.INTRA.REPUL>
0

>  <SCORE.INTRA.REPUL.0>
0

>  <SCORE.INTRA.SOLV>
-1.20119

>  <SCORE.INTRA.SOLV.lig_0>
-59.746

>  <SCORE.INTRA.VDW>
0.366953

>  <SCORE.INTRA.VDW.0>
-0.691186

>  <SCORE.INTRA.norm>
-0.106463

>  <SCORE.RESTR>
0

>  <SCORE.RESTR.CAVITY>
0

>  <SCORE.RESTR.norm>
0

>  <SCORE.SYSTEM>
0

>  <SCORE.SYSTEM.CONST>
0

>  <SCORE.SYSTEM.DIHEDRAL>
0

>  <SCORE.SYSTEM.SOLV>
0

>  <SCORE.SYSTEM.norm>
0

>  <SCORE.heavy>
12

>  <SCORE.norm>
-1.08042

>  <RMSD>
1.021

$$$$
ligand
 OpenBabel02271912143D
libRbt.so/2013.1/901 2013/11/27
 12 12  0  0  0  0  0  0  0  0999 V2000
  -22.0823  -10.7014   95.9390 C   0  0  0  0  0  0  0  0  0  0  0  0
  -19.1938   -6.1656   94.7723 C   0  0  0  0  0  0  0  0  0  0  0  0
  -19.5606  -10.8219   95.0120 N   0  0  0  0  0  0  0  0  0  0  0  0
  -23.5243  -10.6140   95.6679 N   0  0  0  0  0  0  0  0  0  0  0  0
  -24.1446  -11.4620   96.0590 N   0  0  0  0  0  0  0  0  0  0  0  0
  -24.7619  -12.3130   96.4472 N   0  0  0  0  0  0  0  0  0  0  0  0
  -21.2041   -7.1773   95.4858 N   0  0  0  0  0  0  0  0  0  0  0  0
  -19.9457   -7.3024   95.0439 C   0  0  0  0  0  0  0  0  0  0  0  0
  -19.4217   -8.5118   94.7954 N   0  0  0  0  0  0  0  0  0  0  0  0
  -20.1401   -9.6266   94.9944 C   0  0  0  0  0  0  0  0  0  0  0  0
  -21.4477   -9.5613   95.4616 C   0  0  0  0  0  0  0  0  0  0  0  0
  -21.9992   -8.3088   95.7031 C   0  0  0  0  0  0  0  0  0  0  0  0
  1 11  1  0  0  0  0
  1  4  1  0  0  0  0
  2  8  1  0  0  0  0
  3 10  1  0  0  0  0
  4  5  1  0  0  0  0
  5  6  1  0  0  0  0
  7  8  2  0  0  0  0
  7 12  1  0  0  0  0
  8  9  1  0  0  0  0
  9 10  2  0  0  0  0
 10 11  1  0  0  0  0
 11 12  2  0  0  0  0
M  END
>  <CHROM.1>
-148.64111545,-177.02750060,-58.35522628,-21.46603475,-9.39388826,95.45153942
-2.37922005,0.25747116,-0.00845045

>  <Name>
ligand

>  <RI>
0

>  <Rbt.Current_Directory>
/home/itssahil/PROJECTS/Mol_Feturizer/Test_systems_manuscript/rnas/4nya

>  <Rbt.Executable>
rbdock ($Id: //depot/dev/client3/rdock/2013.1/src/exe/rbdock.cxx#4 $)

>  <Rbt.Library>
libRbt.so (2013.1, Build901 2013/11/27)

>  <Rbt.Parameter_File>
/export/apps/rDock/src/rDock_2013.1_src/data/scripts/dock_solv.prm

>  <Rbt.Receptor>
prm/pocket_docking_4.prm

>  <SCORE>
-13.0519

>  <SCORE.INTER>
-11.7835

>  <SCORE.INTER.CONST>
1

>  <SCORE.INTER.POLAR>
0

>  <SCORE.INTER.ROT>
3

>  <SCORE.INTER.SOLV>
14.5674

>  <SCORE.INTER.VDW>
-18.3115

>  <SCORE.INTER.norm>
-0.981957

>  <SCORE.INTRA>
-1.2684

>  <SCORE.INTRA.DIHEDRAL>
-2.18862

>  <SCORE.INTRA.DIHEDRAL.0>
3.34563

>  <SCORE.INTRA.POLAR>
0

>  <SCORE.INTRA.POLAR.0>
0

>  <SCORE.INTRA.REPUL>
0

>  <SCORE.INTRA.REPUL.0>
0

>  <SCORE.INTRA.SOLV>
-1.23993

>  <SCORE.INTRA.SOLV.lig_0>
-59.746

>  <SCORE.INTRA.VDW>
0.445871

>  <SCORE.INTRA.VDW.0>
-0.691186

>  <SCORE.INTRA.norm>
-0.1057

>  <SCORE.RESTR>
0

>  <SCORE.RESTR.CAVITY>
0

>  <SCORE.RESTR.norm>
0

>  <SCORE.SYSTEM>
0

>  <SCORE.SYSTEM.CONST>
0

>  <SCORE.SYSTEM.DIHEDRAL>
0

>  <SCORE.SYSTEM.SOLV>
0

>  <SCORE.SYSTEM.norm>
0

>  <SCORE.heavy>
12

>  <SCORE.norm>
-1.08766

>  <RMSD>
1.022

$$$$
ligand
 OpenBabel02271912143D
libRbt.so/2013.1/901 2013/11/27
 12 12  0  0  0  0  0  0  0  0999 V2000
  -22.1528  -10.6562   95.9778 C   0  0  0  0  0  0  0  0  0  0  0  0
  -19.1931   -6.1861   94.7382 C   0  0  0  0  0  0  0  0  0  0  0  0
  -19.5904  -10.8252   95.1786 N   0  0  0  0  0  0  0  0  0  0  0  0
  -23.2161  -11.0583   95.0461 N   0  0  0  0  0  0  0  0  0  0  0  0
  -23.6980  -12.0484   95.2567 N   0  0  0  0  0  0  0  0  0  0  0  0
  -24.1815  -13.0363   95.4717 N   0  0  0  0  0  0  0  0  0  0  0  0
  -21.2391   -7.1591   95.4019 N   0  0  0  0  0  0  0  0  0  0  0  0
  -19.9617   -7.3073   95.0268 C   0  0  0  0  0  0  0  0  0  0  0  0
  -19.4317   -8.5282   94.8606 N   0  0  0  0  0  0  0  0  0  0  0  0
  -20.1634   -9.6309   95.0773 C   0  0  0  0  0  0  0  0  0  0  0  0
  -21.4913   -9.5411   95.4781 C   0  0  0  0  0  0  0  0  0  0  0  0
  -22.0485   -8.2775   95.6340 C   0  0  0  0  0  0  0  0  0  0  0  0
  1 11  1  0  0  0  0
  1  4  1  0  0  0  0
  2  8  1  0  0  0  0
  3 10  1  0  0  0  0
  4  5  1  0  0  0  0
  5  6  1  0  0  0  0
  7  8  2  0  0  0  0
  7 12  1  0  0  0  0
  8  9  1  0  0  0  0
  9 10  2  0  0  0  0
 10 11  1  0  0  0  0
 11 12  2  0  0  0  0
M  END
>  <CHROM.1>
-113.24164170,169.77509210,62.99538747,-21.37239817,-9.54131639,95.25699007
2.23155615,-0.12074311,-3.13214584

>  <Name>
ligand

>  <RI>
0

>  <Rbt.Current_Directory>
/home/itssahil/PROJECTS/Mol_Feturizer/Test_systems_manuscript/rnas/4nya

>  <Rbt.Executable>
rbdock ($Id: //depot/dev/client3/rdock/2013.1/src/exe/rbdock.cxx#4 $)

>  <Rbt.Library>
libRbt.so (2013.1, Build901 2013/11/27)

>  <Rbt.Parameter_File>
/export/apps/rDock/src/rDock_2013.1_src/data/scripts/dock_solv.prm

>  <Rbt.Receptor>
prm/pocket_docking_2.prm

>  <SCORE>
-12.2156

>  <SCORE.INTER>
-11.4168

>  <SCORE.INTER.CONST>
1

>  <SCORE.INTER.POLAR>
0

>  <SCORE.INTER.ROT>
3

>  <SCORE.INTER.SOLV>
15.4881

>  <SCORE.INTER.VDW>
-18.3739

>  <SCORE.INTER.norm>
-0.951399

>  <SCORE.INTRA>
-0.79882

>  <SCORE.INTRA.DIHEDRAL>
-1.2

>  <SCORE.INTRA.DIHEDRAL.0>
3.34563

>  <SCORE.INTRA.POLAR>
0

>  <SCORE.INTRA.POLAR.0>
0

>  <SCORE.INTRA.REPUL>
0

>  <SCORE.INTRA.REPUL.0>
0

>  <SCORE.INTRA.SOLV>
-0.647095

>  <SCORE.INTRA.SOLV.lig_0>
-59.746

>  <SCORE.INTRA.VDW>
0.12473

>  <SCORE.INTRA.VDW.0>
-0.691186

>  <SCORE.INTRA.norm>
-0.0665683

>  <SCORE.RESTR>
0

>  <SCORE.RESTR.CAVITY>
0

>  <SCORE.RESTR.norm>
0

>  <SCORE.SYSTEM>
0

>  <SCORE.SYSTEM.CONST>
0

>  <SCORE.SYSTEM.DIHEDRAL>
0

>  <SCORE.SYSTEM.SOLV>
0

>  <SCORE.SYSTEM.norm>
0

>  <SCORE.heavy>
12

>  <SCORE.norm>
-1.01797

>  <RMSD>
1.023

$$$$
ligand
 OpenBabel02271912143D
libRbt.so/2013.1/901 2013/11/27
 12 12  0  0  0  0  0  0  0  0999 V2000
  -22.0825  -10.6982   95.9164 C   0  0  0  0  0  0  0  0  0  0  0  0
  -19.2086   -6.1477   94.7713 C   0  0  0  0  0  0  0  0  0  0  0  0
  -19.5369  -10.8044   95.0554 N   0  0  0  0  0  0  0  0  0  0  0  0
  -23.5224  -10.6151   95.6329 N   0  0  0  0  0  0  0  0  0  0  0  0
  -24.1462  -11.4551   96.0354 N   0  0  0  0  0  0  0  0  0  0  0  0
  -24.7686  -12.2935   96.4425 N   0  0  0  0  0  0  0  0  0  0  0  0
  -21.2267   -7.1710   95.4450 N   0  0  0  0  0  0  0  0  0  0  0  0
  -19.9562   -7.2887   95.0368 C   0  0  0  0  0  0  0  0  0  0  0  0
  -19.4146   -8.4957   94.8157 N   0  0  0  0  0  0  0  0  0  0  0  0
  -20.1271   -9.6151   95.0092 C   0  0  0  0  0  0  0  0  0  0  0  0
  -21.4468   -9.5574   95.4421 C   0  0  0  0  0  0  0  0  0  0  0  0
  -22.0163   -8.3077   95.6550 C   0  0  0  0  0  0  0  0  0  0  0  0
  1 11  1  0  0  0  0
  1  4  1  0  0  0  0
  2  8  1  0  0  0  0
  3 10  1  0  0  0  0
  4  5  1  0  0  0  0
  5  6  1  0  0  0  0
  7  8  2  0  0  0  0
  7 12  1  0  0  0  0
  8  9  1  0  0  0  0
  9 10  2  0  0  0  0
 10 11  1  0  0  0  0
 11 12  2  0  0  0  0
M  END
>  <CHROM.1>
-149.83221011,-176.02993622,63.44968934,-21.46829351,-9.38402274,95.44150037
-2.37458666,0.23921423,-0.02456488

>  <Name>
ligand

>  <RI>
0

>  <Rbt.Current_Directory>
/home/itssahil/PROJECTS/Mol_Feturizer/Test_systems_manuscript/rnas/4nya

>  <Rbt.Executable>
rbdock ($Id: //depot/dev/client3/rdock/2013.1/src/exe/rbdock.cxx#4 $)

>  <Rbt.Library>
libRbt.so (2013.1, Build901 2013/11/27)

>  <Rbt.Parameter_File>
/export/apps/rDock/src/rDock_2013.1_src/data/scripts/dock_solv.prm

>  <Rbt.Receptor>
prm/pocket_docking_8.prm

>  <SCORE>
-13.0426

>  <SCORE.INTER>
-11.7853

>  <SCORE.INTER.CONST>
1

>  <SCORE.INTER.POLAR>
0

>  <SCORE.INTER.ROT>
3

>  <SCORE.INTER.SOLV>
14.6359

>  <SCORE.INTER.VDW>
-18.3355

>  <SCORE.INTER.norm>
-0.982112

>  <SCORE.INTRA>
-1.25728

>  <SCORE.INTRA.DIHEDRAL>
-2.19441

>  <SCORE.INTRA.DIHEDRAL.0>
3.34563

>  <SCORE.INTRA.POLAR>
0

>  <SCORE.INTRA.POLAR.0>
0

>  <SCORE.INTRA.REPUL>
0

>  <SCORE.INTRA.REPUL.0>
0

>  <SCORE.INTRA.SOLV>
-1.24562

>  <SCORE.INTRA.SOLV.lig_0>
-59.746

>  <SCORE.INTRA.VDW>
0.462734

>  <SCORE.INTRA.VDW.0>
-0.691186

>  <SCORE.INTRA.norm>
-0.104773

>  <SCORE.RESTR>
0

>  <SCORE.RESTR.CAVITY>
0

>  <SCORE.RESTR.norm>
0

>  <SCORE.SYSTEM>
0

>  <SCORE.SYSTEM.CONST>
0

>  <SCORE.SYSTEM.DIHEDRAL>
0

>  <SCORE.SYSTEM.SOLV>
0

>  <SCORE.SYSTEM.norm>
0

>  <SCORE.heavy>
12

>  <SCORE.norm>
-1.08688

>  <RMSD>
1.023

$$$$
ligand
 OpenBabel02271912143D
libRbt.so/2013.1/901 2013/11/27
 12 12  0  0  0  0  0  0  0  0999 V2000
  -22.0910  -10.6888   95.9013 C   0  0  0  0  0  0  0  0  0  0  0  0
  -19.1980   -6.1475   94.7678 C   0  0  0  0  0  0  0  0  0  0  0  0
  -19.5341  -10.8022   95.0752 N   0  0  0  0  0  0  0  0  0  0  0  0
  -23.5402  -10.5597   95.6922 N   0  0  0  0  0  0  0  0  0  0  0  0
  -24.1552  -11.4488   95.9889 N   0  0  0  0  0  0  0  0  0  0  0  0
  -24.7741  -12.3352   96.2839 N   0  0  0  0  0  0  0  0  0  0  0  0
  -21.2258   -7.1652   95.4204 N   0  0  0  0  0  0  0  0  0  0  0  0
  -19.9502   -7.2863   95.0300 C   0  0  0  0  0  0  0  0  0  0  0  0
  -19.4066   -8.4950   94.8234 N   0  0  0  0  0  0  0  0  0  0  0  0
  -20.1227   -9.6127   95.0140 C   0  0  0  0  0  0  0  0  0  0  0  0
  -21.4479   -9.5514   95.4288 C   0  0  0  0  0  0  0  0  0  0  0  0
  -22.0192   -8.3000   95.6266 C   0  0  0  0  0  0  0  0  0  0  0  0
  1 11  1  0  0  0  0
  1  4  1  0  0  0  0
  2  8  1  0  0  0  0
  3 10  1  0  0  0  0
  4  5  1  0  0  0  0
  5  6  1  0  0  0  0
  7  8  2  0  0  0  0
  7 12  1  0  0  0  0
  8  9  1  0  0  0  0
  9 10  2  0  0  0  0
 10 11  1  0  0  0  0
 11 12  2  0  0  0  0
M  END
>  <CHROM.1>
-154.21462050,176.88045566,-177.73464634,-21.46936429,-9.37932273,95.42417149
-2.37341360,0.22246324,-0.02696864

>  <Name>
ligand

>  <RI>
0

>  <Rbt.Current_Directory>
/home/itssahil/PROJECTS/Mol_Feturizer/Test_systems_manuscript/rnas/4nya

>  <Rbt.Executable>
rbdock ($Id: //depot/dev/client3/rdock/2013.1/src/exe/rbdock.cxx#4 $)

>  <Rbt.Library>
libRbt.so (2013.1, Build901 2013/11/27)

>  <Rbt.Parameter_File>
/export/apps/rDock/src/rDock_2013.1_src/data/scripts/dock_solv.prm

>  <Rbt.Receptor>
prm/pocket_docking_2.prm

>  <SCORE>
-13.0634

>  <SCORE.INTER>
-11.8349

>  <SCORE.INTER.CONST>
1

>  <SCORE.INTER.POLAR>
0

>  <SCORE.INTER.ROT>
3

>  <SCORE.INTER.SOLV>
14.5629

>  <SCORE.INTER.VDW>
-18.3442

>  <SCORE.INTER.norm>
-0.986238

>  <SCORE.INTRA>
-1.22858

>  <SCORE.INTRA.DIHEDRAL>
-2.234

>  <SCORE.INTRA.DIHEDRAL.0>
3.34563

>  <SCORE.INTRA.POLAR>
0

>  <SCORE.INTRA.POLAR.0>
0

>  <SCORE.INTRA.REPUL>
0

>  <SCORE.INTRA.REPUL.0>
0

>  <SCORE.INTRA.SOLV>
-1.28542

>  <SCORE.INTRA.SOLV.lig_0>
-59.746

>  <SCORE.INTRA.VDW>
0.531132

>  <SCORE.INTRA.VDW.0>
-0.691186

>  <SCORE.INTRA.norm>
-0.102382

>  <SCORE.RESTR>
0

>  <SCORE.RESTR.CAVITY>
0

>  <SCORE.RESTR.norm>
0

>  <SCORE.SYSTEM>
0

>  <SCORE.SYSTEM.CONST>
0

>  <SCORE.SYSTEM.DIHEDRAL>
0

>  <SCORE.SYSTEM.SOLV>
0

>  <SCORE.SYSTEM.norm>
0

>  <SCORE.heavy>
12

>  <SCORE.norm>
-1.08862

>  <RMSD>
1.024

$$$$
ligand
 OpenBabel02271912143D
libRbt.so/2013.1/901 2013/11/27
 12 12  0  0  0  0  0  0  0  0999 V2000
  -22.0848  -10.7076   95.9255 C   0  0  0  0  0  0  0  0  0  0  0  0
  -19.2085   -6.1602   94.7743 C   0  0  0  0  0  0  0  0  0  0  0  0
  -19.5536  -10.8176   95.0232 N   0  0  0  0  0  0  0  0  0  0  0  0
  -23.5310  -10.6072   95.6826 N   0  0  0  0  0  0  0  0  0  0  0  0
  -24.1496  -11.4559   96.0748 N   0  0  0  0  0  0  0  0  0  0  0  0
  -24.7655  -12.3075   96.4639 N   0  0  0  0  0  0  0  0  0  0  0  0
  -21.2203   -7.1803   95.4711 N   0  0  0  0  0  0  0  0  0  0  0  0
  -19.9571   -7.3000   95.0418 C   0  0  0  0  0  0  0  0  0  0  0  0
  -19.4245   -8.5074   94.8016 N   0  0  0  0  0  0  0  0  0  0  0  0
  -20.1391   -9.6254   94.9967 C   0  0  0  0  0  0  0  0  0  0  0  0
  -21.4514   -9.5656   95.4511 C   0  0  0  0  0  0  0  0  0  0  0  0
  -22.0117   -8.3153   95.6838 C   0  0  0  0  0  0  0  0  0  0  0  0
  1 11  1  0  0  0  0
  1  4  1  0  0  0  0
  2  8  1  0  0  0  0
  3 10  1  0  0  0  0
  4  5  1  0  0  0  0
  5  6  1  0  0  0  0
  7  8  2  0  0  0  0
  7 12  1  0  0  0  0
  8  9  1  0  0  0  0
  9 10  2  0  0  0  0
 10 11  1  0  0  0  0
 11 12  2  0  0  0  0
M  END
>  <CHROM.1>
-150.62077610,-176.99293433,-59.13896875,-21.47196677,-9.39236743,95.45267805
-2.37836581,0.25505306,-0.01457061

>  <Name>
ligand

>  <RI>
0

>  <Rbt.Current_Directory>
/home/itssahil/PROJECTS/Mol_Feturizer/Test_systems_manuscript/rnas/4nya

>  <Rbt.Executable>
rbdock ($Id: //depot/dev/client3/rdock/2013.1/src/exe/rbdock.cxx#4 $)

>  <Rbt.Library>
libRbt.so (2013.1, Build901 2013/11/27)

>  <Rbt.Parameter_File>
/export/apps/rDock/src/rDock_2013.1_src/data/scripts/dock_solv.prm

>  <Rbt.Receptor>
prm/pocket_docking_4.prm

>  <SCORE>
-13.0429

>  <SCORE.INTER>
-11.786

>  <SCORE.INTER.CONST>
1

>  <SCORE.INTER.POLAR>
0

>  <SCORE.INTER.ROT>
3

>  <SCORE.INTER.SOLV>
14.5732

>  <SCORE.INTER.VDW>
-18.3151

>  <SCORE.INTER.norm>
-0.982165

>  <SCORE.INTRA>
-1.25691

>  <SCORE.INTRA.DIHEDRAL>
-2.21103

>  <SCORE.INTRA.DIHEDRAL.0>
3.34563

>  <SCORE.INTRA.POLAR>
0

>  <SCORE.INTRA.POLAR.0>
0

>  <SCORE.INTRA.REPUL>
0

>  <SCORE.INTRA.REPUL.0>
0

>  <SCORE.INTRA.SOLV>
-1.25243

>  <SCORE.INTRA.SOLV.lig_0>
-59.746

>  <SCORE.INTRA.VDW>
0.474827

>  <SCORE.INTRA.VDW.0>
-0.691186

>  <SCORE.INTRA.norm>
-0.104742

>  <SCORE.RESTR>
0

>  <SCORE.RESTR.CAVITY>
0

>  <SCORE.RESTR.norm>
0

>  <SCORE.SYSTEM>
0

>  <SCORE.SYSTEM.CONST>
0

>  <SCORE.SYSTEM.DIHEDRAL>
0

>  <SCORE.SYSTEM.SOLV>
0

>  <SCORE.SYSTEM.norm>
0

>  <SCORE.heavy>
12

>  <SCORE.norm>
-1.08691

>  <RMSD>
1.024

$$$$
ligand
 OpenBabel02271912143D
libRbt.so/2013.1/901 2013/11/27
 12 12  0  0  0  0  0  0  0  0999 V2000
  -22.0718  -10.6841   95.9424 C   0  0  0  0  0  0  0  0  0  0  0  0
  -19.1819   -6.1503   94.7717 C   0  0  0  0  0  0  0  0  0  0  0  0
  -19.5353  -10.8050   95.0569 N   0  0  0  0  0  0  0  0  0  0  0  0
  -23.5072  -10.6123   95.6342 N   0  0  0  0  0  0  0  0  0  0  0  0
  -24.1305  -11.4595   96.0221 N   0  0  0  0  0  0  0  0  0  0  0  0
  -24.7523  -12.3053   96.4147 N   0  0  0  0  0  0  0  0  0  0  0  0
  -21.1995   -7.1618   95.4643 N   0  0  0  0  0  0  0  0  0  0  0  0
  -19.9338   -7.2869   95.0439 C   0  0  0  0  0  0  0  0  0  0  0  0
  -19.4015   -8.4970   94.8171 N   0  0  0  0  0  0  0  0  0  0  0  0
  -20.1188   -9.6122   95.0169 C   0  0  0  0  0  0  0  0  0  0  0  0
  -21.4339   -9.5469   95.4626 C   0  0  0  0  0  0  0  0  0  0  0  0
  -21.9938   -8.2939   95.6815 C   0  0  0  0  0  0  0  0  0  0  0  0
  1 11  1  0  0  0  0
  1  4  1  0  0  0  0
  2  8  1  0  0  0  0
  3 10  1  0  0  0  0
  4  5  1  0  0  0  0
  5  6  1  0  0  0  0
  7  8  2  0  0  0  0
  7 12  1  0  0  0  0
  8  9  1  0  0  0  0
  9 10  2  0  0  0  0
 10 11  1  0  0  0  0
 11 12  2  0  0  0  0
M  END
>  <CHROM.1>
-148.00792932,-177.11497473,61.21604109,-21.45220664,-9.38140681,95.44687708
-2.37432750,0.23953957,-0.01976521

>  <Name>
ligand

>  <RI>
0

>  <Rbt.Current_Directory>
/home/itssahil/PROJECTS/Mol_Feturizer/Test_systems_manuscript/rnas/4nya

>  <Rbt.Executable>
rbdock ($Id: //depot/dev/client3/rdock/2013.1/src/exe/rbdock.cxx#4 $)

>  <Rbt.Library>
libRbt.so (2013.1, Build901 2013/11/27)

>  <Rbt.Parameter_File>
/export/apps/rDock/src/rDock_2013.1_src/data/scripts/dock_solv.prm

>  <Rbt.Receptor>
prm/pocket_docking_2.prm

>  <SCORE>
-13.0322

>  <SCORE.INTER>
-11.7606

>  <SCORE.INTER.CONST>
1

>  <SCORE.INTER.POLAR>
0

>  <SCORE.INTER.ROT>
3

>  <SCORE.INTER.SOLV>
14.643

>  <SCORE.INTER.VDW>
-18.3214

>  <SCORE.INTER.norm>
-0.980046

>  <SCORE.INTRA>
-1.27163

>  <SCORE.INTRA.DIHEDRAL>
-2.1811

>  <SCORE.INTRA.DIHEDRAL.0>
3.34563

>  <SCORE.INTRA.POLAR>
0

>  <SCORE.INTRA.POLAR.0>
0

>  <SCORE.INTRA.REPUL>
0

>  <SCORE.INTRA.REPUL.0>
0

>  <SCORE.INTRA.SOLV>
-1.23599

>  <SCORE.INTRA.SOLV.lig_0>
-59.746

>  <SCORE.INTRA.VDW>
0.436915

>  <SCORE.INTRA.VDW.0>
-0.691186

>  <SCORE.INTRA.norm>
-0.105969

>  <SCORE.RESTR>
0

>  <SCORE.RESTR.CAVITY>
0

>  <SCORE.RESTR.norm>
0

>  <SCORE.SYSTEM>
0

>  <SCORE.SYSTEM.CONST>
0

>  <SCORE.SYSTEM.DIHEDRAL>
0

>  <SCORE.SYSTEM.SOLV>
0

>  <SCORE.SYSTEM.norm>
0

>  <SCORE.heavy>
12

>  <SCORE.norm>
-1.08602

>  <RMSD>
1.025

$$$$
ligand
 OpenBabel02271912143D
libRbt.so/2013.1/901 2013/11/27
 12 12  0  0  0  0  0  0  0  0999 V2000
  -22.1421  -10.6171   95.8676 C   0  0  0  0  0  0  0  0  0  0  0  0
  -19.1727   -6.1204   94.7543 C   0  0  0  0  0  0  0  0  0  0  0  0
  -19.5633  -10.7666   95.1192 N   0  0  0  0  0  0  0  0  0  0  0  0
  -23.5470  -10.5728   95.4374 N   0  0  0  0  0  0  0  0  0  0  0  0
  -24.1900  -11.4209   95.7895 N   0  0  0  0  0  0  0  0  0  0  0  0
  -24.8298  -12.2720   96.1391 N   0  0  0  0  0  0  0  0  0  0  0  0
  -21.2287   -7.1093   95.3613 N   0  0  0  0  0  0  0  0  0  0  0  0
  -19.9433   -7.2481   95.0107 C   0  0  0  0  0  0  0  0  0  0  0  0
  -19.4058   -8.4648   94.8378 N   0  0  0  0  0  0  0  0  0  0  0  0
  -20.1381   -9.5728   95.0234 C   0  0  0  0  0  0  0  0  0  0  0  0
  -21.4743   -9.4929   95.3979 C   0  0  0  0  0  0  0  0  0  0  0  0
  -22.0389   -8.2335   95.5605 C   0  0  0  0  0  0  0  0  0  0  0  0
  1 11  1  0  0  0  0
  1  4  1  0  0  0  0
  2  8  1  0  0  0  0
  3 10  1  0  0  0  0
  4  5  1  0  0  0  0
  5  6  1  0  0  0  0
  7  8  2  0  0  0  0
  7 12  1  0  0  0  0
  8  9  1  0  0  0  0
  9 10  2  0  0  0  0
 10 11  1  0  0  0  0
 11 12  2  0  0  0  0
M  END
>  <CHROM.1>
-145.77659183,-178.20963339,-58.16310257,-21.48667927,-9.33805306,95.35988798
-2.37228923,0.17621043,-0.03628546

>  <Name>
ligand

>  <RI>
0

>  <Rbt.Current_Directory>
/home/itssahil/PROJECTS/Mol_Feturizer/Test_systems_manuscript/rnas/4nya

>  <Rbt.Executable>
rbdock ($Id: //depot/dev/client3/rdock/2013.1/src/exe/rbdock.cxx#4 $)

>  <Rbt.Library>
libRbt.so (2013.1, Build901 2013/11/27)

>  <Rbt.Parameter_File>
/export/apps/rDock/src/rDock_2013.1_src/data/scripts/dock_solv.prm

>  <Rbt.Receptor>
prm/pocket_docking_2.prm

>  <SCORE>
-12.9932

>  <SCORE.INTER>
-11.7134

>  <SCORE.INTER.CONST>
1

>  <SCORE.INTER.POLAR>
0

>  <SCORE.INTER.ROT>
3

>  <SCORE.INTER.SOLV>
14.6378

>  <SCORE.INTER.VDW>
-18.2882

>  <SCORE.INTER.norm>
-0.976118

>  <SCORE.INTRA>
-1.27974

>  <SCORE.INTRA.DIHEDRAL>
-2.15113

>  <SCORE.INTRA.DIHEDRAL.0>
3.34563

>  <SCORE.INTRA.POLAR>
0

>  <SCORE.INTRA.POLAR.0>
0

>  <SCORE.INTRA.REPUL>
0

>  <SCORE.INTRA.REPUL.0>
0

>  <SCORE.INTRA.SOLV>
-1.22248

>  <SCORE.INTRA.SOLV.lig_0>
-59.746

>  <SCORE.INTRA.VDW>
0.407059

>  <SCORE.INTRA.VDW.0>
-0.691186

>  <SCORE.INTRA.norm>
-0.106645

>  <SCORE.RESTR>
0

>  <SCORE.RESTR.CAVITY>
0

>  <SCORE.RESTR.norm>
0

>  <SCORE.SYSTEM>
0

>  <SCORE.SYSTEM.CONST>
0

>  <SCORE.SYSTEM.DIHEDRAL>
0

>  <SCORE.SYSTEM.SOLV>
0

>  <SCORE.SYSTEM.norm>
0

>  <SCORE.heavy>
12

>  <SCORE.norm>
-1.08276

>  <RMSD>
1.025

$$$$
ligand
 OpenBabel02271912143D
libRbt.so/2013.1/901 2013/11/27
 12 12  0  0  0  0  0  0  0  0999 V2000
  -22.1060  -10.6746   95.9443 C   0  0  0  0  0  0  0  0  0  0  0  0
  -19.1983   -6.1530   94.7706 C   0  0  0  0  0  0  0  0  0  0  0  0
  -19.5358  -10.8012   95.1628 N   0  0  0  0  0  0  0  0  0  0  0  0
  -23.5453  -10.5744   95.6633 N   0  0  0  0  0  0  0  0  0  0  0  0
  -24.1792  -11.4039   96.0718 N   0  0  0  0  0  0  0  0  0  0  0  0
  -24.8115  -12.2318   96.4849 N   0  0  0  0  0  0  0  0  0  0  0  0
  -21.2358   -7.1600   95.4094 N   0  0  0  0  0  0  0  0  0  0  0  0
  -19.9538   -7.2873   95.0425 C   0  0  0  0  0  0  0  0  0  0  0  0
  -19.4060   -8.4992   94.8684 N   0  0  0  0  0  0  0  0  0  0  0  0
  -20.1242   -9.6138   95.0688 C   0  0  0  0  0  0  0  0  0  0  0  0
  -21.4562   -9.5459   95.4605 C   0  0  0  0  0  0  0  0  0  0  0  0
  -22.0316   -8.2915   95.6245 C   0  0  0  0  0  0  0  0  0  0  0  0
  1 11  1  0  0  0  0
  1  4  1  0  0  0  0
  2  8  1  0  0  0  0
  3 10  1  0  0  0  0
  4  5  1  0  0  0  0
  5  6  1  0  0  0  0
  7  8  2  0  0  0  0
  7 12  1  0  0  0  0
  8  9  1  0  0  0  0
  9 10  2  0  0  0  0
 10 11  1  0  0  0  0
 11 12  2  0  0  0  0
M  END
>  <CHROM.1>
-152.08124624,-176.12004184,62.56491285,-21.47933931,-9.36591355,95.46813928
-2.38003088,0.21749726,-0.05195079

>  <Name>
ligand

>  <RI>
0

>  <Rbt.Current_Directory>
/home/itssahil/PROJECTS/Mol_Feturizer/Test_systems_manuscript/rnas/4nya

>  <Rbt.Executable>
rbdock ($Id: //depot/dev/client3/rdock/2013.1/src/exe/rbdock.cxx#4 $)

>  <Rbt.Library>
libRbt.so (2013.1, Build901 2013/11/27)

>  <Rbt.Parameter_File>
/export/apps/rDock/src/rDock_2013.1_src/data/scripts/dock_solv.prm

>  <Rbt.Receptor>
prm/pocket_docking_4.prm

>  <SCORE>
-13.0591

>  <SCORE.INTER>
-11.8178

>  <SCORE.INTER.CONST>
1

>  <SCORE.INTER.POLAR>
0

>  <SCORE.INTER.ROT>
3

>  <SCORE.INTER.SOLV>
14.5522

>  <SCORE.INTER.VDW>
-18.3293

>  <SCORE.INTER.norm>
-0.984815

>  <SCORE.INTRA>
-1.24131

>  <SCORE.INTRA.DIHEDRAL>
-2.21699

>  <SCORE.INTRA.DIHEDRAL.0>
3.34563

>  <SCORE.INTRA.POLAR>
0

>  <SCORE.INTRA.POLAR.0>
0

>  <SCORE.INTRA.REPUL>
0

>  <SCORE.INTRA.REPUL.0>
0

>  <SCORE.INTRA.SOLV>
-1.25932

>  <SCORE.INTRA.SOLV.lig_0>
-59.746

>  <SCORE.INTRA.VDW>
0.496844

>  <SCORE.INTRA.VDW.0>
-0.691186

>  <SCORE.INTRA.norm>
-0.103443

>  <SCORE.RESTR>
0

>  <SCORE.RESTR.CAVITY>
0

>  <SCORE.RESTR.norm>
0

>  <SCORE.SYSTEM>
0

>  <SCORE.SYSTEM.CONST>
0

>  <SCORE.SYSTEM.DIHEDRAL>
0

>  <SCORE.SYSTEM.SOLV>
0

>  <SCORE.SYSTEM.norm>
0

>  <SCORE.heavy>
12

>  <SCORE.norm>
-1.08826

>  <RMSD>
1.025

$$$$
ligand
 OpenBabel02271912143D
libRbt.so/2013.1/901 2013/11/27
 12 12  0  0  0  0  0  0  0  0999 V2000
  -22.0500  -10.7182   95.9307 C   0  0  0  0  0  0  0  0  0  0  0  0
  -19.2014   -6.1555   94.7712 C   0  0  0  0  0  0  0  0  0  0  0  0
  -19.5553  -10.8162   94.9310 N   0  0  0  0  0  0  0  0  0  0  0  0
  -23.4953  -10.6419   95.6740 N   0  0  0  0  0  0  0  0  0  0  0  0
  -24.0968  -11.5242   96.0155 N   0  0  0  0  0  0  0  0  0  0  0  0
  -24.6947  -12.4093   96.3545 N   0  0  0  0  0  0  0  0  0  0  0  0
  -21.1895   -7.1844   95.5212 N   0  0  0  0  0  0  0  0  0  0  0  0
  -19.9439   -7.2986   95.0418 C   0  0  0  0  0  0  0  0  0  0  0  0
  -19.4256   -8.5021   94.7553 N   0  0  0  0  0  0  0  0  0  0  0  0
  -20.1366   -9.6218   94.9528 C   0  0  0  0  0  0  0  0  0  0  0  0
  -21.4305   -9.5680   95.4578 C   0  0  0  0  0  0  0  0  0  0  0  0
  -21.9767   -8.3214   95.7389 C   0  0  0  0  0  0  0  0  0  0  0  0
  1 11  1  0  0  0  0
  1  4  1  0  0  0  0
  2  8  1  0  0  0  0
  3 10  1  0  0  0  0
  4  5  1  0  0  0  0
  5  6  1  0  0  0  0
  7  8  2  0  0  0  0
  7 12  1  0  0  0  0
  8  9  1  0  0  0  0
  9 10  2  0  0  0  0
 10 11  1  0  0  0  0
 11 12  2  0  0  0  0
M  END
>  <CHROM.1>
-147.34014262,179.89222314,-49.10135805,-21.44665820,-9.41070629,95.43109385
-2.36874060,0.27319431,0.01495315

>  <Name>
ligand

>  <RI>
0

>  <Rbt.Current_Directory>
/home/itssahil/PROJECTS/Mol_Feturizer/Test_systems_manuscript/rnas/4nya

>  <Rbt.Executable>
rbdock ($Id: //depot/dev/client3/rdock/2013.1/src/exe/rbdock.cxx#4 $)

>  <Rbt.Library>
libRbt.so (2013.1, Build901 2013/11/27)

>  <Rbt.Parameter_File>
/export/apps/rDock/src/rDock_2013.1_src/data/scripts/dock_solv.prm

>  <Rbt.Receptor>
prm/pocket_docking_5.prm

>  <SCORE>
-13.0045

>  <SCORE.INTER>
-11.741

>  <SCORE.INTER.CONST>
1

>  <SCORE.INTER.POLAR>
0

>  <SCORE.INTER.ROT>
3

>  <SCORE.INTER.SOLV>
14.6847

>  <SCORE.INTER.VDW>
-18.3222

>  <SCORE.INTER.norm>
-0.978415

>  <SCORE.INTRA>
-1.26353

>  <SCORE.INTRA.DIHEDRAL>
-2.1473

>  <SCORE.INTRA.DIHEDRAL.0>
3.34563

>  <SCORE.INTRA.POLAR>
0

>  <SCORE.INTRA.POLAR.0>
0

>  <SCORE.INTRA.REPUL>
0

>  <SCORE.INTRA.REPUL.0>
0

>  <SCORE.INTRA.SOLV>
-1.23689

>  <SCORE.INTRA.SOLV.lig_0>
-59.746

>  <SCORE.INTRA.VDW>
0.428565

>  <SCORE.INTRA.VDW.0>
-0.691186

>  <SCORE.INTRA.norm>
-0.105294

>  <SCORE.RESTR>
0

>  <SCORE.RESTR.CAVITY>
0

>  <SCORE.RESTR.norm>
0

>  <SCORE.SYSTEM>
0

>  <SCORE.SYSTEM.CONST>
0

>  <SCORE.SYSTEM.DIHEDRAL>
0

>  <SCORE.SYSTEM.SOLV>
0

>  <SCORE.SYSTEM.norm>
0

>  <SCORE.heavy>
12

>  <SCORE.norm>
-1.08371

>  <RMSD>
1.025

$$$$
ligand
 OpenBabel02271912143D
libRbt.so/2013.1/901 2013/11/27
 12 12  0  0  0  0  0  0  0  0999 V2000
  -22.0691  -10.7120   95.9516 C   0  0  0  0  0  0  0  0  0  0  0  0
  -19.2057   -6.1626   94.7760 C   0  0  0  0  0  0  0  0  0  0  0  0
  -19.5529  -10.8208   95.0083 N   0  0  0  0  0  0  0  0  0  0  0  0
  -23.5162  -10.6191   95.7111 N   0  0  0  0  0  0  0  0  0  0  0  0
  -24.1281  -11.4780   96.0914 N   0  0  0  0  0  0  0  0  0  0  0  0
  -24.7383  -12.3356   96.4763 N   0  0  0  0  0  0  0  0  0  0  0  0
  -21.2074   -7.1836   95.5002 N   0  0  0  0  0  0  0  0  0  0  0  0
  -19.9514   -7.3028   95.0500 C   0  0  0  0  0  0  0  0  0  0  0  0
  -19.4244   -8.5098   94.7957 N   0  0  0  0  0  0  0  0  0  0  0  0
  -20.1371   -9.6277   94.9969 C   0  0  0  0  0  0  0  0  0  0  0  0
  -21.4419   -9.5685   95.4726 C   0  0  0  0  0  0  0  0  0  0  0  0
  -21.9968   -8.3186   95.7202 C   0  0  0  0  0  0  0  0  0  0  0  0
  1 11  1  0  0  0  0
  1  4  1  0  0  0  0
  2  8  1  0  0  0  0
  3 10  1  0  0  0  0
  4  5  1  0  0  0  0
  5  6  1  0  0  0  0
  7  8  2  0  0  0  0
  7 12  1  0  0  0  0
  8  9  1  0  0  0  0
  9 10  2  0  0  0  0
 10 11  1  0  0  0  0
 11 12  2  0  0  0  0
M  END
>  <CHROM.1>
-149.62702972,-178.00898612,60.28390102,-21.46126165,-9.39998966,95.46576821
-2.37579095,0.26526441,-0.00770061

>  <Name>
ligand

>  <RI>
0

>  <Rbt.Current_Directory>
/home/itssahil/PROJECTS/Mol_Feturizer/Test_systems_manuscript/rnas/4nya

>  <Rbt.Executable>
rbdock ($Id: //depot/dev/client3/rdock/2013.1/src/exe/rbdock.cxx#4 $)

>  <Rbt.Library>
libRbt.so (2013.1, Build901 2013/11/27)

>  <Rbt.Parameter_File>
/export/apps/rDock/src/rDock_2013.1_src/data/scripts/dock_solv.prm

>  <Rbt.Receptor>
prm/pocket_docking_7.prm

>  <SCORE>
-13.0471

>  <SCORE.INTER>
-11.7808

>  <SCORE.INTER.CONST>
1

>  <SCORE.INTER.POLAR>
0

>  <SCORE.INTER.ROT>
3

>  <SCORE.INTER.SOLV>
14.59

>  <SCORE.INTER.VDW>
-18.3172

>  <SCORE.INTER.norm>
-0.98173

>  <SCORE.INTRA>
-1.26634

>  <SCORE.INTRA.DIHEDRAL>
-2.20504

>  <SCORE.INTRA.DIHEDRAL.0>
3.34563

>  <SCORE.INTRA.POLAR>
0

>  <SCORE.INTRA.POLAR.0>
0

>  <SCORE.INTRA.REPUL>
0

>  <SCORE.INTRA.REPUL.0>
0

>  <SCORE.INTRA.SOLV>
-1.24837

>  <SCORE.INTRA.SOLV.lig_0>
-59.746

>  <SCORE.INTRA.VDW>
0.460361

>  <SCORE.INTRA.VDW.0>
-0.691186

>  <SCORE.INTRA.norm>
-0.105529

>  <SCORE.RESTR>
0

>  <SCORE.RESTR.CAVITY>
0

>  <SCORE.RESTR.norm>
0

>  <SCORE.SYSTEM>
0

>  <SCORE.SYSTEM.CONST>
0

>  <SCORE.SYSTEM.DIHEDRAL>
0

>  <SCORE.SYSTEM.SOLV>
0

>  <SCORE.SYSTEM.norm>
0

>  <SCORE.heavy>
12

>  <SCORE.norm>
-1.08726

>  <RMSD>
1.025

$$$$
ligand
 OpenBabel02271912143D
libRbt.so/2013.1/901 2013/11/27
 12 12  0  0  0  0  0  0  0  0999 V2000
  -22.0971  -10.6892   95.8949 C   0  0  0  0  0  0  0  0  0  0  0  0
  -19.1954   -6.1515   94.7694 C   0  0  0  0  0  0  0  0  0  0  0  0
  -19.5399  -10.8059   95.0702 N   0  0  0  0  0  0  0  0  0  0  0  0
  -23.5427  -10.5709   95.6564 N   0  0  0  0  0  0  0  0  0  0  0  0
  -24.1663  -11.4310   96.0144 N   0  0  0  0  0  0  0  0  0  0  0  0
  -24.7881  -12.2900   96.3770 N   0  0  0  0  0  0  0  0  0  0  0  0
  -21.2254   -7.1665   95.4193 N   0  0  0  0  0  0  0  0  0  0  0  0
  -19.9497   -7.2893   95.0296 C   0  0  0  0  0  0  0  0  0  0  0  0
  -19.4082   -8.4987   94.8217 N   0  0  0  0  0  0  0  0  0  0  0  0
  -20.1263   -9.6154   95.0103 C   0  0  0  0  0  0  0  0  0  0  0  0
  -21.4518   -9.5523   95.4244 C   0  0  0  0  0  0  0  0  0  0  0  0
  -22.0209   -8.3002   95.6235 C   0  0  0  0  0  0  0  0  0  0  0  0
  1 11  1  0  0  0  0
  1  4  1  0  0  0  0
  2  8  1  0  0  0  0
  3 10  1  0  0  0  0
  4  5  1  0  0  0  0
  5  6  1  0  0  0  0
  7  8  2  0  0  0  0
  7 12  1  0  0  0  0
  8  9  1  0  0  0  0
  9 10  2  0  0  0  0
 10 11  1  0  0  0  0
 11 12  2  0  0  0  0
M  END
>  <CHROM.1>
-152.89199845,-179.03613561,60.06484679,-21.47330312,-9.37648240,95.42943360
-2.37850911,0.22853837,-0.02869861

>  <Name>
ligand

>  <RI>
0

>  <Rbt.Current_Directory>
/home/itssahil/PROJECTS/Mol_Feturizer/Test_systems_manuscript/rnas/4nya

>  <Rbt.Executable>
rbdock ($Id: //depot/dev/client3/rdock/2013.1/src/exe/rbdock.cxx#4 $)

>  <Rbt.Library>
libRbt.so (2013.1, Build901 2013/11/27)

>  <Rbt.Parameter_File>
/export/apps/rDock/src/rDock_2013.1_src/data/scripts/dock_solv.prm

>  <Rbt.Receptor>
prm/pocket_docking_2.prm

>  <SCORE>
-13.08

>  <SCORE.INTER>
-11.8378

>  <SCORE.INTER.CONST>
1

>  <SCORE.INTER.POLAR>
0

>  <SCORE.INTER.ROT>
3

>  <SCORE.INTER.SOLV>
14.5747

>  <SCORE.INTER.VDW>
-18.3501

>  <SCORE.INTER.norm>
-0.98648

>  <SCORE.INTRA>
-1.24221

>  <SCORE.INTRA.DIHEDRAL>
-2.23587

>  <SCORE.INTRA.DIHEDRAL.0>
3.34563

>  <SCORE.INTRA.POLAR>
0

>  <SCORE.INTRA.POLAR.0>
0

>  <SCORE.INTRA.REPUL>
0

>  <SCORE.INTRA.REPUL.0>
0

>  <SCORE.INTRA.SOLV>
-1.26943

>  <SCORE.INTRA.SOLV.lig_0>
-59.746

>  <SCORE.INTRA.VDW>
0.510436

>  <SCORE.INTRA.VDW.0>
-0.691186

>  <SCORE.INTRA.norm>
-0.103518

>  <SCORE.RESTR>
0

>  <SCORE.RESTR.CAVITY>
0

>  <SCORE.RESTR.norm>
0

>  <SCORE.SYSTEM>
0

>  <SCORE.SYSTEM.CONST>
0

>  <SCORE.SYSTEM.DIHEDRAL>
0

>  <SCORE.SYSTEM.SOLV>
0

>  <SCORE.SYSTEM.norm>
0

>  <SCORE.heavy>
12

>  <SCORE.norm>
-1.09

>  <RMSD>
1.026

$$$$
ligand
 OpenBabel02271912143D
libRbt.so/2013.1/901 2013/11/27
 12 12  0  0  0  0  0  0  0  0999 V2000
  -22.0763  -10.6885   95.9105 C   0  0  0  0  0  0  0  0  0  0  0  0
  -19.1940   -6.1421   94.7702 C   0  0  0  0  0  0  0  0  0  0  0  0
  -19.5171  -10.7968   95.0909 N   0  0  0  0  0  0  0  0  0  0  0  0
  -23.5125  -10.6088   95.6082 N   0  0  0  0  0  0  0  0  0  0  0  0
  -24.1437  -11.4357   96.0260 N   0  0  0  0  0  0  0  0  0  0  0  0
  -24.7721  -12.2656   96.4411 N   0  0  0  0  0  0  0  0  0  0  0  0
  -21.2204   -7.1638   95.4210 N   0  0  0  0  0  0  0  0  0  0  0  0
  -19.9434   -7.2823   95.0341 C   0  0  0  0  0  0  0  0  0  0  0  0
  -19.3958   -8.4900   94.8325 N   0  0  0  0  0  0  0  0  0  0  0  0
  -20.1090   -9.6093   95.0247 C   0  0  0  0  0  0  0  0  0  0  0  0
  -21.4355   -9.5507   95.4362 C   0  0  0  0  0  0  0  0  0  0  0  0
  -22.0109   -8.3004   95.6288 C   0  0  0  0  0  0  0  0  0  0  0  0
  1 11  1  0  0  0  0
  1  4  1  0  0  0  0
  2  8  1  0  0  0  0
  3 10  1  0  0  0  0
  4  5  1  0  0  0  0
  5  6  1  0  0  0  0
  7  8  2  0  0  0  0
  7 12  1  0  0  0  0
  8  9  1  0  0  0  0
  9 10  2  0  0  0  0
 10 11  1  0  0  0  0
 11 12  2  0  0  0  0
M  END
>  <CHROM.1>
-150.04661206,-174.86244329,-60.03695280,-21.45816494,-9.37426186,95.43881843
-2.37525996,0.22674266,-0.03503715

>  <Name>
ligand

>  <RI>
0

>  <Rbt.Current_Directory>
/home/itssahil/PROJECTS/Mol_Feturizer/Test_systems_manuscript/rnas/4nya

>  <Rbt.Executable>
rbdock ($Id: //depot/dev/client3/rdock/2013.1/src/exe/rbdock.cxx#4 $)

>  <Rbt.Library>
libRbt.so (2013.1, Build901 2013/11/27)

>  <Rbt.Parameter_File>
/export/apps/rDock/src/rDock_2013.1_src/data/scripts/dock_solv.prm

>  <Rbt.Receptor>
prm/pocket_docking_2.prm

>  <SCORE>
-13.0599

>  <SCORE.INTER>
-11.8077

>  <SCORE.INTER.CONST>
1

>  <SCORE.INTER.POLAR>
0

>  <SCORE.INTER.ROT>
3

>  <SCORE.INTER.SOLV>
14.6893

>  <SCORE.INTER.VDW>
-18.3682

>  <SCORE.INTER.norm>
-0.983974

>  <SCORE.INTRA>
-1.25218

>  <SCORE.INTRA.DIHEDRAL>
-2.19129

>  <SCORE.INTRA.DIHEDRAL.0>
3.34563

>  <SCORE.INTRA.POLAR>
0

>  <SCORE.INTRA.POLAR.0>
0

>  <SCORE.INTRA.REPUL>
0

>  <SCORE.INTRA.REPUL.0>
0

>  <SCORE.INTRA.SOLV>
-1.24417

>  <SCORE.INTRA.SOLV.lig_0>
-59.746

>  <SCORE.INTRA.VDW>
0.465543

>  <SCORE.INTRA.VDW.0>
-0.691186

>  <SCORE.INTRA.norm>
-0.104349

>  <SCORE.RESTR>
0

>  <SCORE.RESTR.CAVITY>
0

>  <SCORE.RESTR.norm>
0

>  <SCORE.SYSTEM>
0

>  <SCORE.SYSTEM.CONST>
0

>  <SCORE.SYSTEM.DIHEDRAL>
0

>  <SCORE.SYSTEM.SOLV>
0

>  <SCORE.SYSTEM.norm>
0

>  <SCORE.heavy>
12

>  <SCORE.norm>
-1.08832

>  <RMSD>
1.026

$$$$
ligand
 OpenBabel02271912143D
libRbt.so/2013.1/901 2013/11/27
 12 12  0  0  0  0  0  0  0  0999 V2000
  -22.0853  -10.7089   95.9272 C   0  0  0  0  0  0  0  0  0  0  0  0
  -19.2000   -6.1671   94.7762 C   0  0  0  0  0  0  0  0  0  0  0  0
  -19.5695  -10.8247   94.9836 N   0  0  0  0  0  0  0  0  0  0  0  0
  -23.5297  -10.6154   95.6718 N   0  0  0  0  0  0  0  0  0  0  0  0
  -24.1516  -11.4511   96.0860 N   0  0  0  0  0  0  0  0  0  0  0  0
  -24.7719  -12.2854   96.5047 N   0  0  0  0  0  0  0  0  0  0  0  0
  -21.2066   -7.1823   95.4947 N   0  0  0  0  0  0  0  0  0  0  0  0
  -19.9512   -7.3052   95.0440 C   0  0  0  0  0  0  0  0  0  0  0  0
  -19.4299   -8.5133   94.7833 N   0  0  0  0  0  0  0  0  0  0  0  0
  -20.1480   -9.6288   94.9785 C   0  0  0  0  0  0  0  0  0  0  0  0
  -21.4525   -9.5659   95.4544 C   0  0  0  0  0  0  0  0  0  0  0  0
  -22.0015   -8.3147   95.7086 C   0  0  0  0  0  0  0  0  0  0  0  0
  1 11  1  0  0  0  0
  1  4  1  0  0  0  0
  2  8  1  0  0  0  0
  3 10  1  0  0  0  0
  4  5  1  0  0  0  0
  5  6  1  0  0  0  0
  7  8  2  0  0  0  0
  7 12  1  0  0  0  0
  8  9  1  0  0  0  0
  9 10  2  0  0  0  0
 10 11  1  0  0  0  0
 11 12  2  0  0  0  0
M  END
>  <CHROM.1>
-148.91693206,-175.38528879,62.20111641,-21.47205137,-9.39343631,95.45449583
-2.38435825,0.26952401,-0.00270696

>  <Name>
ligand

>  <RI>
0

>  <Rbt.Current_Directory>
/home/itssahil/PROJECTS/Mol_Feturizer/Test_systems_manuscript/rnas/4nya

>  <Rbt.Executable>
rbdock ($Id: //depot/dev/client3/rdock/2013.1/src/exe/rbdock.cxx#4 $)

>  <Rbt.Library>
libRbt.so (2013.1, Build901 2013/11/27)

>  <Rbt.Parameter_File>
/export/apps/rDock/src/rDock_2013.1_src/data/scripts/dock_solv.prm

>  <Rbt.Receptor>
prm/pocket_docking_5.prm

>  <SCORE>
-13.0505

>  <SCORE.INTER>
-11.79

>  <SCORE.INTER.CONST>
1

>  <SCORE.INTER.POLAR>
0

>  <SCORE.INTER.ROT>
3

>  <SCORE.INTER.SOLV>
14.552

>  <SCORE.INTER.VDW>
-18.3106

>  <SCORE.INTER.norm>
-0.982498

>  <SCORE.INTRA>
-1.26052

>  <SCORE.INTRA.DIHEDRAL>
-2.18127

>  <SCORE.INTRA.DIHEDRAL.0>
3.34563

>  <SCORE.INTRA.POLAR>
0

>  <SCORE.INTRA.POLAR.0>
0

>  <SCORE.INTRA.REPUL>
0

>  <SCORE.INTRA.REPUL.0>
0

>  <SCORE.INTRA.SOLV>
-1.23821

>  <SCORE.INTRA.SOLV.lig_0>
-59.746

>  <SCORE.INTRA.VDW>
0.449224

>  <SCORE.INTRA.VDW.0>
-0.691186

>  <SCORE.INTRA.norm>
-0.105043

>  <SCORE.RESTR>
0

>  <SCORE.RESTR.CAVITY>
0

>  <SCORE.RESTR.norm>
0

>  <SCORE.SYSTEM>
0

>  <SCORE.SYSTEM.CONST>
0

>  <SCORE.SYSTEM.DIHEDRAL>
0

>  <SCORE.SYSTEM.SOLV>
0

>  <SCORE.SYSTEM.norm>
0

>  <SCORE.heavy>
12

>  <SCORE.norm>
-1.08754

>  <RMSD>
1.026

$$$$
ligand
 OpenBabel02271912143D
libRbt.so/2013.1/901 2013/11/27
 12 12  0  0  0  0  0  0  0  0999 V2000
  -22.0868  -10.6927   95.8986 C   0  0  0  0  0  0  0  0  0  0  0  0
  -19.1888   -6.1541   94.7671 C   0  0  0  0  0  0  0  0  0  0  0  0
  -19.5343  -10.8090   95.0597 N   0  0  0  0  0  0  0  0  0  0  0  0
  -23.5323  -10.5784   95.6574 N   0  0  0  0  0  0  0  0  0  0  0  0
  -24.1560  -11.4329   96.0284 N   0  0  0  0  0  0  0  0  0  0  0  0
  -24.7836  -12.2847   96.3976 N   0  0  0  0  0  0  0  0  0  0  0  0
  -21.2158   -7.1694   95.4260 N   0  0  0  0  0  0  0  0  0  0  0  0
  -19.9423   -7.2920   95.0290 C   0  0  0  0  0  0  0  0  0  0  0  0
  -19.4026   -8.5013   94.8154 N   0  0  0  0  0  0  0  0  0  0  0  0
  -20.1203   -9.6180   95.0056 C   0  0  0  0  0  0  0  0  0  0  0  0
  -21.4434   -9.5551   95.4271 C   0  0  0  0  0  0  0  0  0  0  0  0
  -22.0108   -8.3031   95.6320 C   0  0  0  0  0  0  0  0  0  0  0  0
  1 11  1  0  0  0  0
  1  4  1  0  0  0  0
  2  8  1  0  0  0  0
  3 10  1  0  0  0  0
  4  5  1  0  0  0  0
  5  6  1  0  0  0  0
  7  8  2  0  0  0  0
  7 12  1  0  0  0  0
  8  9  1  0  0  0  0
  9 10  2  0  0  0  0
 10 11  1  0  0  0  0
 11 12  2  0  0  0  0
M  END
>  <CHROM.1>
-152.38579058,-178.23432141,179.52814504,-21.46542710,-9.37894654,95.43218194
-2.37963778,0.23388781,-0.02648745

>  <Name>
ligand

>  <RI>
0

>  <Rbt.Current_Directory>
/home/itssahil/PROJECTS/Mol_Feturizer/Test_systems_manuscript/rnas/4nya

>  <Rbt.Executable>
rbdock ($Id: //depot/dev/client3/rdock/2013.1/src/exe/rbdock.cxx#4 $)

>  <Rbt.Library>
libRbt.so (2013.1, Build901 2013/11/27)

>  <Rbt.Parameter_File>
/export/apps/rDock/src/rDock_2013.1_src/data/scripts/dock_solv.prm

>  <Rbt.Receptor>
prm/pocket_docking_2.prm

>  <SCORE>
-13.0662

>  <SCORE.INTER>
-11.8177

>  <SCORE.INTER.CONST>
1

>  <SCORE.INTER.POLAR>
0

>  <SCORE.INTER.ROT>
3

>  <SCORE.INTER.SOLV>
14.6016

>  <SCORE.INTER.VDW>
-18.3456

>  <SCORE.INTER.norm>
-0.984805

>  <SCORE.INTRA>
-1.24858

>  <SCORE.INTRA.DIHEDRAL>
-2.2307

>  <SCORE.INTRA.DIHEDRAL.0>
3.34563

>  <SCORE.INTRA.POLAR>
0

>  <SCORE.INTRA.POLAR.0>
0

>  <SCORE.INTRA.REPUL>
0

>  <SCORE.INTRA.REPUL.0>
0

>  <SCORE.INTRA.SOLV>
-1.26845

>  <SCORE.INTRA.SOLV.lig_0>
-59.746

>  <SCORE.INTRA.VDW>
0.500991

>  <SCORE.INTRA.VDW.0>
-0.691186

>  <SCORE.INTRA.norm>
-0.104048

>  <SCORE.RESTR>
0

>  <SCORE.RESTR.CAVITY>
0

>  <SCORE.RESTR.norm>
0

>  <SCORE.SYSTEM>
0

>  <SCORE.SYSTEM.CONST>
0

>  <SCORE.SYSTEM.DIHEDRAL>
0

>  <SCORE.SYSTEM.SOLV>
0

>  <SCORE.SYSTEM.norm>
0

>  <SCORE.heavy>
12

>  <SCORE.norm>
-1.08885

>  <RMSD>
1.027

$$$$
ligand
 OpenBabel02271912143D
libRbt.so/2013.1/901 2013/11/27
 12 12  0  0  0  0  0  0  0  0999 V2000
  -22.0701  -10.6753   95.9375 C   0  0  0  0  0  0  0  0  0  0  0  0
  -19.1693   -6.1486   94.7664 C   0  0  0  0  0  0  0  0  0  0  0  0
  -19.5240  -10.8014   95.0805 N   0  0  0  0  0  0  0  0  0  0  0  0
  -23.5060  -10.5954   95.6337 N   0  0  0  0  0  0  0  0  0  0  0  0
  -24.1293  -11.4510   96.0030 N   0  0  0  0  0  0  0  0  0  0  0  0
  -24.7564  -12.3042   96.3700 N   0  0  0  0  0  0  0  0  0  0  0  0
  -21.1939   -7.1562   95.4442 N   0  0  0  0  0  0  0  0  0  0  0  0
  -19.9236   -7.2836   95.0384 C   0  0  0  0  0  0  0  0  0  0  0  0
  -19.3885   -8.4950   94.8259 N   0  0  0  0  0  0  0  0  0  0  0  0
  -20.1076   -9.6092   95.0258 C   0  0  0  0  0  0  0  0  0  0  0  0
  -21.4274   -9.5413   95.4567 C   0  0  0  0  0  0  0  0  0  0  0  0
  -21.9901   -8.2871   95.6606 C   0  0  0  0  0  0  0  0  0  0  0  0
  1 11  1  0  0  0  0
  1  4  1  0  0  0  0
  2  8  1  0  0  0  0
  3 10  1  0  0  0  0
  4  5  1  0  0  0  0
  5  6  1  0  0  0  0
  7  8  2  0  0  0  0
  7 12  1  0  0  0  0
  8  9  1  0  0  0  0
  9 10  2  0  0  0  0
 10 11  1  0  0  0  0
 11 12  2  0  0  0  0
M  END
>  <CHROM.1>
-148.98072706,-178.42533783,-176.98243697,-21.44607091,-9.37582052,95.43969667
-2.37414754,0.22822398,-0.02635323

>  <Name>
ligand

>  <RI>
0

>  <Rbt.Current_Directory>
/home/itssahil/PROJECTS/Mol_Feturizer/Test_systems_manuscript/rnas/4nya

>  <Rbt.Executable>
rbdock ($Id: //depot/dev/client3/rdock/2013.1/src/exe/rbdock.cxx#4 $)

>  <Rbt.Library>
libRbt.so (2013.1, Build901 2013/11/27)

>  <Rbt.Parameter_File>
/export/apps/rDock/src/rDock_2013.1_src/data/scripts/dock_solv.prm

>  <Rbt.Receptor>
prm/pocket_docking_3.prm

>  <SCORE>
-13.0239

>  <SCORE.INTER>
-11.7514

>  <SCORE.INTER.CONST>
1

>  <SCORE.INTER.POLAR>
0

>  <SCORE.INTER.ROT>
3

>  <SCORE.INTER.SOLV>
14.6537

>  <SCORE.INTER.VDW>
-18.3188

>  <SCORE.INTER.norm>
-0.979284

>  <SCORE.INTRA>
-1.27245

>  <SCORE.INTRA.DIHEDRAL>
-2.19628

>  <SCORE.INTRA.DIHEDRAL.0>
3.34563

>  <SCORE.INTRA.POLAR>
0

>  <SCORE.INTRA.POLAR.0>
0

>  <SCORE.INTRA.REPUL>
0

>  <SCORE.INTRA.REPUL.0>
0

>  <SCORE.INTRA.SOLV>
-1.24829

>  <SCORE.INTRA.SOLV.lig_0>
-59.746

>  <SCORE.INTRA.VDW>
0.449831

>  <SCORE.INTRA.VDW.0>
-0.691186

>  <SCORE.INTRA.norm>
-0.106038

>  <SCORE.RESTR>
0

>  <SCORE.RESTR.CAVITY>
0

>  <SCORE.RESTR.norm>
0

>  <SCORE.SYSTEM>
0

>  <SCORE.SYSTEM.CONST>
0

>  <SCORE.SYSTEM.DIHEDRAL>
0

>  <SCORE.SYSTEM.SOLV>
0

>  <SCORE.SYSTEM.norm>
0

>  <SCORE.heavy>
12

>  <SCORE.norm>
-1.08532

>  <RMSD>
1.027

$$$$
ligand
 OpenBabel02271912143D
libRbt.so/2013.1/901 2013/11/27
 12 12  0  0  0  0  0  0  0  0999 V2000
  -22.0957  -10.6953   95.9033 C   0  0  0  0  0  0  0  0  0  0  0  0
  -19.1827   -6.1641   94.7809 C   0  0  0  0  0  0  0  0  0  0  0  0
  -19.5681  -10.8202   94.9932 N   0  0  0  0  0  0  0  0  0  0  0  0
  -23.5453  -10.5652   95.6973 N   0  0  0  0  0  0  0  0  0  0  0  0
  -24.1646  -11.4354   96.0379 N   0  0  0  0  0  0  0  0  0  0  0  0
  -24.7811  -12.3084   96.3751 N   0  0  0  0  0  0  0  0  0  0  0  0
  -21.2015   -7.1721   95.4750 N   0  0  0  0  0  0  0  0  0  0  0  0
  -19.9405   -7.2994   95.0412 C   0  0  0  0  0  0  0  0  0  0  0  0
  -19.4193   -8.5095   94.7899 N   0  0  0  0  0  0  0  0  0  0  0  0
  -20.1431   -9.6227   94.9780 C   0  0  0  0  0  0  0  0  0  0  0  0
  -21.4536   -9.5551   95.4364 C   0  0  0  0  0  0  0  0  0  0  0  0
  -22.0023   -8.3018   95.6808 C   0  0  0  0  0  0  0  0  0  0  0  0
  1 11  1  0  0  0  0
  1  4  1  0  0  0  0
  2  8  1  0  0  0  0
  3 10  1  0  0  0  0
  4  5  1  0  0  0  0
  5  6  1  0  0  0  0
  7  8  2  0  0  0  0
  7 12  1  0  0  0  0
  8  9  1  0  0  0  0
  9 10  2  0  0  0  0
 10 11  1  0  0  0  0
 11 12  2  0  0  0  0
M  END
>  <CHROM.1>
-152.09206697,179.85334961,-58.80608060,-21.47210618,-9.38395019,95.43568044
-2.38496190,0.25483001,-0.00250672

>  <Name>
ligand

>  <RI>
0

>  <Rbt.Current_Directory>
/home/itssahil/PROJECTS/Mol_Feturizer/Test_systems_manuscript/rnas/4nya

>  <Rbt.Executable>
rbdock ($Id: //depot/dev/client3/rdock/2013.1/src/exe/rbdock.cxx#4 $)

>  <Rbt.Library>
libRbt.so (2013.1, Build901 2013/11/27)

>  <Rbt.Parameter_File>
/export/apps/rDock/src/rDock_2013.1_src/data/scripts/dock_solv.prm

>  <Rbt.Receptor>
prm/pocket_docking_2.prm

>  <SCORE>
-13.0382

>  <SCORE.INTER>
-11.7875

>  <SCORE.INTER.CONST>
1

>  <SCORE.INTER.POLAR>
0

>  <SCORE.INTER.ROT>
3

>  <SCORE.INTER.SOLV>
14.5018

>  <SCORE.INTER.VDW>
-18.2923

>  <SCORE.INTER.norm>
-0.982295

>  <SCORE.INTRA>
-1.25069

>  <SCORE.INTRA.DIHEDRAL>
-2.2308

>  <SCORE.INTRA.DIHEDRAL.0>
3.34563

>  <SCORE.INTRA.POLAR>
0

>  <SCORE.INTRA.POLAR.0>
0

>  <SCORE.INTRA.REPUL>
0

>  <SCORE.INTRA.REPUL.0>
0

>  <SCORE.INTRA.SOLV>
-1.26683

>  <SCORE.INTRA.SOLV.lig_0>
-59.746

>  <SCORE.INTRA.VDW>
0.498126

>  <SCORE.INTRA.VDW.0>
-0.691186

>  <SCORE.INTRA.norm>
-0.104224

>  <SCORE.RESTR>
0

>  <SCORE.RESTR.CAVITY>
0

>  <SCORE.RESTR.norm>
0

>  <SCORE.SYSTEM>
0

>  <SCORE.SYSTEM.CONST>
0

>  <SCORE.SYSTEM.DIHEDRAL>
0

>  <SCORE.SYSTEM.SOLV>
0

>  <SCORE.SYSTEM.norm>
0

>  <SCORE.heavy>
12

>  <SCORE.norm>
-1.08652

>  <RMSD>
1.029

$$$$
ligand
 OpenBabel02271912143D
libRbt.so/2013.1/901 2013/11/27
 12 12  0  0  0  0  0  0  0  0999 V2000
  -22.0760  -10.7101   95.9742 C   0  0  0  0  0  0  0  0  0  0  0  0
  -19.2022   -6.1707   94.7858 C   0  0  0  0  0  0  0  0  0  0  0  0
  -19.5534  -10.8269   95.0490 N   0  0  0  0  0  0  0  0  0  0  0  0
  -23.5250  -10.6041   95.7517 N   0  0  0  0  0  0  0  0  0  0  0  0
  -24.1423  -11.4460   96.1604 N   0  0  0  0  0  0  0  0  0  0  0  0
  -24.7636  -12.2854   96.5670 N   0  0  0  0  0  0  0  0  0  0  0  0
  -21.2093   -7.1855   95.5034 N   0  0  0  0  0  0  0  0  0  0  0  0
  -19.9503   -7.3086   95.0628 C   0  0  0  0  0  0  0  0  0  0  0  0
  -19.4222   -8.5175   94.8207 N   0  0  0  0  0  0  0  0  0  0  0  0
  -20.1369   -9.6337   95.0250 C   0  0  0  0  0  0  0  0  0  0  0  0
  -21.4449   -9.5704   95.4913 C   0  0  0  0  0  0  0  0  0  0  0  0
  -22.0008   -8.3185   95.7262 C   0  0  0  0  0  0  0  0  0  0  0  0
  1 11  1  0  0  0  0
  1  4  1  0  0  0  0
  2  8  1  0  0  0  0
  3 10  1  0  0  0  0
  4  5  1  0  0  0  0
  5  6  1  0  0  0  0
  7  8  2  0  0  0  0
  7 12  1  0  0  0  0
  8  9  1  0  0  0  0
  9 10  2  0  0  0  0
 10 11  1  0  0  0  0
 11 12  2  0  0  0  0
M  END
>  <CHROM.1>
-150.96070321,-176.46090507,-177.30371164,-21.46616858,-9.39451303,95.49694861
-2.38249637,0.26696581,-0.01726490

>  <Name>
ligand

>  <RI>
0

>  <Rbt.Current_Directory>
/home/itssahil/PROJECTS/Mol_Feturizer/Test_systems_manuscript/rnas/4nya

>  <Rbt.Executable>
rbdock ($Id: //depot/dev/client3/rdock/2013.1/src/exe/rbdock.cxx#4 $)

>  <Rbt.Library>
libRbt.so (2013.1, Build901 2013/11/27)

>  <Rbt.Parameter_File>
/export/apps/rDock/src/rDock_2013.1_src/data/scripts/dock_solv.prm

>  <Rbt.Receptor>
prm/pocket_docking_7.prm

>  <SCORE>
-13.0003

>  <SCORE.INTER>
-11.7457

>  <SCORE.INTER.CONST>
1

>  <SCORE.INTER.POLAR>
0

>  <SCORE.INTER.ROT>
3

>  <SCORE.INTER.SOLV>
14.5106

>  <SCORE.INTER.VDW>
-18.2673

>  <SCORE.INTER.norm>
-0.978809

>  <SCORE.INTRA>
-1.25461

>  <SCORE.INTRA.DIHEDRAL>
-2.20959

>  <SCORE.INTRA.DIHEDRAL.0>
3.34563

>  <SCORE.INTRA.POLAR>
0

>  <SCORE.INTRA.POLAR.0>
0

>  <SCORE.INTRA.REPUL>
0

>  <SCORE.INTRA.REPUL.0>
0

>  <SCORE.INTRA.SOLV>
-1.25664

>  <SCORE.INTRA.SOLV.lig_0>
-59.746

>  <SCORE.INTRA.VDW>
0.478511

>  <SCORE.INTRA.VDW.0>
-0.691186

>  <SCORE.INTRA.norm>
-0.104551

>  <SCORE.RESTR>
0

>  <SCORE.RESTR.CAVITY>
0

>  <SCORE.RESTR.norm>
0

>  <SCORE.SYSTEM>
0

>  <SCORE.SYSTEM.CONST>
0

>  <SCORE.SYSTEM.DIHEDRAL>
0

>  <SCORE.SYSTEM.SOLV>
0

>  <SCORE.SYSTEM.norm>
0

>  <SCORE.heavy>
12

>  <SCORE.norm>
-1.08336

>  <RMSD>
1.029

$$$$
ligand
 OpenBabel02271912143D
libRbt.so/2013.1/901 2013/11/27
 12 12  0  0  0  0  0  0  0  0999 V2000
  -22.0764  -10.6954   95.9205 C   0  0  0  0  0  0  0  0  0  0  0  0
  -19.2051   -6.1412   94.7835 C   0  0  0  0  0  0  0  0  0  0  0  0
  -19.5299  -10.7985   95.0616 N   0  0  0  0  0  0  0  0  0  0  0  0
  -23.5212  -10.5968   95.6687 N   0  0  0  0  0  0  0  0  0  0  0  0
  -24.1406  -11.4490   96.0519 N   0  0  0  0  0  0  0  0  0  0  0  0
  -24.7582  -12.2999   96.4397 N   0  0  0  0  0  0  0  0  0  0  0  0
  -21.2229   -7.1670   95.4542 N   0  0  0  0  0  0  0  0  0  0  0  0
  -19.9521   -7.2831   95.0470 C   0  0  0  0  0  0  0  0  0  0  0  0
  -19.4093   -8.4894   94.8249 N   0  0  0  0  0  0  0  0  0  0  0  0
  -20.1211   -9.6097   95.0164 C   0  0  0  0  0  0  0  0  0  0  0  0
  -21.4411   -9.5536   95.4482 C   0  0  0  0  0  0  0  0  0  0  0  0
  -22.0118   -8.3046   95.6622 C   0  0  0  0  0  0  0  0  0  0  0  0
  1 11  1  0  0  0  0
  1  4  1  0  0  0  0
  2  8  1  0  0  0  0
  3 10  1  0  0  0  0
  4  5  1  0  0  0  0
  5  6  1  0  0  0  0
  7  8  2  0  0  0  0
  7 12  1  0  0  0  0
  8  9  1  0  0  0  0
  9 10  2  0  0  0  0
 10 11  1  0  0  0  0
 11 12  2  0  0  0  0
M  END
>  <CHROM.1>
-151.36304815,-177.41542909,59.78203467,-21.46301488,-9.37886935,95.45171805
-2.37432771,0.24030346,-0.02382345

>  <Name>
ligand

>  <RI>
0

>  <Rbt.Current_Directory>
/home/itssahil/PROJECTS/Mol_Feturizer/Test_systems_manuscript/rnas/4nya

>  <Rbt.Executable>
rbdock ($Id: //depot/dev/client3/rdock/2013.1/src/exe/rbdock.cxx#4 $)

>  <Rbt.Library>
libRbt.so (2013.1, Build901 2013/11/27)

>  <Rbt.Parameter_File>
/export/apps/rDock/src/rDock_2013.1_src/data/scripts/dock_solv.prm

>  <Rbt.Receptor>
prm/pocket_docking_8.prm

>  <SCORE>
-13.0305

>  <SCORE.INTER>
-11.7778

>  <SCORE.INTER.CONST>
1

>  <SCORE.INTER.POLAR>
0

>  <SCORE.INTER.ROT>
3

>  <SCORE.INTER.SOLV>
14.6309

>  <SCORE.INTER.VDW>
-18.3289

>  <SCORE.INTER.norm>
-0.981487

>  <SCORE.INTRA>
-1.25264

>  <SCORE.INTRA.DIHEDRAL>
-2.21991

>  <SCORE.INTRA.DIHEDRAL.0>
3.34563

>  <SCORE.INTRA.POLAR>
0

>  <SCORE.INTRA.POLAR.0>
0

>  <SCORE.INTRA.REPUL>
0

>  <SCORE.INTRA.REPUL.0>
0

>  <SCORE.INTRA.SOLV>
-1.25775

>  <SCORE.INTRA.SOLV.lig_0>
-59.746

>  <SCORE.INTRA.VDW>
0.486193

>  <SCORE.INTRA.VDW.0>
-0.691186

>  <SCORE.INTRA.norm>
-0.104386

>  <SCORE.RESTR>
0

>  <SCORE.RESTR.CAVITY>
0

>  <SCORE.RESTR.norm>
0

>  <SCORE.SYSTEM>
0

>  <SCORE.SYSTEM.CONST>
0

>  <SCORE.SYSTEM.DIHEDRAL>
0

>  <SCORE.SYSTEM.SOLV>
0

>  <SCORE.SYSTEM.norm>
0

>  <SCORE.heavy>
12

>  <SCORE.norm>
-1.08587

>  <RMSD>
1.029

$$$$
ligand
 OpenBabel02271912143D
libRbt.so/2013.1/901 2013/11/27
 12 12  0  0  0  0  0  0  0  0999 V2000
  -22.0913  -10.6735   95.9124 C   0  0  0  0  0  0  0  0  0  0  0  0
  -19.1949   -6.1360   94.7725 C   0  0  0  0  0  0  0  0  0  0  0  0
  -19.5374  -10.7903   95.0776 N   0  0  0  0  0  0  0  0  0  0  0  0
  -23.5348  -10.5670   95.6564 N   0  0  0  0  0  0  0  0  0  0  0  0
  -24.1532  -11.4407   95.9895 N   0  0  0  0  0  0  0  0  0  0  0  0
  -24.7700  -12.3133   96.3273 N   0  0  0  0  0  0  0  0  0  0  0  0
  -21.2221   -7.1509   95.4312 N   0  0  0  0  0  0  0  0  0  0  0  0
  -19.9480   -7.2737   95.0364 C   0  0  0  0  0  0  0  0  0  0  0  0
  -19.4071   -8.4831   94.8271 N   0  0  0  0  0  0  0  0  0  0  0  0
  -20.1243   -9.5999   95.0193 C   0  0  0  0  0  0  0  0  0  0  0  0
  -21.4480   -9.5368   95.4386 C   0  0  0  0  0  0  0  0  0  0  0  0
  -22.0166   -8.2846   95.6392 C   0  0  0  0  0  0  0  0  0  0  0  0
  1 11  1  0  0  0  0
  1  4  1  0  0  0  0
  2  8  1  0  0  0  0
  3 10  1  0  0  0  0
  4  5  1  0  0  0  0
  5  6  1  0  0  0  0
  7  8  2  0  0  0  0
  7 12  1  0  0  0  0
  8  9  1  0  0  0  0
  9 10  2  0  0  0  0
 10 11  1  0  0  0  0
 11 12  2  0  0  0  0
M  END
>  <CHROM.1>
-151.81604738,179.31682248,61.89831594,-21.46786993,-9.36748777,95.43030492
-2.37307347,0.22407318,-0.02656876

>  <Name>
ligand

>  <RI>
0

>  <Rbt.Current_Directory>
/home/itssahil/PROJECTS/Mol_Feturizer/Test_systems_manuscript/rnas/4nya

>  <Rbt.Executable>
rbdock ($Id: //depot/dev/client3/rdock/2013.1/src/exe/rbdock.cxx#4 $)

>  <Rbt.Library>
libRbt.so (2013.1, Build901 2013/11/27)

>  <Rbt.Parameter_File>
/export/apps/rDock/src/rDock_2013.1_src/data/scripts/dock_solv.prm

>  <Rbt.Receptor>
prm/pocket_docking_6.prm

>  <SCORE>
-13.0236

>  <SCORE.INTER>
-11.7705

>  <SCORE.INTER.CONST>
1

>  <SCORE.INTER.POLAR>
0

>  <SCORE.INTER.ROT>
3

>  <SCORE.INTER.SOLV>
14.5901

>  <SCORE.INTER.VDW>
-18.3104

>  <SCORE.INTER.norm>
-0.980876

>  <SCORE.INTRA>
-1.25308

>  <SCORE.INTRA.DIHEDRAL>
-2.22774

>  <SCORE.INTRA.DIHEDRAL.0>
3.34563

>  <SCORE.INTRA.POLAR>
0

>  <SCORE.INTRA.POLAR.0>
0

>  <SCORE.INTRA.REPUL>
0

>  <SCORE.INTRA.REPUL.0>
0

>  <SCORE.INTRA.SOLV>
-1.26623

>  <SCORE.INTRA.SOLV.lig_0>
-59.746

>  <SCORE.INTRA.VDW>
0.493907

>  <SCORE.INTRA.VDW.0>
-0.691186

>  <SCORE.INTRA.norm>
-0.104423

>  <SCORE.RESTR>
0

>  <SCORE.RESTR.CAVITY>
0

>  <SCORE.RESTR.norm>
0

>  <SCORE.SYSTEM>
0

>  <SCORE.SYSTEM.CONST>
0

>  <SCORE.SYSTEM.DIHEDRAL>
0

>  <SCORE.SYSTEM.SOLV>
0

>  <SCORE.SYSTEM.norm>
0

>  <SCORE.heavy>
12

>  <SCORE.norm>
-1.0853

>  <RMSD>
1.030

$$$$
ligand
 OpenBabel02271912143D
libRbt.so/2013.1/901 2013/11/27
 12 12  0  0  0  0  0  0  0  0999 V2000
  -22.1301  -10.7105   95.8615 C   0  0  0  0  0  0  0  0  0  0  0  0
  -19.2028   -6.1715   94.8100 C   0  0  0  0  0  0  0  0  0  0  0  0
  -19.5467  -10.8252   95.1226 N   0  0  0  0  0  0  0  0  0  0  0  0
  -23.0598  -11.1893   94.8286 N   0  0  0  0  0  0  0  0  0  0  0  0
  -23.6299  -12.1207   95.0819 N   0  0  0  0  0  0  0  0  0  0  0  0
  -24.2027  -13.0492   95.3384 N   0  0  0  0  0  0  0  0  0  0  0  0
  -21.2510   -7.1881   95.3975 N   0  0  0  0  0  0  0  0  0  0  0  0
  -19.9628   -7.3097   95.0508 C   0  0  0  0  0  0  0  0  0  0  0  0
  -19.4120   -8.5188   94.8670 N   0  0  0  0  0  0  0  0  0  0  0  0
  -20.1335   -9.6363   95.0373 C   0  0  0  0  0  0  0  0  0  0  0  0
  -21.4720   -9.5744   95.4070 C   0  0  0  0  0  0  0  0  0  0  0  0
  -22.0503   -8.3227   95.5809 C   0  0  0  0  0  0  0  0  0  0  0  0
  1 11  1  0  0  0  0
  1  4  1  0  0  0  0
  2  8  1  0  0  0  0
  3 10  1  0  0  0  0
  4  5  1  0  0  0  0
  5  6  1  0  0  0  0
  7  8  2  0  0  0  0
  7 12  1  0  0  0  0
  8  9  1  0  0  0  0
  9 10  2  0  0  0  0
 10 11  1  0  0  0  0
 11 12  2  0  0  0  0
M  END
>  <CHROM.1>
-107.00137298,178.65003478,73.29965759,-21.34574556,-9.57159633,95.19274131
2.21972576,-0.10337175,-3.10812383

>  <Name>
ligand

>  <RI>
0

>  <Rbt.Current_Directory>
/home/itssahil/PROJECTS/Mol_Feturizer/Test_systems_manuscript/rnas/4nya

>  <Rbt.Executable>
rbdock ($Id: //depot/dev/client3/rdock/2013.1/src/exe/rbdock.cxx#4 $)

>  <Rbt.Library>
libRbt.so (2013.1, Build901 2013/11/27)

>  <Rbt.Parameter_File>
/export/apps/rDock/src/rDock_2013.1_src/data/scripts/dock_solv.prm

>  <Rbt.Receptor>
prm/pocket_docking_2.prm

>  <SCORE>
-12.1293

>  <SCORE.INTER>
-11.4162

>  <SCORE.INTER.CONST>
1

>  <SCORE.INTER.POLAR>
0

>  <SCORE.INTER.ROT>
3

>  <SCORE.INTER.SOLV>
15.9411

>  <SCORE.INTER.VDW>
-18.5245

>  <SCORE.INTER.norm>
-0.951348

>  <SCORE.INTRA>
-0.713073

>  <SCORE.INTRA.DIHEDRAL>
-1.1163

>  <SCORE.INTRA.DIHEDRAL.0>
3.34563

>  <SCORE.INTRA.POLAR>
0

>  <SCORE.INTRA.POLAR.0>
0

>  <SCORE.INTRA.REPUL>
0

>  <SCORE.INTRA.REPUL.0>
0

>  <SCORE.INTRA.SOLV>
-0.523709

>  <SCORE.INTRA.SOLV.lig_0>
-59.746

>  <SCORE.INTRA.VDW>
0.106934

>  <SCORE.INTRA.VDW.0>
-0.691186

>  <SCORE.INTRA.norm>
-0.0594228

>  <SCORE.RESTR>
0

>  <SCORE.RESTR.CAVITY>
0

>  <SCORE.RESTR.norm>
0

>  <SCORE.SYSTEM>
0

>  <SCORE.SYSTEM.CONST>
0

>  <SCORE.SYSTEM.DIHEDRAL>
0

>  <SCORE.SYSTEM.SOLV>
0

>  <SCORE.SYSTEM.norm>
0

>  <SCORE.heavy>
12

>  <SCORE.norm>
-1.01077

>  <RMSD>
1.031

$$$$
ligand
 OpenBabel02271912143D
libRbt.so/2013.1/901 2013/11/27
 12 12  0  0  0  0  0  0  0  0999 V2000
  -22.0724  -10.6987   95.9212 C   0  0  0  0  0  0  0  0  0  0  0  0
  -19.2146   -6.1385   94.7745 C   0  0  0  0  0  0  0  0  0  0  0  0
  -19.5233  -10.7958   95.0693 N   0  0  0  0  0  0  0  0  0  0  0  0
  -23.5170  -10.6056   95.6666 N   0  0  0  0  0  0  0  0  0  0  0  0
  -24.1367  -11.4489   96.0684 N   0  0  0  0  0  0  0  0  0  0  0  0
  -24.7536  -12.2953   96.4673 N   0  0  0  0  0  0  0  0  0  0  0  0
  -21.2305   -7.1689   95.4438 N   0  0  0  0  0  0  0  0  0  0  0  0
  -19.9581   -7.2820   95.0403 C   0  0  0  0  0  0  0  0  0  0  0  0
  -19.4104   -8.4872   94.8242 N   0  0  0  0  0  0  0  0  0  0  0  0
  -20.1187   -9.6093   95.0181 C   0  0  0  0  0  0  0  0  0  0  0  0
  -21.4400   -9.5563   95.4463 C   0  0  0  0  0  0  0  0  0  0  0  0
  -22.0158   -8.3086   95.6540 C   0  0  0  0  0  0  0  0  0  0  0  0
  1 11  1  0  0  0  0
  1  4  1  0  0  0  0
  2  8  1  0  0  0  0
  3 10  1  0  0  0  0
  4  5  1  0  0  0  0
  5  6  1  0  0  0  0
  7  8  2  0  0  0  0
  7 12  1  0  0  0  0
  8  9  1  0  0  0  0
  9 10  2  0  0  0  0
 10 11  1  0  0  0  0
 11 12  2  0  0  0  0
M  END
>  <CHROM.1>
-151.42035776,-176.30562449,-59.82217354,-21.46313058,-9.37939164,95.45316851
-2.37253945,0.24032555,-0.02941850

>  <Name>
ligand

>  <RI>
0

>  <Rbt.Current_Directory>
/home/itssahil/PROJECTS/Mol_Feturizer/Test_systems_manuscript/rnas/4nya

>  <Rbt.Executable>
rbdock ($Id: //depot/dev/client3/rdock/2013.1/src/exe/rbdock.cxx#4 $)

>  <Rbt.Library>
libRbt.so (2013.1, Build901 2013/11/27)

>  <Rbt.Parameter_File>
/export/apps/rDock/src/rDock_2013.1_src/data/scripts/dock_solv.prm

>  <Rbt.Receptor>
prm/pocket_docking_3.prm

>  <SCORE>
-13.0367

>  <SCORE.INTER>
-11.7882

>  <SCORE.INTER.CONST>
1

>  <SCORE.INTER.POLAR>
0

>  <SCORE.INTER.ROT>
3

>  <SCORE.INTER.SOLV>
14.662

>  <SCORE.INTER.VDW>
-18.3462

>  <SCORE.INTER.norm>
-0.982353

>  <SCORE.INTRA>
-1.2485

>  <SCORE.INTRA.DIHEDRAL>
-2.21469

>  <SCORE.INTRA.DIHEDRAL.0>
3.34563

>  <SCORE.INTRA.POLAR>
0

>  <SCORE.INTRA.POLAR.0>
0

>  <SCORE.INTRA.REPUL>
0

>  <SCORE.INTRA.REPUL.0>
0

>  <SCORE.INTRA.SOLV>
-1.25579

>  <SCORE.INTRA.SOLV.lig_0>
-59.746

>  <SCORE.INTRA.VDW>
0.486738

>  <SCORE.INTRA.VDW.0>
-0.691186

>  <SCORE.INTRA.norm>
-0.104042

>  <SCORE.RESTR>
0

>  <SCORE.RESTR.CAVITY>
0

>  <SCORE.RESTR.norm>
0

>  <SCORE.SYSTEM>
0

>  <SCORE.SYSTEM.CONST>
0

>  <SCORE.SYSTEM.DIHEDRAL>
0

>  <SCORE.SYSTEM.SOLV>
0

>  <SCORE.SYSTEM.norm>
0

>  <SCORE.heavy>
12

>  <SCORE.norm>
-1.08639

>  <RMSD>
1.031

$$$$
ligand
 OpenBabel02271912143D
libRbt.so/2013.1/901 2013/11/27
 12 12  0  0  0  0  0  0  0  0999 V2000
  -22.0787  -10.6753   95.9393 C   0  0  0  0  0  0  0  0  0  0  0  0
  -19.1747   -6.1520   94.7632 C   0  0  0  0  0  0  0  0  0  0  0  0
  -19.5407  -10.8051   95.0590 N   0  0  0  0  0  0  0  0  0  0  0  0
  -23.5172  -10.5890   95.6501 N   0  0  0  0  0  0  0  0  0  0  0  0
  -24.1420  -11.4365   96.0351 N   0  0  0  0  0  0  0  0  0  0  0  0
  -24.7655  -12.2823   96.4247 N   0  0  0  0  0  0  0  0  0  0  0  0
  -21.1962   -7.1566   95.4543 N   0  0  0  0  0  0  0  0  0  0  0  0
  -19.9300   -7.2859   95.0367 C   0  0  0  0  0  0  0  0  0  0  0  0
  -19.4005   -8.4980   94.8138 N   0  0  0  0  0  0  0  0  0  0  0  0
  -20.1211   -9.6109   95.0150 C   0  0  0  0  0  0  0  0  0  0  0  0
  -21.4368   -9.5410   95.4580 C   0  0  0  0  0  0  0  0  0  0  0  0
  -21.9939   -8.2861   95.6727 C   0  0  0  0  0  0  0  0  0  0  0  0
  1 11  1  0  0  0  0
  1  4  1  0  0  0  0
  2  8  1  0  0  0  0
  3 10  1  0  0  0  0
  4  5  1  0  0  0  0
  5  6  1  0  0  0  0
  7  8  2  0  0  0  0
  7 12  1  0  0  0  0
  8  9  1  0  0  0  0
  9 10  2  0  0  0  0
 10 11  1  0  0  0  0
 11 12  2  0  0  0  0
M  END
>  <CHROM.1>
-149.04780181,-177.51245032,64.56241906,-21.45536814,-9.37321349,95.44654554
-2.37863407,0.24033243,-0.02227845

>  <Name>
ligand

>  <RI>
0

>  <Rbt.Current_Directory>
/home/itssahil/PROJECTS/Mol_Feturizer/Test_systems_manuscript/rnas/4nya

>  <Rbt.Executable>
rbdock ($Id: //depot/dev/client3/rdock/2013.1/src/exe/rbdock.cxx#4 $)

>  <Rbt.Library>
libRbt.so (2013.1, Build901 2013/11/27)

>  <Rbt.Parameter_File>
/export/apps/rDock/src/rDock_2013.1_src/data/scripts/dock_solv.prm

>  <Rbt.Receptor>
prm/pocket_docking_5.prm

>  <SCORE>
-13.038

>  <SCORE.INTER>
-11.7725

>  <SCORE.INTER.CONST>
1

>  <SCORE.INTER.POLAR>
0

>  <SCORE.INTER.ROT>
3

>  <SCORE.INTER.SOLV>
14.6063

>  <SCORE.INTER.VDW>
-18.3171

>  <SCORE.INTER.norm>
-0.981039

>  <SCORE.INTRA>
-1.26558

>  <SCORE.INTRA.DIHEDRAL>
-2.19085

>  <SCORE.INTRA.DIHEDRAL.0>
3.34563

>  <SCORE.INTRA.POLAR>
0

>  <SCORE.INTRA.POLAR.0>
0

>  <SCORE.INTRA.REPUL>
0

>  <SCORE.INTRA.REPUL.0>
0

>  <SCORE.INTRA.SOLV>
-1.24381

>  <SCORE.INTRA.SOLV.lig_0>
-59.746

>  <SCORE.INTRA.VDW>
0.451754

>  <SCORE.INTRA.VDW.0>
-0.691186

>  <SCORE.INTRA.norm>
-0.105465

>  <SCORE.RESTR>
0

>  <SCORE.RESTR.CAVITY>
0

>  <SCORE.RESTR.norm>
0

>  <SCORE.SYSTEM>
0

>  <SCORE.SYSTEM.CONST>
0

>  <SCORE.SYSTEM.DIHEDRAL>
0

>  <SCORE.SYSTEM.SOLV>
0

>  <SCORE.SYSTEM.norm>
0

>  <SCORE.heavy>
12

>  <SCORE.norm>
-1.0865

>  <RMSD>
1.031

$$$$
ligand
 OpenBabel02271912143D
libRbt.so/2013.1/901 2013/11/27
 12 12  0  0  0  0  0  0  0  0999 V2000
  -22.0798  -10.6638   95.9261 C   0  0  0  0  0  0  0  0  0  0  0  0
  -19.1610   -6.1444   94.7713 C   0  0  0  0  0  0  0  0  0  0  0  0
  -19.5300  -10.7964   95.0811 N   0  0  0  0  0  0  0  0  0  0  0  0
  -23.5201  -10.5612   95.6514 N   0  0  0  0  0  0  0  0  0  0  0  0
  -24.1402  -11.4373   95.9751 N   0  0  0  0  0  0  0  0  0  0  0  0
  -24.7574  -12.3160   96.2957 N   0  0  0  0  0  0  0  0  0  0  0  0
  -21.1916   -7.1468   95.4389 N   0  0  0  0  0  0  0  0  0  0  0  0
  -19.9198   -7.2775   95.0391 C   0  0  0  0  0  0  0  0  0  0  0  0
  -19.3869   -8.4903   94.8284 N   0  0  0  0  0  0  0  0  0  0  0  0
  -20.1100   -9.6026   95.0243 C   0  0  0  0  0  0  0  0  0  0  0  0
  -21.4316   -9.5313   95.4489 C   0  0  0  0  0  0  0  0  0  0  0  0
  -21.9919   -8.2756   95.6510 C   0  0  0  0  0  0  0  0  0  0  0  0
  1 11  1  0  0  0  0
  1  4  1  0  0  0  0
  2  8  1  0  0  0  0
  3 10  1  0  0  0  0
  4  5  1  0  0  0  0
  5  6  1  0  0  0  0
  7  8  2  0  0  0  0
  7 12  1  0  0  0  0
  8  9  1  0  0  0  0
  9 10  2  0  0  0  0
 10 11  1  0  0  0  0
 11 12  2  0  0  0  0
M  END
>  <CHROM.1>
-150.67061063,178.64725523,-60.79897396,-21.44891971,-9.36708002,95.43025756
-2.37499499,0.22191480,-0.02382713

>  <Name>
ligand

>  <RI>
0

>  <Rbt.Current_Directory>
/home/itssahil/PROJECTS/Mol_Feturizer/Test_systems_manuscript/rnas/4nya

>  <Rbt.Executable>
rbdock ($Id: //depot/dev/client3/rdock/2013.1/src/exe/rbdock.cxx#4 $)

>  <Rbt.Library>
libRbt.so (2013.1, Build901 2013/11/27)

>  <Rbt.Parameter_File>
/export/apps/rDock/src/rDock_2013.1_src/data/scripts/dock_solv.prm

>  <Rbt.Receptor>
prm/pocket_docking_3.prm

>  <SCORE>
-13.0164

>  <SCORE.INTER>
-11.754

>  <SCORE.INTER.CONST>
1

>  <SCORE.INTER.POLAR>
0

>  <SCORE.INTER.ROT>
3

>  <SCORE.INTER.SOLV>
14.6039

>  <SCORE.INTER.VDW>
-18.304

>  <SCORE.INTER.norm>
-0.979498

>  <SCORE.INTRA>
-1.26245

>  <SCORE.INTRA.DIHEDRAL>
-2.21746

>  <SCORE.INTRA.DIHEDRAL.0>
3.34563

>  <SCORE.INTRA.POLAR>
0

>  <SCORE.INTRA.POLAR.0>
0

>  <SCORE.INTRA.REPUL>
0

>  <SCORE.INTRA.REPUL.0>
0

>  <SCORE.INTRA.SOLV>
-1.26057

>  <SCORE.INTRA.SOLV.lig_0>
-59.746

>  <SCORE.INTRA.VDW>
0.476566

>  <SCORE.INTRA.VDW.0>
-0.691186

>  <SCORE.INTRA.norm>
-0.105204

>  <SCORE.RESTR>
0

>  <SCORE.RESTR.CAVITY>
0

>  <SCORE.RESTR.norm>
0

>  <SCORE.SYSTEM>
0

>  <SCORE.SYSTEM.CONST>
0

>  <SCORE.SYSTEM.DIHEDRAL>
0

>  <SCORE.SYSTEM.SOLV>
0

>  <SCORE.SYSTEM.norm>
0

>  <SCORE.heavy>
12

>  <SCORE.norm>
-1.0847

>  <RMSD>
1.032

$$$$
ligand
 OpenBabel02271912143D
libRbt.so/2013.1/901 2013/11/27
 12 12  0  0  0  0  0  0  0  0999 V2000
  -22.0729  -10.6940   95.9250 C   0  0  0  0  0  0  0  0  0  0  0  0
  -19.2095   -6.1394   94.7699 C   0  0  0  0  0  0  0  0  0  0  0  0
  -19.5245  -10.7958   95.0718 N   0  0  0  0  0  0  0  0  0  0  0  0
  -23.5171  -10.6007   95.6682 N   0  0  0  0  0  0  0  0  0  0  0  0
  -24.1382  -11.4410   96.0742 N   0  0  0  0  0  0  0  0  0  0  0  0
  -24.7565  -12.2844   96.4773 N   0  0  0  0  0  0  0  0  0  0  0  0
  -21.2264   -7.1661   95.4419 N   0  0  0  0  0  0  0  0  0  0  0  0
  -19.9545   -7.2815   95.0378 C   0  0  0  0  0  0  0  0  0  0  0  0
  -19.4085   -8.4877   94.8232 N   0  0  0  0  0  0  0  0  0  0  0  0
  -20.1182   -9.6086   95.0191 C   0  0  0  0  0  0  0  0  0  0  0  0
  -21.4392   -9.5532   95.4481 C   0  0  0  0  0  0  0  0  0  0  0  0
  -22.0132   -8.3044   95.6543 C   0  0  0  0  0  0  0  0  0  0  0  0
  1 11  1  0  0  0  0
  1  4  1  0  0  0  0
  2  8  1  0  0  0  0
  3 10  1  0  0  0  0
  4  5  1  0  0  0  0
  5  6  1  0  0  0  0
  7  8  2  0  0  0  0
  7 12  1  0  0  0  0
  8  9  1  0  0  0  0
  9 10  2  0  0  0  0
 10 11  1  0  0  0  0
 11 12  2  0  0  0  0
M  END
>  <CHROM.1>
-151.28286107,-176.11245780,-59.82601176,-21.46211193,-9.37616296,95.45459162
-2.37401700,0.24096947,-0.03058604

>  <Name>
ligand

>  <RI>
0

>  <Rbt.Current_Directory>
/home/itssahil/PROJECTS/Mol_Feturizer/Test_systems_manuscript/rnas/4nya

>  <Rbt.Executable>
rbdock ($Id: //depot/dev/client3/rdock/2013.1/src/exe/rbdock.cxx#4 $)

>  <Rbt.Library>
libRbt.so (2013.1, Build901 2013/11/27)

>  <Rbt.Parameter_File>
/export/apps/rDock/src/rDock_2013.1_src/data/scripts/dock_solv.prm

>  <Rbt.Receptor>
prm/pocket_docking_3.prm

>  <SCORE>
-13.0363

>  <SCORE.INTER>
-11.7874

>  <SCORE.INTER.CONST>
1

>  <SCORE.INTER.POLAR>
0

>  <SCORE.INTER.ROT>
3

>  <SCORE.INTER.SOLV>
14.6556

>  <SCORE.INTER.VDW>
-18.3435

>  <SCORE.INTER.norm>
-0.982286

>  <SCORE.INTRA>
-1.24887

>  <SCORE.INTRA.DIHEDRAL>
-2.21232

>  <SCORE.INTRA.DIHEDRAL.0>
3.34563

>  <SCORE.INTRA.POLAR>
0

>  <SCORE.INTRA.POLAR.0>
0

>  <SCORE.INTRA.REPUL>
0

>  <SCORE.INTRA.REPUL.0>
0

>  <SCORE.INTRA.SOLV>
-1.25456

>  <SCORE.INTRA.SOLV.lig_0>
-59.746

>  <SCORE.INTRA.VDW>
0.484572

>  <SCORE.INTRA.VDW.0>
-0.691186

>  <SCORE.INTRA.norm>
-0.104073

>  <SCORE.RESTR>
0

>  <SCORE.RESTR.CAVITY>
0

>  <SCORE.RESTR.norm>
0

>  <SCORE.SYSTEM>
0

>  <SCORE.SYSTEM.CONST>
0

>  <SCORE.SYSTEM.DIHEDRAL>
0

>  <SCORE.SYSTEM.SOLV>
0

>  <SCORE.SYSTEM.norm>
0

>  <SCORE.heavy>
12

>  <SCORE.norm>
-1.08636

>  <RMSD>
1.033

$$$$
ligand
 OpenBabel02271912143D
libRbt.so/2013.1/901 2013/11/27
 12 12  0  0  0  0  0  0  0  0999 V2000
  -22.0777  -10.6686   95.9350 C   0  0  0  0  0  0  0  0  0  0  0  0
  -19.1774   -6.1517   94.7252 C   0  0  0  0  0  0  0  0  0  0  0  0
  -19.5361  -10.8024   95.0657 N   0  0  0  0  0  0  0  0  0  0  0  0
  -23.5099  -10.6032   95.6110 N   0  0  0  0  0  0  0  0  0  0  0  0
  -24.1435  -11.4216   96.0419 N   0  0  0  0  0  0  0  0  0  0  0  0
  -24.7758  -12.2380   96.4773 N   0  0  0  0  0  0  0  0  0  0  0  0
  -21.1998   -7.1532   95.4186 N   0  0  0  0  0  0  0  0  0  0  0  0
  -19.9317   -7.2843   95.0070 C   0  0  0  0  0  0  0  0  0  0  0  0
  -19.3991   -8.4975   94.7982 N   0  0  0  0  0  0  0  0  0  0  0  0
  -20.1185   -9.6097   95.0077 C   0  0  0  0  0  0  0  0  0  0  0  0
  -21.4360   -9.5379   95.4449 C   0  0  0  0  0  0  0  0  0  0  0  0
  -21.9962   -8.2820   95.6451 C   0  0  0  0  0  0  0  0  0  0  0  0
  1 11  1  0  0  0  0
  1  4  1  0  0  0  0
  2  8  1  0  0  0  0
  3 10  1  0  0  0  0
  4  5  1  0  0  0  0
  5  6  1  0  0  0  0
  7  8  2  0  0  0  0
  7 12  1  0  0  0  0
  8  9  1  0  0  0  0
  9 10  2  0  0  0  0
 10 11  1  0  0  0  0
 11 12  2  0  0  0  0
M  END
>  <CHROM.1>
-147.69179201,-174.59365760,63.73223054,-21.45574370,-9.36739045,95.43471020
-2.37982692,0.23916423,-0.03372121

>  <Name>
ligand

>  <RI>
0

>  <Rbt.Current_Directory>
/home/itssahil/PROJECTS/Mol_Feturizer/Test_systems_manuscript/rnas/4nya

>  <Rbt.Executable>
rbdock ($Id: //depot/dev/client3/rdock/2013.1/src/exe/rbdock.cxx#4 $)

>  <Rbt.Library>
libRbt.so (2013.1, Build901 2013/11/27)

>  <Rbt.Parameter_File>
/export/apps/rDock/src/rDock_2013.1_src/data/scripts/dock_solv.prm

>  <Rbt.Receptor>
prm/pocket_docking_7.prm

>  <SCORE>
-13.0161

>  <SCORE.INTER>
-11.7555

>  <SCORE.INTER.CONST>
1

>  <SCORE.INTER.POLAR>
0

>  <SCORE.INTER.ROT>
3

>  <SCORE.INTER.SOLV>
14.6614

>  <SCORE.INTER.VDW>
-18.3241

>  <SCORE.INTER.norm>
-0.979625

>  <SCORE.INTRA>
-1.26058

>  <SCORE.INTRA.DIHEDRAL>
-2.15631

>  <SCORE.INTRA.DIHEDRAL.0>
3.34563

>  <SCORE.INTRA.POLAR>
0

>  <SCORE.INTRA.POLAR.0>
0

>  <SCORE.INTRA.REPUL>
0

>  <SCORE.INTRA.REPUL.0>
0

>  <SCORE.INTRA.SOLV>
-1.2281

>  <SCORE.INTRA.SOLV.lig_0>
-59.746

>  <SCORE.INTRA.VDW>
0.431625

>  <SCORE.INTRA.VDW.0>
-0.691186

>  <SCORE.INTRA.norm>
-0.105048

>  <SCORE.RESTR>
0

>  <SCORE.RESTR.CAVITY>
0

>  <SCORE.RESTR.norm>
0

>  <SCORE.SYSTEM>
0

>  <SCORE.SYSTEM.CONST>
0

>  <SCORE.SYSTEM.DIHEDRAL>
0

>  <SCORE.SYSTEM.SOLV>
0

>  <SCORE.SYSTEM.norm>
0

>  <SCORE.heavy>
12

>  <SCORE.norm>
-1.08467

>  <RMSD>
1.036

$$$$
ligand
 OpenBabel02271912143D
libRbt.so/2013.1/901 2013/11/27
 12 12  0  0  0  0  0  0  0  0999 V2000
  -22.0951  -10.6915   95.8920 C   0  0  0  0  0  0  0  0  0  0  0  0
  -19.1807   -6.1614   94.7689 C   0  0  0  0  0  0  0  0  0  0  0  0
  -19.5688  -10.8174   94.9784 N   0  0  0  0  0  0  0  0  0  0  0  0
  -23.5468  -10.5503   95.7100 N   0  0  0  0  0  0  0  0  0  0  0  0
  -24.1662  -11.4211   96.0488 N   0  0  0  0  0  0  0  0  0  0  0  0
  -24.7894  -12.2896   96.3854 N   0  0  0  0  0  0  0  0  0  0  0  0
  -21.1992   -7.1687   95.4650 N   0  0  0  0  0  0  0  0  0  0  0  0
  -19.9389   -7.2965   95.0294 C   0  0  0  0  0  0  0  0  0  0  0  0
  -19.4188   -8.5067   94.7765 N   0  0  0  0  0  0  0  0  0  0  0  0
  -20.1431   -9.6196   94.9648 C   0  0  0  0  0  0  0  0  0  0  0  0
  -21.4529   -9.5514   95.4251 C   0  0  0  0  0  0  0  0  0  0  0  0
  -22.0004   -8.2980   95.6711 C   0  0  0  0  0  0  0  0  0  0  0  0
  1 11  1  0  0  0  0
  1  4  1  0  0  0  0
  2  8  1  0  0  0  0
  3 10  1  0  0  0  0
  4  5  1  0  0  0  0
  5  6  1  0  0  0  0
  7  8  2  0  0  0  0
  7 12  1  0  0  0  0
  8  9  1  0  0  0  0
  9 10  2  0  0  0  0
 10 11  1  0  0  0  0
 11 12  2  0  0  0  0
M  END
>  <CHROM.1>
-153.09249898,179.61761393,-171.13712028,-21.47238783,-9.37743231,95.42975737
-2.38807754,0.25925123,-0.00226930

>  <Name>
ligand

>  <RI>
0

>  <Rbt.Current_Directory>
/home/itssahil/PROJECTS/Mol_Feturizer/Test_systems_manuscript/rnas/4nya

>  <Rbt.Executable>
rbdock ($Id: //depot/dev/client3/rdock/2013.1/src/exe/rbdock.cxx#4 $)

>  <Rbt.Library>
libRbt.so (2013.1, Build901 2013/11/27)

>  <Rbt.Parameter_File>
/export/apps/rDock/src/rDock_2013.1_src/data/scripts/dock_solv.prm

>  <Rbt.Receptor>
prm/pocket_docking_2.prm

>  <SCORE>
-13.0198

>  <SCORE.INTER>
-11.7862

>  <SCORE.INTER.CONST>
1

>  <SCORE.INTER.POLAR>
0

>  <SCORE.INTER.ROT>
3

>  <SCORE.INTER.SOLV>
14.5035

>  <SCORE.INTER.VDW>
-18.292

>  <SCORE.INTER.norm>
-0.982184

>  <SCORE.INTRA>
-1.2336

>  <SCORE.INTRA.DIHEDRAL>
-2.21656

>  <SCORE.INTRA.DIHEDRAL.0>
3.34563

>  <SCORE.INTRA.POLAR>
0

>  <SCORE.INTRA.POLAR.0>
0

>  <SCORE.INTRA.REPUL>
0

>  <SCORE.INTRA.REPUL.0>
0

>  <SCORE.INTRA.SOLV>
-1.27594

>  <SCORE.INTRA.SOLV.lig_0>
-59.746

>  <SCORE.INTRA.VDW>
0.512653

>  <SCORE.INTRA.VDW.0>
-0.691186

>  <SCORE.INTRA.norm>
-0.1028

>  <SCORE.RESTR>
0

>  <SCORE.RESTR.CAVITY>
0

>  <SCORE.RESTR.norm>
0

>  <SCORE.SYSTEM>
0

>  <SCORE.SYSTEM.CONST>
0

>  <SCORE.SYSTEM.DIHEDRAL>
0

>  <SCORE.SYSTEM.SOLV>
0

>  <SCORE.SYSTEM.norm>
0

>  <SCORE.heavy>
12

>  <SCORE.norm>
-1.08498

>  <RMSD>
1.037

$$$$
ligand
 OpenBabel02271912143D
libRbt.so/2013.1/901 2013/11/27
 12 12  0  0  0  0  0  0  0  0999 V2000
  -22.1101  -10.6126   95.8828 C   0  0  0  0  0  0  0  0  0  0  0  0
  -19.2053   -6.0784   94.7509 C   0  0  0  0  0  0  0  0  0  0  0  0
  -19.5181  -10.7255   95.1745 N   0  0  0  0  0  0  0  0  0  0  0  0
  -23.5189  -10.5797   95.4649 N   0  0  0  0  0  0  0  0  0  0  0  0
  -24.1373  -11.4633   95.7707 N   0  0  0  0  0  0  0  0  0  0  0  0
  -24.7523  -12.3497   96.0741 N   0  0  0  0  0  0  0  0  0  0  0  0
  -21.2522   -7.0959   95.3414 N   0  0  0  0  0  0  0  0  0  0  0  0
  -19.9594   -7.2162   95.0116 C   0  0  0  0  0  0  0  0  0  0  0  0
  -19.3977   -8.4252   94.8636 N   0  0  0  0  0  0  0  0  0  0  0  0
  -20.1127   -9.5437   95.0537 C   0  0  0  0  0  0  0  0  0  0  0  0
  -21.4556   -9.4829   95.4074 C   0  0  0  0  0  0  0  0  0  0  0  0
  -22.0449   -8.2318   95.5442 C   0  0  0  0  0  0  0  0  0  0  0  0
  1 11  1  0  0  0  0
  1  4  1  0  0  0  0
  2  8  1  0  0  0  0
  3 10  1  0  0  0  0
  4  5  1  0  0  0  0
  5  6  1  0  0  0  0
  7  8  2  0  0  0  0
  7 12  1  0  0  0  0
  8  9  1  0  0  0  0
  9 10  2  0  0  0  0
 10 11  1  0  0  0  0
 11 12  2  0  0  0  0
M  END
>  <CHROM.1>
-147.43085673,178.29246652,-56.79283492,-21.46896643,-9.33118746,95.36314408
-2.35185048,0.15744146,-0.05103136

>  <Name>
ligand

>  <RI>
0

>  <Rbt.Current_Directory>
/home/itssahil/PROJECTS/Mol_Feturizer/Test_systems_manuscript/rnas/4nya

>  <Rbt.Executable>
rbdock ($Id: //depot/dev/client3/rdock/2013.1/src/exe/rbdock.cxx#4 $)

>  <Rbt.Library>
libRbt.so (2013.1, Build901 2013/11/27)

>  <Rbt.Parameter_File>
/export/apps/rDock/src/rDock_2013.1_src/data/scripts/dock_solv.prm

>  <Rbt.Receptor>
prm/pocket_docking_7.prm

>  <SCORE>
-12.9688

>  <SCORE.INTER>
-11.6911

>  <SCORE.INTER.CONST>
1

>  <SCORE.INTER.POLAR>
0

>  <SCORE.INTER.ROT>
3

>  <SCORE.INTER.SOLV>
14.8559

>  <SCORE.INTER.VDW>
-18.346

>  <SCORE.INTER.norm>
-0.974256

>  <SCORE.INTRA>
-1.27773

>  <SCORE.INTRA.DIHEDRAL>
-2.1751

>  <SCORE.INTRA.DIHEDRAL.0>
3.34563

>  <SCORE.INTRA.POLAR>
0

>  <SCORE.INTRA.POLAR.0>
0

>  <SCORE.INTRA.REPUL>
0

>  <SCORE.INTRA.REPUL.0>
0

>  <SCORE.INTRA.SOLV>
-1.24037

>  <SCORE.INTRA.SOLV.lig_0>
-59.746

>  <SCORE.INTRA.VDW>
0.430007

>  <SCORE.INTRA.VDW.0>
-0.691186

>  <SCORE.INTRA.norm>
-0.106477

>  <SCORE.RESTR>
0

>  <SCORE.RESTR.CAVITY>
0

>  <SCORE.RESTR.norm>
0

>  <SCORE.SYSTEM>
0

>  <SCORE.SYSTEM.CONST>
0

>  <SCORE.SYSTEM.DIHEDRAL>
0

>  <SCORE.SYSTEM.SOLV>
0

>  <SCORE.SYSTEM.norm>
0

>  <SCORE.heavy>
12

>  <SCORE.norm>
-1.08073

>  <RMSD>
1.038

$$$$
ligand
 OpenBabel02271912143D
libRbt.so/2013.1/901 2013/11/27
 12 12  0  0  0  0  0  0  0  0999 V2000
  -22.1949  -10.6565   95.9731 C   0  0  0  0  0  0  0  0  0  0  0  0
  -19.1733   -6.2288   94.7312 C   0  0  0  0  0  0  0  0  0  0  0  0
  -19.6540  -10.8648   95.1168 N   0  0  0  0  0  0  0  0  0  0  0  0
  -23.6385  -10.5028   95.7431 N   0  0  0  0  0  0  0  0  0  0  0  0
  -24.2929  -11.2715   96.2305 N   0  0  0  0  0  0  0  0  0  0  0  0
  -24.9453  -12.0386   96.7224 N   0  0  0  0  0  0  0  0  0  0  0  0
  -21.2239   -7.1704   95.4254 N   0  0  0  0  0  0  0  0  0  0  0  0
  -19.9580   -7.3385   95.0210 C   0  0  0  0  0  0  0  0  0  0  0  0
  -19.4561   -8.5672   94.8268 N   0  0  0  0  0  0  0  0  0  0  0  0
  -20.2050   -9.6582   95.0442 C   0  0  0  0  0  0  0  0  0  0  0  0
  -21.5221   -9.5478   95.4746 C   0  0  0  0  0  0  0  0  0  0  0  0
  -22.0504   -8.2758   95.6596 C   0  0  0  0  0  0  0  0  0  0  0  0
  1 11  1  0  0  0  0
  1  4  1  0  0  0  0
  2  8  1  0  0  0  0
  3 10  1  0  0  0  0
  4  5  1  0  0  0  0
  5  6  1  0  0  0  0
  7  8  2  0  0  0  0
  7 12  1  0  0  0  0
  8  9  1  0  0  0  0
  9 10  2  0  0  0  0
 10 11  1  0  0  0  0
 11 12  2  0  0  0  0
M  END
>  <CHROM.1>
-152.48714320,-171.86193638,60.31290969,-21.54062175,-9.35532994,95.50235015
-2.42195778,0.26135775,-0.04382181

>  <Name>
ligand

>  <RI>
0

>  <Rbt.Current_Directory>
/home/itssahil/PROJECTS/Mol_Feturizer/Test_systems_manuscript/rnas/4nya

>  <Rbt.Executable>
rbdock ($Id: //depot/dev/client3/rdock/2013.1/src/exe/rbdock.cxx#4 $)

>  <Rbt.Library>
libRbt.so (2013.1, Build901 2013/11/27)

>  <Rbt.Parameter_File>
/export/apps/rDock/src/rDock_2013.1_src/data/scripts/dock_solv.prm

>  <Rbt.Receptor>
prm/pocket_docking_7.prm

>  <SCORE>
-12.8986

>  <SCORE.INTER>
-11.6672

>  <SCORE.INTER.CONST>
1

>  <SCORE.INTER.POLAR>
0

>  <SCORE.INTER.ROT>
3

>  <SCORE.INTER.SOLV>
14.0192

>  <SCORE.INTER.VDW>
-18.0512

>  <SCORE.INTER.norm>
-0.972265

>  <SCORE.INTRA>
-1.23137

>  <SCORE.INTRA.DIHEDRAL>
-2.18034

>  <SCORE.INTRA.DIHEDRAL.0>
3.34563

>  <SCORE.INTRA.POLAR>
0

>  <SCORE.INTRA.POLAR.0>
0

>  <SCORE.INTRA.REPUL>
0

>  <SCORE.INTRA.REPUL.0>
0

>  <SCORE.INTRA.SOLV>
-1.25124

>  <SCORE.INTRA.SOLV.lig_0>
-59.746

>  <SCORE.INTRA.VDW>
0.48442

>  <SCORE.INTRA.VDW.0>
-0.691186

>  <SCORE.INTRA.norm>
-0.102614

>  <SCORE.RESTR>
0

>  <SCORE.RESTR.CAVITY>
0

>  <SCORE.RESTR.norm>
0

>  <SCORE.SYSTEM>
0

>  <SCORE.SYSTEM.CONST>
0

>  <SCORE.SYSTEM.DIHEDRAL>
0

>  <SCORE.SYSTEM.SOLV>
0

>  <SCORE.SYSTEM.norm>
0

>  <SCORE.heavy>
12

>  <SCORE.norm>
-1.07488

>  <RMSD>
1.041

$$$$
ligand
 OpenBabel02271912143D
libRbt.so/2013.1/901 2013/11/27
 12 12  0  0  0  0  0  0  0  0999 V2000
  -22.1195  -10.6780   95.9325 C   0  0  0  0  0  0  0  0  0  0  0  0
  -19.2074   -6.1555   94.7732 C   0  0  0  0  0  0  0  0  0  0  0  0
  -19.5622  -10.8067   95.1097 N   0  0  0  0  0  0  0  0  0  0  0  0
  -23.5661  -10.5526   95.7043 N   0  0  0  0  0  0  0  0  0  0  0  0
  -24.2014  -11.3558   96.1604 N   0  0  0  0  0  0  0  0  0  0  0  0
  -24.8342  -12.1621   96.6135 N   0  0  0  0  0  0  0  0  0  0  0  0
  -21.2399   -7.1610   95.4302 N   0  0  0  0  0  0  0  0  0  0  0  0
  -19.9643   -7.2896   95.0419 C   0  0  0  0  0  0  0  0  0  0  0  0
  -19.4253   -8.5017   94.8435 N   0  0  0  0  0  0  0  0  0  0  0  0
  -20.1460   -9.6154   95.0404 C   0  0  0  0  0  0  0  0  0  0  0  0
  -21.4714   -9.5462   95.4535 C   0  0  0  0  0  0  0  0  0  0  0  0
  -22.0379   -8.2913   95.6428 C   0  0  0  0  0  0  0  0  0  0  0  0
  1 11  1  0  0  0  0
  1  4  1  0  0  0  0
  2  8  1  0  0  0  0
  3 10  1  0  0  0  0
  4  5  1  0  0  0  0
  5  6  1  0  0  0  0
  7  8  2  0  0  0  0
  7 12  1  0  0  0  0
  8  9  1  0  0  0  0
  9 10  2  0  0  0  0
 10 11  1  0  0  0  0
 11 12  2  0  0  0  0
M  END
>  <CHROM.1>
-153.43713294,-173.06610727,-61.53211238,-21.49543235,-9.35538379,95.48350295
-2.39242893,0.24630153,-0.04156543

>  <Name>
ligand

>  <RI>
0

>  <Rbt.Current_Directory>
/home/itssahil/PROJECTS/Mol_Feturizer/Test_systems_manuscript/rnas/4nya

>  <Rbt.Executable>
rbdock ($Id: //depot/dev/client3/rdock/2013.1/src/exe/rbdock.cxx#4 $)

>  <Rbt.Library>
libRbt.so (2013.1, Build901 2013/11/27)

>  <Rbt.Parameter_File>
/export/apps/rDock/src/rDock_2013.1_src/data/scripts/dock_solv.prm

>  <Rbt.Receptor>
prm/pocket_docking_8.prm

>  <SCORE>
-13.0253

>  <SCORE.INTER>
-11.7956

>  <SCORE.INTER.CONST>
1

>  <SCORE.INTER.POLAR>
0

>  <SCORE.INTER.ROT>
3

>  <SCORE.INTER.SOLV>
14.4307

>  <SCORE.INTER.VDW>
-18.274

>  <SCORE.INTER.norm>
-0.98297

>  <SCORE.INTRA>
-1.22968

>  <SCORE.INTRA.DIHEDRAL>
-2.2

>  <SCORE.INTRA.DIHEDRAL.0>
3.34563

>  <SCORE.INTRA.POLAR>
0

>  <SCORE.INTRA.POLAR.0>
0

>  <SCORE.INTRA.REPUL>
0

>  <SCORE.INTRA.REPUL.0>
0

>  <SCORE.INTRA.SOLV>
-1.25975

>  <SCORE.INTRA.SOLV.lig_0>
-59.746

>  <SCORE.INTRA.VDW>
0.500197

>  <SCORE.INTRA.VDW.0>
-0.691186

>  <SCORE.INTRA.norm>
-0.102473

>  <SCORE.RESTR>
0

>  <SCORE.RESTR.CAVITY>
0

>  <SCORE.RESTR.norm>
0

>  <SCORE.SYSTEM>
0

>  <SCORE.SYSTEM.CONST>
0

>  <SCORE.SYSTEM.DIHEDRAL>
0

>  <SCORE.SYSTEM.SOLV>
0

>  <SCORE.SYSTEM.norm>
0

>  <SCORE.heavy>
12

>  <SCORE.norm>
-1.08544

>  <RMSD>
1.042

$$$$
ligand
 OpenBabel02271912143D
libRbt.so/2013.1/901 2013/11/27
 12 12  0  0  0  0  0  0  0  0999 V2000
  -22.0799  -10.6758   95.9326 C   0  0  0  0  0  0  0  0  0  0  0  0
  -19.1700   -6.1539   94.7655 C   0  0  0  0  0  0  0  0  0  0  0  0
  -19.5378  -10.8067   95.0645 N   0  0  0  0  0  0  0  0  0  0  0  0
  -23.5171  -10.5895   95.6370 N   0  0  0  0  0  0  0  0  0  0  0  0
  -24.1592  -11.3761   96.1121 N   0  0  0  0  0  0  0  0  0  0  0  0
  -24.7997  -12.1607   96.5917 N   0  0  0  0  0  0  0  0  0  0  0  0
  -21.1949   -7.1576   95.4481 N   0  0  0  0  0  0  0  0  0  0  0  0
  -19.9267   -7.2875   95.0366 C   0  0  0  0  0  0  0  0  0  0  0  0
  -19.3962   -8.4998   94.8175 N   0  0  0  0  0  0  0  0  0  0  0  0
  -20.1179   -9.6125   95.0165 C   0  0  0  0  0  0  0  0  0  0  0  0
  -21.4357   -9.5421   95.4531 C   0  0  0  0  0  0  0  0  0  0  0  0
  -21.9937   -8.2868   95.6639 C   0  0  0  0  0  0  0  0  0  0  0  0
  1 11  1  0  0  0  0
  1  4  1  0  0  0  0
  2  8  1  0  0  0  0
  3 10  1  0  0  0  0
  4  5  1  0  0  0  0
  5  6  1  0  0  0  0
  7  8  2  0  0  0  0
  7 12  1  0  0  0  0
  8  9  1  0  0  0  0
  9 10  2  0  0  0  0
 10 11  1  0  0  0  0
 11 12  2  0  0  0  0
M  END
>  <CHROM.1>
-149.06939320,-171.19669439,63.14105534,-21.45814658,-9.35844143,95.46557761
-2.39203170,0.25237197,-0.02829733

>  <Name>
ligand

>  <RI>
0

>  <Rbt.Current_Directory>
/home/itssahil/PROJECTS/Mol_Feturizer/Test_systems_manuscript/rnas/4nya

>  <Rbt.Executable>
rbdock ($Id: //depot/dev/client3/rdock/2013.1/src/exe/rbdock.cxx#4 $)

>  <Rbt.Library>
libRbt.so (2013.1, Build901 2013/11/27)

>  <Rbt.Parameter_File>
/export/apps/rDock/src/rDock_2013.1_src/data/scripts/dock_solv.prm

>  <Rbt.Receptor>
prm/pocket_docking_5.prm

>  <SCORE>
-13.0118

>  <SCORE.INTER>
-11.762

>  <SCORE.INTER.CONST>
1

>  <SCORE.INTER.POLAR>
0

>  <SCORE.INTER.ROT>
3

>  <SCORE.INTER.SOLV>
14.5916

>  <SCORE.INTER.VDW>
-18.3052

>  <SCORE.INTER.norm>
-0.980169

>  <SCORE.INTRA>
-1.24976

>  <SCORE.INTRA.DIHEDRAL>
-2.13655

>  <SCORE.INTRA.DIHEDRAL.0>
3.34563

>  <SCORE.INTRA.POLAR>
0

>  <SCORE.INTRA.POLAR.0>
0

>  <SCORE.INTRA.REPUL>
0

>  <SCORE.INTRA.REPUL.0>
0

>  <SCORE.INTRA.SOLV>
-1.22831

>  <SCORE.INTRA.SOLV.lig_0>
-59.746

>  <SCORE.INTRA.VDW>
0.432678

>  <SCORE.INTRA.VDW.0>
-0.691186

>  <SCORE.INTRA.norm>
-0.104146

>  <SCORE.RESTR>
0

>  <SCORE.RESTR.CAVITY>
0

>  <SCORE.RESTR.norm>
0

>  <SCORE.SYSTEM>
0

>  <SCORE.SYSTEM.CONST>
0

>  <SCORE.SYSTEM.DIHEDRAL>
0

>  <SCORE.SYSTEM.SOLV>
0

>  <SCORE.SYSTEM.norm>
0

>  <SCORE.heavy>
12

>  <SCORE.norm>
-1.08432

>  <RMSD>
1.043

$$$$
ligand
 OpenBabel02271912143D
libRbt.so/2013.1/901 2013/11/27
 12 12  0  0  0  0  0  0  0  0999 V2000
  -22.1153  -10.6839   95.9344 C   0  0  0  0  0  0  0  0  0  0  0  0
  -19.2072   -6.1590   94.7744 C   0  0  0  0  0  0  0  0  0  0  0  0
  -19.5659  -10.8116   95.0876 N   0  0  0  0  0  0  0  0  0  0  0  0
  -23.5645  -10.5517   95.7274 N   0  0  0  0  0  0  0  0  0  0  0  0
  -24.1960  -11.3585   96.1823 N   0  0  0  0  0  0  0  0  0  0  0  0
  -24.8315  -12.1629   96.6351 N   0  0  0  0  0  0  0  0  0  0  0  0
  -21.2351   -7.1653   95.4442 N   0  0  0  0  0  0  0  0  0  0  0  0
  -19.9633   -7.2935   95.0435 C   0  0  0  0  0  0  0  0  0  0  0  0
  -19.4280   -8.5053   94.8333 N   0  0  0  0  0  0  0  0  0  0  0  0
  -20.1485   -9.6190   95.0305 C   0  0  0  0  0  0  0  0  0  0  0  0
  -21.4700   -9.5503   95.4560 C   0  0  0  0  0  0  0  0  0  0  0  0
  -22.0328   -8.2957   95.6576 C   0  0  0  0  0  0  0  0  0  0  0  0
  1 11  1  0  0  0  0
  1  4  1  0  0  0  0
  2  8  1  0  0  0  0
  3 10  1  0  0  0  0
  4  5  1  0  0  0  0
  5  6  1  0  0  0  0
  7  8  2  0  0  0  0
  7 12  1  0  0  0  0
  8  9  1  0  0  0  0
  9 10  2  0  0  0  0
 10 11  1  0  0  0  0
 11 12  2  0  0  0  0
M  END
>  <CHROM.1>
-153.76997451,-173.28385823,-178.84210287,-21.49395837,-9.35878145,95.48865116
-2.39445275,0.25624820,-0.03562132

>  <Name>
ligand

>  <RI>
0

>  <Rbt.Current_Directory>
/home/itssahil/PROJECTS/Mol_Feturizer/Test_systems_manuscript/rnas/4nya

>  <Rbt.Executable>
rbdock ($Id: //depot/dev/client3/rdock/2013.1/src/exe/rbdock.cxx#4 $)

>  <Rbt.Library>
libRbt.so (2013.1, Build901 2013/11/27)

>  <Rbt.Parameter_File>
/export/apps/rDock/src/rDock_2013.1_src/data/scripts/dock_solv.prm

>  <Rbt.Receptor>
prm/pocket_docking_6.prm

>  <SCORE>
-13.024

>  <SCORE.INTER>
-11.7936

>  <SCORE.INTER.CONST>
1

>  <SCORE.INTER.POLAR>
0

>  <SCORE.INTER.ROT>
3

>  <SCORE.INTER.SOLV>
14.4144

>  <SCORE.INTER.VDW>
-18.2672

>  <SCORE.INTER.norm>
-0.982797

>  <SCORE.INTRA>
-1.23043

>  <SCORE.INTRA.DIHEDRAL>
-2.20434

>  <SCORE.INTRA.DIHEDRAL.0>
3.34563

>  <SCORE.INTRA.POLAR>
0

>  <SCORE.INTRA.POLAR.0>
0

>  <SCORE.INTRA.REPUL>
0

>  <SCORE.INTRA.REPUL.0>
0

>  <SCORE.INTRA.SOLV>
-1.26529

>  <SCORE.INTRA.SOLV.lig_0>
-59.746

>  <SCORE.INTRA.VDW>
0.504392

>  <SCORE.INTRA.VDW.0>
-0.691186

>  <SCORE.INTRA.norm>
-0.102536

>  <SCORE.RESTR>
0

>  <SCORE.RESTR.CAVITY>
0

>  <SCORE.RESTR.norm>
0

>  <SCORE.SYSTEM>
0

>  <SCORE.SYSTEM.CONST>
0

>  <SCORE.SYSTEM.DIHEDRAL>
0

>  <SCORE.SYSTEM.SOLV>
0

>  <SCORE.SYSTEM.norm>
0

>  <SCORE.heavy>
12

>  <SCORE.norm>
-1.08533

>  <RMSD>
1.045

$$$$
ligand
 OpenBabel02271912143D
libRbt.so/2013.1/901 2013/11/27
 12 12  0  0  0  0  0  0  0  0999 V2000
  -22.1234  -10.6344   95.9086 C   0  0  0  0  0  0  0  0  0  0  0  0
  -19.1955   -6.1318   94.7120 C   0  0  0  0  0  0  0  0  0  0  0  0
  -19.5632  -10.7782   95.0977 N   0  0  0  0  0  0  0  0  0  0  0  0
  -23.5587  -10.5433   95.6054 N   0  0  0  0  0  0  0  0  0  0  0  0
  -24.1937  -11.3762   96.0051 N   0  0  0  0  0  0  0  0  0  0  0  0
  -24.8259  -12.2121   96.4020 N   0  0  0  0  0  0  0  0  0  0  0  0
  -21.2331   -7.1251   95.3716 N   0  0  0  0  0  0  0  0  0  0  0  0
  -19.9563   -7.2610   94.9899 C   0  0  0  0  0  0  0  0  0  0  0  0
  -19.4196   -8.4766   94.8069 N   0  0  0  0  0  0  0  0  0  0  0  0
  -20.1437   -9.5863   95.0131 C   0  0  0  0  0  0  0  0  0  0  0  0
  -21.4706   -9.5094   95.4200 C   0  0  0  0  0  0  0  0  0  0  0  0
  -22.0348   -8.2512   95.5933 C   0  0  0  0  0  0  0  0  0  0  0  0
  1 11  1  0  0  0  0
  1  4  1  0  0  0  0
  2  8  1  0  0  0  0
  3 10  1  0  0  0  0
  4  5  1  0  0  0  0
  5  6  1  0  0  0  0
  7  8  2  0  0  0  0
  7 12  1  0  0  0  0
  8  9  1  0  0  0  0
  9 10  2  0  0  0  0
 10 11  1  0  0  0  0
 11 12  2  0  0  0  0
M  END
>  <CHROM.1>
-150.24378193,-176.79562647,-60.89261982,-21.49057429,-9.33686219,95.41382758
-2.38157198,0.22000668,-0.04554818

>  <Name>
ligand

>  <RI>
0

>  <Rbt.Current_Directory>
/home/itssahil/PROJECTS/Mol_Feturizer/Test_systems_manuscript/rnas/4nya

>  <Rbt.Executable>
rbdock ($Id: //depot/dev/client3/rdock/2013.1/src/exe/rbdock.cxx#4 $)

>  <Rbt.Library>
libRbt.so (2013.1, Build901 2013/11/27)

>  <Rbt.Parameter_File>
/export/apps/rDock/src/rDock_2013.1_src/data/scripts/dock_solv.prm

>  <Rbt.Receptor>
prm/pocket_docking_2.prm

>  <SCORE>
-12.9933

>  <SCORE.INTER>
-11.7344

>  <SCORE.INTER.CONST>
1

>  <SCORE.INTER.POLAR>
0

>  <SCORE.INTER.ROT>
3

>  <SCORE.INTER.SOLV>
14.5449

>  <SCORE.INTER.VDW>
-18.2712

>  <SCORE.INTER.norm>
-0.977863

>  <SCORE.INTRA>
-1.25891

>  <SCORE.INTRA.DIHEDRAL>
-2.20627

>  <SCORE.INTRA.DIHEDRAL.0>
3.34563

>  <SCORE.INTRA.POLAR>
0

>  <SCORE.INTRA.POLAR.0>
0

>  <SCORE.INTRA.REPUL>
0

>  <SCORE.INTRA.REPUL.0>
0

>  <SCORE.INTRA.SOLV>
-1.24977

>  <SCORE.INTRA.SOLV.lig_0>
-59.746

>  <SCORE.INTRA.VDW>
0.469109

>  <SCORE.INTRA.VDW.0>
-0.691186

>  <SCORE.INTRA.norm>
-0.104909

>  <SCORE.RESTR>
0

>  <SCORE.RESTR.CAVITY>
0

>  <SCORE.RESTR.norm>
0

>  <SCORE.SYSTEM>
0

>  <SCORE.SYSTEM.CONST>
0

>  <SCORE.SYSTEM.DIHEDRAL>
0

>  <SCORE.SYSTEM.SOLV>
0

>  <SCORE.SYSTEM.norm>
0

>  <SCORE.heavy>
12

>  <SCORE.norm>
-1.08277

>  <RMSD>
1.046

$$$$
ligand
 OpenBabel02271912143D
libRbt.so/2013.1/901 2013/11/27
 12 12  0  0  0  0  0  0  0  0999 V2000
  -22.1084  -10.6415   95.9588 C   0  0  0  0  0  0  0  0  0  0  0  0
  -19.1942   -6.1232   94.7887 C   0  0  0  0  0  0  0  0  0  0  0  0
  -19.5616  -10.7748   95.1052 N   0  0  0  0  0  0  0  0  0  0  0  0
  -23.5533  -10.5264   95.7146 N   0  0  0  0  0  0  0  0  0  0  0  0
  -24.1760  -11.3895   96.0670 N   0  0  0  0  0  0  0  0  0  0  0  0
  -24.7959  -12.2554   96.4162 N   0  0  0  0  0  0  0  0  0  0  0  0
  -21.2223   -7.1249   95.4644 N   0  0  0  0  0  0  0  0  0  0  0  0
  -19.9519   -7.2560   95.0604 C   0  0  0  0  0  0  0  0  0  0  0  0
  -19.4197   -8.4689   94.8493 N   0  0  0  0  0  0  0  0  0  0  0  0
  -20.1419   -9.5811   95.0490 C   0  0  0  0  0  0  0  0  0  0  0  0
  -21.4621   -9.5094   95.4781 C   0  0  0  0  0  0  0  0  0  0  0  0
  -22.0218   -8.2536   95.6806 C   0  0  0  0  0  0  0  0  0  0  0  0
  1 11  1  0  0  0  0
  1  4  1  0  0  0  0
  2  8  1  0  0  0  0
  3 10  1  0  0  0  0
  4  5  1  0  0  0  0
  5  6  1  0  0  0  0
  7  8  2  0  0  0  0
  7 12  1  0  0  0  0
  8  9  1  0  0  0  0
  9 10  2  0  0  0  0
 10 11  1  0  0  0  0
 11 12  2  0  0  0  0
M  END
>  <CHROM.1>
-151.86876977,-179.86389695,-60.19034432,-21.48140062,-9.33858498,95.47263855
-2.38008201,0.23367024,-0.02785163

>  <Name>
ligand

>  <RI>
0

>  <Rbt.Current_Directory>
/home/itssahil/PROJECTS/Mol_Feturizer/Test_systems_manuscript/rnas/4nya

>  <Rbt.Executable>
rbdock ($Id: //depot/dev/client3/rdock/2013.1/src/exe/rbdock.cxx#4 $)

>  <Rbt.Library>
libRbt.so (2013.1, Build901 2013/11/27)

>  <Rbt.Parameter_File>
/export/apps/rDock/src/rDock_2013.1_src/data/scripts/dock_solv.prm

>  <Rbt.Receptor>
prm/pocket_docking_2.prm

>  <SCORE>
-13.0184

>  <SCORE.INTER>
-11.7656

>  <SCORE.INTER.CONST>
1

>  <SCORE.INTER.POLAR>
0

>  <SCORE.INTER.ROT>
3

>  <SCORE.INTER.SOLV>
14.4474

>  <SCORE.INTER.VDW>
-18.2596

>  <SCORE.INTER.norm>
-0.980469

>  <SCORE.INTRA>
-1.25274

>  <SCORE.INTRA.DIHEDRAL>
-2.2295

>  <SCORE.INTRA.DIHEDRAL.0>
3.34563

>  <SCORE.INTRA.POLAR>
0

>  <SCORE.INTRA.POLAR.0>
0

>  <SCORE.INTRA.REPUL>
0

>  <SCORE.INTRA.REPUL.0>
0

>  <SCORE.INTRA.SOLV>
-1.26516

>  <SCORE.INTRA.SOLV.lig_0>
-59.746

>  <SCORE.INTRA.VDW>
0.494584

>  <SCORE.INTRA.VDW.0>
-0.691186

>  <SCORE.INTRA.norm>
-0.104395

>  <SCORE.RESTR>
0

>  <SCORE.RESTR.CAVITY>
0

>  <SCORE.RESTR.norm>
0

>  <SCORE.SYSTEM>
0

>  <SCORE.SYSTEM.CONST>
0

>  <SCORE.SYSTEM.DIHEDRAL>
0

>  <SCORE.SYSTEM.SOLV>
0

>  <SCORE.SYSTEM.norm>
0

>  <SCORE.heavy>
12

>  <SCORE.norm>
-1.08486

>  <RMSD>
1.046

$$$$
ligand
 OpenBabel02271912143D
libRbt.so/2013.1/901 2013/11/27
 12 12  0  0  0  0  0  0  0  0999 V2000
  -22.1178  -10.6486   95.9530 C   0  0  0  0  0  0  0  0  0  0  0  0
  -19.1970   -6.1361   94.7765 C   0  0  0  0  0  0  0  0  0  0  0  0
  -19.5604  -10.7853   95.1322 N   0  0  0  0  0  0  0  0  0  0  0  0
  -23.5614  -10.5325   95.7015 N   0  0  0  0  0  0  0  0  0  0  0  0
  -24.1938  -11.3644   96.1074 N   0  0  0  0  0  0  0  0  0  0  0  0
  -24.8247  -12.1947   96.5180 N   0  0  0  0  0  0  0  0  0  0  0  0
  -21.2316   -7.1352   95.4365 N   0  0  0  0  0  0  0  0  0  0  0  0
  -19.9561   -7.2677   95.0495 C   0  0  0  0  0  0  0  0  0  0  0  0
  -19.4192   -8.4817   94.8564 N   0  0  0  0  0  0  0  0  0  0  0  0
  -20.1420   -9.5932   95.0576 C   0  0  0  0  0  0  0  0  0  0  0  0
  -21.4675   -9.5199   95.4697 C   0  0  0  0  0  0  0  0  0  0  0  0
  -22.0318   -8.2633   95.6534 C   0  0  0  0  0  0  0  0  0  0  0  0
  1 11  1  0  0  0  0
  1  4  1  0  0  0  0
  2  8  1  0  0  0  0
  3 10  1  0  0  0  0
  4  5  1  0  0  0  0
  5  6  1  0  0  0  0
  7  8  2  0  0  0  0
  7 12  1  0  0  0  0
  8  9  1  0  0  0  0
  9 10  2  0  0  0  0
 10 11  1  0  0  0  0
 11 12  2  0  0  0  0
M  END
>  <CHROM.1>
-152.41407951,-176.46940371,63.34207445,-21.48934610,-9.33968084,95.47991647
-2.38626636,0.23295013,-0.04163643

>  <Name>
ligand

>  <RI>
0

>  <Rbt.Current_Directory>
/home/itssahil/PROJECTS/Mol_Feturizer/Test_systems_manuscript/rnas/4nya

>  <Rbt.Executable>
rbdock ($Id: //depot/dev/client3/rdock/2013.1/src/exe/rbdock.cxx#4 $)

>  <Rbt.Library>
libRbt.so (2013.1, Build901 2013/11/27)

>  <Rbt.Parameter_File>
/export/apps/rDock/src/rDock_2013.1_src/data/scripts/dock_solv.prm

>  <Rbt.Receptor>
prm/pocket_docking_3.prm

>  <SCORE>
-13.0319

>  <SCORE.INTER>
-11.793

>  <SCORE.INTER.CONST>
1

>  <SCORE.INTER.POLAR>
0

>  <SCORE.INTER.ROT>
3

>  <SCORE.INTER.SOLV>
14.4386

>  <SCORE.INTER.VDW>
-18.2749

>  <SCORE.INTER.norm>
-0.982748

>  <SCORE.INTRA>
-1.23896

>  <SCORE.INTRA.DIHEDRAL>
-2.22024

>  <SCORE.INTRA.DIHEDRAL.0>
3.34563

>  <SCORE.INTRA.POLAR>
0

>  <SCORE.INTRA.POLAR.0>
0

>  <SCORE.INTRA.REPUL>
0

>  <SCORE.INTRA.REPUL.0>
0

>  <SCORE.INTRA.SOLV>
-1.26198

>  <SCORE.INTRA.SOLV.lig_0>
-59.746

>  <SCORE.INTRA.VDW>
0.502148

>  <SCORE.INTRA.VDW.0>
-0.691186

>  <SCORE.INTRA.norm>
-0.103247

>  <SCORE.RESTR>
0

>  <SCORE.RESTR.CAVITY>
0

>  <SCORE.RESTR.norm>
0

>  <SCORE.SYSTEM>
0

>  <SCORE.SYSTEM.CONST>
0

>  <SCORE.SYSTEM.DIHEDRAL>
0

>  <SCORE.SYSTEM.SOLV>
0

>  <SCORE.SYSTEM.norm>
0

>  <SCORE.heavy>
12

>  <SCORE.norm>
-1.086

>  <RMSD>
1.046

$$$$
ligand
 OpenBabel02271912143D
libRbt.so/2013.1/901 2013/11/27
 12 12  0  0  0  0  0  0  0  0999 V2000
  -22.1171  -10.6752   95.9771 C   0  0  0  0  0  0  0  0  0  0  0  0
  -19.2074   -6.1620   94.7761 C   0  0  0  0  0  0  0  0  0  0  0  0
  -19.5530  -10.8088   95.1770 N   0  0  0  0  0  0  0  0  0  0  0  0
  -23.5658  -10.5406   95.7682 N   0  0  0  0  0  0  0  0  0  0  0  0
  -24.1993  -11.3456   96.2237 N   0  0  0  0  0  0  0  0  0  0  0  0
  -24.8368  -12.1481   96.6772 N   0  0  0  0  0  0  0  0  0  0  0  0
  -21.2426   -7.1634   95.4310 N   0  0  0  0  0  0  0  0  0  0  0  0
  -19.9636   -7.2941   95.0550 C   0  0  0  0  0  0  0  0  0  0  0  0
  -19.4199   -8.5076   94.8785 N   0  0  0  0  0  0  0  0  0  0  0  0
  -20.1392   -9.6202   95.0857 C   0  0  0  0  0  0  0  0  0  0  0  0
  -21.4681   -9.5487   95.4870 C   0  0  0  0  0  0  0  0  0  0  0  0
  -22.0394   -8.2927   95.6535 C   0  0  0  0  0  0  0  0  0  0  0  0
  1 11  1  0  0  0  0
  1  4  1  0  0  0  0
  2  8  1  0  0  0  0
  3 10  1  0  0  0  0
  4  5  1  0  0  0  0
  5  6  1  0  0  0  0
  7  8  2  0  0  0  0
  7 12  1  0  0  0  0
  8  9  1  0  0  0  0
  9 10  2  0  0  0  0
 10 11  1  0  0  0  0
 11 12  2  0  0  0  0
M  END
>  <CHROM.1>
-154.96435533,-173.79945393,-178.13889713,-21.49351697,-9.35449258,95.52086106
-2.39211725,0.24216886,-0.05738936

>  <Name>
ligand

>  <RI>
0

>  <Rbt.Current_Directory>
/home/itssahil/PROJECTS/Mol_Feturizer/Test_systems_manuscript/rnas/4nya

>  <Rbt.Executable>
rbdock ($Id: //depot/dev/client3/rdock/2013.1/src/exe/rbdock.cxx#4 $)

>  <Rbt.Library>
libRbt.so (2013.1, Build901 2013/11/27)

>  <Rbt.Parameter_File>
/export/apps/rDock/src/rDock_2013.1_src/data/scripts/dock_solv.prm

>  <Rbt.Receptor>
prm/pocket_docking_3.prm

>  <SCORE>
-12.9835

>  <SCORE.INTER>
-11.7644

>  <SCORE.INTER.CONST>
1

>  <SCORE.INTER.POLAR>
0

>  <SCORE.INTER.ROT>
3

>  <SCORE.INTER.SOLV>
14.4073

>  <SCORE.INTER.VDW>
-18.2454

>  <SCORE.INTER.norm>
-0.98037

>  <SCORE.INTRA>
-1.2191

>  <SCORE.INTRA.DIHEDRAL>
-2.21371

>  <SCORE.INTRA.DIHEDRAL.0>
3.34563

>  <SCORE.INTRA.POLAR>
0

>  <SCORE.INTRA.POLAR.0>
0

>  <SCORE.INTRA.REPUL>
0

>  <SCORE.INTRA.REPUL.0>
0

>  <SCORE.INTRA.SOLV>
-1.27277

>  <SCORE.INTRA.SOLV.lig_0>
-59.746

>  <SCORE.INTRA.VDW>
0.524131

>  <SCORE.INTRA.VDW.0>
-0.691186

>  <SCORE.INTRA.norm>
-0.101592

>  <SCORE.RESTR>
0

>  <SCORE.RESTR.CAVITY>
0

>  <SCORE.RESTR.norm>
0

>  <SCORE.SYSTEM>
0

>  <SCORE.SYSTEM.CONST>
0

>  <SCORE.SYSTEM.DIHEDRAL>
0

>  <SCORE.SYSTEM.SOLV>
0

>  <SCORE.SYSTEM.norm>
0

>  <SCORE.heavy>
12

>  <SCORE.norm>
-1.08196

>  <RMSD>
1.046

$$$$
ligand
 OpenBabel02271912143D
libRbt.so/2013.1/901 2013/11/27
 12 12  0  0  0  0  0  0  0  0999 V2000
  -22.0839  -10.7054   95.9382 C   0  0  0  0  0  0  0  0  0  0  0  0
  -19.1976   -6.1673   94.7753 C   0  0  0  0  0  0  0  0  0  0  0  0
  -19.5652  -10.8241   95.0030 N   0  0  0  0  0  0  0  0  0  0  0  0
  -23.5330  -10.5939   95.7186 N   0  0  0  0  0  0  0  0  0  0  0  0
  -24.1600  -11.3892   96.1992 N   0  0  0  0  0  0  0  0  0  0  0  0
  -24.7852  -12.1829   96.6843 N   0  0  0  0  0  0  0  0  0  0  0  0
  -21.2060   -7.1804   95.4922 N   0  0  0  0  0  0  0  0  0  0  0  0
  -19.9490   -7.3046   95.0461 C   0  0  0  0  0  0  0  0  0  0  0  0
  -19.4262   -8.5135   94.7925 N   0  0  0  0  0  0  0  0  0  0  0  0
  -20.1443   -9.6286   94.9906 C   0  0  0  0  0  0  0  0  0  0  0  0
  -21.4504   -9.5642   95.4620 C   0  0  0  0  0  0  0  0  0  0  0  0
  -22.0008   -8.3122   95.7088 C   0  0  0  0  0  0  0  0  0  0  0  0
  1 11  1  0  0  0  0
  1  4  1  0  0  0  0
  2  8  1  0  0  0  0
  3 10  1  0  0  0  0
  4  5  1  0  0  0  0
  5  6  1  0  0  0  0
  7  8  2  0  0  0  0
  7 12  1  0  0  0  0
  8  9  1  0  0  0  0
  9 10  2  0  0  0  0
 10 11  1  0  0  0  0
 11 12  2  0  0  0  0
M  END
>  <CHROM.1>
-150.81000901,-171.32080937,61.30220120,-21.47248691,-9.37641169,95.48881859
-2.39591284,0.28440304,-0.01244889

>  <Name>
ligand

>  <RI>
0

>  <Rbt.Current_Directory>
/home/itssahil/PROJECTS/Mol_Feturizer/Test_systems_manuscript/rnas/4nya

>  <Rbt.Executable>
rbdock ($Id: //depot/dev/client3/rdock/2013.1/src/exe/rbdock.cxx#4 $)

>  <Rbt.Library>
libRbt.so (2013.1, Build901 2013/11/27)

>  <Rbt.Parameter_File>
/export/apps/rDock/src/rDock_2013.1_src/data/scripts/dock_solv.prm

>  <Rbt.Receptor>
prm/pocket_docking_8.prm

>  <SCORE>
-13.0646

>  <SCORE.INTER>
-11.8235

>  <SCORE.INTER.CONST>
1

>  <SCORE.INTER.POLAR>
0

>  <SCORE.INTER.ROT>
3

>  <SCORE.INTER.SOLV>
14.5124

>  <SCORE.INTER.VDW>
-18.3198

>  <SCORE.INTER.norm>
-0.985291

>  <SCORE.INTRA>
-1.2411

>  <SCORE.INTRA.DIHEDRAL>
-2.1591

>  <SCORE.INTRA.DIHEDRAL.0>
3.34563

>  <SCORE.INTRA.POLAR>
0

>  <SCORE.INTRA.POLAR.0>
0

>  <SCORE.INTRA.REPUL>
0

>  <SCORE.INTRA.REPUL.0>
0

>  <SCORE.INTRA.SOLV>
-1.23978

>  <SCORE.INTRA.SOLV.lig_0>
-59.746

>  <SCORE.INTRA.VDW>
0.458342

>  <SCORE.INTRA.VDW.0>
-0.691186

>  <SCORE.INTRA.norm>
-0.103425

>  <SCORE.RESTR>
0

>  <SCORE.RESTR.CAVITY>
0

>  <SCORE.RESTR.norm>
0

>  <SCORE.SYSTEM>
0

>  <SCORE.SYSTEM.CONST>
0

>  <SCORE.SYSTEM.DIHEDRAL>
0

>  <SCORE.SYSTEM.SOLV>
0

>  <SCORE.SYSTEM.norm>
0

>  <SCORE.heavy>
12

>  <SCORE.norm>
-1.08872

>  <RMSD>
1.047

$$$$
ligand
 OpenBabel02271912143D
libRbt.so/2013.1/901 2013/11/27
 12 12  0  0  0  0  0  0  0  0999 V2000
  -22.1369  -10.6325   95.9093 C   0  0  0  0  0  0  0  0  0  0  0  0
  -19.1811   -6.1263   94.7981 C   0  0  0  0  0  0  0  0  0  0  0  0
  -19.5405  -10.7700   95.2219 N   0  0  0  0  0  0  0  0  0  0  0  0
  -23.3416  -10.8653   95.1000 N   0  0  0  0  0  0  0  0  0  0  0  0
  -24.3113  -10.5615   95.5734 N   0  0  0  0  0  0  0  0  0  0  0  0
  -25.2832  -10.2596   96.0426 N   0  0  0  0  0  0  0  0  0  0  0  0
  -21.2419   -7.1244   95.3727 N   0  0  0  0  0  0  0  0  0  0  0  0
  -19.9478   -7.2569   95.0534 C   0  0  0  0  0  0  0  0  0  0  0  0
  -19.3962   -8.4711   94.9105 N   0  0  0  0  0  0  0  0  0  0  0  0
  -20.1231   -9.5828   95.0956 C   0  0  0  0  0  0  0  0  0  0  0  0
  -21.4681   -9.5093   95.4385 C   0  0  0  0  0  0  0  0  0  0  0  0
  -22.0469   -8.2526   95.5698 C   0  0  0  0  0  0  0  0  0  0  0  0
  1 11  1  0  0  0  0
  1  4  1  0  0  0  0
  2  8  1  0  0  0  0
  3 10  1  0  0  0  0
  4  5  1  0  0  0  0
  5  6  1  0  0  0  0
  7  8  2  0  0  0  0
  7 12  1  0  0  0  0
  8  9  1  0  0  0  0
  9 10  2  0  0  0  0
 10 11  1  0  0  0  0
 11 12  2  0  0  0  0
M  END
>  <CHROM.1>
-126.11818258,-103.25870782,-175.47586346,-21.51679885,-9.12194851,95.33962727
-2.53453409,0.13524019,-0.02847897

>  <Name>
ligand

>  <RI>
0

>  <Rbt.Current_Directory>
/home/itssahil/PROJECTS/Mol_Feturizer/Test_systems_manuscript/rnas/4nya

>  <Rbt.Executable>
rbdock ($Id: //depot/dev/client3/rdock/2013.1/src/exe/rbdock.cxx#4 $)

>  <Rbt.Library>
libRbt.so (2013.1, Build901 2013/11/27)

>  <Rbt.Parameter_File>
/export/apps/rDock/src/rDock_2013.1_src/data/scripts/dock_solv.prm

>  <Rbt.Receptor>
prm/pocket_docking_6.prm

>  <SCORE>
-12.2657

>  <SCORE.INTER>
-11.8104

>  <SCORE.INTER.CONST>
1

>  <SCORE.INTER.POLAR>
0

>  <SCORE.INTER.ROT>
3

>  <SCORE.INTER.SOLV>
14.9646

>  <SCORE.INTER.VDW>
-18.4618

>  <SCORE.INTER.norm>
-0.984203

>  <SCORE.INTRA>
-0.45523

>  <SCORE.INTRA.DIHEDRAL>
-0.65634

>  <SCORE.INTRA.DIHEDRAL.0>
3.34563

>  <SCORE.INTRA.POLAR>
0

>  <SCORE.INTRA.POLAR.0>
0

>  <SCORE.INTRA.REPUL>
0

>  <SCORE.INTRA.REPUL.0>
0

>  <SCORE.INTRA.SOLV>
-0.403519

>  <SCORE.INTRA.SOLV.lig_0>
-59.746

>  <SCORE.INTRA.VDW>
0.0746991

>  <SCORE.INTRA.VDW.0>
-0.691186

>  <SCORE.INTRA.norm>
-0.0379359

>  <SCORE.RESTR>
0

>  <SCORE.RESTR.CAVITY>
0

>  <SCORE.RESTR.norm>
0

>  <SCORE.SYSTEM>
0

>  <SCORE.SYSTEM.CONST>
0

>  <SCORE.SYSTEM.DIHEDRAL>
0

>  <SCORE.SYSTEM.SOLV>
0

>  <SCORE.SYSTEM.norm>
0

>  <SCORE.heavy>
12

>  <SCORE.norm>
-1.02214

>  <RMSD>
1.049

$$$$
ligand
 OpenBabel02271912143D
libRbt.so/2013.1/901 2013/11/27
 12 12  0  0  0  0  0  0  0  0999 V2000
  -22.1248  -10.6321   95.9056 C   0  0  0  0  0  0  0  0  0  0  0  0
  -19.1940   -6.1288   94.7187 C   0  0  0  0  0  0  0  0  0  0  0  0
  -19.5632  -10.7755   95.0993 N   0  0  0  0  0  0  0  0  0  0  0  0
  -23.5595  -10.5408   95.5992 N   0  0  0  0  0  0  0  0  0  0  0  0
  -24.1998  -11.3579   96.0223 N   0  0  0  0  0  0  0  0  0  0  0  0
  -24.8440  -12.1726   96.4433 N   0  0  0  0  0  0  0  0  0  0  0  0
  -21.2330   -7.1225   95.3736 N   0  0  0  0  0  0  0  0  0  0  0  0
  -19.9555   -7.2582   94.9942 C   0  0  0  0  0  0  0  0  0  0  0  0
  -19.4186   -8.4737   94.8110 N   0  0  0  0  0  0  0  0  0  0  0  0
  -20.1434   -9.5834   95.0147 C   0  0  0  0  0  0  0  0  0  0  0  0
  -21.4710   -9.5067   95.4193 C   0  0  0  0  0  0  0  0  0  0  0  0
  -22.0353   -8.2486   95.5927 C   0  0  0  0  0  0  0  0  0  0  0  0
  1 11  1  0  0  0  0
  1  4  1  0  0  0  0
  2  8  1  0  0  0  0
  3 10  1  0  0  0  0
  4  5  1  0  0  0  0
  5  6  1  0  0  0  0
  7  8  2  0  0  0  0
  7 12  1  0  0  0  0
  8  9  1  0  0  0  0
  9 10  2  0  0  0  0
 10 11  1  0  0  0  0
 11 12  2  0  0  0  0
M  END
>  <CHROM.1>
-150.21721549,-175.07534608,177.09676448,-21.49261539,-9.32964000,95.41975161
-2.38588042,0.22268132,-0.04592957

>  <Name>
ligand

>  <RI>
0

>  <Rbt.Current_Directory>
/home/itssahil/PROJECTS/Mol_Feturizer/Test_systems_manuscript/rnas/4nya

>  <Rbt.Executable>
rbdock ($Id: //depot/dev/client3/rdock/2013.1/src/exe/rbdock.cxx#4 $)

>  <Rbt.Library>
libRbt.so (2013.1, Build901 2013/11/27)

>  <Rbt.Parameter_File>
/export/apps/rDock/src/rDock_2013.1_src/data/scripts/dock_solv.prm

>  <Rbt.Receptor>
prm/pocket_docking_6.prm

>  <SCORE>
-12.9945

>  <SCORE.INTER>
-11.7406

>  <SCORE.INTER.CONST>
1

>  <SCORE.INTER.POLAR>
0

>  <SCORE.INTER.ROT>
3

>  <SCORE.INTER.SOLV>
14.5325

>  <SCORE.INTER.VDW>
-18.2713

>  <SCORE.INTER.norm>
-0.978386

>  <SCORE.INTRA>
-1.25386

>  <SCORE.INTRA.DIHEDRAL>
-2.1925

>  <SCORE.INTRA.DIHEDRAL.0>
3.34563

>  <SCORE.INTRA.POLAR>
0

>  <SCORE.INTRA.POLAR.0>
0

>  <SCORE.INTRA.REPUL>
0

>  <SCORE.INTRA.REPUL.0>
0

>  <SCORE.INTRA.SOLV>
-1.24899

>  <SCORE.INTRA.SOLV.lig_0>
-59.746

>  <SCORE.INTRA.VDW>
0.466881

>  <SCORE.INTRA.VDW.0>
-0.691186

>  <SCORE.INTRA.norm>
-0.104488

>  <SCORE.RESTR>
0

>  <SCORE.RESTR.CAVITY>
0

>  <SCORE.RESTR.norm>
0

>  <SCORE.SYSTEM>
0

>  <SCORE.SYSTEM.CONST>
0

>  <SCORE.SYSTEM.DIHEDRAL>
0

>  <SCORE.SYSTEM.SOLV>
0

>  <SCORE.SYSTEM.norm>
0

>  <SCORE.heavy>
12

>  <SCORE.norm>
-1.08287

>  <RMSD>
1.050

$$$$
ligand
 OpenBabel02271912143D
libRbt.so/2013.1/901 2013/11/27
 12 12  0  0  0  0  0  0  0  0999 V2000
  -22.1086  -10.6321   95.9029 C   0  0  0  0  0  0  0  0  0  0  0  0
  -19.2006   -6.1130   94.7203 C   0  0  0  0  0  0  0  0  0  0  0  0
  -19.5339  -10.7594   95.1364 N   0  0  0  0  0  0  0  0  0  0  0  0
  -23.5339  -10.5703   95.5493 N   0  0  0  0  0  0  0  0  0  0  0  0
  -24.1841  -11.3575   96.0123 N   0  0  0  0  0  0  0  0  0  0  0  0
  -24.8327  -12.1429   96.4797 N   0  0  0  0  0  0  0  0  0  0  0  0
  -21.2402   -7.1193   95.3533 N   0  0  0  0  0  0  0  0  0  0  0  0
  -19.9560   -7.2468   94.9943 C   0  0  0  0  0  0  0  0  0  0  0  0
  -19.4056   -8.4589   94.8299 N   0  0  0  0  0  0  0  0  0  0  0  0
  -20.1233   -9.5734   95.0326 C   0  0  0  0  0  0  0  0  0  0  0  0
  -21.4576   -9.5052   95.4165 C   0  0  0  0  0  0  0  0  0  0  0  0
  -22.0356   -8.2507   95.5703 C   0  0  0  0  0  0  0  0  0  0  0  0
  1 11  1  0  0  0  0
  1  4  1  0  0  0  0
  2  8  1  0  0  0  0
  3 10  1  0  0  0  0
  4  5  1  0  0  0  0
  5  6  1  0  0  0  0
  7  8  2  0  0  0  0
  7 12  1  0  0  0  0
  8  9  1  0  0  0  0
  9 10  2  0  0  0  0
 10 11  1  0  0  0  0
 11 12  2  0  0  0  0
M  END
>  <CHROM.1>
-149.01717979,-171.87318605,59.94451200,-21.48174552,-9.32360116,95.42018621
-2.38145979,0.21168928,-0.05793144

>  <Name>
ligand

>  <RI>
0

>  <Rbt.Current_Directory>
/home/itssahil/PROJECTS/Mol_Feturizer/Test_systems_manuscript/rnas/4nya

>  <Rbt.Executable>
rbdock ($Id: //depot/dev/client3/rdock/2013.1/src/exe/rbdock.cxx#4 $)

>  <Rbt.Library>
libRbt.so (2013.1, Build901 2013/11/27)

>  <Rbt.Parameter_File>
/export/apps/rDock/src/rDock_2013.1_src/data/scripts/dock_solv.prm

>  <Rbt.Receptor>
prm/pocket_docking_7.prm

>  <SCORE>
-12.9669

>  <SCORE.INTER>
-11.7274

>  <SCORE.INTER.CONST>
1

>  <SCORE.INTER.POLAR>
0

>  <SCORE.INTER.ROT>
3

>  <SCORE.INTER.SOLV>
14.6686

>  <SCORE.INTER.VDW>
-18.3078

>  <SCORE.INTER.norm>
-0.977281

>  <SCORE.INTRA>
-1.2395

>  <SCORE.INTRA.DIHEDRAL>
-2.14774

>  <SCORE.INTRA.DIHEDRAL.0>
3.34563

>  <SCORE.INTRA.POLAR>
0

>  <SCORE.INTRA.POLAR.0>
0

>  <SCORE.INTRA.REPUL>
0

>  <SCORE.INTRA.REPUL.0>
0

>  <SCORE.INTRA.SOLV>
-1.22978

>  <SCORE.INTRA.SOLV.lig_0>
-59.746

>  <SCORE.INTRA.VDW>
0.449262

>  <SCORE.INTRA.VDW.0>
-0.691186

>  <SCORE.INTRA.norm>
-0.103291

>  <SCORE.RESTR>
0

>  <SCORE.RESTR.CAVITY>
0

>  <SCORE.RESTR.norm>
0

>  <SCORE.SYSTEM>
0

>  <SCORE.SYSTEM.CONST>
0

>  <SCORE.SYSTEM.DIHEDRAL>
0

>  <SCORE.SYSTEM.SOLV>
0

>  <SCORE.SYSTEM.norm>
0

>  <SCORE.heavy>
12

>  <SCORE.norm>
-1.08057

>  <RMSD>
1.050

$$$$
ligand
 OpenBabel02271912143D
libRbt.so/2013.1/901 2013/11/27
 12 12  0  0  0  0  0  0  0  0999 V2000
  -22.0807  -10.7017   95.9422 C   0  0  0  0  0  0  0  0  0  0  0  0
  -19.1942   -6.1641   94.7774 C   0  0  0  0  0  0  0  0  0  0  0  0
  -19.5604  -10.8208   95.0111 N   0  0  0  0  0  0  0  0  0  0  0  0
  -23.5317  -10.5810   95.7410 N   0  0  0  0  0  0  0  0  0  0  0  0
  -24.1559  -11.3860   96.2093 N   0  0  0  0  0  0  0  0  0  0  0  0
  -24.7840  -12.1885   96.6755 N   0  0  0  0  0  0  0  0  0  0  0  0
  -21.2033   -7.1769   95.4926 N   0  0  0  0  0  0  0  0  0  0  0  0
  -19.9456   -7.3013   95.0486 C   0  0  0  0  0  0  0  0  0  0  0  0
  -19.4220   -8.5104   94.7976 N   0  0  0  0  0  0  0  0  0  0  0  0
  -20.1400   -9.6255   94.9961 C   0  0  0  0  0  0  0  0  0  0  0  0
  -21.4468   -9.5609   95.4654 C   0  0  0  0  0  0  0  0  0  0  0  0
  -21.9981   -8.3088   95.7095 C   0  0  0  0  0  0  0  0  0  0  0  0
  1 11  1  0  0  0  0
  1  4  1  0  0  0  0
  2  8  1  0  0  0  0
  3 10  1  0  0  0  0
  4  5  1  0  0  0  0
  5  6  1  0  0  0  0
  7  8  2  0  0  0  0
  7 12  1  0  0  0  0
  8  9  1  0  0  0  0
  9 10  2  0  0  0  0
 10 11  1  0  0  0  0
 11 12  2  0  0  0  0
M  END
>  <CHROM.1>
-151.77262077,-172.35046631,-178.85788272,-21.46926019,-9.37303135,95.49348417
-2.39550697,0.28331755,-0.01399169

>  <Name>
ligand

>  <RI>
0

>  <Rbt.Current_Directory>
/home/itssahil/PROJECTS/Mol_Feturizer/Test_systems_manuscript/rnas/4nya

>  <Rbt.Executable>
rbdock ($Id: //depot/dev/client3/rdock/2013.1/src/exe/rbdock.cxx#4 $)

>  <Rbt.Library>
libRbt.so (2013.1, Build901 2013/11/27)

>  <Rbt.Parameter_File>
/export/apps/rDock/src/rDock_2013.1_src/data/scripts/dock_solv.prm

>  <Rbt.Receptor>
prm/pocket_docking_7.prm

>  <SCORE>
-13.0662

>  <SCORE.INTER>
-11.8223

>  <SCORE.INTER.CONST>
1

>  <SCORE.INTER.POLAR>
0

>  <SCORE.INTER.ROT>
3

>  <SCORE.INTER.SOLV>
14.5087

>  <SCORE.INTER.VDW>
-18.3178

>  <SCORE.INTER.norm>
-0.985194

>  <SCORE.INTRA>
-1.24387

>  <SCORE.INTRA.DIHEDRAL>
-2.18093

>  <SCORE.INTRA.DIHEDRAL.0>
3.34563

>  <SCORE.INTRA.POLAR>
0

>  <SCORE.INTRA.POLAR.0>
0

>  <SCORE.INTRA.REPUL>
0

>  <SCORE.INTRA.REPUL.0>
0

>  <SCORE.INTRA.SOLV>
-1.25163

>  <SCORE.INTRA.SOLV.lig_0>
-59.746

>  <SCORE.INTRA.VDW>
0.472407

>  <SCORE.INTRA.VDW.0>
-0.691186

>  <SCORE.INTRA.norm>
-0.103656

>  <SCORE.RESTR>
0

>  <SCORE.RESTR.CAVITY>
0

>  <SCORE.RESTR.norm>
0

>  <SCORE.SYSTEM>
0

>  <SCORE.SYSTEM.CONST>
0

>  <SCORE.SYSTEM.DIHEDRAL>
0

>  <SCORE.SYSTEM.SOLV>
0

>  <SCORE.SYSTEM.norm>
0

>  <SCORE.heavy>
12

>  <SCORE.norm>
-1.08885

>  <RMSD>
1.051

$$$$
ligand
 OpenBabel02271912143D
libRbt.so/2013.1/901 2013/11/27
 12 12  0  0  0  0  0  0  0  0999 V2000
  -22.0862  -10.7135   95.9086 C   0  0  0  0  0  0  0  0  0  0  0  0
  -19.1971   -6.1672   94.7851 C   0  0  0  0  0  0  0  0  0  0  0  0
  -19.5741  -10.8258   94.9548 N   0  0  0  0  0  0  0  0  0  0  0  0
  -23.5376  -10.5905   95.7116 N   0  0  0  0  0  0  0  0  0  0  0  0
  -24.1633  -11.3809   96.2022 N   0  0  0  0  0  0  0  0  0  0  0  0
  -24.7870  -12.1695   96.6972 N   0  0  0  0  0  0  0  0  0  0  0  0
  -21.2029   -7.1849   95.5024 N   0  0  0  0  0  0  0  0  0  0  0  0
  -19.9493   -7.3062   95.0462 C   0  0  0  0  0  0  0  0  0  0  0  0
  -19.4311   -8.5129   94.7734 N   0  0  0  0  0  0  0  0  0  0  0  0
  -20.1505   -9.6288   94.9619 C   0  0  0  0  0  0  0  0  0  0  0  0
  -21.4532   -9.5676   95.4430 C   0  0  0  0  0  0  0  0  0  0  0  0
  -21.9989   -8.3177   95.7097 C   0  0  0  0  0  0  0  0  0  0  0  0
  1 11  1  0  0  0  0
  1  4  1  0  0  0  0
  2  8  1  0  0  0  0
  3 10  1  0  0  0  0
  4  5  1  0  0  0  0
  5  6  1  0  0  0  0
  7  8  2  0  0  0  0
  7 12  1  0  0  0  0
  8  9  1  0  0  0  0
  9 10  2  0  0  0  0
 10 11  1  0  0  0  0
 11 12  2  0  0  0  0
M  END
>  <CHROM.1>
-151.33056910,-170.31956135,61.54773298,-21.47494454,-9.37619765,95.47946018
-2.40135362,0.29597452,0.00007239

>  <Name>
ligand

>  <RI>
0

>  <Rbt.Current_Directory>
/home/itssahil/PROJECTS/Mol_Feturizer/Test_systems_manuscript/rnas/4nya

>  <Rbt.Executable>
rbdock ($Id: //depot/dev/client3/rdock/2013.1/src/exe/rbdock.cxx#4 $)

>  <Rbt.Library>
libRbt.so (2013.1, Build901 2013/11/27)

>  <Rbt.Parameter_File>
/export/apps/rDock/src/rDock_2013.1_src/data/scripts/dock_solv.prm

>  <Rbt.Receptor>
prm/pocket_docking_3.prm

>  <SCORE>
-13.0736

>  <SCORE.INTER>
-11.8446

>  <SCORE.INTER.CONST>
1

>  <SCORE.INTER.POLAR>
0

>  <SCORE.INTER.ROT>
3

>  <SCORE.INTER.SOLV>
14.5111

>  <SCORE.INTER.VDW>
-18.3334

>  <SCORE.INTER.norm>
-0.987051

>  <SCORE.INTRA>
-1.22902

>  <SCORE.INTRA.DIHEDRAL>
-2.14904

>  <SCORE.INTRA.DIHEDRAL.0>
3.34563

>  <SCORE.INTRA.POLAR>
0

>  <SCORE.INTRA.POLAR.0>
0

>  <SCORE.INTRA.REPUL>
0

>  <SCORE.INTRA.REPUL.0>
0

>  <SCORE.INTRA.SOLV>
-1.2401

>  <SCORE.INTRA.SOLV.lig_0>
-59.746

>  <SCORE.INTRA.VDW>
0.465544

>  <SCORE.INTRA.VDW.0>
-0.691186

>  <SCORE.INTRA.norm>
-0.102419

>  <SCORE.RESTR>
0

>  <SCORE.RESTR.CAVITY>
0

>  <SCORE.RESTR.norm>
0

>  <SCORE.SYSTEM>
0

>  <SCORE.SYSTEM.CONST>
0

>  <SCORE.SYSTEM.DIHEDRAL>
0

>  <SCORE.SYSTEM.SOLV>
0

>  <SCORE.SYSTEM.norm>
0

>  <SCORE.heavy>
12

>  <SCORE.norm>
-1.08947

>  <RMSD>
1.052

$$$$
ligand
 OpenBabel02271912143D
libRbt.so/2013.1/901 2013/11/27
 12 12  0  0  0  0  0  0  0  0999 V2000
  -22.0856  -10.6198   95.9080 C   0  0  0  0  0  0  0  0  0  0  0  0
  -19.1954   -6.0914   94.7176 C   0  0  0  0  0  0  0  0  0  0  0  0
  -19.4957  -10.7343   95.1926 N   0  0  0  0  0  0  0  0  0  0  0  0
  -23.1888  -10.9839   95.0075 N   0  0  0  0  0  0  0  0  0  0  0  0
  -24.2012  -10.6013   95.2998 N   0  0  0  0  0  0  0  0  0  0  0  0
  -25.2130  -10.2213   95.5964 N   0  0  0  0  0  0  0  0  0  0  0  0
  -21.2379   -7.1073   95.3257 N   0  0  0  0  0  0  0  0  0  0  0  0
  -19.9459   -7.2281   94.9930 C   0  0  0  0  0  0  0  0  0  0  0  0
  -19.3818   -8.4373   94.8563 N   0  0  0  0  0  0  0  0  0  0  0  0
  -20.0935   -9.5553   95.0609 C   0  0  0  0  0  0  0  0  0  0  0  0
  -21.4354   -9.4939   95.4183 C   0  0  0  0  0  0  0  0  0  0  0  0
  -22.0273   -8.2427   95.5434 C   0  0  0  0  0  0  0  0  0  0  0  0
  1 11  1  0  0  0  0
  1  4  1  0  0  0  0
  2  8  1  0  0  0  0
  3 10  1  0  0  0  0
  4  5  1  0  0  0  0
  5  6  1  0  0  0  0
  7  8  2  0  0  0  0
  7 12  1  0  0  0  0
  8  9  1  0  0  0  0
  9 10  2  0  0  0  0
 10 11  1  0  0  0  0
 11 12  2  0  0  0  0
M  END
>  <CHROM.1>
-118.36973817,-96.24261136,-59.68603384,-21.47298664,-9.11439981,95.23950366
-2.50680526,0.08284388,-0.04324138

>  <Name>
ligand

>  <RI>
0

>  <Rbt.Current_Directory>
/home/itssahil/PROJECTS/Mol_Feturizer/Test_systems_manuscript/rnas/4nya

>  <Rbt.Executable>
rbdock ($Id: //depot/dev/client3/rdock/2013.1/src/exe/rbdock.cxx#4 $)

>  <Rbt.Library>
libRbt.so (2013.1, Build901 2013/11/27)

>  <Rbt.Parameter_File>
/export/apps/rDock/src/rDock_2013.1_src/data/scripts/dock_solv.prm

>  <Rbt.Receptor>
prm/blind_docking_100.prm

>  <SCORE>
-11.9078

>  <SCORE.INTER>
-11.5755

>  <SCORE.INTER.CONST>
1

>  <SCORE.INTER.POLAR>
0

>  <SCORE.INTER.ROT>
3

>  <SCORE.INTER.SOLV>
16.0334

>  <SCORE.INTER.VDW>
-18.6614

>  <SCORE.INTER.norm>
-0.964621

>  <SCORE.INTRA>
-0.3323

>  <SCORE.INTRA.DIHEDRAL>
-0.624793

>  <SCORE.INTRA.DIHEDRAL.0>
3.34563

>  <SCORE.INTRA.POLAR>
0

>  <SCORE.INTRA.POLAR.0>
0

>  <SCORE.INTRA.REPUL>
0

>  <SCORE.INTRA.REPUL.0>
0

>  <SCORE.INTRA.SOLV>
-0.117606

>  <SCORE.INTRA.SOLV.lig_0>
-59.746

>  <SCORE.INTRA.VDW>
0.0388999

>  <SCORE.INTRA.VDW.0>
-0.691186

>  <SCORE.INTRA.norm>
-0.0276916

>  <SCORE.RESTR>
0

>  <SCORE.RESTR.CAVITY>
0

>  <SCORE.RESTR.norm>
0

>  <SCORE.SYSTEM>
0

>  <SCORE.SYSTEM.CONST>
0

>  <SCORE.SYSTEM.DIHEDRAL>
0

>  <SCORE.SYSTEM.SOLV>
0

>  <SCORE.SYSTEM.norm>
0

>  <SCORE.heavy>
12

>  <SCORE.norm>
-0.992313

>  <RMSD>
1.053

$$$$
ligand
 OpenBabel02271912143D
libRbt.so/2013.1/901 2013/11/27
 12 12  0  0  0  0  0  0  0  0999 V2000
  -22.1032  -10.6369   95.9239 C   0  0  0  0  0  0  0  0  0  0  0  0
  -19.2047   -6.1214   94.7046 C   0  0  0  0  0  0  0  0  0  0  0  0
  -19.5406  -10.7678   95.1185 N   0  0  0  0  0  0  0  0  0  0  0  0
  -23.5468  -10.5309   95.6681 N   0  0  0  0  0  0  0  0  0  0  0  0
  -24.1685  -11.3919   96.0271 N   0  0  0  0  0  0  0  0  0  0  0  0
  -24.7941  -12.2504   96.3841 N   0  0  0  0  0  0  0  0  0  0  0  0
  -21.2365   -7.1249   95.3667 N   0  0  0  0  0  0  0  0  0  0  0  0
  -19.9581   -7.2542   94.9882 C   0  0  0  0  0  0  0  0  0  0  0  0
  -19.4125   -8.4671   94.8137 N   0  0  0  0  0  0  0  0  0  0  0  0
  -20.1293   -9.5805   95.0254 C   0  0  0  0  0  0  0  0  0  0  0  0
  -21.4575   -9.5104   95.4295 C   0  0  0  0  0  0  0  0  0  0  0  0
  -22.0307   -8.2551   95.5940 C   0  0  0  0  0  0  0  0  0  0  0  0
  1 11  1  0  0  0  0
  1  4  1  0  0  0  0
  2  8  1  0  0  0  0
  3 10  1  0  0  0  0
  4  5  1  0  0  0  0
  5  6  1  0  0  0  0
  7  8  2  0  0  0  0
  7 12  1  0  0  0  0
  8  9  1  0  0  0  0
  9 10  2  0  0  0  0
 10 11  1  0  0  0  0
 11 12  2  0  0  0  0
M  END
>  <CHROM.1>
-152.63793730,179.94668672,-178.04298991,-21.47917158,-9.33741328,95.42379884
-2.37446474,0.21798017,-0.05236782

>  <Name>
ligand

>  <RI>
0

>  <Rbt.Current_Directory>
/home/itssahil/PROJECTS/Mol_Feturizer/Test_systems_manuscript/rnas/4nya

>  <Rbt.Executable>
rbdock ($Id: //depot/dev/client3/rdock/2013.1/src/exe/rbdock.cxx#4 $)

>  <Rbt.Library>
libRbt.so (2013.1, Build901 2013/11/27)

>  <Rbt.Parameter_File>
/export/apps/rDock/src/rDock_2013.1_src/data/scripts/dock_solv.prm

>  <Rbt.Receptor>
prm/pocket_docking_7.prm

>  <SCORE>
-13.0164

>  <SCORE.INTER>
-11.7683

>  <SCORE.INTER.CONST>
1

>  <SCORE.INTER.POLAR>
0

>  <SCORE.INTER.ROT>
3

>  <SCORE.INTER.SOLV>
14.5943

>  <SCORE.INTER.VDW>
-18.3103

>  <SCORE.INTER.norm>
-0.980691

>  <SCORE.INTRA>
-1.2481

>  <SCORE.INTRA.DIHEDRAL>
-2.23397

>  <SCORE.INTRA.DIHEDRAL.0>
3.34563

>  <SCORE.INTRA.POLAR>
0

>  <SCORE.INTRA.POLAR.0>
0

>  <SCORE.INTRA.REPUL>
0

>  <SCORE.INTRA.REPUL.0>
0

>  <SCORE.INTRA.SOLV>
-1.27299

>  <SCORE.INTRA.SOLV.lig_0>
-59.746

>  <SCORE.INTRA.VDW>
0.505376

>  <SCORE.INTRA.VDW.0>
-0.691186

>  <SCORE.INTRA.norm>
-0.104009

>  <SCORE.RESTR>
0

>  <SCORE.RESTR.CAVITY>
0

>  <SCORE.RESTR.norm>
0

>  <SCORE.SYSTEM>
0

>  <SCORE.SYSTEM.CONST>
0

>  <SCORE.SYSTEM.DIHEDRAL>
0

>  <SCORE.SYSTEM.SOLV>
0

>  <SCORE.SYSTEM.norm>
0

>  <SCORE.heavy>
12

>  <SCORE.norm>
-1.0847

>  <RMSD>
1.053

$$$$
ligand
 OpenBabel02271912143D
libRbt.so/2013.1/901 2013/11/27
 12 12  0  0  0  0  0  0  0  0999 V2000
  -22.2038  -10.7284   96.0793 C   0  0  0  0  0  0  0  0  0  0  0  0
  -19.1438   -6.3493   94.7613 C   0  0  0  0  0  0  0  0  0  0  0  0
  -19.6760  -10.9755   95.1949 N   0  0  0  0  0  0  0  0  0  0  0  0
  -23.6500  -10.5463   95.8896 N   0  0  0  0  0  0  0  0  0  0  0  0
  -24.3088  -11.1848   96.5338 N   0  0  0  0  0  0  0  0  0  0  0  0
  -24.9653  -11.8211   97.1819 N   0  0  0  0  0  0  0  0  0  0  0  0
  -21.1972   -7.2595   95.4883 N   0  0  0  0  0  0  0  0  0  0  0  0
  -19.9383   -7.4467   95.0704 C   0  0  0  0  0  0  0  0  0  0  0  0
  -19.4538   -8.6831   94.8815 N   0  0  0  0  0  0  0  0  0  0  0  0
  -20.2132   -9.7629   95.1177 C   0  0  0  0  0  0  0  0  0  0  0  0
  -21.5236   -9.6326   95.5627 C   0  0  0  0  0  0  0  0  0  0  0  0
  -22.0341   -8.3526   95.7424 C   0  0  0  0  0  0  0  0  0  0  0  0
  1 11  1  0  0  0  0
  1  4  1  0  0  0  0
  2  8  1  0  0  0  0
  3 10  1  0  0  0  0
  4  5  1  0  0  0  0
  5  6  1  0  0  0  0
  7  8  2  0  0  0  0
  7 12  1  0  0  0  0
  8  9  1  0  0  0  0
  9 10  2  0  0  0  0
 10 11  1  0  0  0  0
 11 12  2  0  0  0  0
M  END
>  <CHROM.1>
-153.63580223,-161.50900690,58.82532969,-21.54018763,-9.40551953,95.63234386
-2.45906705,0.30755628,-0.05387117

>  <Name>
ligand

>  <RI>
0

>  <Rbt.Current_Directory>
/home/itssahil/PROJECTS/Mol_Feturizer/Test_systems_manuscript/rnas/4nya

>  <Rbt.Executable>
rbdock ($Id: //depot/dev/client3/rdock/2013.1/src/exe/rbdock.cxx#4 $)

>  <Rbt.Library>
libRbt.so (2013.1, Build901 2013/11/27)

>  <Rbt.Parameter_File>
/export/apps/rDock/src/rDock_2013.1_src/data/scripts/dock_solv.prm

>  <Rbt.Receptor>
prm/pocket_docking_7.prm

>  <SCORE>
-12.9297

>  <SCORE.INTER>
-11.822

>  <SCORE.INTER.CONST>
1

>  <SCORE.INTER.POLAR>
0

>  <SCORE.INTER.ROT>
3

>  <SCORE.INTER.SOLV>
13.5998

>  <SCORE.INTER.VDW>
-18.0146

>  <SCORE.INTER.norm>
-0.985166

>  <SCORE.INTRA>
-1.10768

>  <SCORE.INTRA.DIHEDRAL>
-1.98047

>  <SCORE.INTRA.DIHEDRAL.0>
3.34563

>  <SCORE.INTRA.POLAR>
0

>  <SCORE.INTRA.POLAR.0>
0

>  <SCORE.INTRA.REPUL>
0

>  <SCORE.INTRA.REPUL.0>
0

>  <SCORE.INTRA.SOLV>
-1.22313

>  <SCORE.INTRA.SOLV.lig_0>
-59.746

>  <SCORE.INTRA.VDW>
0.494127

>  <SCORE.INTRA.VDW.0>
-0.691186

>  <SCORE.INTRA.norm>
-0.0923063

>  <SCORE.RESTR>
0

>  <SCORE.RESTR.CAVITY>
0

>  <SCORE.RESTR.norm>
0

>  <SCORE.SYSTEM>
0

>  <SCORE.SYSTEM.CONST>
0

>  <SCORE.SYSTEM.DIHEDRAL>
0

>  <SCORE.SYSTEM.SOLV>
0

>  <SCORE.SYSTEM.norm>
0

>  <SCORE.heavy>
12

>  <SCORE.norm>
-1.07747

>  <RMSD>
1.054

$$$$
ligand
 OpenBabel02271912143D
libRbt.so/2013.1/901 2013/11/27
 12 12  0  0  0  0  0  0  0  0999 V2000
  -22.1136  -10.6768   95.9334 C   0  0  0  0  0  0  0  0  0  0  0  0
  -19.2025   -6.1544   94.7709 C   0  0  0  0  0  0  0  0  0  0  0  0
  -19.5690  -10.8071   95.0726 N   0  0  0  0  0  0  0  0  0  0  0  0
  -23.5647  -10.5354   95.7466 N   0  0  0  0  0  0  0  0  0  0  0  0
  -24.1941  -11.3458   96.1980 N   0  0  0  0  0  0  0  0  0  0  0  0
  -24.8275  -12.1536   96.6476 N   0  0  0  0  0  0  0  0  0  0  0  0
  -21.2288   -7.1586   95.4486 N   0  0  0  0  0  0  0  0  0  0  0  0
  -19.9595   -7.2882   95.0408 C   0  0  0  0  0  0  0  0  0  0  0  0
  -19.4278   -8.5004   94.8242 N   0  0  0  0  0  0  0  0  0  0  0  0
  -20.1495   -9.6132   95.0220 C   0  0  0  0  0  0  0  0  0  0  0  0
  -21.4685   -9.5431   95.4549 C   0  0  0  0  0  0  0  0  0  0  0  0
  -22.0277   -8.2880   95.6631 C   0  0  0  0  0  0  0  0  0  0  0  0
  1 11  1  0  0  0  0
  1  4  1  0  0  0  0
  2  8  1  0  0  0  0
  3 10  1  0  0  0  0
  4  5  1  0  0  0  0
  5  6  1  0  0  0  0
  7  8  2  0  0  0  0
  7 12  1  0  0  0  0
  8  9  1  0  0  0  0
  9 10  2  0  0  0  0
 10 11  1  0  0  0  0
 11 12  2  0  0  0  0
M  END
>  <CHROM.1>
-154.32204946,-173.67809857,178.59091845,-21.49189009,-9.35105780,95.49014957
-2.39659506,0.26278224,-0.03247440

>  <Name>
ligand

>  <RI>
0

>  <Rbt.Current_Directory>
/home/itssahil/PROJECTS/Mol_Feturizer/Test_systems_manuscript/rnas/4nya

>  <Rbt.Executable>
rbdock ($Id: //depot/dev/client3/rdock/2013.1/src/exe/rbdock.cxx#4 $)

>  <Rbt.Library>
libRbt.so (2013.1, Build901 2013/11/27)

>  <Rbt.Parameter_File>
/export/apps/rDock/src/rDock_2013.1_src/data/scripts/dock_solv.prm

>  <Rbt.Receptor>
prm/pocket_docking_3.prm

>  <SCORE>
-13.0128

>  <SCORE.INTER>
-11.7864

>  <SCORE.INTER.CONST>
1

>  <SCORE.INTER.POLAR>
0

>  <SCORE.INTER.ROT>
3

>  <SCORE.INTER.SOLV>
14.4094

>  <SCORE.INTER.VDW>
-18.2608

>  <SCORE.INTER.norm>
-0.982202

>  <SCORE.INTRA>
-1.2264

>  <SCORE.INTRA.DIHEDRAL>
-2.21071

>  <SCORE.INTRA.DIHEDRAL.0>
3.34563

>  <SCORE.INTRA.POLAR>
0

>  <SCORE.INTRA.POLAR.0>
0

>  <SCORE.INTRA.REPUL>
0

>  <SCORE.INTRA.REPUL.0>
0

>  <SCORE.INTRA.SOLV>
-1.26918

>  <SCORE.INTRA.SOLV.lig_0>
-59.746

>  <SCORE.INTRA.VDW>
0.513544

>  <SCORE.INTRA.VDW.0>
-0.691186

>  <SCORE.INTRA.norm>
-0.1022

>  <SCORE.RESTR>
0

>  <SCORE.RESTR.CAVITY>
0

>  <SCORE.RESTR.norm>
0

>  <SCORE.SYSTEM>
0

>  <SCORE.SYSTEM.CONST>
0

>  <SCORE.SYSTEM.DIHEDRAL>
0

>  <SCORE.SYSTEM.SOLV>
0

>  <SCORE.SYSTEM.norm>
0

>  <SCORE.heavy>
12

>  <SCORE.norm>
-1.0844

>  <RMSD>
1.055

$$$$
ligand
 OpenBabel02271912143D
libRbt.so/2013.1/901 2013/11/27
 12 12  0  0  0  0  0  0  0  0999 V2000
  -22.2306  -10.5446   95.7935 C   0  0  0  0  0  0  0  0  0  0  0  0
  -19.1224   -6.1267   94.7454 C   0  0  0  0  0  0  0  0  0  0  0  0
  -19.6338  -10.7598   95.1278 N   0  0  0  0  0  0  0  0  0  0  0  0
  -23.6469  -10.4098   95.4240 N   0  0  0  0  0  0  0  0  0  0  0  0
  -24.2476  -11.3560   95.4482 N   0  0  0  0  0  0  0  0  0  0  0  0
  -24.8474  -12.3023   95.4773 N   0  0  0  0  0  0  0  0  0  0  0  0
  -21.2192   -7.0628   95.2936 N   0  0  0  0  0  0  0  0  0  0  0  0
  -19.9271   -7.2341   94.9846 C   0  0  0  0  0  0  0  0  0  0  0  0
  -19.4133   -8.4643   94.8367 N   0  0  0  0  0  0  0  0  0  0  0  0
  -20.1770   -9.5535   95.0062 C   0  0  0  0  0  0  0  0  0  0  0  0
  -21.5221   -9.4397   95.3378 C   0  0  0  0  0  0  0  0  0  0  0  0
  -22.0615   -8.1663   95.4744 C   0  0  0  0  0  0  0  0  0  0  0  0
  1 11  1  0  0  0  0
  1  4  1  0  0  0  0
  2  8  1  0  0  0  0
  3 10  1  0  0  0  0
  4  5  1  0  0  0  0
  5  6  1  0  0  0  0
  7  8  2  0  0  0  0
  7 12  1  0  0  0  0
  8  9  1  0  0  0  0
  9 10  2  0  0  0  0
 10 11  1  0  0  0  0
 11 12  2  0  0  0  0
M  END
>  <CHROM.1>
-150.92217100,161.70853342,62.97459006,-21.51781872,-9.29901812,95.24489748
-2.37911548,0.11181840,-0.01880338

>  <Name>
ligand

>  <RI>
0

>  <Rbt.Current_Directory>
/home/itssahil/PROJECTS/Mol_Feturizer/Test_systems_manuscript/rnas/4nya

>  <Rbt.Executable>
rbdock ($Id: //depot/dev/client3/rdock/2013.1/src/exe/rbdock.cxx#4 $)

>  <Rbt.Library>
libRbt.so (2013.1, Build901 2013/11/27)

>  <Rbt.Parameter_File>
/export/apps/rDock/src/rDock_2013.1_src/data/scripts/dock_solv.prm

>  <Rbt.Receptor>
prm/blind_docking_100.prm

>  <SCORE>
-12.791

>  <SCORE.INTER>
-11.6537

>  <SCORE.INTER.CONST>
1

>  <SCORE.INTER.POLAR>
0

>  <SCORE.INTER.ROT>
3

>  <SCORE.INTER.SOLV>
14.3953

>  <SCORE.INTER.VDW>
-18.1676

>  <SCORE.INTER.norm>
-0.971139

>  <SCORE.INTRA>
-1.13729

>  <SCORE.INTRA.DIHEDRAL>
-1.9643

>  <SCORE.INTRA.DIHEDRAL.0>
3.34563

>  <SCORE.INTRA.POLAR>
0

>  <SCORE.INTRA.POLAR.0>
0

>  <SCORE.INTRA.REPUL>
0

>  <SCORE.INTRA.REPUL.0>
0

>  <SCORE.INTRA.SOLV>
-1.26785

>  <SCORE.INTRA.SOLV.lig_0>
-59.746

>  <SCORE.INTRA.VDW>
0.478787

>  <SCORE.INTRA.VDW.0>
-0.691186

>  <SCORE.INTRA.norm>
-0.094774

>  <SCORE.RESTR>
0

>  <SCORE.RESTR.CAVITY>
0

>  <SCORE.RESTR.norm>
0

>  <SCORE.SYSTEM>
0

>  <SCORE.SYSTEM.CONST>
0

>  <SCORE.SYSTEM.DIHEDRAL>
0

>  <SCORE.SYSTEM.SOLV>
0

>  <SCORE.SYSTEM.norm>
0

>  <SCORE.heavy>
12

>  <SCORE.norm>
-1.06591

>  <RMSD>
1.057

$$$$
ligand
 OpenBabel02271912143D
libRbt.so/2013.1/901 2013/11/27
 12 12  0  0  0  0  0  0  0  0999 V2000
  -22.0790  -10.6857   95.9244 C   0  0  0  0  0  0  0  0  0  0  0  0
  -19.2000   -6.1398   94.7740 C   0  0  0  0  0  0  0  0  0  0  0  0
  -19.5108  -10.7925   95.1333 N   0  0  0  0  0  0  0  0  0  0  0  0
  -23.0891  -11.1278   94.9524 N   0  0  0  0  0  0  0  0  0  0  0  0
  -23.5930  -12.1020   95.1842 N   0  0  0  0  0  0  0  0  0  0  0  0
  -24.0994  -13.0756   95.4115 N   0  0  0  0  0  0  0  0  0  0  0  0
  -21.2298   -7.1626   95.4123 N   0  0  0  0  0  0  0  0  0  0  0  0
  -19.9483   -7.2802   95.0401 C   0  0  0  0  0  0  0  0  0  0  0  0
  -19.3945   -8.4878   94.8553 N   0  0  0  0  0  0  0  0  0  0  0  0
  -20.1060   -9.6077   95.0500 C   0  0  0  0  0  0  0  0  0  0  0  0
  -21.4370   -9.5500   95.4467 C   0  0  0  0  0  0  0  0  0  0  0  0
  -22.0186   -8.3000   95.6218 C   0  0  0  0  0  0  0  0  0  0  0  0
  1 11  1  0  0  0  0
  1  4  1  0  0  0  0
  2  8  1  0  0  0  0
  3 10  1  0  0  0  0
  4  5  1  0  0  0  0
  5  6  1  0  0  0  0
  7  8  2  0  0  0  0
  7 12  1  0  0  0  0
  8  9  1  0  0  0  0
  9 10  2  0  0  0  0
 10 11  1  0  0  0  0
 11 12  2  0  0  0  0
M  END
>  <CHROM.1>
-110.66215311,173.63808035,-177.98710208,-21.31680191,-9.54621437,95.22822479
2.21342398,-0.11984761,-3.11779894

>  <Name>
ligand

>  <RI>
0

>  <Rbt.Current_Directory>
/home/itssahil/PROJECTS/Mol_Feturizer/Test_systems_manuscript/rnas/4nya

>  <Rbt.Executable>
rbdock ($Id: //depot/dev/client3/rdock/2013.1/src/exe/rbdock.cxx#4 $)

>  <Rbt.Library>
libRbt.so (2013.1, Build901 2013/11/27)

>  <Rbt.Parameter_File>
/export/apps/rDock/src/rDock_2013.1_src/data/scripts/dock_solv.prm

>  <Rbt.Receptor>
prm/blind_docking_100.prm

>  <SCORE>
-12.2384

>  <SCORE.INTER>
-11.4545

>  <SCORE.INTER.CONST>
1

>  <SCORE.INTER.POLAR>
0

>  <SCORE.INTER.ROT>
3

>  <SCORE.INTER.SOLV>
15.9369

>  <SCORE.INTER.VDW>
-18.5487

>  <SCORE.INTER.norm>
-0.954544

>  <SCORE.INTRA>
-0.783916

>  <SCORE.INTRA.DIHEDRAL>
-1.19616

>  <SCORE.INTRA.DIHEDRAL.0>
3.34563

>  <SCORE.INTRA.POLAR>
0

>  <SCORE.INTRA.POLAR.0>
0

>  <SCORE.INTRA.REPUL>
0

>  <SCORE.INTRA.REPUL.0>
0

>  <SCORE.INTRA.SOLV>
-0.603397

>  <SCORE.INTRA.SOLV.lig_0>
-59.746

>  <SCORE.INTRA.VDW>
0.11586

>  <SCORE.INTRA.VDW.0>
-0.691186

>  <SCORE.INTRA.norm>
-0.0653264

>  <SCORE.RESTR>
0

>  <SCORE.RESTR.CAVITY>
0

>  <SCORE.RESTR.norm>
0

>  <SCORE.SYSTEM>
0

>  <SCORE.SYSTEM.CONST>
0

>  <SCORE.SYSTEM.DIHEDRAL>
0

>  <SCORE.SYSTEM.SOLV>
0

>  <SCORE.SYSTEM.norm>
0

>  <SCORE.heavy>
12

>  <SCORE.norm>
-1.01987

>  <RMSD>
1.058

$$$$
ligand
 OpenBabel02271912143D
libRbt.so/2013.1/901 2013/11/27
 12 12  0  0  0  0  0  0  0  0999 V2000
  -22.0913  -10.7095   95.9133 C   0  0  0  0  0  0  0  0  0  0  0  0
  -19.1920   -6.1689   94.7930 C   0  0  0  0  0  0  0  0  0  0  0  0
  -19.5721  -10.8266   94.9790 N   0  0  0  0  0  0  0  0  0  0  0  0
  -23.5456  -10.5621   95.7596 N   0  0  0  0  0  0  0  0  0  0  0  0
  -24.1684  -11.3631   96.2363 N   0  0  0  0  0  0  0  0  0  0  0  0
  -24.7890  -12.1626   96.7175 N   0  0  0  0  0  0  0  0  0  0  0  0
  -21.2036   -7.1829   95.4993 N   0  0  0  0  0  0  0  0  0  0  0  0
  -19.9466   -7.3065   95.0531 C   0  0  0  0  0  0  0  0  0  0  0  0
  -19.4269   -8.5145   94.7892 N   0  0  0  0  0  0  0  0  0  0  0  0
  -20.1481   -9.6294   94.9768 C   0  0  0  0  0  0  0  0  0  0  0  0
  -21.4543   -9.5658   95.4478 C   0  0  0  0  0  0  0  0  0  0  0  0
  -22.0016   -8.3145   95.7053 C   0  0  0  0  0  0  0  0  0  0  0  0
  1 11  1  0  0  0  0
  1  4  1  0  0  0  0
  2  8  1  0  0  0  0
  3 10  1  0  0  0  0
  4  5  1  0  0  0  0
  5  6  1  0  0  0  0
  7  8  2  0  0  0  0
  7 12  1  0  0  0  0
  8  9  1  0  0  0  0
  9 10  2  0  0  0  0
 10 11  1  0  0  0  0
 11 12  2  0  0  0  0
M  END
>  <CHROM.1>
-153.82139446,-171.60444599,61.33727092,-21.47566220,-9.37112707,95.49437648
-2.40334023,0.29481079,-0.00556212

>  <Name>
ligand

>  <RI>
0

>  <Rbt.Current_Directory>
/home/itssahil/PROJECTS/Mol_Feturizer/Test_systems_manuscript/rnas/4nya

>  <Rbt.Executable>
rbdock ($Id: //depot/dev/client3/rdock/2013.1/src/exe/rbdock.cxx#4 $)

>  <Rbt.Library>
libRbt.so (2013.1, Build901 2013/11/27)

>  <Rbt.Parameter_File>
/export/apps/rDock/src/rDock_2013.1_src/data/scripts/dock_solv.prm

>  <Rbt.Receptor>
prm/pocket_docking_7.prm

>  <SCORE>
-13.0456

>  <SCORE.INTER>
-11.8299

>  <SCORE.INTER.CONST>
1

>  <SCORE.INTER.POLAR>
0

>  <SCORE.INTER.ROT>
3

>  <SCORE.INTER.SOLV>
14.4708

>  <SCORE.INTER.VDW>
-18.3102

>  <SCORE.INTER.norm>
-0.985827

>  <SCORE.INTRA>
-1.21565

>  <SCORE.INTRA.DIHEDRAL>
-2.18414

>  <SCORE.INTRA.DIHEDRAL.0>
3.34563

>  <SCORE.INTRA.POLAR>
0

>  <SCORE.INTRA.POLAR.0>
0

>  <SCORE.INTRA.REPUL>
0

>  <SCORE.INTRA.REPUL.0>
0

>  <SCORE.INTRA.SOLV>
-1.25802

>  <SCORE.INTRA.SOLV.lig_0>
-59.746

>  <SCORE.INTRA.VDW>
0.505436

>  <SCORE.INTRA.VDW.0>
-0.691186

>  <SCORE.INTRA.norm>
-0.101304

>  <SCORE.RESTR>
0

>  <SCORE.RESTR.CAVITY>
0

>  <SCORE.RESTR.norm>
0

>  <SCORE.SYSTEM>
0

>  <SCORE.SYSTEM.CONST>
0

>  <SCORE.SYSTEM.DIHEDRAL>
0

>  <SCORE.SYSTEM.SOLV>
0

>  <SCORE.SYSTEM.norm>
0

>  <SCORE.heavy>
12

>  <SCORE.norm>
-1.08713

>  <RMSD>
1.059

$$$$
ligand
 OpenBabel02271912143D
libRbt.so/2013.1/901 2013/11/27
 12 12  0  0  0  0  0  0  0  0999 V2000
  -22.0910  -10.6790   95.9214 C   0  0  0  0  0  0  0  0  0  0  0  0
  -19.1699   -6.1589   94.7756 C   0  0  0  0  0  0  0  0  0  0  0  0
  -19.5502  -10.8122   95.0499 N   0  0  0  0  0  0  0  0  0  0  0  0
  -23.5400  -10.5444   95.7140 N   0  0  0  0  0  0  0  0  0  0  0  0
  -24.1745  -11.3375   96.1884 N   0  0  0  0  0  0  0  0  0  0  0  0
  -24.8062  -12.1339   96.6603 N   0  0  0  0  0  0  0  0  0  0  0  0
  -21.1968   -7.1607   95.4549 N   0  0  0  0  0  0  0  0  0  0  0  0
  -19.9294   -7.2919   95.0414 C   0  0  0  0  0  0  0  0  0  0  0  0
  -19.4025   -8.5044   94.8152 N   0  0  0  0  0  0  0  0  0  0  0  0
  -20.1270   -9.6161   95.0090 C   0  0  0  0  0  0  0  0  0  0  0  0
  -21.4442   -9.5444   95.4474 C   0  0  0  0  0  0  0  0  0  0  0  0
  -21.9985   -8.2888   95.6655 C   0  0  0  0  0  0  0  0  0  0  0  0
  1 11  1  0  0  0  0
  1  4  1  0  0  0  0
  2  8  1  0  0  0  0
  3 10  1  0  0  0  0
  4  5  1  0  0  0  0
  5  6  1  0  0  0  0
  7  8  2  0  0  0  0
  7 12  1  0  0  0  0
  8  9  1  0  0  0  0
  9 10  2  0  0  0  0
 10 11  1  0  0  0  0
 11 12  2  0  0  0  0
M  END
>  <CHROM.1>
-153.07808609,-171.74918137,-53.10755188,-21.46665896,-9.35164512,95.48345024
-2.40063615,0.26715777,-0.02578575

>  <Name>
ligand

>  <RI>
0

>  <Rbt.Current_Directory>
/home/itssahil/PROJECTS/Mol_Feturizer/Test_systems_manuscript/rnas/4nya

>  <Rbt.Executable>
rbdock ($Id: //depot/dev/client3/rdock/2013.1/src/exe/rbdock.cxx#4 $)

>  <Rbt.Library>
libRbt.so (2013.1, Build901 2013/11/27)

>  <Rbt.Parameter_File>
/export/apps/rDock/src/rDock_2013.1_src/data/scripts/dock_solv.prm

>  <Rbt.Receptor>
prm/pocket_docking_8.prm

>  <SCORE>
-13.0161

>  <SCORE.INTER>
-11.798

>  <SCORE.INTER.CONST>
1

>  <SCORE.INTER.POLAR>
0

>  <SCORE.INTER.ROT>
3

>  <SCORE.INTER.SOLV>
14.5003

>  <SCORE.INTER.VDW>
-18.2987

>  <SCORE.INTER.norm>
-0.983163

>  <SCORE.INTRA>
-1.2181

>  <SCORE.INTRA.DIHEDRAL>
-2.16974

>  <SCORE.INTRA.DIHEDRAL.0>
3.34563

>  <SCORE.INTRA.POLAR>
0

>  <SCORE.INTRA.POLAR.0>
0

>  <SCORE.INTRA.REPUL>
0

>  <SCORE.INTRA.REPUL.0>
0

>  <SCORE.INTRA.SOLV>
-1.25406

>  <SCORE.INTRA.SOLV.lig_0>
-59.746

>  <SCORE.INTRA.VDW>
0.493799

>  <SCORE.INTRA.VDW.0>
-0.691186

>  <SCORE.INTRA.norm>
-0.101509

>  <SCORE.RESTR>
0

>  <SCORE.RESTR.CAVITY>
0

>  <SCORE.RESTR.norm>
0

>  <SCORE.SYSTEM>
0

>  <SCORE.SYSTEM.CONST>
0

>  <SCORE.SYSTEM.DIHEDRAL>
0

>  <SCORE.SYSTEM.SOLV>
0

>  <SCORE.SYSTEM.norm>
0

>  <SCORE.heavy>
12

>  <SCORE.norm>
-1.08467

>  <RMSD>
1.060

$$$$
ligand
 OpenBabel02271912143D
libRbt.so/2013.1/901 2013/11/27
 12 12  0  0  0  0  0  0  0  0999 V2000
  -22.1039  -10.6523   95.9276 C   0  0  0  0  0  0  0  0  0  0  0  0
  -19.1748   -6.1392   94.7742 C   0  0  0  0  0  0  0  0  0  0  0  0
  -19.5700  -10.7919   95.0372 N   0  0  0  0  0  0  0  0  0  0  0  0
  -23.5520  -10.5205   95.7130 N   0  0  0  0  0  0  0  0  0  0  0  0
  -24.1822  -11.3500   96.1272 N   0  0  0  0  0  0  0  0  0  0  0  0
  -24.8108  -12.1779   96.5460 N   0  0  0  0  0  0  0  0  0  0  0  0
  -21.2003   -7.1358   95.4652 N   0  0  0  0  0  0  0  0  0  0  0  0
  -19.9365   -7.2703   95.0421 C   0  0  0  0  0  0  0  0  0  0  0  0
  -19.4156   -8.4840   94.8084 N   0  0  0  0  0  0  0  0  0  0  0  0
  -20.1427   -9.5937   95.0041 C   0  0  0  0  0  0  0  0  0  0  0  0
  -21.4564   -9.5186   95.4523 C   0  0  0  0  0  0  0  0  0  0  0  0
  -22.0046   -8.2617   95.6782 C   0  0  0  0  0  0  0  0  0  0  0  0
  1 11  1  0  0  0  0
  1  4  1  0  0  0  0
  2  8  1  0  0  0  0
  3 10  1  0  0  0  0
  4  5  1  0  0  0  0
  5  6  1  0  0  0  0
  7  8  2  0  0  0  0
  7 12  1  0  0  0  0
  8  9  1  0  0  0  0
  9 10  2  0  0  0  0
 10 11  1  0  0  0  0
 11 12  2  0  0  0  0
M  END
>  <CHROM.1>
-152.24448566,-175.77956479,65.45670662,-21.47659046,-9.33736672,95.46871468
-2.39526697,0.26058033,-0.01805069

>  <Name>
ligand

>  <RI>
0

>  <Rbt.Current_Directory>
/home/itssahil/PROJECTS/Mol_Feturizer/Test_systems_manuscript/rnas/4nya

>  <Rbt.Executable>
rbdock ($Id: //depot/dev/client3/rdock/2013.1/src/exe/rbdock.cxx#4 $)

>  <Rbt.Library>
libRbt.so (2013.1, Build901 2013/11/27)

>  <Rbt.Parameter_File>
/export/apps/rDock/src/rDock_2013.1_src/data/scripts/dock_solv.prm

>  <Rbt.Receptor>
prm/pocket_docking_4.prm

>  <SCORE>
-13.0072

>  <SCORE.INTER>
-11.7718

>  <SCORE.INTER.CONST>
1

>  <SCORE.INTER.POLAR>
0

>  <SCORE.INTER.ROT>
3

>  <SCORE.INTER.SOLV>
14.4601

>  <SCORE.INTER.VDW>
-18.2679

>  <SCORE.INTER.norm>
-0.980985

>  <SCORE.INTRA>
-1.23538

>  <SCORE.INTRA.DIHEDRAL>
-2.20962

>  <SCORE.INTRA.DIHEDRAL.0>
3.34563

>  <SCORE.INTRA.POLAR>
0

>  <SCORE.INTRA.POLAR.0>
0

>  <SCORE.INTRA.REPUL>
0

>  <SCORE.INTRA.REPUL.0>
0

>  <SCORE.INTRA.SOLV>
-1.25961

>  <SCORE.INTRA.SOLV.lig_0>
-59.746

>  <SCORE.INTRA.VDW>
0.499238

>  <SCORE.INTRA.VDW.0>
-0.691186

>  <SCORE.INTRA.norm>
-0.102948

>  <SCORE.RESTR>
0

>  <SCORE.RESTR.CAVITY>
0

>  <SCORE.RESTR.norm>
0

>  <SCORE.SYSTEM>
0

>  <SCORE.SYSTEM.CONST>
0

>  <SCORE.SYSTEM.DIHEDRAL>
0

>  <SCORE.SYSTEM.SOLV>
0

>  <SCORE.SYSTEM.norm>
0

>  <SCORE.heavy>
12

>  <SCORE.norm>
-1.08393

>  <RMSD>
1.061

$$$$
ligand
 OpenBabel02271912143D
libRbt.so/2013.1/901 2013/11/27
 12 12  0  0  0  0  0  0  0  0999 V2000
  -22.1063  -10.6348   95.9213 C   0  0  0  0  0  0  0  0  0  0  0  0
  -19.1541   -6.1398   94.7565 C   0  0  0  0  0  0  0  0  0  0  0  0
  -19.5763  -10.7900   95.0226 N   0  0  0  0  0  0  0  0  0  0  0  0
  -23.5515  -10.5069   95.6857 N   0  0  0  0  0  0  0  0  0  0  0  0
  -24.1827  -11.3511   96.0673 N   0  0  0  0  0  0  0  0  0  0  0  0
  -24.8121  -12.1942   96.4536 N   0  0  0  0  0  0  0  0  0  0  0  0
  -21.1832   -7.1240   95.4547 N   0  0  0  0  0  0  0  0  0  0  0  0
  -19.9217   -7.2662   95.0274 C   0  0  0  0  0  0  0  0  0  0  0  0
  -19.4088   -8.4831   94.7925 N   0  0  0  0  0  0  0  0  0  0  0  0
  -20.1419   -9.5883   94.9909 C   0  0  0  0  0  0  0  0  0  0  0  0
  -21.4536   -9.5052   95.4434 C   0  0  0  0  0  0  0  0  0  0  0  0
  -21.9935   -8.2450   95.6707 C   0  0  0  0  0  0  0  0  0  0  0  0
  1 11  1  0  0  0  0
  1  4  1  0  0  0  0
  2  8  1  0  0  0  0
  3 10  1  0  0  0  0
  4  5  1  0  0  0  0
  5  6  1  0  0  0  0
  7  8  2  0  0  0  0
  7 12  1  0  0  0  0
  8  9  1  0  0  0  0
  9 10  2  0  0  0  0
 10 11  1  0  0  0  0
 11 12  2  0  0  0  0
M  END
>  <CHROM.1>
-151.05563280,-177.89312807,59.87469051,-21.47124814,-9.33201391,95.44403070
-2.39500349,0.25375048,-0.01382632

>  <Name>
ligand

>  <RI>
0

>  <Rbt.Current_Directory>
/home/itssahil/PROJECTS/Mol_Feturizer/Test_systems_manuscript/rnas/4nya

>  <Rbt.Executable>
rbdock ($Id: //depot/dev/client3/rdock/2013.1/src/exe/rbdock.cxx#4 $)

>  <Rbt.Library>
libRbt.so (2013.1, Build901 2013/11/27)

>  <Rbt.Parameter_File>
/export/apps/rDock/src/rDock_2013.1_src/data/scripts/dock_solv.prm

>  <Rbt.Receptor>
prm/pocket_docking_3.prm

>  <SCORE>
-13.012

>  <SCORE.INTER>
-11.7556

>  <SCORE.INTER.CONST>
1

>  <SCORE.INTER.POLAR>
0

>  <SCORE.INTER.ROT>
3

>  <SCORE.INTER.SOLV>
14.4663

>  <SCORE.INTER.VDW>
-18.2592

>  <SCORE.INTER.norm>
-0.979636

>  <SCORE.INTRA>
-1.25633

>  <SCORE.INTRA.DIHEDRAL>
-2.21906

>  <SCORE.INTRA.DIHEDRAL.0>
3.34563

>  <SCORE.INTRA.POLAR>
0

>  <SCORE.INTRA.POLAR.0>
0

>  <SCORE.INTRA.REPUL>
0

>  <SCORE.INTRA.REPUL.0>
0

>  <SCORE.INTRA.SOLV>
-1.25688

>  <SCORE.INTRA.SOLV.lig_0>
-59.746

>  <SCORE.INTRA.VDW>
0.48164

>  <SCORE.INTRA.VDW.0>
-0.691186

>  <SCORE.INTRA.norm>
-0.104694

>  <SCORE.RESTR>
0

>  <SCORE.RESTR.CAVITY>
0

>  <SCORE.RESTR.norm>
0

>  <SCORE.SYSTEM>
0

>  <SCORE.SYSTEM.CONST>
0

>  <SCORE.SYSTEM.DIHEDRAL>
0

>  <SCORE.SYSTEM.SOLV>
0

>  <SCORE.SYSTEM.norm>
0

>  <SCORE.heavy>
12

>  <SCORE.norm>
-1.08433

>  <RMSD>
1.062

$$$$
ligand
 OpenBabel02271912143D
libRbt.so/2013.1/901 2013/11/27
 12 12  0  0  0  0  0  0  0  0999 V2000
  -22.0887  -10.7021   95.9185 C   0  0  0  0  0  0  0  0  0  0  0  0
  -19.2026   -6.1593   94.7734 C   0  0  0  0  0  0  0  0  0  0  0  0
  -19.5540  -10.8161   95.0269 N   0  0  0  0  0  0  0  0  0  0  0  0
  -23.5430  -10.5571   95.7617 N   0  0  0  0  0  0  0  0  0  0  0  0
  -24.1655  -11.3575   96.2399 N   0  0  0  0  0  0  0  0  0  0  0  0
  -24.7921  -12.1553   96.7162 N   0  0  0  0  0  0  0  0  0  0  0  0
  -21.2184   -7.1764   95.4631 N   0  0  0  0  0  0  0  0  0  0  0  0
  -19.9536   -7.2980   95.0392 C   0  0  0  0  0  0  0  0  0  0  0  0
  -19.4214   -8.5064   94.8028 N   0  0  0  0  0  0  0  0  0  0  0  0
  -20.1380   -9.6232   94.9964 C   0  0  0  0  0  0  0  0  0  0  0  0
  -21.4521   -9.5614   95.4453 C   0  0  0  0  0  0  0  0  0  0  0  0
  -22.0120   -8.3102   95.6741 C   0  0  0  0  0  0  0  0  0  0  0  0
  1 11  1  0  0  0  0
  1  4  1  0  0  0  0
  2  8  1  0  0  0  0
  3 10  1  0  0  0  0
  4  5  1  0  0  0  0
  5  6  1  0  0  0  0
  7  8  2  0  0  0  0
  7 12  1  0  0  0  0
  8  9  1  0  0  0  0
  9 10  2  0  0  0  0
 10 11  1  0  0  0  0
 11 12  2  0  0  0  0
M  END
>  <CHROM.1>
-154.85166385,-171.85238943,-178.18318941,-21.47581877,-9.36411548,95.49349831
-2.39791347,0.28156476,-0.02388626

>  <Name>
ligand

>  <RI>
0

>  <Rbt.Current_Directory>
/home/itssahil/PROJECTS/Mol_Feturizer/Test_systems_manuscript/rnas/4nya

>  <Rbt.Executable>
rbdock ($Id: //depot/dev/client3/rdock/2013.1/src/exe/rbdock.cxx#4 $)

>  <Rbt.Library>
libRbt.so (2013.1, Build901 2013/11/27)

>  <Rbt.Parameter_File>
/export/apps/rDock/src/rDock_2013.1_src/data/scripts/dock_solv.prm

>  <Rbt.Receptor>
prm/pocket_docking_6.prm

>  <SCORE>
-13.0476

>  <SCORE.INTER>
-11.8396

>  <SCORE.INTER.CONST>
1

>  <SCORE.INTER.POLAR>
0

>  <SCORE.INTER.ROT>
3

>  <SCORE.INTER.SOLV>
14.4996

>  <SCORE.INTER.VDW>
-18.3263

>  <SCORE.INTER.norm>
-0.986636

>  <SCORE.INTRA>
-1.208

>  <SCORE.INTRA.DIHEDRAL>
-2.19099

>  <SCORE.INTRA.DIHEDRAL.0>
3.34563

>  <SCORE.INTRA.POLAR>
0

>  <SCORE.INTRA.POLAR.0>
0

>  <SCORE.INTRA.REPUL>
0

>  <SCORE.INTRA.REPUL.0>
0

>  <SCORE.INTRA.SOLV>
-1.26732

>  <SCORE.INTRA.SOLV.lig_0>
-59.746

>  <SCORE.INTRA.VDW>
0.521153

>  <SCORE.INTRA.VDW.0>
-0.691186

>  <SCORE.INTRA.norm>
-0.100667

>  <SCORE.RESTR>
0

>  <SCORE.RESTR.CAVITY>
0

>  <SCORE.RESTR.norm>
0

>  <SCORE.SYSTEM>
0

>  <SCORE.SYSTEM.CONST>
0

>  <SCORE.SYSTEM.DIHEDRAL>
0

>  <SCORE.SYSTEM.SOLV>
0

>  <SCORE.SYSTEM.norm>
0

>  <SCORE.heavy>
12

>  <SCORE.norm>
-1.0873

>  <RMSD>
1.062

$$$$
ligand
 OpenBabel02271912143D
libRbt.so/2013.1/901 2013/11/27
 12 12  0  0  0  0  0  0  0  0999 V2000
  -22.1200  -10.6791   95.8901 C   0  0  0  0  0  0  0  0  0  0  0  0
  -19.1934   -6.1561   94.7699 C   0  0  0  0  0  0  0  0  0  0  0  0
  -19.5707  -10.8096   95.0435 N   0  0  0  0  0  0  0  0  0  0  0  0
  -23.5733  -10.5099   95.7485 N   0  0  0  0  0  0  0  0  0  0  0  0
  -24.2029  -11.3244   96.1921 N   0  0  0  0  0  0  0  0  0  0  0  0
  -24.8304  -12.1376   96.6403 N   0  0  0  0  0  0  0  0  0  0  0  0
  -21.2256   -7.1599   95.4301 N   0  0  0  0  0  0  0  0  0  0  0  0
  -19.9542   -7.2898   95.0290 C   0  0  0  0  0  0  0  0  0  0  0  0
  -19.4236   -8.5019   94.8088 N   0  0  0  0  0  0  0  0  0  0  0  0
  -20.1486   -9.6143   94.9961 C   0  0  0  0  0  0  0  0  0  0  0  0
  -21.4700   -9.5440   95.4216 C   0  0  0  0  0  0  0  0  0  0  0  0
  -22.0280   -8.2890   95.6336 C   0  0  0  0  0  0  0  0  0  0  0  0
  1 11  1  0  0  0  0
  1  4  1  0  0  0  0
  2  8  1  0  0  0  0
  3 10  1  0  0  0  0
  4  5  1  0  0  0  0
  5  6  1  0  0  0  0
  7  8  2  0  0  0  0
  7 12  1  0  0  0  0
  8  9  1  0  0  0  0
  9 10  2  0  0  0  0
 10 11  1  0  0  0  0
 11 12  2  0  0  0  0
M  END
>  <CHROM.1>
-156.72801311,-174.02100586,61.36696411,-21.49254513,-9.34674076,95.47232384
-2.40186308,0.26616247,-0.02852923

>  <Name>
ligand

>  <RI>
0

>  <Rbt.Current_Directory>
/home/itssahil/PROJECTS/Mol_Feturizer/Test_systems_manuscript/rnas/4nya

>  <Rbt.Executable>
rbdock ($Id: //depot/dev/client3/rdock/2013.1/src/exe/rbdock.cxx#4 $)

>  <Rbt.Library>
libRbt.so (2013.1, Build901 2013/11/27)

>  <Rbt.Parameter_File>
/export/apps/rDock/src/rDock_2013.1_src/data/scripts/dock_solv.prm

>  <Rbt.Receptor>
prm/pocket_docking_8.prm

>  <SCORE>
-13.0141

>  <SCORE.INTER>
-11.8203

>  <SCORE.INTER.CONST>
1

>  <SCORE.INTER.POLAR>
0

>  <SCORE.INTER.ROT>
3

>  <SCORE.INTER.SOLV>
14.4194

>  <SCORE.INTER.VDW>
-18.2867

>  <SCORE.INTER.norm>
-0.985027

>  <SCORE.INTRA>
-1.19374

>  <SCORE.INTRA.DIHEDRAL>
-2.21892

>  <SCORE.INTRA.DIHEDRAL.0>
3.34563

>  <SCORE.INTRA.POLAR>
0

>  <SCORE.INTRA.POLAR.0>
0

>  <SCORE.INTRA.REPUL>
0

>  <SCORE.INTRA.REPUL.0>
0

>  <SCORE.INTRA.SOLV>
-1.27857

>  <SCORE.INTRA.SOLV.lig_0>
-59.746

>  <SCORE.INTRA.VDW>
0.55501

>  <SCORE.INTRA.VDW.0>
-0.691186

>  <SCORE.INTRA.norm>
-0.0994779

>  <SCORE.RESTR>
0

>  <SCORE.RESTR.CAVITY>
0

>  <SCORE.RESTR.norm>
0

>  <SCORE.SYSTEM>
0

>  <SCORE.SYSTEM.CONST>
0

>  <SCORE.SYSTEM.DIHEDRAL>
0

>  <SCORE.SYSTEM.SOLV>
0

>  <SCORE.SYSTEM.norm>
0

>  <SCORE.heavy>
12

>  <SCORE.norm>
-1.08451

>  <RMSD>
1.064

$$$$
ligand
 OpenBabel02271912143D
libRbt.so/2013.1/901 2013/11/27
 12 12  0  0  0  0  0  0  0  0999 V2000
  -22.0871  -10.6959   95.9038 C   0  0  0  0  0  0  0  0  0  0  0  0
  -19.1911   -6.1566   94.7699 C   0  0  0  0  0  0  0  0  0  0  0  0
  -19.5338  -10.8114   95.0671 N   0  0  0  0  0  0  0  0  0  0  0  0
  -23.5386  -10.5549   95.7200 N   0  0  0  0  0  0  0  0  0  0  0  0
  -24.1709  -11.3217   96.2386 N   0  0  0  0  0  0  0  0  0  0  0  0
  -24.8005  -12.0920   96.7546 N   0  0  0  0  0  0  0  0  0  0  0  0
  -21.2180   -7.1725   95.4281 N   0  0  0  0  0  0  0  0  0  0  0  0
  -19.9441   -7.2948   95.0323 C   0  0  0  0  0  0  0  0  0  0  0  0
  -19.4034   -8.5039   94.8206 N   0  0  0  0  0  0  0  0  0  0  0  0
  -20.1206   -9.6209   95.0113 C   0  0  0  0  0  0  0  0  0  0  0  0
  -21.4441   -9.5584   95.4316 C   0  0  0  0  0  0  0  0  0  0  0  0
  -22.0124   -8.3066   95.6347 C   0  0  0  0  0  0  0  0  0  0  0  0
  1 11  1  0  0  0  0
  1  4  1  0  0  0  0
  2  8  1  0  0  0  0
  3 10  1  0  0  0  0
  4  5  1  0  0  0  0
  5  6  1  0  0  0  0
  7  8  2  0  0  0  0
  7 12  1  0  0  0  0
  8  9  1  0  0  0  0
  9 10  2  0  0  0  0
 10 11  1  0  0  0  0
 11 12  2  0  0  0  0
M  END
>  <CHROM.1>
-155.09366853,-168.80867348,-56.38601912,-21.46949627,-9.35265659,95.49012406
-2.40100346,0.26992585,-0.03786112

>  <Name>
ligand

>  <RI>
0

>  <Rbt.Current_Directory>
/home/itssahil/PROJECTS/Mol_Feturizer/Test_systems_manuscript/rnas/4nya

>  <Rbt.Executable>
rbdock ($Id: //depot/dev/client3/rdock/2013.1/src/exe/rbdock.cxx#4 $)

>  <Rbt.Library>
libRbt.so (2013.1, Build901 2013/11/27)

>  <Rbt.Parameter_File>
/export/apps/rDock/src/rDock_2013.1_src/data/scripts/dock_solv.prm

>  <Rbt.Receptor>
prm/pocket_docking_7.prm

>  <SCORE>
-13.0513

>  <SCORE.INTER>
-11.8761

>  <SCORE.INTER.CONST>
1

>  <SCORE.INTER.POLAR>
0

>  <SCORE.INTER.ROT>
3

>  <SCORE.INTER.SOLV>
14.5418

>  <SCORE.INTER.VDW>
-18.3647

>  <SCORE.INTER.norm>
-0.989677

>  <SCORE.INTRA>
-1.17522

>  <SCORE.INTRA.DIHEDRAL>
-2.14269

>  <SCORE.INTRA.DIHEDRAL.0>
3.34563

>  <SCORE.INTRA.POLAR>
0

>  <SCORE.INTRA.POLAR.0>
0

>  <SCORE.INTRA.REPUL>
0

>  <SCORE.INTRA.REPUL.0>
0

>  <SCORE.INTRA.SOLV>
-1.2566

>  <SCORE.INTRA.SOLV.lig_0>
-59.746

>  <SCORE.INTRA.VDW>
0.52443

>  <SCORE.INTRA.VDW.0>
-0.691186

>  <SCORE.INTRA.norm>
-0.0979347

>  <SCORE.RESTR>
0

>  <SCORE.RESTR.CAVITY>
0

>  <SCORE.RESTR.norm>
0

>  <SCORE.SYSTEM>
0

>  <SCORE.SYSTEM.CONST>
0

>  <SCORE.SYSTEM.DIHEDRAL>
0

>  <SCORE.SYSTEM.SOLV>
0

>  <SCORE.SYSTEM.norm>
0

>  <SCORE.heavy>
12

>  <SCORE.norm>
-1.08761

>  <RMSD>
1.066

$$$$
ligand
 OpenBabel02271912143D
libRbt.so/2013.1/901 2013/11/27
 12 12  0  0  0  0  0  0  0  0999 V2000
  -22.1091  -10.6569   95.9080 C   0  0  0  0  0  0  0  0  0  0  0  0
  -19.1737   -6.1432   94.7736 C   0  0  0  0  0  0  0  0  0  0  0  0
  -19.5765  -10.7964   95.0140 N   0  0  0  0  0  0  0  0  0  0  0  0
  -23.5578  -10.5194   95.7004 N   0  0  0  0  0  0  0  0  0  0  0  0
  -24.1929  -11.3199   96.1613 N   0  0  0  0  0  0  0  0  0  0  0  0
  -24.8262  -12.1189   96.6267 N   0  0  0  0  0  0  0  0  0  0  0  0
  -21.2002   -7.1397   95.4620 N   0  0  0  0  0  0  0  0  0  0  0  0
  -19.9371   -7.2742   95.0368 C   0  0  0  0  0  0  0  0  0  0  0  0
  -19.4185   -8.4877   94.7965 N   0  0  0  0  0  0  0  0  0  0  0  0
  -20.1473   -9.5971   94.9875 C   0  0  0  0  0  0  0  0  0  0  0  0
  -21.4603   -9.5220   95.4375 C   0  0  0  0  0  0  0  0  0  0  0  0
  -22.0061   -8.2653   95.6704 C   0  0  0  0  0  0  0  0  0  0  0  0
  1 11  1  0  0  0  0
  1  4  1  0  0  0  0
  2  8  1  0  0  0  0
  3 10  1  0  0  0  0
  4  5  1  0  0  0  0
  5  6  1  0  0  0  0
  7  8  2  0  0  0  0
  7 12  1  0  0  0  0
  8  9  1  0  0  0  0
  9 10  2  0  0  0  0
 10 11  1  0  0  0  0
 11 12  2  0  0  0  0
M  END
>  <CHROM.1>
-152.46558736,-172.48810787,61.73694386,-21.48129500,-9.33244446,95.46921780
-2.40376629,0.27166830,-0.01537713

>  <Name>
ligand

>  <RI>
0

>  <Rbt.Current_Directory>
/home/itssahil/PROJECTS/Mol_Feturizer/Test_systems_manuscript/rnas/4nya

>  <Rbt.Executable>
rbdock ($Id: //depot/dev/client3/rdock/2013.1/src/exe/rbdock.cxx#4 $)

>  <Rbt.Library>
libRbt.so (2013.1, Build901 2013/11/27)

>  <Rbt.Parameter_File>
/export/apps/rDock/src/rDock_2013.1_src/data/scripts/dock_solv.prm

>  <Rbt.Receptor>
prm/pocket_docking_8.prm

>  <SCORE>
-13.0168

>  <SCORE.INTER>
-11.7812

>  <SCORE.INTER.CONST>
1

>  <SCORE.INTER.POLAR>
0

>  <SCORE.INTER.ROT>
3

>  <SCORE.INTER.SOLV>
14.4481

>  <SCORE.INTER.VDW>
-18.2702

>  <SCORE.INTER.norm>
-0.981768

>  <SCORE.INTRA>
-1.23558

>  <SCORE.INTRA.DIHEDRAL>
-2.18723

>  <SCORE.INTRA.DIHEDRAL.0>
3.34563

>  <SCORE.INTRA.POLAR>
0

>  <SCORE.INTRA.POLAR.0>
0

>  <SCORE.INTRA.REPUL>
0

>  <SCORE.INTRA.REPUL.0>
0

>  <SCORE.INTRA.SOLV>
-1.25283

>  <SCORE.INTRA.SOLV.lig_0>
-59.746

>  <SCORE.INTRA.VDW>
0.484447

>  <SCORE.INTRA.VDW.0>
-0.691186

>  <SCORE.INTRA.norm>
-0.102965

>  <SCORE.RESTR>
0

>  <SCORE.RESTR.CAVITY>
0

>  <SCORE.RESTR.norm>
0

>  <SCORE.SYSTEM>
0

>  <SCORE.SYSTEM.CONST>
0

>  <SCORE.SYSTEM.DIHEDRAL>
0

>  <SCORE.SYSTEM.SOLV>
0

>  <SCORE.SYSTEM.norm>
0

>  <SCORE.heavy>
12

>  <SCORE.norm>
-1.08473

>  <RMSD>
1.069

$$$$
ligand
 OpenBabel02271912143D
libRbt.so/2013.1/901 2013/11/27
 12 12  0  0  0  0  0  0  0  0999 V2000
  -22.1167  -10.7191   95.8965 C   0  0  0  0  0  0  0  0  0  0  0  0
  -19.1652   -6.1989   94.8314 C   0  0  0  0  0  0  0  0  0  0  0  0
  -19.6107  -10.8535   94.9295 N   0  0  0  0  0  0  0  0  0  0  0  0
  -23.5702  -10.5501   95.7581 N   0  0  0  0  0  0  0  0  0  0  0  0
  -24.2009  -11.2788   96.3307 N   0  0  0  0  0  0  0  0  0  0  0  0
  -24.8289  -12.0112   96.9010 N   0  0  0  0  0  0  0  0  0  0  0  0
  -21.1827   -7.1980   95.5419 N   0  0  0  0  0  0  0  0  0  0  0  0
  -19.9331   -7.3306   95.0780 C   0  0  0  0  0  0  0  0  0  0  0  0
  -19.4341   -8.5404   94.7838 N   0  0  0  0  0  0  0  0  0  0  0  0
  -20.1692   -9.6484   94.9580 C   0  0  0  0  0  0  0  0  0  0  0  0
  -21.4687   -9.5755   95.4461 C   0  0  0  0  0  0  0  0  0  0  0  0
  -21.9946   -8.3220   95.7350 C   0  0  0  0  0  0  0  0  0  0  0  0
  1 11  1  0  0  0  0
  1  4  1  0  0  0  0
  2  8  1  0  0  0  0
  3 10  1  0  0  0  0
  4  5  1  0  0  0  0
  5  6  1  0  0  0  0
  7  8  2  0  0  0  0
  7 12  1  0  0  0  0
  8  9  1  0  0  0  0
  9 10  2  0  0  0  0
 10 11  1  0  0  0  0
 11 12  2  0  0  0  0
M  END
>  <CHROM.1>
-153.58190485,-164.36010615,-53.25408401,-21.48710354,-9.36363199,95.52199284
-2.43322777,0.32562988,0.01594972

>  <Name>
ligand

>  <RI>
0

>  <Rbt.Current_Directory>
/home/itssahil/PROJECTS/Mol_Feturizer/Test_systems_manuscript/rnas/4nya

>  <Rbt.Executable>
rbdock ($Id: //depot/dev/client3/rdock/2013.1/src/exe/rbdock.cxx#4 $)

>  <Rbt.Library>
libRbt.so (2013.1, Build901 2013/11/27)

>  <Rbt.Parameter_File>
/export/apps/rDock/src/rDock_2013.1_src/data/scripts/dock_solv.prm

>  <Rbt.Receptor>
prm/pocket_docking_3.prm

>  <SCORE>
-12.9634

>  <SCORE.INTER>
-11.8239

>  <SCORE.INTER.CONST>
1

>  <SCORE.INTER.POLAR>
0

>  <SCORE.INTER.ROT>
3

>  <SCORE.INTER.SOLV>
14.2719

>  <SCORE.INTER.VDW>
-18.2399

>  <SCORE.INTER.norm>
-0.985322

>  <SCORE.INTRA>
-1.13956

>  <SCORE.INTRA.DIHEDRAL>
-2.03797

>  <SCORE.INTRA.DIHEDRAL.0>
3.34563

>  <SCORE.INTRA.POLAR>
0

>  <SCORE.INTRA.POLAR.0>
0

>  <SCORE.INTRA.REPUL>
0

>  <SCORE.INTRA.REPUL.0>
0

>  <SCORE.INTRA.SOLV>
-1.23351

>  <SCORE.INTRA.SOLV.lig_0>
-59.746

>  <SCORE.INTRA.VDW>
0.496176

>  <SCORE.INTRA.VDW.0>
-0.691186

>  <SCORE.INTRA.norm>
-0.0949636

>  <SCORE.RESTR>
0

>  <SCORE.RESTR.CAVITY>
0

>  <SCORE.RESTR.norm>
0

>  <SCORE.SYSTEM>
0

>  <SCORE.SYSTEM.CONST>
0

>  <SCORE.SYSTEM.DIHEDRAL>
0

>  <SCORE.SYSTEM.SOLV>
0

>  <SCORE.SYSTEM.norm>
0

>  <SCORE.heavy>
12

>  <SCORE.norm>
-1.08029

>  <RMSD>
1.075

$$$$
ligand
 OpenBabel02271912143D
libRbt.so/2013.1/901 2013/11/27
 12 12  0  0  0  0  0  0  0  0999 V2000
  -22.1314  -10.6737   95.9396 C   0  0  0  0  0  0  0  0  0  0  0  0
  -19.2023   -6.1639   94.7735 C   0  0  0  0  0  0  0  0  0  0  0  0
  -19.6026  -10.8162   95.0352 N   0  0  0  0  0  0  0  0  0  0  0  0
  -23.5853  -10.5090   95.7995 N   0  0  0  0  0  0  0  0  0  0  0  0
  -24.2132  -11.2964   96.2917 N   0  0  0  0  0  0  0  0  0  0  0  0
  -24.8387  -12.0872   96.7811 N   0  0  0  0  0  0  0  0  0  0  0  0
  -21.2255   -7.1582   95.4749 N   0  0  0  0  0  0  0  0  0  0  0  0
  -19.9642   -7.2941   95.0447 C   0  0  0  0  0  0  0  0  0  0  0  0
  -19.4463   -8.5084   94.8073 N   0  0  0  0  0  0  0  0  0  0  0  0
  -20.1738   -9.6172   95.0061 C   0  0  0  0  0  0  0  0  0  0  0  0
  -21.4849   -9.5406   95.4616 C   0  0  0  0  0  0  0  0  0  0  0  0
  -22.0301   -8.2831   95.6915 C   0  0  0  0  0  0  0  0  0  0  0  0
  1 11  1  0  0  0  0
  1  4  1  0  0  0  0
  2  8  1  0  0  0  0
  3 10  1  0  0  0  0
  4  5  1  0  0  0  0
  5  6  1  0  0  0  0
  7  8  2  0  0  0  0
  7 12  1  0  0  0  0
  8  9  1  0  0  0  0
  9 10  2  0  0  0  0
 10 11  1  0  0  0  0
 11 12  2  0  0  0  0
M  END
>  <CHROM.1>
-155.28233142,-171.26705894,-57.63119095,-21.50564879,-9.34093934,95.51456391
-2.41011729,0.29027979,-0.02302936

>  <Name>
ligand

>  <RI>
0

>  <Rbt.Current_Directory>
/home/itssahil/PROJECTS/Mol_Feturizer/Test_systems_manuscript/rnas/4nya

>  <Rbt.Executable>
rbdock ($Id: //depot/dev/client3/rdock/2013.1/src/exe/rbdock.cxx#4 $)

>  <Rbt.Library>
libRbt.so (2013.1, Build901 2013/11/27)

>  <Rbt.Parameter_File>
/export/apps/rDock/src/rDock_2013.1_src/data/scripts/dock_solv.prm

>  <Rbt.Receptor>
prm/pocket_docking_7.prm

>  <SCORE>
-12.9861

>  <SCORE.INTER>
-11.7912

>  <SCORE.INTER.CONST>
1

>  <SCORE.INTER.POLAR>
0

>  <SCORE.INTER.ROT>
3

>  <SCORE.INTER.SOLV>
14.2877

>  <SCORE.INTER.VDW>
-18.2233

>  <SCORE.INTER.norm>
-0.982598

>  <SCORE.INTRA>
-1.19493

>  <SCORE.INTRA.DIHEDRAL>
-2.18366

>  <SCORE.INTRA.DIHEDRAL.0>
3.34563

>  <SCORE.INTRA.POLAR>
0

>  <SCORE.INTRA.POLAR.0>
0

>  <SCORE.INTRA.REPUL>
0

>  <SCORE.INTRA.REPUL.0>
0

>  <SCORE.INTRA.SOLV>
-1.26463

>  <SCORE.INTRA.SOLV.lig_0>
-59.746

>  <SCORE.INTRA.VDW>
0.529218

>  <SCORE.INTRA.VDW.0>
-0.691186

>  <SCORE.INTRA.norm>
-0.0995771

>  <SCORE.RESTR>
0

>  <SCORE.RESTR.CAVITY>
0

>  <SCORE.RESTR.norm>
0

>  <SCORE.SYSTEM>
0

>  <SCORE.SYSTEM.CONST>
0

>  <SCORE.SYSTEM.DIHEDRAL>
0

>  <SCORE.SYSTEM.SOLV>
0

>  <SCORE.SYSTEM.norm>
0

>  <SCORE.heavy>
12

>  <SCORE.norm>
-1.08218

>  <RMSD>
1.076

$$$$
ligand
 OpenBabel02271912143D
libRbt.so/2013.1/901 2013/11/27
 12 12  0  0  0  0  0  0  0  0999 V2000
  -22.0711  -10.6848   95.9181 C   0  0  0  0  0  0  0  0  0  0  0  0
  -19.1846   -6.1445   94.7642 C   0  0  0  0  0  0  0  0  0  0  0  0
  -19.5152  -10.7983   95.0890 N   0  0  0  0  0  0  0  0  0  0  0  0
  -23.5233  -10.5442   95.7399 N   0  0  0  0  0  0  0  0  0  0  0  0
  -24.1539  -11.3035   96.2714 N   0  0  0  0  0  0  0  0  0  0  0  0
  -24.7827  -12.0609   96.8072 N   0  0  0  0  0  0  0  0  0  0  0  0
  -21.2104   -7.1620   95.4232 N   0  0  0  0  0  0  0  0  0  0  0  0
  -19.9352   -7.2831   95.0316 C   0  0  0  0  0  0  0  0  0  0  0  0
  -19.3906   -8.4920   94.8286 N   0  0  0  0  0  0  0  0  0  0  0  0
  -20.1051   -9.6098   95.0243 C   0  0  0  0  0  0  0  0  0  0  0  0
  -21.4299   -9.5484   95.4407 C   0  0  0  0  0  0  0  0  0  0  0  0
  -22.0023   -8.2970   95.6347 C   0  0  0  0  0  0  0  0  0  0  0  0
  1 11  1  0  0  0  0
  1  4  1  0  0  0  0
  2  8  1  0  0  0  0
  3 10  1  0  0  0  0
  4  5  1  0  0  0  0
  5  6  1  0  0  0  0
  7  8  2  0  0  0  0
  7 12  1  0  0  0  0
  8  9  1  0  0  0  0
  9 10  2  0  0  0  0
 10 11  1  0  0  0  0
 11 12  2  0  0  0  0
M  END
>  <CHROM.1>
-155.56019400,-168.20349610,63.10507572,-21.45612712,-9.33909722,95.50375593
-2.40054932,0.27132543,-0.04559585

>  <Name>
ligand

>  <RI>
0

>  <Rbt.Current_Directory>
/home/itssahil/PROJECTS/Mol_Feturizer/Test_systems_manuscript/rnas/4nya

>  <Rbt.Executable>
rbdock ($Id: //depot/dev/client3/rdock/2013.1/src/exe/rbdock.cxx#4 $)

>  <Rbt.Library>
libRbt.so (2013.1, Build901 2013/11/27)

>  <Rbt.Parameter_File>
/export/apps/rDock/src/rDock_2013.1_src/data/scripts/dock_solv.prm

>  <Rbt.Receptor>
prm/pocket_docking_6.prm

>  <SCORE>
-13.0263

>  <SCORE.INTER>
-11.8622

>  <SCORE.INTER.CONST>
1

>  <SCORE.INTER.POLAR>
0

>  <SCORE.INTER.ROT>
3

>  <SCORE.INTER.SOLV>
14.5919

>  <SCORE.INTER.VDW>
-18.3721

>  <SCORE.INTER.norm>
-0.988518

>  <SCORE.INTRA>
-1.16407

>  <SCORE.INTRA.DIHEDRAL>
-2.13394

>  <SCORE.INTRA.DIHEDRAL.0>
3.34563

>  <SCORE.INTRA.POLAR>
0

>  <SCORE.INTRA.POLAR.0>
0

>  <SCORE.INTRA.REPUL>
0

>  <SCORE.INTRA.REPUL.0>
0

>  <SCORE.INTRA.SOLV>
-1.25736

>  <SCORE.INTRA.SOLV.lig_0>
-59.746

>  <SCORE.INTRA.VDW>
0.531579

>  <SCORE.INTRA.VDW.0>
-0.691186

>  <SCORE.INTRA.norm>
-0.0970057

>  <SCORE.RESTR>
0

>  <SCORE.RESTR.CAVITY>
0

>  <SCORE.RESTR.norm>
0

>  <SCORE.SYSTEM>
0

>  <SCORE.SYSTEM.CONST>
0

>  <SCORE.SYSTEM.DIHEDRAL>
0

>  <SCORE.SYSTEM.SOLV>
0

>  <SCORE.SYSTEM.norm>
0

>  <SCORE.heavy>
12

>  <SCORE.norm>
-1.08552

>  <RMSD>
1.082

$$$$
ligand
 OpenBabel02271912143D
libRbt.so/2013.1/901 2013/11/27
 12 12  0  0  0  0  0  0  0  0999 V2000
  -22.0853  -10.6724   95.9301 C   0  0  0  0  0  0  0  0  0  0  0  0
  -19.1696   -6.1527   94.7692 C   0  0  0  0  0  0  0  0  0  0  0  0
  -19.5432  -10.8053   95.0625 N   0  0  0  0  0  0  0  0  0  0  0  0
  -23.5373  -10.5242   95.7558 N   0  0  0  0  0  0  0  0  0  0  0  0
  -24.1697  -11.2918   96.2730 N   0  0  0  0  0  0  0  0  0  0  0  0
  -24.8062  -12.0570   96.7881 N   0  0  0  0  0  0  0  0  0  0  0  0
  -21.1959   -7.1547   95.4500 N   0  0  0  0  0  0  0  0  0  0  0  0
  -19.9278   -7.2857   95.0387 C   0  0  0  0  0  0  0  0  0  0  0  0
  -19.3987   -8.4984   94.8183 N   0  0  0  0  0  0  0  0  0  0  0  0
  -20.1217   -9.6104   95.0158 C   0  0  0  0  0  0  0  0  0  0  0  0
  -21.4396   -9.5389   95.4521 C   0  0  0  0  0  0  0  0  0  0  0  0
  -21.9961   -8.2832   95.6642 C   0  0  0  0  0  0  0  0  0  0  0  0
  1 11  1  0  0  0  0
  1  4  1  0  0  0  0
  2  8  1  0  0  0  0
  3 10  1  0  0  0  0
  4  5  1  0  0  0  0
  5  6  1  0  0  0  0
  7  8  2  0  0  0  0
  7 12  1  0  0  0  0
  8  9  1  0  0  0  0
  9 10  2  0  0  0  0
 10 11  1  0  0  0  0
 11 12  2  0  0  0  0
M  END
>  <CHROM.1>
-154.71581178,-169.26698277,-176.75809301,-21.46341621,-9.33470308,95.50720711
-2.40748498,0.27940364,-0.03335428

>  <Name>
ligand

>  <RI>
0

>  <Rbt.Current_Directory>
/home/itssahil/PROJECTS/Mol_Feturizer/Test_systems_manuscript/rnas/4nya

>  <Rbt.Executable>
rbdock ($Id: //depot/dev/client3/rdock/2013.1/src/exe/rbdock.cxx#4 $)

>  <Rbt.Library>
libRbt.so (2013.1, Build901 2013/11/27)

>  <Rbt.Parameter_File>
/export/apps/rDock/src/rDock_2013.1_src/data/scripts/dock_solv.prm

>  <Rbt.Receptor>
prm/pocket_docking_5.prm

>  <SCORE>
-13.0331

>  <SCORE.INTER>
-11.8455

>  <SCORE.INTER.CONST>
1

>  <SCORE.INTER.POLAR>
0

>  <SCORE.INTER.ROT>
3

>  <SCORE.INTER.SOLV>
14.4841

>  <SCORE.INTER.VDW>
-18.3251

>  <SCORE.INTER.norm>
-0.987128

>  <SCORE.INTRA>
-1.18752

>  <SCORE.INTRA.DIHEDRAL>
-2.15008

>  <SCORE.INTRA.DIHEDRAL.0>
3.34563

>  <SCORE.INTRA.POLAR>
0

>  <SCORE.INTRA.POLAR.0>
0

>  <SCORE.INTRA.REPUL>
0

>  <SCORE.INTRA.REPUL.0>
0

>  <SCORE.INTRA.SOLV>
-1.25937

>  <SCORE.INTRA.SOLV.lig_0>
-59.746

>  <SCORE.INTRA.VDW>
0.517204

>  <SCORE.INTRA.VDW.0>
-0.691186

>  <SCORE.INTRA.norm>
-0.0989602

>  <SCORE.RESTR>
0

>  <SCORE.RESTR.CAVITY>
0

>  <SCORE.RESTR.norm>
0

>  <SCORE.SYSTEM>
0

>  <SCORE.SYSTEM.CONST>
0

>  <SCORE.SYSTEM.DIHEDRAL>
0

>  <SCORE.SYSTEM.SOLV>
0

>  <SCORE.SYSTEM.norm>
0

>  <SCORE.heavy>
12

>  <SCORE.norm>
-1.08609

>  <RMSD>
1.083

$$$$
ligand
 OpenBabel02271912143D
libRbt.so/2013.1/901 2013/11/27
 12 12  0  0  0  0  0  0  0  0999 V2000
  -22.0763  -10.6493   95.9576 C   0  0  0  0  0  0  0  0  0  0  0  0
  -19.1594   -6.1521   94.7147 C   0  0  0  0  0  0  0  0  0  0  0  0
  -19.5346  -10.7986   95.0915 N   0  0  0  0  0  0  0  0  0  0  0  0
  -23.5263  -10.5157   95.7566 N   0  0  0  0  0  0  0  0  0  0  0  0
  -24.1589  -11.3029   96.2433 N   0  0  0  0  0  0  0  0  0  0  0  0
  -24.7896  -12.0884   96.7344 N   0  0  0  0  0  0  0  0  0  0  0  0
  -21.1858   -7.1411   95.4142 N   0  0  0  0  0  0  0  0  0  0  0  0
  -19.9179   -7.2798   95.0048 C   0  0  0  0  0  0  0  0  0  0  0  0
  -19.3893   -8.4965   94.8060 N   0  0  0  0  0  0  0  0  0  0  0  0
  -20.1127   -9.6045   95.0236 C   0  0  0  0  0  0  0  0  0  0  0  0
  -21.4304   -9.5247   95.4591 C   0  0  0  0  0  0  0  0  0  0  0  0
  -21.9864   -8.2652   95.6490 C   0  0  0  0  0  0  0  0  0  0  0  0
  1 11  1  0  0  0  0
  1  4  1  0  0  0  0
  2  8  1  0  0  0  0
  3 10  1  0  0  0  0
  4  5  1  0  0  0  0
  5  6  1  0  0  0  0
  7  8  2  0  0  0  0
  7 12  1  0  0  0  0
  8  9  1  0  0  0  0
  9 10  2  0  0  0  0
 10 11  1  0  0  0  0
 11 12  2  0  0  0  0
M  END
>  <CHROM.1>
-153.57826455,-172.15204204,61.08195580,-21.45309538,-9.33038313,95.49313830
-2.39989466,0.26753683,-0.04852008

>  <Name>
ligand

>  <RI>
0

>  <Rbt.Current_Directory>
/home/itssahil/PROJECTS/Mol_Feturizer/Test_systems_manuscript/rnas/4nya

>  <Rbt.Executable>
rbdock ($Id: //depot/dev/client3/rdock/2013.1/src/exe/rbdock.cxx#4 $)

>  <Rbt.Library>
libRbt.so (2013.1, Build901 2013/11/27)

>  <Rbt.Parameter_File>
/export/apps/rDock/src/rDock_2013.1_src/data/scripts/dock_solv.prm

>  <Rbt.Receptor>
prm/pocket_docking_7.prm

>  <SCORE>
-13.0067

>  <SCORE.INTER>
-11.7844

>  <SCORE.INTER.CONST>
1

>  <SCORE.INTER.POLAR>
0

>  <SCORE.INTER.ROT>
3

>  <SCORE.INTER.SOLV>
14.5447

>  <SCORE.INTER.VDW>
-18.3045

>  <SCORE.INTER.norm>
-0.98203

>  <SCORE.INTRA>
-1.22231

>  <SCORE.INTRA.DIHEDRAL>
-2.19022

>  <SCORE.INTRA.DIHEDRAL.0>
3.34563

>  <SCORE.INTRA.POLAR>
0

>  <SCORE.INTRA.POLAR.0>
0

>  <SCORE.INTRA.REPUL>
0

>  <SCORE.INTRA.REPUL.0>
0

>  <SCORE.INTRA.SOLV>
-1.25815

>  <SCORE.INTRA.SOLV.lig_0>
-59.746

>  <SCORE.INTRA.VDW>
0.501871

>  <SCORE.INTRA.VDW.0>
-0.691186

>  <SCORE.INTRA.norm>
-0.10186

>  <SCORE.RESTR>
0

>  <SCORE.RESTR.CAVITY>
0

>  <SCORE.RESTR.norm>
0

>  <SCORE.SYSTEM>
0

>  <SCORE.SYSTEM.CONST>
0

>  <SCORE.SYSTEM.DIHEDRAL>
0

>  <SCORE.SYSTEM.SOLV>
0

>  <SCORE.SYSTEM.norm>
0

>  <SCORE.heavy>
12

>  <SCORE.norm>
-1.08389

>  <RMSD>
1.086

$$$$
ligand
 OpenBabel02271912143D
libRbt.so/2013.1/901 2013/11/27
 12 12  0  0  0  0  0  0  0  0999 V2000
  -22.1015  -10.6621   95.9303 C   0  0  0  0  0  0  0  0  0  0  0  0
  -19.1920   -6.1393   94.7657 C   0  0  0  0  0  0  0  0  0  0  0  0
  -19.5642  -10.7927   95.0484 N   0  0  0  0  0  0  0  0  0  0  0  0
  -23.5554  -10.5057   95.7811 N   0  0  0  0  0  0  0  0  0  0  0  0
  -24.1818  -11.2993   96.2654 N   0  0  0  0  0  0  0  0  0  0  0  0
  -24.8061  -12.0914   96.7542 N   0  0  0  0  0  0  0  0  0  0  0  0
  -21.2146   -7.1431   95.4550 N   0  0  0  0  0  0  0  0  0  0  0  0
  -19.9488   -7.2730   95.0363 C   0  0  0  0  0  0  0  0  0  0  0  0
  -19.4210   -8.4851   94.8097 N   0  0  0  0  0  0  0  0  0  0  0  0
  -20.1430   -9.5976   95.0081 C   0  0  0  0  0  0  0  0  0  0  0  0
  -21.4584   -9.5273   95.4519 C   0  0  0  0  0  0  0  0  0  0  0  0
  -22.0137   -8.2722   95.6705 C   0  0  0  0  0  0  0  0  0  0  0  0
  1 11  1  0  0  0  0
  1  4  1  0  0  0  0
  2  8  1  0  0  0  0
  3 10  1  0  0  0  0
  4  5  1  0  0  0  0
  5  6  1  0  0  0  0
  7  8  2  0  0  0  0
  7 12  1  0  0  0  0
  8  9  1  0  0  0  0
  9 10  2  0  0  0  0
 10 11  1  0  0  0  0
 11 12  2  0  0  0  0
M  END
>  <CHROM.1>
-155.47558771,-171.74754580,61.84143432,-21.48078928,-9.32776009,95.50364276
-2.40329023,0.28145182,-0.03008074

>  <Name>
ligand

>  <RI>
0

>  <Rbt.Current_Directory>
/home/itssahil/PROJECTS/Mol_Feturizer/Test_systems_manuscript/rnas/4nya

>  <Rbt.Executable>
rbdock ($Id: //depot/dev/client3/rdock/2013.1/src/exe/rbdock.cxx#4 $)

>  <Rbt.Library>
libRbt.so (2013.1, Build901 2013/11/27)

>  <Rbt.Parameter_File>
/export/apps/rDock/src/rDock_2013.1_src/data/scripts/dock_solv.prm

>  <Rbt.Receptor>
prm/pocket_docking_8.prm

>  <SCORE>
-13.0282

>  <SCORE.INTER>
-11.8317

>  <SCORE.INTER.CONST>
1

>  <SCORE.INTER.POLAR>
0

>  <SCORE.INTER.ROT>
3

>  <SCORE.INTER.SOLV>
14.4459

>  <SCORE.INTER.VDW>
-18.3031

>  <SCORE.INTER.norm>
-0.985975

>  <SCORE.INTRA>
-1.19648

>  <SCORE.INTRA.DIHEDRAL>
-2.19119

>  <SCORE.INTRA.DIHEDRAL.0>
3.34563

>  <SCORE.INTRA.POLAR>
0

>  <SCORE.INTRA.POLAR.0>
0

>  <SCORE.INTRA.REPUL>
0

>  <SCORE.INTRA.REPUL.0>
0

>  <SCORE.INTRA.SOLV>
-1.26701

>  <SCORE.INTRA.SOLV.lig_0>
-59.746

>  <SCORE.INTRA.VDW>
0.532623

>  <SCORE.INTRA.VDW.0>
-0.691186

>  <SCORE.INTRA.norm>
-0.0997064

>  <SCORE.RESTR>
0

>  <SCORE.RESTR.CAVITY>
0

>  <SCORE.RESTR.norm>
0

>  <SCORE.SYSTEM>
0

>  <SCORE.SYSTEM.CONST>
0

>  <SCORE.SYSTEM.DIHEDRAL>
0

>  <SCORE.SYSTEM.SOLV>
0

>  <SCORE.SYSTEM.norm>
0

>  <SCORE.heavy>
12

>  <SCORE.norm>
-1.08568

>  <RMSD>
1.087

$$$$
ligand
 OpenBabel02271912143D
libRbt.so/2013.1/901 2013/11/27
 12 12  0  0  0  0  0  0  0  0999 V2000
  -22.1282  -10.7057   95.9197 C   0  0  0  0  0  0  0  0  0  0  0  0
  -19.1418   -6.2222   94.7987 C   0  0  0  0  0  0  0  0  0  0  0  0
  -19.6258  -10.8715   94.9486 N   0  0  0  0  0  0  0  0  0  0  0  0
  -23.5813  -10.5180   95.8018 N   0  0  0  0  0  0  0  0  0  0  0  0
  -24.2129  -11.2265   96.3984 N   0  0  0  0  0  0  0  0  0  0  0  0
  -24.8421  -11.9387   96.9923 N   0  0  0  0  0  0  0  0  0  0  0  0
  -21.1659   -7.1967   95.5246 N   0  0  0  0  0  0  0  0  0  0  0  0
  -19.9185   -7.3447   95.0594 C   0  0  0  0  0  0  0  0  0  0  0  0
  -19.4303   -8.5618   94.7773 N   0  0  0  0  0  0  0  0  0  0  0  0
  -20.1742   -9.6616   94.9652 C   0  0  0  0  0  0  0  0  0  0  0  0
  -21.4719   -9.5726   95.4554 C   0  0  0  0  0  0  0  0  0  0  0  0
  -21.9866   -8.3117   95.7318 C   0  0  0  0  0  0  0  0  0  0  0  0
  1 11  1  0  0  0  0
  1  4  1  0  0  0  0
  2  8  1  0  0  0  0
  3 10  1  0  0  0  0
  4  5  1  0  0  0  0
  5  6  1  0  0  0  0
  7  8  2  0  0  0  0
  7 12  1  0  0  0  0
  8  9  1  0  0  0  0
  9 10  2  0  0  0  0
 10 11  1  0  0  0  0
 11 12  2  0  0  0  0
M  END
>  <CHROM.1>
-154.43811302,-163.48914513,-57.54424314,-21.48748741,-9.35534770,95.53778175
-2.44519991,0.33393251,0.00694760

>  <Name>
ligand

>  <RI>
0

>  <Rbt.Current_Directory>
/home/itssahil/PROJECTS/Mol_Feturizer/Test_systems_manuscript/rnas/4nya

>  <Rbt.Executable>
rbdock ($Id: //depot/dev/client3/rdock/2013.1/src/exe/rbdock.cxx#4 $)

>  <Rbt.Library>
libRbt.so (2013.1, Build901 2013/11/27)

>  <Rbt.Parameter_File>
/export/apps/rDock/src/rDock_2013.1_src/data/scripts/dock_solv.prm

>  <Rbt.Receptor>
prm/pocket_docking_4.prm

>  <SCORE>
-12.9791

>  <SCORE.INTER>
-11.8547

>  <SCORE.INTER.CONST>
1

>  <SCORE.INTER.POLAR>
0

>  <SCORE.INTER.ROT>
3

>  <SCORE.INTER.SOLV>
14.1626

>  <SCORE.INTER.VDW>
-18.224

>  <SCORE.INTER.norm>
-0.987893

>  <SCORE.INTRA>
-1.12443

>  <SCORE.INTRA.DIHEDRAL>
-2.03202

>  <SCORE.INTRA.DIHEDRAL.0>
3.34563

>  <SCORE.INTRA.POLAR>
0

>  <SCORE.INTRA.POLAR.0>
0

>  <SCORE.INTRA.REPUL>
0

>  <SCORE.INTRA.REPUL.0>
0

>  <SCORE.INTRA.SOLV>
-1.23522

>  <SCORE.INTRA.SOLV.lig_0>
-59.746

>  <SCORE.INTRA.VDW>
0.509187

>  <SCORE.INTRA.VDW.0>
-0.691186

>  <SCORE.INTRA.norm>
-0.0937028

>  <SCORE.RESTR>
0

>  <SCORE.RESTR.CAVITY>
0

>  <SCORE.RESTR.norm>
0

>  <SCORE.SYSTEM>
0

>  <SCORE.SYSTEM.CONST>
0

>  <SCORE.SYSTEM.DIHEDRAL>
0

>  <SCORE.SYSTEM.SOLV>
0

>  <SCORE.SYSTEM.norm>
0

>  <SCORE.heavy>
12

>  <SCORE.norm>
-1.0816

>  <RMSD>
1.092

$$$$
ligand
 OpenBabel02271912143D
libRbt.so/2013.1/901 2013/11/27
 12 12  0  0  0  0  0  0  0  0999 V2000
  -22.0865  -10.6900   95.9281 C   0  0  0  0  0  0  0  0  0  0  0  0
  -19.1836   -6.1615   94.7694 C   0  0  0  0  0  0  0  0  0  0  0  0
  -19.5588  -10.8166   95.0186 N   0  0  0  0  0  0  0  0  0  0  0  0
  -23.5398  -10.5458   95.7619 N   0  0  0  0  0  0  0  0  0  0  0  0
  -24.1700  -11.2567   96.3570 N   0  0  0  0  0  0  0  0  0  0  0  0
  -24.7980  -11.9656   96.9563 N   0  0  0  0  0  0  0  0  0  0  0  0
  -21.2001   -7.1684   95.4717 N   0  0  0  0  0  0  0  0  0  0  0  0
  -19.9389   -7.2964   95.0388 C   0  0  0  0  0  0  0  0  0  0  0  0
  -19.4151   -8.5073   94.7970 N   0  0  0  0  0  0  0  0  0  0  0  0
  -20.1364   -9.6205   94.9940 C   0  0  0  0  0  0  0  0  0  0  0  0
  -21.4470   -9.5521   95.4521 C   0  0  0  0  0  0  0  0  0  0  0  0
  -21.9984   -8.2982   95.6866 C   0  0  0  0  0  0  0  0  0  0  0  0
  1 11  1  0  0  0  0
  1  4  1  0  0  0  0
  2  8  1  0  0  0  0
  3 10  1  0  0  0  0
  4  5  1  0  0  0  0
  5  6  1  0  0  0  0
  7  8  2  0  0  0  0
  7 12  1  0  0  0  0
  8  9  1  0  0  0  0
  9 10  2  0  0  0  0
 10 11  1  0  0  0  0
 11 12  2  0  0  0  0
M  END
>  <CHROM.1>
-153.95331633,-163.63349605,61.39399035,-21.47016067,-9.33454426,95.52576538
-2.41919716,0.30860828,-0.02412348

>  <Name>
ligand

>  <RI>
0

>  <Rbt.Current_Directory>
/home/itssahil/PROJECTS/Mol_Feturizer/Test_systems_manuscript/rnas/4nya

>  <Rbt.Executable>
rbdock ($Id: //depot/dev/client3/rdock/2013.1/src/exe/rbdock.cxx#4 $)

>  <Rbt.Library>
libRbt.so (2013.1, Build901 2013/11/27)

>  <Rbt.Parameter_File>
/export/apps/rDock/src/rDock_2013.1_src/data/scripts/dock_solv.prm

>  <Rbt.Receptor>
prm/pocket_docking_8.prm

>  <SCORE>
-13.0281

>  <SCORE.INTER>
-11.8955

>  <SCORE.INTER.CONST>
1

>  <SCORE.INTER.POLAR>
0

>  <SCORE.INTER.ROT>
3

>  <SCORE.INTER.SOLV>
14.4615

>  <SCORE.INTER.VDW>
-18.3509

>  <SCORE.INTER.norm>
-0.991295

>  <SCORE.INTRA>
-1.13259

>  <SCORE.INTRA.DIHEDRAL>
-2.03459

>  <SCORE.INTRA.DIHEDRAL.0>
3.34563

>  <SCORE.INTRA.POLAR>
0

>  <SCORE.INTRA.POLAR.0>
0

>  <SCORE.INTRA.REPUL>
0

>  <SCORE.INTRA.REPUL.0>
0

>  <SCORE.INTRA.SOLV>
-1.23319

>  <SCORE.INTRA.SOLV.lig_0>
-59.746

>  <SCORE.INTRA.VDW>
0.501307

>  <SCORE.INTRA.VDW.0>
-0.691186

>  <SCORE.INTRA.norm>
-0.0943822

>  <SCORE.RESTR>
0

>  <SCORE.RESTR.CAVITY>
0

>  <SCORE.RESTR.norm>
0

>  <SCORE.SYSTEM>
0

>  <SCORE.SYSTEM.CONST>
0

>  <SCORE.SYSTEM.DIHEDRAL>
0

>  <SCORE.SYSTEM.SOLV>
0

>  <SCORE.SYSTEM.norm>
0

>  <SCORE.heavy>
12

>  <SCORE.norm>
-1.08568

>  <RMSD>
1.097

$$$$
ligand
 OpenBabel02271912143D
libRbt.so/2013.1/901 2013/11/27
 12 12  0  0  0  0  0  0  0  0999 V2000
  -22.1005  -10.6700   95.9553 C   0  0  0  0  0  0  0  0  0  0  0  0
  -19.2020   -6.1453   94.7706 C   0  0  0  0  0  0  0  0  0  0  0  0
  -19.5480  -10.7964   95.1178 N   0  0  0  0  0  0  0  0  0  0  0  0
  -23.5541  -10.5158   95.8014 N   0  0  0  0  0  0  0  0  0  0  0  0
  -24.1835  -11.2487   96.3701 N   0  0  0  0  0  0  0  0  0  0  0  0
  -24.8104  -11.9852   96.9363 N   0  0  0  0  0  0  0  0  0  0  0  0
  -21.2291   -7.1526   95.4413 N   0  0  0  0  0  0  0  0  0  0  0  0
  -19.9557   -7.2800   95.0458 C   0  0  0  0  0  0  0  0  0  0  0  0
  -19.4161   -8.4917   94.8465 N   0  0  0  0  0  0  0  0  0  0  0  0
  -20.1339   -9.6061   95.0497 C   0  0  0  0  0  0  0  0  0  0  0  0
  -21.4570   -9.5381   95.4705 C   0  0  0  0  0  0  0  0  0  0  0  0
  -22.0242   -8.2837   95.6607 C   0  0  0  0  0  0  0  0  0  0  0  0
  1 11  1  0  0  0  0
  1  4  1  0  0  0  0
  2  8  1  0  0  0  0
  3 10  1  0  0  0  0
  4  5  1  0  0  0  0
  5  6  1  0  0  0  0
  7  8  2  0  0  0  0
  7 12  1  0  0  0  0
  8  9  1  0  0  0  0
  9 10  2  0  0  0  0
 10 11  1  0  0  0  0
 11 12  2  0  0  0  0
M  END
>  <CHROM.1>
-156.47062926,-166.13623951,-56.75718142,-21.48200073,-9.32078938,95.54547661
-2.40914459,0.28423802,-0.05103487

>  <Name>
ligand

>  <RI>
0

>  <Rbt.Current_Directory>
/home/itssahil/PROJECTS/Mol_Feturizer/Test_systems_manuscript/rnas/4nya

>  <Rbt.Executable>
rbdock ($Id: //depot/dev/client3/rdock/2013.1/src/exe/rbdock.cxx#4 $)

>  <Rbt.Library>
libRbt.so (2013.1, Build901 2013/11/27)

>  <Rbt.Parameter_File>
/export/apps/rDock/src/rDock_2013.1_src/data/scripts/dock_solv.prm

>  <Rbt.Receptor>
prm/pocket_docking_3.prm

>  <SCORE>
-13.0067

>  <SCORE.INTER>
-11.8774

>  <SCORE.INTER.CONST>
1

>  <SCORE.INTER.POLAR>
0

>  <SCORE.INTER.ROT>
3

>  <SCORE.INTER.SOLV>
14.4235

>  <SCORE.INTER.VDW>
-18.3261

>  <SCORE.INTER.norm>
-0.989782

>  <SCORE.INTRA>
-1.12932

>  <SCORE.INTRA.DIHEDRAL>
-2.09439

>  <SCORE.INTRA.DIHEDRAL.0>
3.34563

>  <SCORE.INTRA.POLAR>
0

>  <SCORE.INTRA.POLAR.0>
0

>  <SCORE.INTRA.REPUL>
0

>  <SCORE.INTRA.REPUL.0>
0

>  <SCORE.INTRA.SOLV>
-1.25506

>  <SCORE.INTRA.SOLV.lig_0>
-59.746

>  <SCORE.INTRA.VDW>
0.545406

>  <SCORE.INTRA.VDW.0>
-0.691186

>  <SCORE.INTRA.norm>
-0.09411

>  <SCORE.RESTR>
0

>  <SCORE.RESTR.CAVITY>
0

>  <SCORE.RESTR.norm>
0

>  <SCORE.SYSTEM>
0

>  <SCORE.SYSTEM.CONST>
0

>  <SCORE.SYSTEM.DIHEDRAL>
0

>  <SCORE.SYSTEM.SOLV>
0

>  <SCORE.SYSTEM.norm>
0

>  <SCORE.heavy>
12

>  <SCORE.norm>
-1.08389

>  <RMSD>
1.099

$$$$
ligand
 OpenBabel02271912143D
libRbt.so/2013.1/901 2013/11/27
 12 12  0  0  0  0  0  0  0  0999 V2000
  -22.0806  -10.6879   95.9371 C   0  0  0  0  0  0  0  0  0  0  0  0
  -19.1854   -6.1572   94.7676 C   0  0  0  0  0  0  0  0  0  0  0  0
  -19.5510  -10.8122   95.0324 N   0  0  0  0  0  0  0  0  0  0  0  0
  -23.5355  -10.5355   95.7939 N   0  0  0  0  0  0  0  0  0  0  0  0
  -24.1597  -11.2741   96.3611 N   0  0  0  0  0  0  0  0  0  0  0  0
  -24.7817  -12.0108   96.9324 N   0  0  0  0  0  0  0  0  0  0  0  0
  -21.2009   -7.1660   95.4701 N   0  0  0  0  0  0  0  0  0  0  0  0
  -19.9388   -7.2928   95.0397 C   0  0  0  0  0  0  0  0  0  0  0  0
  -19.4119   -8.5034   94.8030 N   0  0  0  0  0  0  0  0  0  0  0  0
  -20.1311   -9.6174   95.0026 C   0  0  0  0  0  0  0  0  0  0  0  0
  -21.4427   -9.5503   95.4582 C   0  0  0  0  0  0  0  0  0  0  0  0
  -21.9971   -8.2968   95.6875 C   0  0  0  0  0  0  0  0  0  0  0  0
  1 11  1  0  0  0  0
  1  4  1  0  0  0  0
  2  8  1  0  0  0  0
  3 10  1  0  0  0  0
  4  5  1  0  0  0  0
  5  6  1  0  0  0  0
  7  8  2  0  0  0  0
  7 12  1  0  0  0  0
  8  9  1  0  0  0  0
  9 10  2  0  0  0  0
 10 11  1  0  0  0  0
 11 12  2  0  0  0  0
M  END
>  <CHROM.1>
-155.13632900,-166.06578013,61.89308968,-21.46542188,-9.33683306,95.53026399
-2.41309090,0.30498009,-0.02864200

>  <Name>
ligand

>  <RI>
0

>  <Rbt.Current_Directory>
/home/itssahil/PROJECTS/Mol_Feturizer/Test_systems_manuscript/rnas/4nya

>  <Rbt.Executable>
rbdock ($Id: //depot/dev/client3/rdock/2013.1/src/exe/rbdock.cxx#4 $)

>  <Rbt.Library>
libRbt.so (2013.1, Build901 2013/11/27)

>  <Rbt.Parameter_File>
/export/apps/rDock/src/rDock_2013.1_src/data/scripts/dock_solv.prm

>  <Rbt.Receptor>
prm/pocket_docking_6.prm

>  <SCORE>
-13.0324

>  <SCORE.INTER>
-11.8848

>  <SCORE.INTER.CONST>
1

>  <SCORE.INTER.POLAR>
0

>  <SCORE.INTER.ROT>
3

>  <SCORE.INTER.SOLV>
14.5151

>  <SCORE.INTER.VDW>
-18.3615

>  <SCORE.INTER.norm>
-0.990396

>  <SCORE.INTRA>
-1.14766

>  <SCORE.INTRA.DIHEDRAL>
-2.09276

>  <SCORE.INTRA.DIHEDRAL.0>
3.34563

>  <SCORE.INTRA.POLAR>
0

>  <SCORE.INTRA.POLAR.0>
0

>  <SCORE.INTRA.REPUL>
0

>  <SCORE.INTRA.REPUL.0>
0

>  <SCORE.INTRA.SOLV>
-1.24823

>  <SCORE.INTRA.SOLV.lig_0>
-59.746

>  <SCORE.INTRA.VDW>
0.52284

>  <SCORE.INTRA.VDW.0>
-0.691186

>  <SCORE.INTRA.norm>
-0.095638

>  <SCORE.RESTR>
0

>  <SCORE.RESTR.CAVITY>
0

>  <SCORE.RESTR.norm>
0

>  <SCORE.SYSTEM>
0

>  <SCORE.SYSTEM.CONST>
0

>  <SCORE.SYSTEM.DIHEDRAL>
0

>  <SCORE.SYSTEM.SOLV>
0

>  <SCORE.SYSTEM.norm>
0

>  <SCORE.heavy>
12

>  <SCORE.norm>
-1.08603

>  <RMSD>
1.099

$$$$
ligand
 OpenBabel02271912143D
libRbt.so/2013.1/901 2013/11/27
 12 12  0  0  0  0  0  0  0  0999 V2000
  -22.0844  -10.6810   95.9285 C   0  0  0  0  0  0  0  0  0  0  0  0
  -19.1764   -6.1563   94.7674 C   0  0  0  0  0  0  0  0  0  0  0  0
  -19.5512  -10.8104   95.0346 N   0  0  0  0  0  0  0  0  0  0  0  0
  -23.5378  -10.5309   95.7686 N   0  0  0  0  0  0  0  0  0  0  0  0
  -24.1678  -11.2527   96.3507 N   0  0  0  0  0  0  0  0  0  0  0  0
  -24.7957  -11.9725   96.9369 N   0  0  0  0  0  0  0  0  0  0  0  0
  -21.1966   -7.1610   95.4621 N   0  0  0  0  0  0  0  0  0  0  0  0
  -19.9329   -7.2904   95.0373 C   0  0  0  0  0  0  0  0  0  0  0  0
  -19.4071   -8.5021   94.8038 N   0  0  0  0  0  0  0  0  0  0  0  0
  -20.1291   -9.6147   95.0013 C   0  0  0  0  0  0  0  0  0  0  0  0
  -21.4425   -9.5449   95.4513 C   0  0  0  0  0  0  0  0  0  0  0  0
  -21.9957   -8.2902   95.6771 C   0  0  0  0  0  0  0  0  0  0  0  0
  1 11  1  0  0  0  0
  1  4  1  0  0  0  0
  2  8  1  0  0  0  0
  3 10  1  0  0  0  0
  4  5  1  0  0  0  0
  5  6  1  0  0  0  0
  7  8  2  0  0  0  0
  7 12  1  0  0  0  0
  8  9  1  0  0  0  0
  9 10  2  0  0  0  0
 10 11  1  0  0  0  0
 11 12  2  0  0  0  0
M  END
>  <CHROM.1>
-154.66448800,-164.72689135,60.63296110,-21.46555721,-9.32858787,95.52479398
-2.41735788,0.30259384,-0.02893871

>  <Name>
ligand

>  <RI>
0

>  <Rbt.Current_Directory>
/home/itssahil/PROJECTS/Mol_Feturizer/Test_systems_manuscript/rnas/4nya

>  <Rbt.Executable>
rbdock ($Id: //depot/dev/client3/rdock/2013.1/src/exe/rbdock.cxx#4 $)

>  <Rbt.Library>
libRbt.so (2013.1, Build901 2013/11/27)

>  <Rbt.Parameter_File>
/export/apps/rDock/src/rDock_2013.1_src/data/scripts/dock_solv.prm

>  <Rbt.Receptor>
prm/pocket_docking_5.prm

>  <SCORE>
-13.0323

>  <SCORE.INTER>
-11.8941

>  <SCORE.INTER.CONST>
1

>  <SCORE.INTER.POLAR>
0

>  <SCORE.INTER.ROT>
3

>  <SCORE.INTER.SOLV>
14.4702

>  <SCORE.INTER.VDW>
-18.3528

>  <SCORE.INTER.norm>
-0.991179

>  <SCORE.INTRA>
-1.13817

>  <SCORE.INTRA.DIHEDRAL>
-2.06311

>  <SCORE.INTRA.DIHEDRAL.0>
3.34563

>  <SCORE.INTRA.POLAR>
0

>  <SCORE.INTRA.POLAR.0>
0

>  <SCORE.INTRA.REPUL>
0

>  <SCORE.INTRA.REPUL.0>
0

>  <SCORE.INTRA.SOLV>
-1.24105

>  <SCORE.INTRA.SOLV.lig_0>
-59.746

>  <SCORE.INTRA.VDW>
0.513913

>  <SCORE.INTRA.VDW.0>
-0.691186

>  <SCORE.INTRA.norm>
-0.0948472

>  <SCORE.RESTR>
0

>  <SCORE.RESTR.CAVITY>
0

>  <SCORE.RESTR.norm>
0

>  <SCORE.SYSTEM>
0

>  <SCORE.SYSTEM.CONST>
0

>  <SCORE.SYSTEM.DIHEDRAL>
0

>  <SCORE.SYSTEM.SOLV>
0

>  <SCORE.SYSTEM.norm>
0

>  <SCORE.heavy>
12

>  <SCORE.norm>
-1.08603

>  <RMSD>
1.101

$$$$
ligand
 OpenBabel02271912143D
libRbt.so/2013.1/901 2013/11/27
 12 12  0  0  0  0  0  0  0  0999 V2000
  -22.0912  -10.6751   95.9484 C   0  0  0  0  0  0  0  0  0  0  0  0
  -19.1842   -6.1552   94.7664 C   0  0  0  0  0  0  0  0  0  0  0  0
  -19.5714  -10.8092   95.0181 N   0  0  0  0  0  0  0  0  0  0  0  0
  -23.5460  -10.5214   95.8054 N   0  0  0  0  0  0  0  0  0  0  0  0
  -24.1707  -11.2628   96.3683 N   0  0  0  0  0  0  0  0  0  0  0  0
  -24.7932  -12.0022   96.9355 N   0  0  0  0  0  0  0  0  0  0  0  0
  -21.1979   -7.1561   95.4853 N   0  0  0  0  0  0  0  0  0  0  0  0
  -19.9407   -7.2879   95.0419 C   0  0  0  0  0  0  0  0  0  0  0  0
  -19.4225   -8.5003   94.7956 N   0  0  0  0  0  0  0  0  0  0  0  0
  -20.1456   -9.6114   94.9984 C   0  0  0  0  0  0  0  0  0  0  0  0
  -21.4521   -9.5391   95.4673 C   0  0  0  0  0  0  0  0  0  0  0  0
  -21.9978   -8.2836   95.7065 C   0  0  0  0  0  0  0  0  0  0  0  0
  1 11  1  0  0  0  0
  1  4  1  0  0  0  0
  2  8  1  0  0  0  0
  3 10  1  0  0  0  0
  4  5  1  0  0  0  0
  5  6  1  0  0  0  0
  7  8  2  0  0  0  0
  7 12  1  0  0  0  0
  8  9  1  0  0  0  0
  9 10  2  0  0  0  0
 10 11  1  0  0  0  0
 11 12  2  0  0  0  0
M  END
>  <CHROM.1>
-154.45737396,-166.47668588,61.23598301,-21.47350594,-9.32855740,95.53442706
-2.41645269,0.31103267,-0.02264446

>  <Name>
ligand

>  <RI>
0

>  <Rbt.Current_Directory>
/home/itssahil/PROJECTS/Mol_Feturizer/Test_systems_manuscript/rnas/4nya

>  <Rbt.Executable>
rbdock ($Id: //depot/dev/client3/rdock/2013.1/src/exe/rbdock.cxx#4 $)

>  <Rbt.Library>
libRbt.so (2013.1, Build901 2013/11/27)

>  <Rbt.Parameter_File>
/export/apps/rDock/src/rDock_2013.1_src/data/scripts/dock_solv.prm

>  <Rbt.Receptor>
prm/pocket_docking_7.prm

>  <SCORE>
-13.0101

>  <SCORE.INTER>
-11.8493

>  <SCORE.INTER.CONST>
1

>  <SCORE.INTER.POLAR>
0

>  <SCORE.INTER.ROT>
3

>  <SCORE.INTER.SOLV>
14.4432

>  <SCORE.INTER.VDW>
-18.314

>  <SCORE.INTER.norm>
-0.987444

>  <SCORE.INTRA>
-1.16081

>  <SCORE.INTRA.DIHEDRAL>
-2.09969

>  <SCORE.INTRA.DIHEDRAL.0>
3.34563

>  <SCORE.INTRA.POLAR>
0

>  <SCORE.INTRA.POLAR.0>
0

>  <SCORE.INTRA.REPUL>
0

>  <SCORE.INTRA.REPUL.0>
0

>  <SCORE.INTRA.SOLV>
-1.24598

>  <SCORE.INTRA.SOLV.lig_0>
-59.746

>  <SCORE.INTRA.VDW>
0.512022

>  <SCORE.INTRA.VDW.0>
-0.691186

>  <SCORE.INTRA.norm>
-0.0967343

>  <SCORE.RESTR>
0

>  <SCORE.RESTR.CAVITY>
0

>  <SCORE.RESTR.norm>
0

>  <SCORE.SYSTEM>
0

>  <SCORE.SYSTEM.CONST>
0

>  <SCORE.SYSTEM.DIHEDRAL>
0

>  <SCORE.SYSTEM.SOLV>
0

>  <SCORE.SYSTEM.norm>
0

>  <SCORE.heavy>
12

>  <SCORE.norm>
-1.08418

>  <RMSD>
1.104

$$$$
ligand
 OpenBabel02271912143D
libRbt.so/2013.1/901 2013/11/27
 12 12  0  0  0  0  0  0  0  0999 V2000
  -22.1477  -10.5600   95.8700 C   0  0  0  0  0  0  0  0  0  0  0  0
  -19.1848   -6.0622   94.7437 C   0  0  0  0  0  0  0  0  0  0  0  0
  -19.5330  -10.6979   95.2559 N   0  0  0  0  0  0  0  0  0  0  0  0
  -23.3375  -10.8072   95.0431 N   0  0  0  0  0  0  0  0  0  0  0  0
  -24.3190  -10.5310   95.5089 N   0  0  0  0  0  0  0  0  0  0  0  0
  -25.2987  -10.2499   95.9749 N   0  0  0  0  0  0  0  0  0  0  0  0
  -21.2556   -7.0592   95.2836 N   0  0  0  0  0  0  0  0  0  0  0  0
  -19.9526   -7.1913   95.0021 C   0  0  0  0  0  0  0  0  0  0  0  0
  -19.3915   -8.4053   94.9000 N   0  0  0  0  0  0  0  0  0  0  0  0
  -20.1177   -9.5168   95.0889 C   0  0  0  0  0  0  0  0  0  0  0  0
  -21.4719   -9.4434   95.3938 C   0  0  0  0  0  0  0  0  0  0  0  0
  -22.0601   -8.1874   95.4828 C   0  0  0  0  0  0  0  0  0  0  0  0
  1 11  1  0  0  0  0
  1  4  1  0  0  0  0
  2  8  1  0  0  0  0
  3 10  1  0  0  0  0
  4  5  1  0  0  0  0
  5  6  1  0  0  0  0
  7  8  2  0  0  0  0
  7 12  1  0  0  0  0
  8  9  1  0  0  0  0
  9 10  2  0  0  0  0
 10 11  1  0  0  0  0
 11 12  2  0  0  0  0
M  END
>  <CHROM.1>
-126.76886627,-105.34485147,61.17093536,-21.52110103,-9.06388980,95.29486044
-2.52806235,0.11594566,-0.04946361

>  <Name>
ligand

>  <RI>
0

>  <Rbt.Current_Directory>
/home/itssahil/PROJECTS/Mol_Feturizer/Test_systems_manuscript/rnas/4nya

>  <Rbt.Executable>
rbdock ($Id: //depot/dev/client3/rdock/2013.1/src/exe/rbdock.cxx#4 $)

>  <Rbt.Library>
libRbt.so (2013.1, Build901 2013/11/27)

>  <Rbt.Parameter_File>
/export/apps/rDock/src/rDock_2013.1_src/data/scripts/dock_solv.prm

>  <Rbt.Receptor>
prm/pocket_docking_4.prm

>  <SCORE>
-12.257

>  <SCORE.INTER>
-11.7886

>  <SCORE.INTER.CONST>
1

>  <SCORE.INTER.POLAR>
0

>  <SCORE.INTER.ROT>
3

>  <SCORE.INTER.SOLV>
15.2983

>  <SCORE.INTER.VDW>
-18.5585

>  <SCORE.INTER.norm>
-0.982387

>  <SCORE.INTRA>
-0.468392

>  <SCORE.INTRA.DIHEDRAL>
-0.633426

>  <SCORE.INTRA.DIHEDRAL.0>
3.34563

>  <SCORE.INTRA.POLAR>
0

>  <SCORE.INTRA.POLAR.0>
0

>  <SCORE.INTRA.REPUL>
0

>  <SCORE.INTRA.REPUL.0>
0

>  <SCORE.INTRA.SOLV>
-0.464205

>  <SCORE.INTRA.SOLV.lig_0>
-59.746

>  <SCORE.INTRA.VDW>
0.0804232

>  <SCORE.INTRA.VDW.0>
-0.691186

>  <SCORE.INTRA.norm>
-0.0390327

>  <SCORE.RESTR>
0

>  <SCORE.RESTR.CAVITY>
0

>  <SCORE.RESTR.norm>
0

>  <SCORE.SYSTEM>
0

>  <SCORE.SYSTEM.CONST>
0

>  <SCORE.SYSTEM.DIHEDRAL>
0

>  <SCORE.SYSTEM.SOLV>
0

>  <SCORE.SYSTEM.norm>
0

>  <SCORE.heavy>
12

>  <SCORE.norm>
-1.02142

>  <RMSD>
1.105

$$$$
ligand
 OpenBabel02271912143D
libRbt.so/2013.1/901 2013/11/27
 12 12  0  0  0  0  0  0  0  0999 V2000
  -22.0999  -10.6616   95.9403 C   0  0  0  0  0  0  0  0  0  0  0  0
  -19.1777   -6.1500   94.7638 C   0  0  0  0  0  0  0  0  0  0  0  0
  -19.5717  -10.8024   95.0340 N   0  0  0  0  0  0  0  0  0  0  0  0
  -23.5536  -10.5034   95.7913 N   0  0  0  0  0  0  0  0  0  0  0  0
  -24.1830  -11.2365   96.3598 N   0  0  0  0  0  0  0  0  0  0  0  0
  -24.8102  -11.9676   96.9326 N   0  0  0  0  0  0  0  0  0  0  0  0
  -21.1990   -7.1457   95.4687 N   0  0  0  0  0  0  0  0  0  0  0  0
  -19.9379   -7.2807   95.0377 C   0  0  0  0  0  0  0  0  0  0  0  0
  -19.4186   -8.4948   94.8020 N   0  0  0  0  0  0  0  0  0  0  0  0
  -20.1445   -9.6042   95.0033 C   0  0  0  0  0  0  0  0  0  0  0  0
  -21.4553   -9.5285   95.4597 C   0  0  0  0  0  0  0  0  0  0  0  0
  -22.0019   -8.2713   95.6879 C   0  0  0  0  0  0  0  0  0  0  0  0
  1 11  1  0  0  0  0
  1  4  1  0  0  0  0
  2  8  1  0  0  0  0
  3 10  1  0  0  0  0
  4  5  1  0  0  0  0
  5  6  1  0  0  0  0
  7  8  2  0  0  0  0
  7 12  1  0  0  0  0
  8  9  1  0  0  0  0
  9 10  2  0  0  0  0
 10 11  1  0  0  0  0
 11 12  2  0  0  0  0
M  END
>  <CHROM.1>
-154.83652789,-165.99078716,60.73915657,-21.47691492,-9.31528466,95.52984171
-2.41926271,0.30476104,-0.02758156

>  <Name>
ligand

>  <RI>
0

>  <Rbt.Current_Directory>
/home/itssahil/PROJECTS/Mol_Feturizer/Test_systems_manuscript/rnas/4nya

>  <Rbt.Executable>
rbdock ($Id: //depot/dev/client3/rdock/2013.1/src/exe/rbdock.cxx#4 $)

>  <Rbt.Library>
libRbt.so (2013.1, Build901 2013/11/27)

>  <Rbt.Parameter_File>
/export/apps/rDock/src/rDock_2013.1_src/data/scripts/dock_solv.prm

>  <Rbt.Receptor>
prm/pocket_docking_7.prm

>  <SCORE>
-13.0223

>  <SCORE.INTER>
-11.8713

>  <SCORE.INTER.CONST>
1

>  <SCORE.INTER.POLAR>
0

>  <SCORE.INTER.ROT>
3

>  <SCORE.INTER.SOLV>
14.39

>  <SCORE.INTER.VDW>
-18.3109

>  <SCORE.INTER.norm>
-0.989279

>  <SCORE.INTRA>
-1.15092

>  <SCORE.INTRA.DIHEDRAL>
-2.09116

>  <SCORE.INTRA.DIHEDRAL.0>
3.34563

>  <SCORE.INTRA.POLAR>
0

>  <SCORE.INTRA.POLAR.0>
0

>  <SCORE.INTRA.REPUL>
0

>  <SCORE.INTRA.REPUL.0>
0

>  <SCORE.INTRA.SOLV>
-1.24636

>  <SCORE.INTRA.SOLV.lig_0>
-59.746

>  <SCORE.INTRA.VDW>
0.517841

>  <SCORE.INTRA.VDW.0>
-0.691186

>  <SCORE.INTRA.norm>
-0.0959101

>  <SCORE.RESTR>
0

>  <SCORE.RESTR.CAVITY>
0

>  <SCORE.RESTR.norm>
0

>  <SCORE.SYSTEM>
0

>  <SCORE.SYSTEM.CONST>
0

>  <SCORE.SYSTEM.DIHEDRAL>
0

>  <SCORE.SYSTEM.SOLV>
0

>  <SCORE.SYSTEM.norm>
0

>  <SCORE.heavy>
12

>  <SCORE.norm>
-1.08519

>  <RMSD>
1.109

$$$$
ligand
 OpenBabel02271912143D
libRbt.so/2013.1/901 2013/11/27
 12 12  0  0  0  0  0  0  0  0999 V2000
  -22.1158  -10.6335   95.9309 C   0  0  0  0  0  0  0  0  0  0  0  0
  -19.1955   -6.1346   94.7026 C   0  0  0  0  0  0  0  0  0  0  0  0
  -19.5671  -10.7809   95.0853 N   0  0  0  0  0  0  0  0  0  0  0  0
  -23.5666  -10.4901   95.7432 N   0  0  0  0  0  0  0  0  0  0  0  0
  -24.2038  -11.2242   96.3015 N   0  0  0  0  0  0  0  0  0  0  0  0
  -24.8385  -11.9620   96.8573 N   0  0  0  0  0  0  0  0  0  0  0  0
  -21.2260   -7.1251   95.3879 N   0  0  0  0  0  0  0  0  0  0  0  0
  -19.9547   -7.2628   94.9889 C   0  0  0  0  0  0  0  0  0  0  0  0
  -19.4229   -8.4791   94.7966 N   0  0  0  0  0  0  0  0  0  0  0  0
  -20.1464   -9.5877   95.0105 C   0  0  0  0  0  0  0  0  0  0  0  0
  -21.4675   -9.5090   95.4354 C   0  0  0  0  0  0  0  0  0  0  0  0
  -22.0268   -8.2500   95.6185 C   0  0  0  0  0  0  0  0  0  0  0  0
  1 11  1  0  0  0  0
  1  4  1  0  0  0  0
  2  8  1  0  0  0  0
  3 10  1  0  0  0  0
  4  5  1  0  0  0  0
  5  6  1  0  0  0  0
  7  8  2  0  0  0  0
  7 12  1  0  0  0  0
  8  9  1  0  0  0  0
  9 10  2  0  0  0  0
 10 11  1  0  0  0  0
 11 12  2  0  0  0  0
M  END
>  <CHROM.1>
-154.73512310,-167.06511697,-58.75608389,-21.49183608,-9.29806704,95.49440429
-2.41069863,0.27811062,-0.05464830

>  <Name>
ligand

>  <RI>
0

>  <Rbt.Current_Directory>
/home/itssahil/PROJECTS/Mol_Feturizer/Test_systems_manuscript/rnas/4nya

>  <Rbt.Executable>
rbdock ($Id: //depot/dev/client3/rdock/2013.1/src/exe/rbdock.cxx#4 $)

>  <Rbt.Library>
libRbt.so (2013.1, Build901 2013/11/27)

>  <Rbt.Parameter_File>
/export/apps/rDock/src/rDock_2013.1_src/data/scripts/dock_solv.prm

>  <Rbt.Receptor>
prm/pocket_docking_8.prm

>  <SCORE>
-12.9868

>  <SCORE.INTER>
-11.8231

>  <SCORE.INTER.CONST>
1

>  <SCORE.INTER.POLAR>
0

>  <SCORE.INTER.ROT>
3

>  <SCORE.INTER.SOLV>
14.4366

>  <SCORE.INTER.VDW>
-18.2943

>  <SCORE.INTER.norm>
-0.985258

>  <SCORE.INTRA>
-1.16373

>  <SCORE.INTRA.DIHEDRAL>
-2.11245

>  <SCORE.INTRA.DIHEDRAL.0>
3.34563

>  <SCORE.INTRA.POLAR>
0

>  <SCORE.INTRA.POLAR.0>
0

>  <SCORE.INTRA.REPUL>
0

>  <SCORE.INTRA.REPUL.0>
0

>  <SCORE.INTRA.SOLV>
-1.24933

>  <SCORE.INTRA.SOLV.lig_0>
-59.746

>  <SCORE.INTRA.VDW>
0.517156

>  <SCORE.INTRA.VDW.0>
-0.691186

>  <SCORE.INTRA.norm>
-0.0969776

>  <SCORE.RESTR>
0

>  <SCORE.RESTR.CAVITY>
0

>  <SCORE.RESTR.norm>
0

>  <SCORE.SYSTEM>
0

>  <SCORE.SYSTEM.CONST>
0

>  <SCORE.SYSTEM.DIHEDRAL>
0

>  <SCORE.SYSTEM.SOLV>
0

>  <SCORE.SYSTEM.norm>
0

>  <SCORE.heavy>
12

>  <SCORE.norm>
-1.08224

>  <RMSD>
1.109

$$$$
ligand
 OpenBabel02271912143D
libRbt.so/2013.1/901 2013/11/27
 12 12  0  0  0  0  0  0  0  0999 V2000
  -22.1033  -10.6579   95.9313 C   0  0  0  0  0  0  0  0  0  0  0  0
  -19.1832   -6.1422   94.7651 C   0  0  0  0  0  0  0  0  0  0  0  0
  -19.5676  -10.7948   95.0456 N   0  0  0  0  0  0  0  0  0  0  0  0
  -23.5559  -10.5056   95.7666 N   0  0  0  0  0  0  0  0  0  0  0  0
  -24.1892  -11.2199   96.3543 N   0  0  0  0  0  0  0  0  0  0  0  0
  -24.8265  -11.9319   96.9399 N   0  0  0  0  0  0  0  0  0  0  0  0
  -21.2075   -7.1410   95.4567 N   0  0  0  0  0  0  0  0  0  0  0  0
  -19.9426   -7.2741   95.0361 C   0  0  0  0  0  0  0  0  0  0  0  0
  -19.4184   -8.4875   94.8081 N   0  0  0  0  0  0  0  0  0  0  0  0
  -20.1432   -9.5981   95.0069 C   0  0  0  0  0  0  0  0  0  0  0  0
  -21.4577   -9.5245   95.4526 C   0  0  0  0  0  0  0  0  0  0  0  0
  -22.0093   -8.2680   95.6728 C   0  0  0  0  0  0  0  0  0  0  0  0
  1 11  1  0  0  0  0
  1  4  1  0  0  0  0
  2  8  1  0  0  0  0
  3 10  1  0  0  0  0
  4  5  1  0  0  0  0
  5  6  1  0  0  0  0
  7  8  2  0  0  0  0
  7 12  1  0  0  0  0
  8  9  1  0  0  0  0
  9 10  2  0  0  0  0
 10 11  1  0  0  0  0
 11 12  2  0  0  0  0
M  END
>  <CHROM.1>
-154.66743408,-164.33215375,-179.82178361,-21.48122383,-9.30668907,95.52616750
-2.42062691,0.30022243,-0.03136284

>  <Name>
ligand

>  <RI>
0

>  <Rbt.Current_Directory>
/home/itssahil/PROJECTS/Mol_Feturizer/Test_systems_manuscript/rnas/4nya

>  <Rbt.Executable>
rbdock ($Id: //depot/dev/client3/rdock/2013.1/src/exe/rbdock.cxx#4 $)

>  <Rbt.Library>
libRbt.so (2013.1, Build901 2013/11/27)

>  <Rbt.Parameter_File>
/export/apps/rDock/src/rDock_2013.1_src/data/scripts/dock_solv.prm

>  <Rbt.Receptor>
prm/pocket_docking_3.prm

>  <SCORE>
-13.0174

>  <SCORE.INTER>
-11.8812

>  <SCORE.INTER.CONST>
1

>  <SCORE.INTER.POLAR>
0

>  <SCORE.INTER.ROT>
3

>  <SCORE.INTER.SOLV>
14.3893

>  <SCORE.INTER.VDW>
-18.3173

>  <SCORE.INTER.norm>
-0.990104

>  <SCORE.INTRA>
-1.13616

>  <SCORE.INTRA.DIHEDRAL>
-2.05424

>  <SCORE.INTRA.DIHEDRAL.0>
3.34563

>  <SCORE.INTRA.POLAR>
0

>  <SCORE.INTRA.POLAR.0>
0

>  <SCORE.INTRA.REPUL>
0

>  <SCORE.INTRA.REPUL.0>
0

>  <SCORE.INTRA.SOLV>
-1.24288

>  <SCORE.INTRA.SOLV.lig_0>
-59.746

>  <SCORE.INTRA.VDW>
0.512399

>  <SCORE.INTRA.VDW.0>
-0.691186

>  <SCORE.INTRA.norm>
-0.0946801

>  <SCORE.RESTR>
0

>  <SCORE.RESTR.CAVITY>
0

>  <SCORE.RESTR.norm>
0

>  <SCORE.SYSTEM>
0

>  <SCORE.SYSTEM.CONST>
0

>  <SCORE.SYSTEM.DIHEDRAL>
0

>  <SCORE.SYSTEM.SOLV>
0

>  <SCORE.SYSTEM.norm>
0

>  <SCORE.heavy>
12

>  <SCORE.norm>
-1.08478

>  <RMSD>
1.110

$$$$
ligand
 OpenBabel02271912143D
libRbt.so/2013.1/901 2013/11/27
 12 12  0  0  0  0  0  0  0  0999 V2000
  -22.0845  -10.6721   95.9128 C   0  0  0  0  0  0  0  0  0  0  0  0
  -19.1615   -6.1537   94.7650 C   0  0  0  0  0  0  0  0  0  0  0  0
  -19.5758  -10.8084   94.9534 N   0  0  0  0  0  0  0  0  0  0  0  0
  -23.5393  -10.5116   95.7779 N   0  0  0  0  0  0  0  0  0  0  0  0
  -24.1644  -11.2506   96.3434 N   0  0  0  0  0  0  0  0  0  0  0  0
  -24.7870  -11.9933   96.9063 N   0  0  0  0  0  0  0  0  0  0  0  0
  -21.1737   -7.1524   95.4911 N   0  0  0  0  0  0  0  0  0  0  0  0
  -19.9222   -7.2855   95.0323 C   0  0  0  0  0  0  0  0  0  0  0  0
  -19.4145   -8.4975   94.7628 N   0  0  0  0  0  0  0  0  0  0  0  0
  -20.1425   -9.6068   94.9573 C   0  0  0  0  0  0  0  0  0  0  0  0
  -21.4434   -9.5332   95.4413 C   0  0  0  0  0  0  0  0  0  0  0  0
  -21.9784   -8.2779   95.7047 C   0  0  0  0  0  0  0  0  0  0  0  0
  1 11  1  0  0  0  0
  1  4  1  0  0  0  0
  2  8  1  0  0  0  0
  3 10  1  0  0  0  0
  4  5  1  0  0  0  0
  5  6  1  0  0  0  0
  7  8  2  0  0  0  0
  7 12  1  0  0  0  0
  8  9  1  0  0  0  0
  9 10  2  0  0  0  0
 10 11  1  0  0  0  0
 11 12  2  0  0  0  0
M  END
>  <CHROM.1>
-154.00915911,-165.90878565,-59.20885102,-21.46302061,-9.32344791,95.51026436
-2.42317578,0.32114639,-0.00581554

>  <Name>
ligand

>  <RI>
0

>  <Rbt.Current_Directory>
/home/itssahil/PROJECTS/Mol_Feturizer/Test_systems_manuscript/rnas/4nya

>  <Rbt.Executable>
rbdock ($Id: //depot/dev/client3/rdock/2013.1/src/exe/rbdock.cxx#4 $)

>  <Rbt.Library>
libRbt.so (2013.1, Build901 2013/11/27)

>  <Rbt.Parameter_File>
/export/apps/rDock/src/rDock_2013.1_src/data/scripts/dock_solv.prm

>  <Rbt.Receptor>
prm/pocket_docking_5.prm

>  <SCORE>
-12.9635

>  <SCORE.INTER>
-11.8039

>  <SCORE.INTER.CONST>
1

>  <SCORE.INTER.POLAR>
0

>  <SCORE.INTER.ROT>
3

>  <SCORE.INTER.SOLV>
14.4668

>  <SCORE.INTER.VDW>
-18.2915

>  <SCORE.INTER.norm>
-0.983657

>  <SCORE.INTRA>
-1.15958

>  <SCORE.INTRA.DIHEDRAL>
-2.08632

>  <SCORE.INTRA.DIHEDRAL.0>
3.34563

>  <SCORE.INTRA.POLAR>
0

>  <SCORE.INTRA.POLAR.0>
0

>  <SCORE.INTRA.REPUL>
0

>  <SCORE.INTRA.REPUL.0>
0

>  <SCORE.INTRA.SOLV>
-1.24155

>  <SCORE.INTRA.SOLV.lig_0>
-59.746

>  <SCORE.INTRA.VDW>
0.504355

>  <SCORE.INTRA.VDW.0>
-0.691186

>  <SCORE.INTRA.norm>
-0.0966315

>  <SCORE.RESTR>
0

>  <SCORE.RESTR.CAVITY>
0

>  <SCORE.RESTR.norm>
0

>  <SCORE.SYSTEM>
0

>  <SCORE.SYSTEM.CONST>
0

>  <SCORE.SYSTEM.DIHEDRAL>
0

>  <SCORE.SYSTEM.SOLV>
0

>  <SCORE.SYSTEM.norm>
0

>  <SCORE.heavy>
12

>  <SCORE.norm>
-1.08029

>  <RMSD>
1.112

$$$$
ligand
 OpenBabel02271912143D
libRbt.so/2013.1/901 2013/11/27
 12 12  0  0  0  0  0  0  0  0999 V2000
  -22.1054  -10.6258   95.9964 C   0  0  0  0  0  0  0  0  0  0  0  0
  -19.1937   -6.1440   94.6876 C   0  0  0  0  0  0  0  0  0  0  0  0
  -19.5529  -10.7826   95.1640 N   0  0  0  0  0  0  0  0  0  0  0  0
  -23.5575  -10.4795   95.8221 N   0  0  0  0  0  0  0  0  0  0  0  0
  -24.1900  -11.2303   96.3634 N   0  0  0  0  0  0  0  0  0  0  0  0
  -24.8265  -11.9787   96.9025 N   0  0  0  0  0  0  0  0  0  0  0  0
  -21.2239   -7.1265   95.3851 N   0  0  0  0  0  0  0  0  0  0  0  0
  -19.9506   -7.2684   94.9939 C   0  0  0  0  0  0  0  0  0  0  0  0
  -19.4144   -8.4867   94.8287 N   0  0  0  0  0  0  0  0  0  0  0  0
  -20.1354   -9.5930   95.0625 C   0  0  0  0  0  0  0  0  0  0  0  0
  -21.4585   -9.5096   95.4805 C   0  0  0  0  0  0  0  0  0  0  0  0
  -22.0223   -8.2488   95.6355 C   0  0  0  0  0  0  0  0  0  0  0  0
  1 11  1  0  0  0  0
  1  4  1  0  0  0  0
  2  8  1  0  0  0  0
  3 10  1  0  0  0  0
  4  5  1  0  0  0  0
  5  6  1  0  0  0  0
  7  8  2  0  0  0  0
  7 12  1  0  0  0  0
  8  9  1  0  0  0  0
  9 10  2  0  0  0  0
 10 11  1  0  0  0  0
 11 12  2  0  0  0  0
M  END
>  <CHROM.1>
-155.76050769,-169.42382266,-179.27648322,-21.48344146,-9.30102675,95.53311799
-2.40517343,0.27159172,-0.07554462

>  <Name>
ligand

>  <RI>
0

>  <Rbt.Current_Directory>
/home/itssahil/PROJECTS/Mol_Feturizer/Test_systems_manuscript/rnas/4nya

>  <Rbt.Executable>
rbdock ($Id: //depot/dev/client3/rdock/2013.1/src/exe/rbdock.cxx#4 $)

>  <Rbt.Library>
libRbt.so (2013.1, Build901 2013/11/27)

>  <Rbt.Parameter_File>
/export/apps/rDock/src/rDock_2013.1_src/data/scripts/dock_solv.prm

>  <Rbt.Receptor>
prm/pocket_docking_6.prm

>  <SCORE>
-12.9855

>  <SCORE.INTER>
-11.8085

>  <SCORE.INTER.CONST>
1

>  <SCORE.INTER.POLAR>
0

>  <SCORE.INTER.ROT>
3

>  <SCORE.INTER.SOLV>
14.4463

>  <SCORE.INTER.VDW>
-18.2878

>  <SCORE.INTER.norm>
-0.984043

>  <SCORE.INTRA>
-1.17694

>  <SCORE.INTRA.DIHEDRAL>
-2.15797

>  <SCORE.INTRA.DIHEDRAL.0>
3.34563

>  <SCORE.INTRA.POLAR>
0

>  <SCORE.INTRA.POLAR.0>
0

>  <SCORE.INTRA.REPUL>
0

>  <SCORE.INTRA.REPUL.0>
0

>  <SCORE.INTRA.SOLV>
-1.26518

>  <SCORE.INTRA.SOLV.lig_0>
-59.746

>  <SCORE.INTRA.VDW>
0.534635

>  <SCORE.INTRA.VDW.0>
-0.691186

>  <SCORE.INTRA.norm>
-0.0980784

>  <SCORE.RESTR>
0

>  <SCORE.RESTR.CAVITY>
0

>  <SCORE.RESTR.norm>
0

>  <SCORE.SYSTEM>
0

>  <SCORE.SYSTEM.CONST>
0

>  <SCORE.SYSTEM.DIHEDRAL>
0

>  <SCORE.SYSTEM.SOLV>
0

>  <SCORE.SYSTEM.norm>
0

>  <SCORE.heavy>
12

>  <SCORE.norm>
-1.08212

>  <RMSD>
1.113

$$$$
ligand
 OpenBabel02271912143D
libRbt.so/2013.1/901 2013/11/27
 12 12  0  0  0  0  0  0  0  0999 V2000
  -22.1380  -10.6485   95.8982 C   0  0  0  0  0  0  0  0  0  0  0  0
  -19.1848   -6.1406   94.7871 C   0  0  0  0  0  0  0  0  0  0  0  0
  -19.5563  -10.7879   95.1579 N   0  0  0  0  0  0  0  0  0  0  0  0
  -23.5010  -10.6829   95.3488 N   0  0  0  0  0  0  0  0  0  0  0  0
  -24.3280  -10.5357   96.0912 N   0  0  0  0  0  0  0  0  0  0  0  0
  -25.1582  -10.3891   96.8296 N   0  0  0  0  0  0  0  0  0  0  0  0
  -21.2384   -7.1375   95.3894 N   0  0  0  0  0  0  0  0  0  0  0  0
  -19.9513   -7.2712   95.0429 C   0  0  0  0  0  0  0  0  0  0  0  0
  -19.4080   -8.4858   94.8735 N   0  0  0  0  0  0  0  0  0  0  0  0
  -20.1360   -9.5967   95.0585 C   0  0  0  0  0  0  0  0  0  0  0  0
  -21.4737   -9.5221   95.4288 C   0  0  0  0  0  0  0  0  0  0  0  0
  -22.0442   -8.2649   95.5878 C   0  0  0  0  0  0  0  0  0  0  0  0
  1 11  1  0  0  0  0
  1  4  1  0  0  0  0
  2  8  1  0  0  0  0
  3 10  1  0  0  0  0
  4  5  1  0  0  0  0
  5  6  1  0  0  0  0
  7  8  2  0  0  0  0
  7 12  1  0  0  0  0
  8  9  1  0  0  0  0
  9 10  2  0  0  0  0
 10 11  1  0  0  0  0
 11 12  2  0  0  0  0
M  END
>  <CHROM.1>
-139.91564110,-112.46475076,-178.37333547,-21.52522615,-9.12576751,95.46241567
-2.55216234,0.25300808,-0.01577755

>  <Name>
ligand

>  <RI>
0

>  <Rbt.Current_Directory>
/home/itssahil/PROJECTS/Mol_Feturizer/Test_systems_manuscript/rnas/4nya

>  <Rbt.Executable>
rbdock ($Id: //depot/dev/client3/rdock/2013.1/src/exe/rbdock.cxx#4 $)

>  <Rbt.Library>
libRbt.so (2013.1, Build901 2013/11/27)

>  <Rbt.Parameter_File>
/export/apps/rDock/src/rDock_2013.1_src/data/scripts/dock_solv.prm

>  <Rbt.Receptor>
prm/pocket_docking_7.prm

>  <SCORE>
-12.4051

>  <SCORE.INTER>
-11.7885

>  <SCORE.INTER.CONST>
1

>  <SCORE.INTER.POLAR>
0

>  <SCORE.INTER.ROT>
3

>  <SCORE.INTER.SOLV>
14.4707

>  <SCORE.INTER.VDW>
-18.2826

>  <SCORE.INTER.norm>
-0.982373

>  <SCORE.INTRA>
-0.616611

>  <SCORE.INTRA.DIHEDRAL>
-0.881366

>  <SCORE.INTRA.DIHEDRAL.0>
3.34563

>  <SCORE.INTRA.POLAR>
0

>  <SCORE.INTRA.POLAR.0>
0

>  <SCORE.INTRA.REPUL>
0

>  <SCORE.INTRA.REPUL.0>
0

>  <SCORE.INTRA.SOLV>
-0.775275

>  <SCORE.INTRA.SOLV.lig_0>
-59.746

>  <SCORE.INTRA.VDW>
0.21171

>  <SCORE.INTRA.VDW.0>
-0.691186

>  <SCORE.INTRA.norm>
-0.0513842

>  <SCORE.RESTR>
0

>  <SCORE.RESTR.CAVITY>
0

>  <SCORE.RESTR.norm>
0

>  <SCORE.SYSTEM>
0

>  <SCORE.SYSTEM.CONST>
0

>  <SCORE.SYSTEM.DIHEDRAL>
0

>  <SCORE.SYSTEM.SOLV>
0

>  <SCORE.SYSTEM.norm>
0

>  <SCORE.heavy>
12

>  <SCORE.norm>
-1.03376

>  <RMSD>
1.132

$$$$
ligand
 OpenBabel02271912143D
libRbt.so/2013.1/901 2013/11/27
 12 12  0  0  0  0  0  0  0  0999 V2000
  -22.3474  -10.7517   95.8005 C   0  0  0  0  0  0  0  0  0  0  0  0
  -19.2320   -6.3008   94.9280 C   0  0  0  0  0  0  0  0  0  0  0  0
  -19.7157  -10.9393   95.2795 N   0  0  0  0  0  0  0  0  0  0  0  0
  -23.0460  -10.4466   97.0572 N   0  0  0  0  0  0  0  0  0  0  0  0
  -23.9732  -11.0447   97.2554 N   0  0  0  0  0  0  0  0  0  0  0  0
  -24.8974  -11.6469   97.4536 N   0  0  0  0  0  0  0  0  0  0  0  0
  -21.3461   -7.2591   95.3589 N   0  0  0  0  0  0  0  0  0  0  0  0
  -20.0372   -7.4167   95.1218 C   0  0  0  0  0  0  0  0  0  0  0  0
  -19.5032   -8.6414   95.0020 N   0  0  0  0  0  0  0  0  0  0  0  0
  -20.2638   -9.7386   95.1285 C   0  0  0  0  0  0  0  0  0  0  0  0
  -21.6263   -9.6391   95.3852 C   0  0  0  0  0  0  0  0  0  0  0  0
  -22.1856   -8.3714   95.4923 C   0  0  0  0  0  0  0  0  0  0  0  0
  1 11  1  0  0  0  0
  1  4  1  0  0  0  0
  2  8  1  0  0  0  0
  3 10  1  0  0  0  0
  4  5  1  0  0  0  0
  5  6  1  0  0  0  0
  7  8  2  0  0  0  0
  7 12  1  0  0  0  0
  8  9  1  0  0  0  0
  9 10  2  0  0  0  0
 10 11  1  0  0  0  0
 11 12  2  0  0  0  0
M  END
>  <CHROM.1>
125.22384100,154.13467011,61.95700511,-21.52412018,-9.35806412,95.79081090
-2.44116991,0.40389567,-0.07810643

>  <Name>
ligand

>  <RI>
0

>  <Rbt.Current_Directory>
/home/itssahil/PROJECTS/Mol_Feturizer/Test_systems_manuscript/rnas/4nya

>  <Rbt.Executable>
rbdock ($Id: //depot/dev/client3/rdock/2013.1/src/exe/rbdock.cxx#4 $)

>  <Rbt.Library>
libRbt.so (2013.1, Build901 2013/11/27)

>  <Rbt.Parameter_File>
/export/apps/rDock/src/rDock_2013.1_src/data/scripts/dock_solv.prm

>  <Rbt.Receptor>
prm/pocket_docking_6.prm

>  <SCORE>
-12.076

>  <SCORE.INTER>
-11.6413

>  <SCORE.INTER.CONST>
1

>  <SCORE.INTER.POLAR>
0

>  <SCORE.INTER.ROT>
3

>  <SCORE.INTER.SOLV>
15.3404

>  <SCORE.INTER.VDW>
-18.4743

>  <SCORE.INTER.norm>
-0.970108

>  <SCORE.INTRA>
-0.434739

>  <SCORE.INTRA.DIHEDRAL>
-0.851007

>  <SCORE.INTRA.DIHEDRAL.0>
3.34563

>  <SCORE.INTRA.POLAR>
0

>  <SCORE.INTRA.POLAR.0>
0

>  <SCORE.INTRA.REPUL>
0

>  <SCORE.INTRA.REPUL.0>
0

>  <SCORE.INTRA.SOLV>
-0.798342

>  <SCORE.INTRA.SOLV.lig_0>
-59.746

>  <SCORE.INTRA.VDW>
0.389935

>  <SCORE.INTRA.VDW.0>
-0.691186

>  <SCORE.INTRA.norm>
-0.0362283

>  <SCORE.RESTR>
0

>  <SCORE.RESTR.CAVITY>
0

>  <SCORE.RESTR.norm>
0

>  <SCORE.SYSTEM>
0

>  <SCORE.SYSTEM.CONST>
0

>  <SCORE.SYSTEM.DIHEDRAL>
0

>  <SCORE.SYSTEM.SOLV>
0

>  <SCORE.SYSTEM.norm>
0

>  <SCORE.heavy>
12

>  <SCORE.norm>
-1.00634

>  <RMSD>
1.280

$$$$
ligand
 OpenBabel02271912143D
libRbt.so/2013.1/901 2013/11/27
 12 12  0  0  0  0  0  0  0  0999 V2000
  -21.7520  -11.3412   95.6252 C   0  0  0  0  0  0  0  0  0  0  0  0
  -19.6887   -6.2832   94.9638 C   0  0  0  0  0  0  0  0  0  0  0  0
  -23.0630   -9.1501   96.4698 N   0  0  0  0  0  0  0  0  0  0  0  0
  -22.8663  -11.3276   94.6667 N   0  0  0  0  0  0  0  0  0  0  0  0
  -23.5626  -12.2047   94.7185 N   0  0  0  0  0  0  0  0  0  0  0  0
  -24.2548  -13.0846   94.7695 N   0  0  0  0  0  0  0  0  0  0  0  0
  -19.4742   -8.6220   94.7234 N   0  0  0  0  0  0  0  0  0  0  0  0
  -20.1834   -7.5685   95.1496 C   0  0  0  0  0  0  0  0  0  0  0  0
  -21.3357   -7.7396   95.8145 N   0  0  0  0  0  0  0  0  0  0  0  0
  -21.8128   -8.9689   96.0587 C   0  0  0  0  0  0  0  0  0  0  0  0
  -21.1271  -10.1003   95.6323 C   0  0  0  0  0  0  0  0  0  0  0  0
  -19.9240   -9.9267   94.9586 C   0  0  0  0  0  0  0  0  0  0  0  0
  1 11  1  0  0  0  0
  1  4  1  0  0  0  0
  2  8  1  0  0  0  0
  3 10  1  0  0  0  0
  4  5  1  0  0  0  0
  5  6  1  0  0  0  0
  7  8  2  0  0  0  0
  7 12  1  0  0  0  0
  8  9  1  0  0  0  0
  9 10  2  0  0  0  0
 10 11  1  0  0  0  0
 11 12  2  0  0  0  0
M  END
>  <CHROM.1>
64.33547673,-168.66755817,-57.23315537,-21.61585331,-9.69891947,95.28618128
-2.24474826,0.36027786,0.32454860

>  <Name>
ligand

>  <RI>
0

>  <Rbt.Current_Directory>
/home/itssahil/PROJECTS/Mol_Feturizer/Test_systems_manuscript/rnas/4nya

>  <Rbt.Executable>
rbdock ($Id: //depot/dev/client3/rdock/2013.1/src/exe/rbdock.cxx#4 $)

>  <Rbt.Library>
libRbt.so (2013.1, Build901 2013/11/27)

>  <Rbt.Parameter_File>
/export/apps/rDock/src/rDock_2013.1_src/data/scripts/dock_solv.prm

>  <Rbt.Receptor>
prm/pocket_docking_2.prm

>  <SCORE>
-12.8268

>  <SCORE.INTER>
-12.7537

>  <SCORE.INTER.CONST>
1

>  <SCORE.INTER.POLAR>
0

>  <SCORE.INTER.ROT>
3

>  <SCORE.INTER.SOLV>
9.52671

>  <SCORE.INTER.VDW>
-17.278

>  <SCORE.INTER.norm>
-1.06281

>  <SCORE.INTRA>
-0.0730729

>  <SCORE.INTRA.DIHEDRAL>
-1.88113

>  <SCORE.INTRA.DIHEDRAL.0>
3.34563

>  <SCORE.INTRA.POLAR>
0

>  <SCORE.INTRA.POLAR.0>
0

>  <SCORE.INTRA.REPUL>
0

>  <SCORE.INTRA.REPUL.0>
0

>  <SCORE.INTRA.SOLV>
1.58116

>  <SCORE.INTRA.SOLV.lig_0>
-59.746

>  <SCORE.INTRA.VDW>
0.0769085

>  <SCORE.INTRA.VDW.0>
-0.691186

>  <SCORE.INTRA.norm>
-0.00608941

>  <SCORE.RESTR>
0

>  <SCORE.RESTR.CAVITY>
0

>  <SCORE.RESTR.norm>
0

>  <SCORE.SYSTEM>
0

>  <SCORE.SYSTEM.CONST>
0

>  <SCORE.SYSTEM.DIHEDRAL>
0

>  <SCORE.SYSTEM.SOLV>
0

>  <SCORE.SYSTEM.norm>
0

>  <SCORE.heavy>
12

>  <SCORE.norm>
-1.0689

>  <RMSD>
2.020

$$$$
ligand
 OpenBabel02271912143D
libRbt.so/2013.1/901 2013/11/27
 12 12  0  0  0  0  0  0  0  0999 V2000
  -21.7731  -11.2775   95.6653 C   0  0  0  0  0  0  0  0  0  0  0  0
  -19.6394   -6.2574   94.9422 C   0  0  0  0  0  0  0  0  0  0  0  0
  -23.0532   -9.0582   96.4831 N   0  0  0  0  0  0  0  0  0  0  0  0
  -22.8630  -11.2729   94.6791 N   0  0  0  0  0  0  0  0  0  0  0  0
  -23.5596  -12.1503   94.7205 N   0  0  0  0  0  0  0  0  0  0  0  0
  -24.2583  -13.0257   94.7577 N   0  0  0  0  0  0  0  0  0  0  0  0
  -19.4577   -8.6016   94.7304 N   0  0  0  0  0  0  0  0  0  0  0  0
  -20.1520   -7.5332   95.1436 C   0  0  0  0  0  0  0  0  0  0  0  0
  -21.3065   -7.6801   95.8106 N   0  0  0  0  0  0  0  0  0  0  0  0
  -21.8007   -8.8995   96.0698 C   0  0  0  0  0  0  0  0  0  0  0  0
  -21.1309  -10.0455   95.6572 C   0  0  0  0  0  0  0  0  0  0  0  0
  -19.9256   -9.8969   94.9816 C   0  0  0  0  0  0  0  0  0  0  0  0
  1 11  1  0  0  0  0
  1  4  1  0  0  0  0
  2  8  1  0  0  0  0
  3 10  1  0  0  0  0
  4  5  1  0  0  0  0
  5  6  1  0  0  0  0
  7  8  2  0  0  0  0
  7 12  1  0  0  0  0
  8  9  1  0  0  0  0
  9 10  2  0  0  0  0
 10 11  1  0  0  0  0
 11 12  2  0  0  0  0
M  END
>  <CHROM.1>
65.94512372,-169.96975869,-176.25008197,-21.60518174,-9.64731855,95.29326298
-2.25206475,0.36218670,0.32886395

>  <Name>
ligand

>  <RI>
0

>  <Rbt.Current_Directory>
/home/itssahil/PROJECTS/Mol_Feturizer/Test_systems_manuscript/rnas/4nya

>  <Rbt.Executable>
rbdock ($Id: //depot/dev/client3/rdock/2013.1/src/exe/rbdock.cxx#4 $)

>  <Rbt.Library>
libRbt.so (2013.1, Build901 2013/11/27)

>  <Rbt.Parameter_File>
/export/apps/rDock/src/rDock_2013.1_src/data/scripts/dock_solv.prm

>  <Rbt.Receptor>
prm/pocket_docking_2.prm

>  <SCORE>
-12.7656

>  <SCORE.INTER>
-12.5922

>  <SCORE.INTER.CONST>
1

>  <SCORE.INTER.POLAR>
0

>  <SCORE.INTER.ROT>
3

>  <SCORE.INTER.SOLV>
9.73876

>  <SCORE.INTER.VDW>
-17.2411

>  <SCORE.INTER.norm>
-1.04935

>  <SCORE.INTRA>
-0.173433

>  <SCORE.INTRA.DIHEDRAL>
-1.94096

>  <SCORE.INTRA.DIHEDRAL.0>
3.34563

>  <SCORE.INTRA.POLAR>
0

>  <SCORE.INTRA.POLAR.0>
0

>  <SCORE.INTRA.REPUL>
0

>  <SCORE.INTRA.REPUL.0>
0

>  <SCORE.INTRA.SOLV>
1.47625

>  <SCORE.INTRA.SOLV.lig_0>
-59.746

>  <SCORE.INTRA.VDW>
0.0589207

>  <SCORE.INTRA.VDW.0>
-0.691186

>  <SCORE.INTRA.norm>
-0.0144528

>  <SCORE.RESTR>
0

>  <SCORE.RESTR.CAVITY>
0

>  <SCORE.RESTR.norm>
0

>  <SCORE.SYSTEM>
0

>  <SCORE.SYSTEM.CONST>
0

>  <SCORE.SYSTEM.DIHEDRAL>
0

>  <SCORE.SYSTEM.SOLV>
0

>  <SCORE.SYSTEM.norm>
0

>  <SCORE.heavy>
12

>  <SCORE.norm>
-1.0638

>  <RMSD>
2.030

$$$$
ligand
 OpenBabel02271912143D
libRbt.so/2013.1/901 2013/11/27
 12 12  0  0  0  0  0  0  0  0999 V2000
  -21.7479  -11.3440   95.6284 C   0  0  0  0  0  0  0  0  0  0  0  0
  -19.6792   -6.2875   94.9727 C   0  0  0  0  0  0  0  0  0  0  0  0
  -23.0510   -9.1533   96.4861 N   0  0  0  0  0  0  0  0  0  0  0  0
  -22.8544  -11.3317   94.6609 N   0  0  0  0  0  0  0  0  0  0  0  0
  -23.5201  -12.2336   94.6724 N   0  0  0  0  0  0  0  0  0  0  0  0
  -24.1870  -13.1342   94.6887 N   0  0  0  0  0  0  0  0  0  0  0  0
  -19.4698   -8.6259   94.7239 N   0  0  0  0  0  0  0  0  0  0  0  0
  -20.1752   -7.5725   95.1568 C   0  0  0  0  0  0  0  0  0  0  0  0
  -21.3245   -7.7437   95.8267 N   0  0  0  0  0  0  0  0  0  0  0  0
  -21.8025   -8.9729   96.0695 C   0  0  0  0  0  0  0  0  0  0  0  0
  -21.1208  -10.1042   95.6362 C   0  0  0  0  0  0  0  0  0  0  0  0
  -19.9207   -9.9305   94.9573 C   0  0  0  0  0  0  0  0  0  0  0  0
  1 11  1  0  0  0  0
  1  4  1  0  0  0  0
  2  8  1  0  0  0  0
  3 10  1  0  0  0  0
  4  5  1  0  0  0  0
  5  6  1  0  0  0  0
  7  8  2  0  0  0  0
  7 12  1  0  0  0  0
  8  9  1  0  0  0  0
  9 10  2  0  0  0  0
 10 11  1  0  0  0  0
 11 12  2  0  0  0  0
M  END
>  <CHROM.1>
65.16659672,-171.85753952,63.26756231,-21.59950025,-9.70890110,95.27981451
-2.23830458,0.37231633,0.34119602

>  <Name>
ligand

>  <RI>
0

>  <Rbt.Current_Directory>
/home/itssahil/PROJECTS/Mol_Feturizer/Test_systems_manuscript/rnas/4nya

>  <Rbt.Executable>
rbdock ($Id: //depot/dev/client3/rdock/2013.1/src/exe/rbdock.cxx#4 $)

>  <Rbt.Library>
libRbt.so (2013.1, Build901 2013/11/27)

>  <Rbt.Parameter_File>
/export/apps/rDock/src/rDock_2013.1_src/data/scripts/dock_solv.prm

>  <Rbt.Receptor>
prm/pocket_docking_5.prm

>  <SCORE>
-12.8335

>  <SCORE.INTER>
-12.6705

>  <SCORE.INTER.CONST>
1

>  <SCORE.INTER.POLAR>
0

>  <SCORE.INTER.ROT>
3

>  <SCORE.INTER.SOLV>
9.68109

>  <SCORE.INTER.VDW>
-17.2741

>  <SCORE.INTER.norm>
-1.05588

>  <SCORE.INTRA>
-0.162983

>  <SCORE.INTRA.DIHEDRAL>
-1.95005

>  <SCORE.INTRA.DIHEDRAL.0>
3.34563

>  <SCORE.INTRA.POLAR>
0

>  <SCORE.INTRA.POLAR.0>
0

>  <SCORE.INTRA.REPUL>
0

>  <SCORE.INTRA.REPUL.0>
0

>  <SCORE.INTRA.SOLV>
1.48004

>  <SCORE.INTRA.SOLV.lig_0>
-59.746

>  <SCORE.INTRA.VDW>
0.0720195

>  <SCORE.INTRA.VDW.0>
-0.691186

>  <SCORE.INTRA.norm>
-0.0135819

>  <SCORE.RESTR>
0

>  <SCORE.RESTR.CAVITY>
0

>  <SCORE.RESTR.norm>
0

>  <SCORE.SYSTEM>
0

>  <SCORE.SYSTEM.CONST>
0

>  <SCORE.SYSTEM.DIHEDRAL>
0

>  <SCORE.SYSTEM.SOLV>
0

>  <SCORE.SYSTEM.norm>
0

>  <SCORE.heavy>
12

>  <SCORE.norm>
-1.06946

>  <RMSD>
2.031

$$$$
ligand
 OpenBabel02271912143D
libRbt.so/2013.1/901 2013/11/27
 12 12  0  0  0  0  0  0  0  0999 V2000
  -21.7510  -11.3369   95.6248 C   0  0  0  0  0  0  0  0  0  0  0  0
  -19.6837   -6.2806   94.9633 C   0  0  0  0  0  0  0  0  0  0  0  0
  -23.0648   -9.1441   96.4606 N   0  0  0  0  0  0  0  0  0  0  0  0
  -22.8693  -11.3207   94.6710 N   0  0  0  0  0  0  0  0  0  0  0  0
  -23.5096  -12.2408   94.6573 N   0  0  0  0  0  0  0  0  0  0  0  0
  -24.1512  -13.1596   94.6484 N   0  0  0  0  0  0  0  0  0  0  0  0
  -19.4689   -8.6198   94.7276 N   0  0  0  0  0  0  0  0  0  0  0  0
  -20.1795   -7.5654   95.1492 C   0  0  0  0  0  0  0  0  0  0  0  0
  -21.3345   -7.7351   95.8098 N   0  0  0  0  0  0  0  0  0  0  0  0
  -21.8129   -8.9639   96.0541 C   0  0  0  0  0  0  0  0  0  0  0  0
  -21.1258  -10.0962   95.6323 C   0  0  0  0  0  0  0  0  0  0  0  0
  -19.9199   -9.9239   94.9632 C   0  0  0  0  0  0  0  0  0  0  0  0
  1 11  1  0  0  0  0
  1  4  1  0  0  0  0
  2  8  1  0  0  0  0
  3 10  1  0  0  0  0
  4  5  1  0  0  0  0
  5  6  1  0  0  0  0
  7  8  2  0  0  0  0
  7 12  1  0  0  0  0
  8  9  1  0  0  0  0
  9 10  2  0  0  0  0
 10 11  1  0  0  0  0
 11 12  2  0  0  0  0
M  END
>  <CHROM.1>
63.81054703,-174.15740989,63.05406747,-21.60084206,-9.70513916,95.26975154
-2.23115375,0.36494444,0.33491331

>  <Name>
ligand

>  <RI>
0

>  <Rbt.Current_Directory>
/home/itssahil/PROJECTS/Mol_Feturizer/Test_systems_manuscript/rnas/4nya

>  <Rbt.Executable>
rbdock ($Id: //depot/dev/client3/rdock/2013.1/src/exe/rbdock.cxx#4 $)

>  <Rbt.Library>
libRbt.so (2013.1, Build901 2013/11/27)

>  <Rbt.Parameter_File>
/export/apps/rDock/src/rDock_2013.1_src/data/scripts/dock_solv.prm

>  <Rbt.Receptor>
prm/pocket_docking_8.prm

>  <SCORE>
-12.851

>  <SCORE.INTER>
-12.724

>  <SCORE.INTER.CONST>
1

>  <SCORE.INTER.POLAR>
0

>  <SCORE.INTER.ROT>
3

>  <SCORE.INTER.SOLV>
9.67419

>  <SCORE.INTER.VDW>
-17.3074

>  <SCORE.INTER.norm>
-1.06033

>  <SCORE.INTRA>
-0.127042

>  <SCORE.INTRA.DIHEDRAL>
-1.94186

>  <SCORE.INTRA.DIHEDRAL.0>
3.34563

>  <SCORE.INTRA.POLAR>
0

>  <SCORE.INTRA.POLAR.0>
0

>  <SCORE.INTRA.REPUL>
0

>  <SCORE.INTRA.REPUL.0>
0

>  <SCORE.INTRA.SOLV>
1.50171

>  <SCORE.INTRA.SOLV.lig_0>
-59.746

>  <SCORE.INTRA.VDW>
0.0930344

>  <SCORE.INTRA.VDW.0>
-0.691186

>  <SCORE.INTRA.norm>
-0.0105869

>  <SCORE.RESTR>
0

>  <SCORE.RESTR.CAVITY>
0

>  <SCORE.RESTR.norm>
0

>  <SCORE.SYSTEM>
0

>  <SCORE.SYSTEM.CONST>
0

>  <SCORE.SYSTEM.DIHEDRAL>
0

>  <SCORE.SYSTEM.SOLV>
0

>  <SCORE.SYSTEM.norm>
0

>  <SCORE.heavy>
12

>  <SCORE.norm>
-1.07092

>  <RMSD>
2.039

$$$$
ligand
 OpenBabel02271912143D
libRbt.so/2013.1/901 2013/11/27
 12 12  0  0  0  0  0  0  0  0999 V2000
  -21.7496  -11.3443   95.6245 C   0  0  0  0  0  0  0  0  0  0  0  0
  -19.6806   -6.2875   94.9720 C   0  0  0  0  0  0  0  0  0  0  0  0
  -23.0588   -9.1531   96.4717 N   0  0  0  0  0  0  0  0  0  0  0  0
  -22.8755  -11.3220   94.6799 N   0  0  0  0  0  0  0  0  0  0  0  0
  -23.4866  -12.2605   94.6299 N   0  0  0  0  0  0  0  0  0  0  0  0
  -24.0933  -13.2014   94.5787 N   0  0  0  0  0  0  0  0  0  0  0  0
  -19.4684   -8.6261   94.7281 N   0  0  0  0  0  0  0  0  0  0  0  0
  -20.1768   -7.5725   95.1555 C   0  0  0  0  0  0  0  0  0  0  0  0
  -21.3296   -7.7434   95.8194 N   0  0  0  0  0  0  0  0  0  0  0  0
  -21.8081   -8.9726   96.0616 C   0  0  0  0  0  0  0  0  0  0  0  0
  -21.1234  -10.1041   95.6338 C   0  0  0  0  0  0  0  0  0  0  0  0
  -19.9197   -9.9306   94.9612 C   0  0  0  0  0  0  0  0  0  0  0  0
  1 11  1  0  0  0  0
  1  4  1  0  0  0  0
  2  8  1  0  0  0  0
  3 10  1  0  0  0  0
  4  5  1  0  0  0  0
  5  6  1  0  0  0  0
  7  8  2  0  0  0  0
  7 12  1  0  0  0  0
  8  9  1  0  0  0  0
  9 10  2  0  0  0  0
 10 11  1  0  0  0  0
 11 12  2  0  0  0  0
M  END
>  <CHROM.1>
63.51305860,-177.04124786,-58.92616135,-21.59219553,-9.71620698,95.26570668
-2.22623404,0.37303018,0.34647005

>  <Name>
ligand

>  <RI>
0

>  <Rbt.Current_Directory>
/home/itssahil/PROJECTS/Mol_Feturizer/Test_systems_manuscript/rnas/4nya

>  <Rbt.Executable>
rbdock ($Id: //depot/dev/client3/rdock/2013.1/src/exe/rbdock.cxx#4 $)

>  <Rbt.Library>
libRbt.so (2013.1, Build901 2013/11/27)

>  <Rbt.Parameter_File>
/export/apps/rDock/src/rDock_2013.1_src/data/scripts/dock_solv.prm

>  <Rbt.Receptor>
prm/pocket_docking_7.prm

>  <SCORE>
-12.8473

>  <SCORE.INTER>
-12.703

>  <SCORE.INTER.CONST>
1

>  <SCORE.INTER.POLAR>
0

>  <SCORE.INTER.ROT>
3

>  <SCORE.INTER.SOLV>
9.7296

>  <SCORE.INTER.VDW>
-17.3118

>  <SCORE.INTER.norm>
-1.05858

>  <SCORE.INTRA>
-0.144369

>  <SCORE.INTRA.DIHEDRAL>
-1.95701

>  <SCORE.INTRA.DIHEDRAL.0>
3.34563

>  <SCORE.INTRA.POLAR>
0

>  <SCORE.INTRA.POLAR.0>
0

>  <SCORE.INTRA.REPUL>
0

>  <SCORE.INTRA.REPUL.0>
0

>  <SCORE.INTRA.SOLV>
1.46534

>  <SCORE.INTRA.SOLV.lig_0>
-59.746

>  <SCORE.INTRA.VDW>
0.101465

>  <SCORE.INTRA.VDW.0>
-0.691186

>  <SCORE.INTRA.norm>
-0.0120307

>  <SCORE.RESTR>
0

>  <SCORE.RESTR.CAVITY>
0

>  <SCORE.RESTR.norm>
0

>  <SCORE.SYSTEM>
0

>  <SCORE.SYSTEM.CONST>
0

>  <SCORE.SYSTEM.DIHEDRAL>
0

>  <SCORE.SYSTEM.SOLV>
0

>  <SCORE.SYSTEM.norm>
0

>  <SCORE.heavy>
12

>  <SCORE.norm>
-1.07061

>  <RMSD>
2.047

$$$$
ligand
 OpenBabel02271912143D
libRbt.so/2013.1/901 2013/11/27
 12 12  0  0  0  0  0  0  0  0999 V2000
  -21.7518  -11.3370   95.6236 C   0  0  0  0  0  0  0  0  0  0  0  0
  -19.6867   -6.2798   94.9620 C   0  0  0  0  0  0  0  0  0  0  0  0
  -23.0673   -9.1446   96.4578 N   0  0  0  0  0  0  0  0  0  0  0  0
  -22.8845  -11.3141   94.6871 N   0  0  0  0  0  0  0  0  0  0  0  0
  -23.4922  -12.2549   94.6364 N   0  0  0  0  0  0  0  0  0  0  0  0
  -24.1009  -13.1948   94.5906 N   0  0  0  0  0  0  0  0  0  0  0  0
  -19.4705   -8.6189   94.7271 N   0  0  0  0  0  0  0  0  0  0  0  0
  -20.1820   -7.5648   95.1479 C   0  0  0  0  0  0  0  0  0  0  0  0
  -21.3373   -7.7349   95.8078 N   0  0  0  0  0  0  0  0  0  0  0  0
  -21.8153   -8.9638   96.0522 C   0  0  0  0  0  0  0  0  0  0  0  0
  -21.1273  -10.0959   95.6311 C   0  0  0  0  0  0  0  0  0  0  0  0
  -19.9211   -9.9232   94.9628 C   0  0  0  0  0  0  0  0  0  0  0  0
  1 11  1  0  0  0  0
  1  4  1  0  0  0  0
  2  8  1  0  0  0  0
  3 10  1  0  0  0  0
  4  5  1  0  0  0  0
  5  6  1  0  0  0  0
  7  8  2  0  0  0  0
  7 12  1  0  0  0  0
  8  9  1  0  0  0  0
  9 10  2  0  0  0  0
 10 11  1  0  0  0  0
 11 12  2  0  0  0  0
M  END
>  <CHROM.1>
62.79014668,-177.28260683,61.52958041,-21.59781008,-9.70859417,95.26326385
-2.22520806,0.36752250,0.33893317

>  <Name>
ligand

>  <RI>
0

>  <Rbt.Current_Directory>
/home/itssahil/PROJECTS/Mol_Feturizer/Test_systems_manuscript/rnas/4nya

>  <Rbt.Executable>
rbdock ($Id: //depot/dev/client3/rdock/2013.1/src/exe/rbdock.cxx#4 $)

>  <Rbt.Library>
libRbt.so (2013.1, Build901 2013/11/27)

>  <Rbt.Parameter_File>
/export/apps/rDock/src/rDock_2013.1_src/data/scripts/dock_solv.prm

>  <Rbt.Receptor>
prm/pocket_docking_8.prm

>  <SCORE>
-12.8518

>  <SCORE.INTER>
-12.7426

>  <SCORE.INTER.CONST>
1

>  <SCORE.INTER.POLAR>
0

>  <SCORE.INTER.ROT>
3

>  <SCORE.INTER.SOLV>
9.69487

>  <SCORE.INTER.VDW>
-17.3267

>  <SCORE.INTER.norm>
-1.06188

>  <SCORE.INTRA>
-0.109155

>  <SCORE.INTRA.DIHEDRAL>
-1.93865

>  <SCORE.INTRA.DIHEDRAL.0>
3.34563

>  <SCORE.INTRA.POLAR>
0

>  <SCORE.INTRA.POLAR.0>
0

>  <SCORE.INTRA.REPUL>
0

>  <SCORE.INTRA.REPUL.0>
0

>  <SCORE.INTRA.SOLV>
1.49535

>  <SCORE.INTRA.SOLV.lig_0>
-59.746

>  <SCORE.INTRA.VDW>
0.112496

>  <SCORE.INTRA.VDW.0>
-0.691186

>  <SCORE.INTRA.norm>
-0.00909623

>  <SCORE.RESTR>
0

>  <SCORE.RESTR.CAVITY>
0

>  <SCORE.RESTR.norm>
0

>  <SCORE.SYSTEM>
0

>  <SCORE.SYSTEM.CONST>
0

>  <SCORE.SYSTEM.DIHEDRAL>
0

>  <SCORE.SYSTEM.SOLV>
0

>  <SCORE.SYSTEM.norm>
0

>  <SCORE.heavy>
12

>  <SCORE.norm>
-1.07098

>  <RMSD>
2.047

$$$$
ligand
 OpenBabel02271912143D
libRbt.so/2013.1/901 2013/11/27
 12 12  0  0  0  0  0  0  0  0999 V2000
  -21.7650  -11.3250   95.6501 C   0  0  0  0  0  0  0  0  0  0  0  0
  -19.6761   -6.2820   94.9560 C   0  0  0  0  0  0  0  0  0  0  0  0
  -23.0601   -9.1226   96.4897 N   0  0  0  0  0  0  0  0  0  0  0  0
  -22.8918  -11.3052   94.7065 N   0  0  0  0  0  0  0  0  0  0  0  0
  -23.4909  -12.2508   94.6451 N   0  0  0  0  0  0  0  0  0  0  0  0
  -24.0927  -13.1940   94.5800 N   0  0  0  0  0  0  0  0  0  0  0  0
  -19.4757   -8.6230   94.7259 N   0  0  0  0  0  0  0  0  0  0  0  0
  -20.1772   -7.5635   95.1500 C   0  0  0  0  0  0  0  0  0  0  0  0
  -21.3277   -7.7250   95.8204 N   0  0  0  0  0  0  0  0  0  0  0  0
  -21.8106   -8.9503   96.0725 C   0  0  0  0  0  0  0  0  0  0  0  0
  -21.1331  -10.0876   95.6487 C   0  0  0  0  0  0  0  0  0  0  0  0
  -19.9318   -9.9240   94.9692 C   0  0  0  0  0  0  0  0  0  0  0  0
  1 11  1  0  0  0  0
  1  4  1  0  0  0  0
  2  8  1  0  0  0  0
  3 10  1  0  0  0  0
  4  5  1  0  0  0  0
  5  6  1  0  0  0  0
  7  8  2  0  0  0  0
  7 12  1  0  0  0  0
  8  9  1  0  0  0  0
  9 10  2  0  0  0  0
 10 11  1  0  0  0  0
 11 12  2  0  0  0  0
M  END
>  <CHROM.1>
63.75292956,-178.58982163,-176.84861352,-21.59728967,-9.70247419,95.27376292
-2.22878816,0.37946463,0.34860113

>  <Name>
ligand

>  <RI>
0

>  <Rbt.Current_Directory>
/home/itssahil/PROJECTS/Mol_Feturizer/Test_systems_manuscript/rnas/4nya

>  <Rbt.Executable>
rbdock ($Id: //depot/dev/client3/rdock/2013.1/src/exe/rbdock.cxx#4 $)

>  <Rbt.Library>
libRbt.so (2013.1, Build901 2013/11/27)

>  <Rbt.Parameter_File>
/export/apps/rDock/src/rDock_2013.1_src/data/scripts/dock_solv.prm

>  <Rbt.Receptor>
prm/blind_docking_100.prm

>  <SCORE>
-12.8264

>  <SCORE.INTER>
-12.6542

>  <SCORE.INTER.CONST>
1

>  <SCORE.INTER.POLAR>
0

>  <SCORE.INTER.ROT>
3

>  <SCORE.INTER.SOLV>
9.73908

>  <SCORE.INTER.VDW>
-17.2825

>  <SCORE.INTER.norm>
-1.05452

>  <SCORE.INTRA>
-0.172169

>  <SCORE.INTRA.DIHEDRAL>
-1.96643

>  <SCORE.INTRA.DIHEDRAL.0>
3.34563

>  <SCORE.INTRA.POLAR>
0

>  <SCORE.INTRA.POLAR.0>
0

>  <SCORE.INTRA.REPUL>
0

>  <SCORE.INTRA.REPUL.0>
0

>  <SCORE.INTRA.SOLV>
1.4247

>  <SCORE.INTRA.SOLV.lig_0>
-59.746

>  <SCORE.INTRA.VDW>
0.0986945

>  <SCORE.INTRA.VDW.0>
-0.691186

>  <SCORE.INTRA.norm>
-0.0143474

>  <SCORE.RESTR>
0

>  <SCORE.RESTR.CAVITY>
0

>  <SCORE.RESTR.norm>
0

>  <SCORE.SYSTEM>
0

>  <SCORE.SYSTEM.CONST>
0

>  <SCORE.SYSTEM.DIHEDRAL>
0

>  <SCORE.SYSTEM.SOLV>
0

>  <SCORE.SYSTEM.norm>
0

>  <SCORE.heavy>
12

>  <SCORE.norm>
-1.06887

>  <RMSD>
2.048

$$$$
ligand
 OpenBabel02271912143D
libRbt.so/2013.1/901 2013/11/27
 12 12  0  0  0  0  0  0  0  0999 V2000
  -21.8115  -11.3605   95.7506 C   0  0  0  0  0  0  0  0  0  0  0  0
  -19.7487   -6.3160   94.9921 C   0  0  0  0  0  0  0  0  0  0  0  0
  -23.1401   -9.1519   96.5183 N   0  0  0  0  0  0  0  0  0  0  0  0
  -22.8097  -11.4260   94.6737 N   0  0  0  0  0  0  0  0  0  0  0  0
  -23.4475  -12.3478   94.6577 N   0  0  0  0  0  0  0  0  0  0  0  0
  -24.0876  -13.2675   94.6375 N   0  0  0  0  0  0  0  0  0  0  0  0
  -19.5256   -8.6596   94.8150 N   0  0  0  0  0  0  0  0  0  0  0  0
  -20.2436   -7.5973   95.2030 C   0  0  0  0  0  0  0  0  0  0  0  0
  -21.4058   -7.7542   95.8540 N   0  0  0  0  0  0  0  0  0  0  0  0
  -21.8840   -8.9780   96.1222 C   0  0  0  0  0  0  0  0  0  0  0  0
  -21.1893  -10.1183   95.7356 C   0  0  0  0  0  0  0  0  0  0  0  0
  -19.9762   -9.9589   95.0765 C   0  0  0  0  0  0  0  0  0  0  0  0
  1 11  1  0  0  0  0
  1  4  1  0  0  0  0
  2  8  1  0  0  0  0
  3 10  1  0  0  0  0
  4  5  1  0  0  0  0
  5  6  1  0  0  0  0
  7  8  2  0  0  0  0
  7 12  1  0  0  0  0
  8  9  1  0  0  0  0
  9 10  2  0  0  0  0
 10 11  1  0  0  0  0
 11 12  2  0  0  0  0
M  END
>  <CHROM.1>
70.63301750,-173.99172207,-179.58826391,-21.63274730,-9.75181135,95.32439923
-2.20657220,0.37720634,0.33967100

>  <Name>
ligand

>  <RI>
0

>  <Rbt.Current_Directory>
/home/itssahil/PROJECTS/Mol_Feturizer/Test_systems_manuscript/rnas/4nya

>  <Rbt.Executable>
rbdock ($Id: //depot/dev/client3/rdock/2013.1/src/exe/rbdock.cxx#4 $)

>  <Rbt.Library>
libRbt.so (2013.1, Build901 2013/11/27)

>  <Rbt.Parameter_File>
/export/apps/rDock/src/rDock_2013.1_src/data/scripts/dock_solv.prm

>  <Rbt.Receptor>
prm/pocket_docking_3.prm

>  <SCORE>
-12.7863

>  <SCORE.INTER>
-12.3534

>  <SCORE.INTER.CONST>
1

>  <SCORE.INTER.POLAR>
0

>  <SCORE.INTER.ROT>
3

>  <SCORE.INTER.SOLV>
9.54348

>  <SCORE.INTER.VDW>
-17.0168

>  <SCORE.INTER.norm>
-1.02945

>  <SCORE.INTRA>
-0.432911

>  <SCORE.INTRA.DIHEDRAL>
-2.09679

>  <SCORE.INTRA.DIHEDRAL.0>
3.34563

>  <SCORE.INTRA.POLAR>
0

>  <SCORE.INTRA.POLAR.0>
0

>  <SCORE.INTRA.REPUL>
0

>  <SCORE.INTRA.REPUL.0>
0

>  <SCORE.INTRA.SOLV>
1.17528

>  <SCORE.INTRA.SOLV.lig_0>
-59.746

>  <SCORE.INTRA.VDW>
0.0278434

>  <SCORE.INTRA.VDW.0>
-0.691186

>  <SCORE.INTRA.norm>
-0.0360759

>  <SCORE.RESTR>
0

>  <SCORE.RESTR.CAVITY>
0

>  <SCORE.RESTR.norm>
0

>  <SCORE.SYSTEM>
0

>  <SCORE.SYSTEM.CONST>
0

>  <SCORE.SYSTEM.DIHEDRAL>
0

>  <SCORE.SYSTEM.SOLV>
0

>  <SCORE.SYSTEM.norm>
0

>  <SCORE.heavy>
12

>  <SCORE.norm>
-1.06553

>  <RMSD>
2.048

$$$$
ligand
 OpenBabel02271912143D
libRbt.so/2013.1/901 2013/11/27
 12 12  0  0  0  0  0  0  0  0999 V2000
  -21.7712  -11.3148   95.6640 C   0  0  0  0  0  0  0  0  0  0  0  0
  -19.6893   -6.2681   94.9756 C   0  0  0  0  0  0  0  0  0  0  0  0
  -23.1066   -9.1100   96.4310 N   0  0  0  0  0  0  0  0  0  0  0  0
  -22.8592  -11.3173   94.6756 N   0  0  0  0  0  0  0  0  0  0  0  0
  -23.4808  -12.2496   94.6394 N   0  0  0  0  0  0  0  0  0  0  0  0
  -24.0980  -13.1842   94.6023 N   0  0  0  0  0  0  0  0  0  0  0  0
  -19.4678   -8.6106   94.7825 N   0  0  0  0  0  0  0  0  0  0  0  0
  -20.1893   -7.5502   95.1690 C   0  0  0  0  0  0  0  0  0  0  0  0
  -21.3607   -7.7103   95.8025 N   0  0  0  0  0  0  0  0  0  0  0  0
  -21.8448   -8.9353   96.0540 C   0  0  0  0  0  0  0  0  0  0  0  0
  -21.1468  -10.0737   95.6678 C   0  0  0  0  0  0  0  0  0  0  0  0
  -19.9243   -9.9112   95.0271 C   0  0  0  0  0  0  0  0  0  0  0  0
  1 11  1  0  0  0  0
  1  4  1  0  0  0  0
  2  8  1  0  0  0  0
  3 10  1  0  0  0  0
  4  5  1  0  0  0  0
  5  6  1  0  0  0  0
  7  8  2  0  0  0  0
  7 12  1  0  0  0  0
  8  9  1  0  0  0  0
  9 10  2  0  0  0  0
 10 11  1  0  0  0  0
 11 12  2  0  0  0  0
M  END
>  <CHROM.1>
64.17531445,-175.79902941,-58.73381598,-21.60594860,-9.69285972,95.27957871
-2.21615317,0.34564663,0.32275573

>  <Name>
ligand

>  <RI>
0

>  <Rbt.Current_Directory>
/home/itssahil/PROJECTS/Mol_Feturizer/Test_systems_manuscript/rnas/4nya

>  <Rbt.Executable>
rbdock ($Id: //depot/dev/client3/rdock/2013.1/src/exe/rbdock.cxx#4 $)

>  <Rbt.Library>
libRbt.so (2013.1, Build901 2013/11/27)

>  <Rbt.Parameter_File>
/export/apps/rDock/src/rDock_2013.1_src/data/scripts/dock_solv.prm

>  <Rbt.Receptor>
prm/pocket_docking_6.prm

>  <SCORE>
-12.7718

>  <SCORE.INTER>
-12.6067

>  <SCORE.INTER.CONST>
1

>  <SCORE.INTER.POLAR>
0

>  <SCORE.INTER.ROT>
3

>  <SCORE.INTER.SOLV>
9.67371

>  <SCORE.INTER.VDW>
-17.2291

>  <SCORE.INTER.norm>
-1.05056

>  <SCORE.INTRA>
-0.165072

>  <SCORE.INTRA.DIHEDRAL>
-1.96679

>  <SCORE.INTRA.DIHEDRAL.0>
3.34563

>  <SCORE.INTRA.POLAR>
0

>  <SCORE.INTRA.POLAR.0>
0

>  <SCORE.INTRA.REPUL>
0

>  <SCORE.INTRA.REPUL.0>
0

>  <SCORE.INTRA.SOLV>
1.45543

>  <SCORE.INTRA.SOLV.lig_0>
-59.746

>  <SCORE.INTRA.VDW>
0.0906088

>  <SCORE.INTRA.VDW.0>
-0.691186

>  <SCORE.INTRA.norm>
-0.013756

>  <SCORE.RESTR>
0

>  <SCORE.RESTR.CAVITY>
0

>  <SCORE.RESTR.norm>
0

>  <SCORE.SYSTEM>
0

>  <SCORE.SYSTEM.CONST>
0

>  <SCORE.SYSTEM.DIHEDRAL>
0

>  <SCORE.SYSTEM.SOLV>
0

>  <SCORE.SYSTEM.norm>
0

>  <SCORE.heavy>
12

>  <SCORE.norm>
-1.06432

>  <RMSD>
2.054

$$$$
ligand
 OpenBabel02271912143D
libRbt.so/2013.1/901 2013/11/27
 12 12  0  0  0  0  0  0  0  0999 V2000
  -21.8044  -11.3540   95.7334 C   0  0  0  0  0  0  0  0  0  0  0  0
  -19.7382   -6.3087   94.9899 C   0  0  0  0  0  0  0  0  0  0  0  0
  -23.1474   -9.1451   96.4749 N   0  0  0  0  0  0  0  0  0  0  0  0
  -22.8271  -11.4038   94.6788 N   0  0  0  0  0  0  0  0  0  0  0  0
  -23.4432  -12.3397   94.6431 N   0  0  0  0  0  0  0  0  0  0  0  0
  -24.0608  -13.2743   94.6120 N   0  0  0  0  0  0  0  0  0  0  0  0
  -19.5090   -8.6524   94.8232 N   0  0  0  0  0  0  0  0  0  0  0  0
  -20.2342   -7.5901   95.1974 C   0  0  0  0  0  0  0  0  0  0  0  0
  -21.4056   -7.7468   95.8318 N   0  0  0  0  0  0  0  0  0  0  0  0
  -21.8859   -8.9705   96.0967 C   0  0  0  0  0  0  0  0  0  0  0  0
  -21.1840  -10.1109   95.7238 C   0  0  0  0  0  0  0  0  0  0  0  0
  -19.9615   -9.9517   95.0821 C   0  0  0  0  0  0  0  0  0  0  0  0
  1 11  1  0  0  0  0
  1  4  1  0  0  0  0
  2  8  1  0  0  0  0
  3 10  1  0  0  0  0
  4  5  1  0  0  0  0
  5  6  1  0  0  0  0
  7  8  2  0  0  0  0
  7 12  1  0  0  0  0
  8  9  1  0  0  0  0
  9 10  2  0  0  0  0
 10 11  1  0  0  0  0
 11 12  2  0  0  0  0
M  END
>  <CHROM.1>
68.21947949,-175.80885918,62.46468871,-21.62708003,-9.74447756,95.31186953
-2.20184491,0.35943717,0.32784641

>  <Name>
ligand

>  <RI>
0

>  <Rbt.Current_Directory>
/home/itssahil/PROJECTS/Mol_Feturizer/Test_systems_manuscript/rnas/4nya

>  <Rbt.Executable>
rbdock ($Id: //depot/dev/client3/rdock/2013.1/src/exe/rbdock.cxx#4 $)

>  <Rbt.Library>
libRbt.so (2013.1, Build901 2013/11/27)

>  <Rbt.Parameter_File>
/export/apps/rDock/src/rDock_2013.1_src/data/scripts/dock_solv.prm

>  <Rbt.Receptor>
prm/pocket_docking_5.prm

>  <SCORE>
-12.7723

>  <SCORE.INTER>
-12.4204

>  <SCORE.INTER.CONST>
1

>  <SCORE.INTER.POLAR>
0

>  <SCORE.INTER.ROT>
3

>  <SCORE.INTER.SOLV>
9.53493

>  <SCORE.INTER.VDW>
-17.0586

>  <SCORE.INTER.norm>
-1.03503

>  <SCORE.INTRA>
-0.351977

>  <SCORE.INTRA.DIHEDRAL>
-2.06153

>  <SCORE.INTRA.DIHEDRAL.0>
3.34563

>  <SCORE.INTRA.POLAR>
0

>  <SCORE.INTRA.POLAR.0>
0

>  <SCORE.INTRA.REPUL>
0

>  <SCORE.INTRA.REPUL.0>
0

>  <SCORE.INTRA.SOLV>
1.26193

>  <SCORE.INTRA.SOLV.lig_0>
-59.746

>  <SCORE.INTRA.VDW>
0.0478238

>  <SCORE.INTRA.VDW.0>
-0.691186

>  <SCORE.INTRA.norm>
-0.0293315

>  <SCORE.RESTR>
0

>  <SCORE.RESTR.CAVITY>
0

>  <SCORE.RESTR.norm>
0

>  <SCORE.SYSTEM>
0

>  <SCORE.SYSTEM.CONST>
0

>  <SCORE.SYSTEM.DIHEDRAL>
0

>  <SCORE.SYSTEM.SOLV>
0

>  <SCORE.SYSTEM.norm>
0

>  <SCORE.heavy>
12

>  <SCORE.norm>
-1.06436

>  <RMSD>
2.055

$$$$
ligand
 OpenBabel02271912143D
libRbt.so/2013.1/901 2013/11/27
 12 12  0  0  0  0  0  0  0  0999 V2000
  -21.7551  -11.2611   95.6546 C   0  0  0  0  0  0  0  0  0  0  0  0
  -19.6098   -6.2432   94.9498 C   0  0  0  0  0  0  0  0  0  0  0  0
  -23.0592   -9.0376   96.4216 N   0  0  0  0  0  0  0  0  0  0  0  0
  -22.8405  -11.2542   94.6635 N   0  0  0  0  0  0  0  0  0  0  0  0
  -23.4911  -12.1670   94.6489 N   0  0  0  0  0  0  0  0  0  0  0  0
  -24.1375  -13.0824   94.6331 N   0  0  0  0  0  0  0  0  0  0  0  0
  -19.4194   -8.5888   94.7606 N   0  0  0  0  0  0  0  0  0  0  0  0
  -20.1259   -7.5184   95.1473 C   0  0  0  0  0  0  0  0  0  0  0  0
  -21.2973   -7.6619   95.7848 N   0  0  0  0  0  0  0  0  0  0  0  0
  -21.7965   -8.8801   96.0402 C   0  0  0  0  0  0  0  0  0  0  0  0
  -21.1146  -10.0281   95.6540 C   0  0  0  0  0  0  0  0  0  0  0  0
  -19.8921   -9.8828   95.0092 C   0  0  0  0  0  0  0  0  0  0  0  0
  1 11  1  0  0  0  0
  1  4  1  0  0  0  0
  2  8  1  0  0  0  0
  3 10  1  0  0  0  0
  4  5  1  0  0  0  0
  5  6  1  0  0  0  0
  7  8  2  0  0  0  0
  7 12  1  0  0  0  0
  8  9  1  0  0  0  0
  9 10  2  0  0  0  0
 10 11  1  0  0  0  0
 11 12  2  0  0  0  0
M  END
>  <CHROM.1>
64.54222090,-174.22983078,-60.93237021,-21.57286310,-9.63994251,95.26955202
-2.23346615,0.34247357,0.32278771

>  <Name>
ligand

>  <RI>
0

>  <Rbt.Current_Directory>
/home/itssahil/PROJECTS/Mol_Feturizer/Test_systems_manuscript/rnas/4nya

>  <Rbt.Executable>
rbdock ($Id: //depot/dev/client3/rdock/2013.1/src/exe/rbdock.cxx#4 $)

>  <Rbt.Library>
libRbt.so (2013.1, Build901 2013/11/27)

>  <Rbt.Parameter_File>
/export/apps/rDock/src/rDock_2013.1_src/data/scripts/dock_solv.prm

>  <Rbt.Receptor>
prm/pocket_docking_2.prm

>  <SCORE>
-12.732

>  <SCORE.INTER>
-12.5667

>  <SCORE.INTER.CONST>
1

>  <SCORE.INTER.POLAR>
0

>  <SCORE.INTER.ROT>
3

>  <SCORE.INTER.SOLV>
9.97396

>  <SCORE.INTER.VDW>
-17.3024

>  <SCORE.INTER.norm>
-1.04722

>  <SCORE.INTRA>
-0.165331

>  <SCORE.INTRA.DIHEDRAL>
-1.96362

>  <SCORE.INTRA.DIHEDRAL.0>
3.34563

>  <SCORE.INTRA.POLAR>
0

>  <SCORE.INTRA.POLAR.0>
0

>  <SCORE.INTRA.REPUL>
0

>  <SCORE.INTRA.REPUL.0>
0

>  <SCORE.INTRA.SOLV>
1.46588

>  <SCORE.INTRA.SOLV.lig_0>
-59.746

>  <SCORE.INTRA.VDW>
0.0835422

>  <SCORE.INTRA.VDW.0>
-0.691186

>  <SCORE.INTRA.norm>
-0.0137776

>  <SCORE.RESTR>
0

>  <SCORE.RESTR.CAVITY>
0

>  <SCORE.RESTR.norm>
0

>  <SCORE.SYSTEM>
0

>  <SCORE.SYSTEM.CONST>
0

>  <SCORE.SYSTEM.DIHEDRAL>
0

>  <SCORE.SYSTEM.SOLV>
0

>  <SCORE.SYSTEM.norm>
0

>  <SCORE.heavy>
12

>  <SCORE.norm>
-1.061

>  <RMSD>
2.056

$$$$
ligand
 OpenBabel02271912143D
libRbt.so/2013.1/901 2013/11/27
 12 12  0  0  0  0  0  0  0  0999 V2000
  -21.8178  -11.1906   95.3593 C   0  0  0  0  0  0  0  0  0  0  0  0
  -19.5552   -6.1793   95.1463 C   0  0  0  0  0  0  0  0  0  0  0  0
  -23.3149   -8.9577   95.2805 N   0  0  0  0  0  0  0  0  0  0  0  0
  -22.8029  -11.4076   96.4285 N   0  0  0  0  0  0  0  0  0  0  0  0
  -23.5502  -12.2223   96.2427 N   0  0  0  0  0  0  0  0  0  0  0  0
  -24.2999  -13.0353   96.0611 N   0  0  0  0  0  0  0  0  0  0  0  0
  -19.3124   -8.5236   95.2848 N   0  0  0  0  0  0  0  0  0  0  0  0
  -20.1117   -7.4500   95.2294 C   0  0  0  0  0  0  0  0  0  0  0  0
  -21.4436   -7.5796   95.3205 N   0  0  0  0  0  0  0  0  0  0  0  0
  -22.0092   -8.7878   95.4573 C   0  0  0  0  0  0  0  0  0  0  0  0
  -21.2327   -9.9395   95.5105 C   0  0  0  0  0  0  0  0  0  0  0  0
  -19.8514   -9.8069   95.4341 C   0  0  0  0  0  0  0  0  0  0  0  0
  1 11  1  0  0  0  0
  1  4  1  0  0  0  0
  2  8  1  0  0  0  0
  3 10  1  0  0  0  0
  4  5  1  0  0  0  0
  5  6  1  0  0  0  0
  7  8  2  0  0  0  0
  7 12  1  0  0  0  0
  8  9  1  0  0  0  0
  9 10  2  0  0  0  0
 10 11  1  0  0  0  0
 11 12  2  0  0  0  0
M  END
>  <CHROM.1>
-60.93958319,162.05626510,-172.43473568,-21.63542323,-9.59788063,95.56793062
-2.19973128,0.04912085,-0.13806851

>  <Name>
ligand

>  <RI>
0

>  <Rbt.Current_Directory>
/home/itssahil/PROJECTS/Mol_Feturizer/Test_systems_manuscript/rnas/4nya

>  <Rbt.Executable>
rbdock ($Id: //depot/dev/client3/rdock/2013.1/src/exe/rbdock.cxx#4 $)

>  <Rbt.Library>
libRbt.so (2013.1, Build901 2013/11/27)

>  <Rbt.Parameter_File>
/export/apps/rDock/src/rDock_2013.1_src/data/scripts/dock_solv.prm

>  <Rbt.Receptor>
prm/pocket_docking_3.prm

>  <SCORE>
-12.8303

>  <SCORE.INTER>
-13.2613

>  <SCORE.INTER.CONST>
1

>  <SCORE.INTER.POLAR>
0

>  <SCORE.INTER.ROT>
3

>  <SCORE.INTER.SOLV>
10.4653

>  <SCORE.INTER.VDW>
-17.9293

>  <SCORE.INTER.norm>
-1.10511

>  <SCORE.INTRA>
0.431037

>  <SCORE.INTRA.DIHEDRAL>
-1.5794

>  <SCORE.INTRA.DIHEDRAL.0>
3.34563

>  <SCORE.INTRA.POLAR>
0

>  <SCORE.INTRA.POLAR.0>
0

>  <SCORE.INTRA.REPUL>
0

>  <SCORE.INTRA.REPUL.0>
0

>  <SCORE.INTRA.SOLV>
2.0773

>  <SCORE.INTRA.SOLV.lig_0>
-59.746

>  <SCORE.INTRA.VDW>
0.182088

>  <SCORE.INTRA.VDW.0>
-0.691186

>  <SCORE.INTRA.norm>
0.0359197

>  <SCORE.RESTR>
0

>  <SCORE.RESTR.CAVITY>
0

>  <SCORE.RESTR.norm>
0

>  <SCORE.SYSTEM>
0

>  <SCORE.SYSTEM.CONST>
0

>  <SCORE.SYSTEM.DIHEDRAL>
0

>  <SCORE.SYSTEM.SOLV>
0

>  <SCORE.SYSTEM.norm>
0

>  <SCORE.heavy>
12

>  <SCORE.norm>
-1.06919

>  <RMSD>
2.101

$$$$
ligand
 OpenBabel02271912143D
libRbt.so/2013.1/901 2013/11/27
 12 12  0  0  0  0  0  0  0  0999 V2000
  -21.9910  -11.1437   95.2841 C   0  0  0  0  0  0  0  0  0  0  0  0
  -19.5597   -6.2082   95.1996 C   0  0  0  0  0  0  0  0  0  0  0  0
  -23.4077   -8.8599   95.3839 N   0  0  0  0  0  0  0  0  0  0  0  0
  -22.9348  -11.3776   96.3864 N   0  0  0  0  0  0  0  0  0  0  0  0
  -23.6708  -12.2082   96.2280 N   0  0  0  0  0  0  0  0  0  0  0  0
  -24.4085  -13.0361   96.0656 N   0  0  0  0  0  0  0  0  0  0  0  0
  -19.3962   -8.5633   95.2149 N   0  0  0  0  0  0  0  0  0  0  0  0
  -20.1576   -7.4617   95.2492 C   0  0  0  0  0  0  0  0  0  0  0  0
  -21.4876   -7.5501   95.3985 N   0  0  0  0  0  0  0  0  0  0  0  0
  -22.0899   -8.7435   95.5051 C   0  0  0  0  0  0  0  0  0  0  0  0
  -21.3542   -9.9222   95.4659 C   0  0  0  0  0  0  0  0  0  0  0  0
  -19.9741   -9.8333   95.3291 C   0  0  0  0  0  0  0  0  0  0  0  0
  1 11  1  0  0  0  0
  1  4  1  0  0  0  0
  2  8  1  0  0  0  0
  3 10  1  0  0  0  0
  4  5  1  0  0  0  0
  5  6  1  0  0  0  0
  7  8  2  0  0  0  0
  7 12  1  0  0  0  0
  8  9  1  0  0  0  0
  9 10  2  0  0  0  0
 10 11  1  0  0  0  0
 11 12  2  0  0  0  0
M  END
>  <CHROM.1>
-60.79230638,166.43554706,-61.30834193,-21.72910426,-9.58334814,95.56537476
-2.21587783,0.10351270,-0.09066999

>  <Name>
ligand

>  <RI>
0

>  <Rbt.Current_Directory>
/home/itssahil/PROJECTS/Mol_Feturizer/Test_systems_manuscript/rnas/4nya

>  <Rbt.Executable>
rbdock ($Id: //depot/dev/client3/rdock/2013.1/src/exe/rbdock.cxx#4 $)

>  <Rbt.Library>
libRbt.so (2013.1, Build901 2013/11/27)

>  <Rbt.Parameter_File>
/export/apps/rDock/src/rDock_2013.1_src/data/scripts/dock_solv.prm

>  <Rbt.Receptor>
prm/pocket_docking_2.prm

>  <SCORE>
-12.8291

>  <SCORE.INTER>
-13.1225

>  <SCORE.INTER.CONST>
1

>  <SCORE.INTER.POLAR>
0

>  <SCORE.INTER.ROT>
3

>  <SCORE.INTER.SOLV>
9.91205

>  <SCORE.INTER.VDW>
-17.6524

>  <SCORE.INTER.norm>
-1.09354

>  <SCORE.INTRA>
0.293393

>  <SCORE.INTRA.DIHEDRAL>
-1.69953

>  <SCORE.INTRA.DIHEDRAL.0>
3.34563

>  <SCORE.INTRA.POLAR>
0

>  <SCORE.INTRA.POLAR.0>
0

>  <SCORE.INTRA.REPUL>
0

>  <SCORE.INTRA.REPUL.0>
0

>  <SCORE.INTRA.SOLV>
1.8593

>  <SCORE.INTRA.SOLV.lig_0>
-59.746

>  <SCORE.INTRA.VDW>
0.21351

>  <SCORE.INTRA.VDW.0>
-0.691186

>  <SCORE.INTRA.norm>
0.0244494

>  <SCORE.RESTR>
0

>  <SCORE.RESTR.CAVITY>
0

>  <SCORE.RESTR.norm>
0

>  <SCORE.SYSTEM>
0

>  <SCORE.SYSTEM.CONST>
0

>  <SCORE.SYSTEM.DIHEDRAL>
0

>  <SCORE.SYSTEM.SOLV>
0

>  <SCORE.SYSTEM.norm>
0

>  <SCORE.heavy>
12

>  <SCORE.norm>
-1.06909

>  <RMSD>
2.111

$$$$
ligand
 OpenBabel02271912143D
libRbt.so/2013.1/901 2013/11/27
 12 12  0  0  0  0  0  0  0  0999 V2000
  -21.9826  -11.1425   95.2903 C   0  0  0  0  0  0  0  0  0  0  0  0
  -19.5578   -6.2048   95.1610 C   0  0  0  0  0  0  0  0  0  0  0  0
  -23.4040   -8.8598   95.3344 N   0  0  0  0  0  0  0  0  0  0  0  0
  -22.9595  -11.3491   96.3690 N   0  0  0  0  0  0  0  0  0  0  0  0
  -23.6815  -12.1929   96.2158 N   0  0  0  0  0  0  0  0  0  0  0  0
  -24.4055  -13.0353   96.0670 N   0  0  0  0  0  0  0  0  0  0  0  0
  -19.3910   -8.5591   95.2159 N   0  0  0  0  0  0  0  0  0  0  0  0
  -20.1544   -7.4584   95.2222 C   0  0  0  0  0  0  0  0  0  0  0  0
  -21.4863   -7.5467   95.3546 N   0  0  0  0  0  0  0  0  0  0  0  0
  -22.0882   -8.7393   95.4718 C   0  0  0  0  0  0  0  0  0  0  0  0
  -21.3503   -9.9172   95.4615 C   0  0  0  0  0  0  0  0  0  0  0  0
  -19.9685   -9.8281   95.3423 C   0  0  0  0  0  0  0  0  0  0  0  0
  1 11  1  0  0  0  0
  1  4  1  0  0  0  0
  2  8  1  0  0  0  0
  3 10  1  0  0  0  0
  4  5  1  0  0  0  0
  5  6  1  0  0  0  0
  7  8  2  0  0  0  0
  7 12  1  0  0  0  0
  8  9  1  0  0  0  0
  9 10  2  0  0  0  0
 10 11  1  0  0  0  0
 11 12  2  0  0  0  0
M  END
>  <CHROM.1>
-59.72276630,167.32507849,-177.39507819,-21.72906134,-9.57707404,95.54800192
-2.21647851,0.09032336,-0.10452898

>  <Name>
ligand

>  <RI>
0

>  <Rbt.Current_Directory>
/home/itssahil/PROJECTS/Mol_Feturizer/Test_systems_manuscript/rnas/4nya

>  <Rbt.Executable>
rbdock ($Id: //depot/dev/client3/rdock/2013.1/src/exe/rbdock.cxx#4 $)

>  <Rbt.Library>
libRbt.so (2013.1, Build901 2013/11/27)

>  <Rbt.Parameter_File>
/export/apps/rDock/src/rDock_2013.1_src/data/scripts/dock_solv.prm

>  <Rbt.Receptor>
prm/pocket_docking_2.prm

>  <SCORE>
-12.8112

>  <SCORE.INTER>
-13.1133

>  <SCORE.INTER.CONST>
1

>  <SCORE.INTER.POLAR>
0

>  <SCORE.INTER.ROT>
3

>  <SCORE.INTER.SOLV>
9.95508

>  <SCORE.INTER.VDW>
-17.6605

>  <SCORE.INTER.norm>
-1.09277

>  <SCORE.INTRA>
0.302071

>  <SCORE.INTRA.DIHEDRAL>
-1.74663

>  <SCORE.INTRA.DIHEDRAL.0>
3.34563

>  <SCORE.INTRA.POLAR>
0

>  <SCORE.INTRA.POLAR.0>
0

>  <SCORE.INTRA.REPUL>
0

>  <SCORE.INTRA.REPUL.0>
0

>  <SCORE.INTRA.SOLV>
1.8747

>  <SCORE.INTRA.SOLV.lig_0>
-59.746

>  <SCORE.INTRA.VDW>
0.238035

>  <SCORE.INTRA.VDW.0>
-0.691186

>  <SCORE.INTRA.norm>
0.0251725

>  <SCORE.RESTR>
0

>  <SCORE.RESTR.CAVITY>
0

>  <SCORE.RESTR.norm>
0

>  <SCORE.SYSTEM>
0

>  <SCORE.SYSTEM.CONST>
0

>  <SCORE.SYSTEM.DIHEDRAL>
0

>  <SCORE.SYSTEM.SOLV>
0

>  <SCORE.SYSTEM.norm>
0

>  <SCORE.heavy>
12

>  <SCORE.norm>
-1.0676

>  <RMSD>
2.111

$$$$
ligand
 OpenBabel02271912143D
libRbt.so/2013.1/901 2013/11/27
 12 12  0  0  0  0  0  0  0  0999 V2000
  -21.9874  -11.1356   95.2730 C   0  0  0  0  0  0  0  0  0  0  0  0
  -19.5598   -6.1990   95.1539 C   0  0  0  0  0  0  0  0  0  0  0  0
  -23.4064   -8.8523   95.3458 N   0  0  0  0  0  0  0  0  0  0  0  0
  -22.9322  -11.3625   96.3760 N   0  0  0  0  0  0  0  0  0  0  0  0
  -23.6669  -12.1953   96.2229 N   0  0  0  0  0  0  0  0  0  0  0  0
  -24.4034  -13.0268   96.0745 N   0  0  0  0  0  0  0  0  0  0  0  0
  -19.3945   -8.5537   95.1915 N   0  0  0  0  0  0  0  0  0  0  0  0
  -20.1569   -7.4525   95.2124 C   0  0  0  0  0  0  0  0  0  0  0  0
  -21.4875   -7.5407   95.3567 N   0  0  0  0  0  0  0  0  0  0  0  0
  -22.0893   -8.7336   95.4716 C   0  0  0  0  0  0  0  0  0  0  0  0
  -21.3525   -9.9120   95.4464 C   0  0  0  0  0  0  0  0  0  0  0  0
  -19.9718   -9.8231   95.3148 C   0  0  0  0  0  0  0  0  0  0  0  0
  1 11  1  0  0  0  0
  1  4  1  0  0  0  0
  2  8  1  0  0  0  0
  3 10  1  0  0  0  0
  4  5  1  0  0  0  0
  5  6  1  0  0  0  0
  7  8  2  0  0  0  0
  7 12  1  0  0  0  0
  8  9  1  0  0  0  0
  9 10  2  0  0  0  0
 10 11  1  0  0  0  0
 11 12  2  0  0  0  0
M  END
>  <CHROM.1>
-61.00006444,166.43395497,179.58617791,-21.72713710,-9.57331694,95.54284451
-2.21461787,0.09953206,-0.10092116

>  <Name>
ligand

>  <RI>
0

>  <Rbt.Current_Directory>
/home/itssahil/PROJECTS/Mol_Feturizer/Test_systems_manuscript/rnas/4nya

>  <Rbt.Executable>
rbdock ($Id: //depot/dev/client3/rdock/2013.1/src/exe/rbdock.cxx#4 $)

>  <Rbt.Library>
libRbt.so (2013.1, Build901 2013/11/27)

>  <Rbt.Parameter_File>
/export/apps/rDock/src/rDock_2013.1_src/data/scripts/dock_solv.prm

>  <Rbt.Receptor>
prm/pocket_docking_2.prm

>  <SCORE>
-12.8078

>  <SCORE.INTER>
-13.0878

>  <SCORE.INTER.CONST>
1

>  <SCORE.INTER.POLAR>
0

>  <SCORE.INTER.ROT>
3

>  <SCORE.INTER.SOLV>
10.0115

>  <SCORE.INTER.VDW>
-17.6624

>  <SCORE.INTER.norm>
-1.09065

>  <SCORE.INTRA>
0.28002

>  <SCORE.INTRA.DIHEDRAL>
-1.69388

>  <SCORE.INTRA.DIHEDRAL.0>
3.34563

>  <SCORE.INTRA.POLAR>
0

>  <SCORE.INTRA.POLAR.0>
0

>  <SCORE.INTRA.REPUL>
0

>  <SCORE.INTRA.REPUL.0>
0

>  <SCORE.INTRA.SOLV>
1.83786

>  <SCORE.INTRA.SOLV.lig_0>
-59.746

>  <SCORE.INTRA.VDW>
0.20803

>  <SCORE.INTRA.VDW.0>
-0.691186

>  <SCORE.INTRA.norm>
0.023335

>  <SCORE.RESTR>
0

>  <SCORE.RESTR.CAVITY>
0

>  <SCORE.RESTR.norm>
0

>  <SCORE.SYSTEM>
0

>  <SCORE.SYSTEM.CONST>
0

>  <SCORE.SYSTEM.DIHEDRAL>
0

>  <SCORE.SYSTEM.SOLV>
0

>  <SCORE.SYSTEM.norm>
0

>  <SCORE.heavy>
12

>  <SCORE.norm>
-1.06732

>  <RMSD>
2.115

$$$$
ligand
 OpenBabel02271912143D
libRbt.so/2013.1/901 2013/11/27
 12 12  0  0  0  0  0  0  0  0999 V2000
  -21.9780  -11.1501   95.2885 C   0  0  0  0  0  0  0  0  0  0  0  0
  -19.5706   -6.2031   95.1977 C   0  0  0  0  0  0  0  0  0  0  0  0
  -23.4059   -8.8731   95.3842 N   0  0  0  0  0  0  0  0  0  0  0  0
  -22.9306  -11.3811   96.3838 N   0  0  0  0  0  0  0  0  0  0  0  0
  -23.6356  -12.2411   96.2416 N   0  0  0  0  0  0  0  0  0  0  0  0
  -24.3424  -13.0998   96.1039 N   0  0  0  0  0  0  0  0  0  0  0  0
  -19.3958   -8.5573   95.2166 N   0  0  0  0  0  0  0  0  0  0  0  0
  -20.1625   -7.4594   95.2489 C   0  0  0  0  0  0  0  0  0  0  0  0
  -21.4921   -7.5540   95.3977 N   0  0  0  0  0  0  0  0  0  0  0  0
  -22.0887   -8.7501   95.5058 C   0  0  0  0  0  0  0  0  0  0  0  0
  -21.3473   -9.9254   95.4688 C   0  0  0  0  0  0  0  0  0  0  0  0
  -19.9675   -9.8299   95.3325 C   0  0  0  0  0  0  0  0  0  0  0  0
  1 11  1  0  0  0  0
  1  4  1  0  0  0  0
  2  8  1  0  0  0  0
  3 10  1  0  0  0  0
  4  5  1  0  0  0  0
  5  6  1  0  0  0  0
  7  8  2  0  0  0  0
  7 12  1  0  0  0  0
  8  9  1  0  0  0  0
  9 10  2  0  0  0  0
 10 11  1  0  0  0  0
 11 12  2  0  0  0  0
M  END
>  <CHROM.1>
-60.25405304,168.76835969,-179.60532138,-21.71928939,-9.59342302,95.57046187
-2.20539798,0.10452643,-0.09400102

>  <Name>
ligand

>  <RI>
0

>  <Rbt.Current_Directory>
/home/itssahil/PROJECTS/Mol_Feturizer/Test_systems_manuscript/rnas/4nya

>  <Rbt.Executable>
rbdock ($Id: //depot/dev/client3/rdock/2013.1/src/exe/rbdock.cxx#4 $)

>  <Rbt.Library>
libRbt.so (2013.1, Build901 2013/11/27)

>  <Rbt.Parameter_File>
/export/apps/rDock/src/rDock_2013.1_src/data/scripts/dock_solv.prm

>  <Rbt.Receptor>
prm/pocket_docking_8.prm

>  <SCORE>
-12.8466

>  <SCORE.INTER>
-13.079

>  <SCORE.INTER.CONST>
1

>  <SCORE.INTER.POLAR>
0

>  <SCORE.INTER.ROT>
3

>  <SCORE.INTER.SOLV>
10.1568

>  <SCORE.INTER.VDW>
-17.7049

>  <SCORE.INTER.norm>
-1.08992

>  <SCORE.INTRA>
0.232402

>  <SCORE.INTRA.DIHEDRAL>
-1.75979

>  <SCORE.INTRA.DIHEDRAL.0>
3.34563

>  <SCORE.INTRA.POLAR>
0

>  <SCORE.INTRA.POLAR.0>
0

>  <SCORE.INTRA.REPUL>
0

>  <SCORE.INTRA.REPUL.0>
0

>  <SCORE.INTRA.SOLV>
1.76692

>  <SCORE.INTRA.SOLV.lig_0>
-59.746

>  <SCORE.INTRA.VDW>
0.228838

>  <SCORE.INTRA.VDW.0>
-0.691186

>  <SCORE.INTRA.norm>
0.0193668

>  <SCORE.RESTR>
0

>  <SCORE.RESTR.CAVITY>
0

>  <SCORE.RESTR.norm>
0

>  <SCORE.SYSTEM>
0

>  <SCORE.SYSTEM.CONST>
0

>  <SCORE.SYSTEM.DIHEDRAL>
0

>  <SCORE.SYSTEM.SOLV>
0

>  <SCORE.SYSTEM.norm>
0

>  <SCORE.heavy>
12

>  <SCORE.norm>
-1.07055

>  <RMSD>
2.118

$$$$
ligand
 OpenBabel02271912143D
libRbt.so/2013.1/901 2013/11/27
 12 12  0  0  0  0  0  0  0  0999 V2000
  -21.9309  -11.1663   95.2674 C   0  0  0  0  0  0  0  0  0  0  0  0
  -19.6134   -6.1764   95.1844 C   0  0  0  0  0  0  0  0  0  0  0  0
  -23.4020   -8.9154   95.3159 N   0  0  0  0  0  0  0  0  0  0  0  0
  -22.9368  -11.3846   96.3168 N   0  0  0  0  0  0  0  0  0  0  0  0
  -23.6000  -12.2774   96.1761 N   0  0  0  0  0  0  0  0  0  0  0  0
  -24.2648  -13.1680   96.0311 N   0  0  0  0  0  0  0  0  0  0  0  0
  -19.3958   -8.5268   95.2260 N   0  0  0  0  0  0  0  0  0  0  0  0
  -20.1830   -7.4430   95.2340 C   0  0  0  0  0  0  0  0  0  0  0  0
  -21.5135   -7.5610   95.3569 N   0  0  0  0  0  0  0  0  0  0  0  0
  -22.0900   -8.7671   95.4629 C   0  0  0  0  0  0  0  0  0  0  0  0
  -21.3266   -9.9287   95.4503 C   0  0  0  0  0  0  0  0  0  0  0  0
  -19.9463   -9.8088   95.3408 C   0  0  0  0  0  0  0  0  0  0  0  0
  1 11  1  0  0  0  0
  1  4  1  0  0  0  0
  2  8  1  0  0  0  0
  3 10  1  0  0  0  0
  4  5  1  0  0  0  0
  5  6  1  0  0  0  0
  7  8  2  0  0  0  0
  7 12  1  0  0  0  0
  8  9  1  0  0  0  0
  9 10  2  0  0  0  0
 10 11  1  0  0  0  0
 11 12  2  0  0  0  0
M  END
>  <CHROM.1>
-58.15755682,170.70019317,-61.59627922,-21.70989997,-9.60208750,95.53582592
-2.19025844,0.08339301,-0.09905924

>  <Name>
ligand

>  <RI>
0

>  <Rbt.Current_Directory>
/home/itssahil/PROJECTS/Mol_Feturizer/Test_systems_manuscript/rnas/4nya

>  <Rbt.Executable>
rbdock ($Id: //depot/dev/client3/rdock/2013.1/src/exe/rbdock.cxx#4 $)

>  <Rbt.Library>
libRbt.so (2013.1, Build901 2013/11/27)

>  <Rbt.Parameter_File>
/export/apps/rDock/src/rDock_2013.1_src/data/scripts/dock_solv.prm

>  <Rbt.Receptor>
prm/pocket_docking_4.prm

>  <SCORE>
-12.7952

>  <SCORE.INTER>
-13.0637

>  <SCORE.INTER.CONST>
1

>  <SCORE.INTER.POLAR>
0

>  <SCORE.INTER.ROT>
3

>  <SCORE.INTER.SOLV>
10.0771

>  <SCORE.INTER.VDW>
-17.6682

>  <SCORE.INTER.norm>
-1.08864

>  <SCORE.INTRA>
0.268506

>  <SCORE.INTRA.DIHEDRAL>
-1.84921

>  <SCORE.INTRA.DIHEDRAL.0>
3.34563

>  <SCORE.INTRA.POLAR>
0

>  <SCORE.INTRA.POLAR.0>
0

>  <SCORE.INTRA.REPUL>
0

>  <SCORE.INTRA.REPUL.0>
0

>  <SCORE.INTRA.SOLV>
1.81476

>  <SCORE.INTRA.SOLV.lig_0>
-59.746

>  <SCORE.INTRA.VDW>
0.285731

>  <SCORE.INTRA.VDW.0>
-0.691186

>  <SCORE.INTRA.norm>
0.0223755

>  <SCORE.RESTR>
0

>  <SCORE.RESTR.CAVITY>
0

>  <SCORE.RESTR.norm>
0

>  <SCORE.SYSTEM>
0

>  <SCORE.SYSTEM.CONST>
0

>  <SCORE.SYSTEM.DIHEDRAL>
0

>  <SCORE.SYSTEM.SOLV>
0

>  <SCORE.SYSTEM.norm>
0

>  <SCORE.heavy>
12

>  <SCORE.norm>
-1.06627

>  <RMSD>
2.120

$$$$
ligand
 OpenBabel02271912143D
libRbt.so/2013.1/901 2013/11/27
 12 12  0  0  0  0  0  0  0  0999 V2000
  -21.9719  -11.1436   95.2668 C   0  0  0  0  0  0  0  0  0  0  0  0
  -19.5623   -6.1979   95.1594 C   0  0  0  0  0  0  0  0  0  0  0  0
  -23.3985   -8.8657   95.3580 N   0  0  0  0  0  0  0  0  0  0  0  0
  -22.9633  -11.3460   96.3329 N   0  0  0  0  0  0  0  0  0  0  0  0
  -23.6444  -12.2268   96.2024 N   0  0  0  0  0  0  0  0  0  0  0  0
  -24.3212  -13.1105   96.0720 N   0  0  0  0  0  0  0  0  0  0  0  0
  -19.3885   -8.5522   95.1846 N   0  0  0  0  0  0  0  0  0  0  0  0
  -20.1546   -7.4538   95.2148 C   0  0  0  0  0  0  0  0  0  0  0  0
  -21.4842   -7.5474   95.3655 N   0  0  0  0  0  0  0  0  0  0  0  0
  -22.0811   -8.7430   95.4777 C   0  0  0  0  0  0  0  0  0  0  0  0
  -21.3403   -9.9187   95.4429 C   0  0  0  0  0  0  0  0  0  0  0  0
  -19.9607   -9.8242   95.3047 C   0  0  0  0  0  0  0  0  0  0  0  0
  1 11  1  0  0  0  0
  1  4  1  0  0  0  0
  2  8  1  0  0  0  0
  3 10  1  0  0  0  0
  4  5  1  0  0  0  0
  5  6  1  0  0  0  0
  7  8  2  0  0  0  0
  7 12  1  0  0  0  0
  8  9  1  0  0  0  0
  9 10  2  0  0  0  0
 10 11  1  0  0  0  0
 11 12  2  0  0  0  0
M  END
>  <CHROM.1>
-57.90948386,170.85840407,61.11516842,-21.71561317,-9.58548093,95.53791144
-2.20696393,0.10665872,-0.09186406

>  <Name>
ligand

>  <RI>
0

>  <Rbt.Current_Directory>
/home/itssahil/PROJECTS/Mol_Feturizer/Test_systems_manuscript/rnas/4nya

>  <Rbt.Executable>
rbdock ($Id: //depot/dev/client3/rdock/2013.1/src/exe/rbdock.cxx#4 $)

>  <Rbt.Library>
libRbt.so (2013.1, Build901 2013/11/27)

>  <Rbt.Parameter_File>
/export/apps/rDock/src/rDock_2013.1_src/data/scripts/dock_solv.prm

>  <Rbt.Receptor>
prm/pocket_docking_4.prm

>  <SCORE>
-12.8306

>  <SCORE.INTER>
-13.104

>  <SCORE.INTER.CONST>
1

>  <SCORE.INTER.POLAR>
0

>  <SCORE.INTER.ROT>
3

>  <SCORE.INTER.SOLV>
10.048

>  <SCORE.INTER.VDW>
-17.6854

>  <SCORE.INTER.norm>
-1.092

>  <SCORE.INTRA>
0.27342

>  <SCORE.INTRA.DIHEDRAL>
-1.85867

>  <SCORE.INTRA.DIHEDRAL.0>
3.34563

>  <SCORE.INTRA.POLAR>
0

>  <SCORE.INTRA.POLAR.0>
0

>  <SCORE.INTRA.REPUL>
0

>  <SCORE.INTRA.REPUL.0>
0

>  <SCORE.INTRA.SOLV>
1.81936

>  <SCORE.INTRA.SOLV.lig_0>
-59.746

>  <SCORE.INTRA.VDW>
0.293071

>  <SCORE.INTRA.VDW.0>
-0.691186

>  <SCORE.INTRA.norm>
0.022785

>  <SCORE.RESTR>
0

>  <SCORE.RESTR.CAVITY>
0

>  <SCORE.RESTR.norm>
0

>  <SCORE.SYSTEM>
0

>  <SCORE.SYSTEM.CONST>
0

>  <SCORE.SYSTEM.DIHEDRAL>
0

>  <SCORE.SYSTEM.SOLV>
0

>  <SCORE.SYSTEM.norm>
0

>  <SCORE.heavy>
12

>  <SCORE.norm>
-1.06922

>  <RMSD>
2.120

$$$$
ligand
 OpenBabel02271912143D
libRbt.so/2013.1/901 2013/11/27
 12 12  0  0  0  0  0  0  0  0999 V2000
  -21.9753  -11.1431   95.2492 C   0  0  0  0  0  0  0  0  0  0  0  0
  -19.5655   -6.1970   95.1674 C   0  0  0  0  0  0  0  0  0  0  0  0
  -23.4019   -8.8655   95.3523 N   0  0  0  0  0  0  0  0  0  0  0  0
  -22.9514  -11.3606   96.3264 N   0  0  0  0  0  0  0  0  0  0  0  0
  -23.6404  -12.2342   96.1888 N   0  0  0  0  0  0  0  0  0  0  0  0
  -24.3315  -13.1063   96.0556 N   0  0  0  0  0  0  0  0  0  0  0  0
  -19.3919   -8.5514   95.1803 N   0  0  0  0  0  0  0  0  0  0  0  0
  -20.1580   -7.4531   95.2163 C   0  0  0  0  0  0  0  0  0  0  0  0
  -21.4875   -7.5474   95.3666 N   0  0  0  0  0  0  0  0  0  0  0  0
  -22.0845   -8.7435   95.4725 C   0  0  0  0  0  0  0  0  0  0  0  0
  -21.3437   -9.9190   95.4317 C   0  0  0  0  0  0  0  0  0  0  0  0
  -19.9641   -9.8239   95.2938 C   0  0  0  0  0  0  0  0  0  0  0  0
  1 11  1  0  0  0  0
  1  4  1  0  0  0  0
  2  8  1  0  0  0  0
  3 10  1  0  0  0  0
  4  5  1  0  0  0  0
  5  6  1  0  0  0  0
  7  8  2  0  0  0  0
  7 12  1  0  0  0  0
  8  9  1  0  0  0  0
  9 10  2  0  0  0  0
 10 11  1  0  0  0  0
 11 12  2  0  0  0  0
M  END
>  <CHROM.1>
-58.81148992,170.17749705,-179.35975885,-21.71761182,-9.58679843,95.53125720
-2.20646521,0.10655159,-0.08877914

>  <Name>
ligand

>  <RI>
0

>  <Rbt.Current_Directory>
/home/itssahil/PROJECTS/Mol_Feturizer/Test_systems_manuscript/rnas/4nya

>  <Rbt.Executable>
rbdock ($Id: //depot/dev/client3/rdock/2013.1/src/exe/rbdock.cxx#4 $)

>  <Rbt.Library>
libRbt.so (2013.1, Build901 2013/11/27)

>  <Rbt.Parameter_File>
/export/apps/rDock/src/rDock_2013.1_src/data/scripts/dock_solv.prm

>  <Rbt.Receptor>
prm/pocket_docking_6.prm

>  <SCORE>
-12.8363

>  <SCORE.INTER>
-13.0859

>  <SCORE.INTER.CONST>
1

>  <SCORE.INTER.POLAR>
0

>  <SCORE.INTER.ROT>
3

>  <SCORE.INTER.SOLV>
10.0157

>  <SCORE.INTER.VDW>
-17.6625

>  <SCORE.INTER.norm>
-1.09049

>  <SCORE.INTRA>
0.24964

>  <SCORE.INTRA.DIHEDRAL>
-1.8238

>  <SCORE.INTRA.DIHEDRAL.0>
3.34563

>  <SCORE.INTRA.POLAR>
0

>  <SCORE.INTRA.POLAR.0>
0

>  <SCORE.INTRA.REPUL>
0

>  <SCORE.INTRA.REPUL.0>
0

>  <SCORE.INTRA.SOLV>
1.79074

>  <SCORE.INTRA.SOLV.lig_0>
-59.746

>  <SCORE.INTRA.VDW>
0.266172

>  <SCORE.INTRA.VDW.0>
-0.691186

>  <SCORE.INTRA.norm>
0.0208034

>  <SCORE.RESTR>
0

>  <SCORE.RESTR.CAVITY>
0

>  <SCORE.RESTR.norm>
0

>  <SCORE.SYSTEM>
0

>  <SCORE.SYSTEM.CONST>
0

>  <SCORE.SYSTEM.DIHEDRAL>
0

>  <SCORE.SYSTEM.SOLV>
0

>  <SCORE.SYSTEM.norm>
0

>  <SCORE.heavy>
12

>  <SCORE.norm>
-1.06969

>  <RMSD>
2.120

$$$$
ligand
 OpenBabel02271912143D
libRbt.so/2013.1/901 2013/11/27
 12 12  0  0  0  0  0  0  0  0999 V2000
  -21.9705  -11.1548   95.2698 C   0  0  0  0  0  0  0  0  0  0  0  0
  -19.5762   -6.2016   95.1666 C   0  0  0  0  0  0  0  0  0  0  0  0
  -23.4002   -8.8821   95.4229 N   0  0  0  0  0  0  0  0  0  0  0  0
  -22.9188  -11.3837   96.3692 N   0  0  0  0  0  0  0  0  0  0  0  0
  -23.6161  -12.2515   96.2369 N   0  0  0  0  0  0  0  0  0  0  0  0
  -24.3092  -13.1221   96.1044 N   0  0  0  0  0  0  0  0  0  0  0  0
  -19.3962   -8.5555   95.1586 N   0  0  0  0  0  0  0  0  0  0  0  0
  -20.1641   -7.4597   95.2205 C   0  0  0  0  0  0  0  0  0  0  0  0
  -21.4894   -7.5588   95.4014 N   0  0  0  0  0  0  0  0  0  0  0  0
  -22.0806   -8.7573   95.5128 C   0  0  0  0  0  0  0  0  0  0  0  0
  -21.3380   -9.9304   95.4460 C   0  0  0  0  0  0  0  0  0  0  0  0
  -19.9622   -9.8305   95.2764 C   0  0  0  0  0  0  0  0  0  0  0  0
  1 11  1  0  0  0  0
  1  4  1  0  0  0  0
  2  8  1  0  0  0  0
  3 10  1  0  0  0  0
  4  5  1  0  0  0  0
  5  6  1  0  0  0  0
  7  8  2  0  0  0  0
  7 12  1  0  0  0  0
  8  9  1  0  0  0  0
  9 10  2  0  0  0  0
 10 11  1  0  0  0  0
 11 12  2  0  0  0  0
M  END
>  <CHROM.1>
-58.90024633,169.53761360,60.93349003,-21.71127360,-9.59878017,95.55547207
-2.20293161,0.12927146,-0.08138312

>  <Name>
ligand

>  <RI>
0

>  <Rbt.Current_Directory>
/home/itssahil/PROJECTS/Mol_Feturizer/Test_systems_manuscript/rnas/4nya

>  <Rbt.Executable>
rbdock ($Id: //depot/dev/client3/rdock/2013.1/src/exe/rbdock.cxx#4 $)

>  <Rbt.Library>
libRbt.so (2013.1, Build901 2013/11/27)

>  <Rbt.Parameter_File>
/export/apps/rDock/src/rDock_2013.1_src/data/scripts/dock_solv.prm

>  <Rbt.Receptor>
prm/pocket_docking_3.prm

>  <SCORE>
-12.8278

>  <SCORE.INTER>
-13.0944

>  <SCORE.INTER.CONST>
1

>  <SCORE.INTER.POLAR>
0

>  <SCORE.INTER.ROT>
3

>  <SCORE.INTER.SOLV>
10.1434

>  <SCORE.INTER.VDW>
-17.7107

>  <SCORE.INTER.norm>
-1.0912

>  <SCORE.INTRA>
0.26655

>  <SCORE.INTRA.DIHEDRAL>
-1.81102

>  <SCORE.INTRA.DIHEDRAL.0>
3.34563

>  <SCORE.INTRA.POLAR>
0

>  <SCORE.INTRA.POLAR.0>
0

>  <SCORE.INTRA.REPUL>
0

>  <SCORE.INTRA.REPUL.0>
0

>  <SCORE.INTRA.SOLV>
1.81615

>  <SCORE.INTRA.SOLV.lig_0>
-59.746

>  <SCORE.INTRA.VDW>
0.263982

>  <SCORE.INTRA.VDW.0>
-0.691186

>  <SCORE.INTRA.norm>
0.0222125

>  <SCORE.RESTR>
0

>  <SCORE.RESTR.CAVITY>
0

>  <SCORE.RESTR.norm>
0

>  <SCORE.SYSTEM>
0

>  <SCORE.SYSTEM.CONST>
0

>  <SCORE.SYSTEM.DIHEDRAL>
0

>  <SCORE.SYSTEM.SOLV>
0

>  <SCORE.SYSTEM.norm>
0

>  <SCORE.heavy>
12

>  <SCORE.norm>
-1.06899

>  <RMSD>
2.122

$$$$
ligand
 OpenBabel02271912143D
libRbt.so/2013.1/901 2013/11/27
 12 12  0  0  0  0  0  0  0  0999 V2000
  -21.8867  -11.1763   95.2788 C   0  0  0  0  0  0  0  0  0  0  0  0
  -19.6248   -6.1615   95.1638 C   0  0  0  0  0  0  0  0  0  0  0  0
  -23.3819   -8.9415   95.3327 N   0  0  0  0  0  0  0  0  0  0  0  0
  -22.9061  -11.3883   96.3164 N   0  0  0  0  0  0  0  0  0  0  0  0
  -23.5542  -12.2932   96.1833 N   0  0  0  0  0  0  0  0  0  0  0  0
  -24.2045  -13.1968   96.0545 N   0  0  0  0  0  0  0  0  0  0  0  0
  -19.3811   -8.5093   95.2102 N   0  0  0  0  0  0  0  0  0  0  0  0
  -20.1800   -7.4342   95.2214 C   0  0  0  0  0  0  0  0  0  0  0  0
  -21.5081   -7.5664   95.3552 N   0  0  0  0  0  0  0  0  0  0  0  0
  -22.0705   -8.7785   95.4689 C   0  0  0  0  0  0  0  0  0  0  0  0
  -21.2945   -9.9316   95.4535 C   0  0  0  0  0  0  0  0  0  0  0  0
  -19.9166   -9.7969   95.3329 C   0  0  0  0  0  0  0  0  0  0  0  0
  1 11  1  0  0  0  0
  1  4  1  0  0  0  0
  2  8  1  0  0  0  0
  3 10  1  0  0  0  0
  4  5  1  0  0  0  0
  5  6  1  0  0  0  0
  7  8  2  0  0  0  0
  7 12  1  0  0  0  0
  8  9  1  0  0  0  0
  9 10  2  0  0  0  0
 10 11  1  0  0  0  0
 11 12  2  0  0  0  0
M  END
>  <CHROM.1>
-56.72037477,171.23710716,178.55388015,-21.68544948,-9.60649681,95.53661590
-2.18181773,0.09041898,-0.09963091

>  <Name>
ligand

>  <RI>
0

>  <Rbt.Current_Directory>
/home/itssahil/PROJECTS/Mol_Feturizer/Test_systems_manuscript/rnas/4nya

>  <Rbt.Executable>
rbdock ($Id: //depot/dev/client3/rdock/2013.1/src/exe/rbdock.cxx#4 $)

>  <Rbt.Library>
libRbt.so (2013.1, Build901 2013/11/27)

>  <Rbt.Parameter_File>
/export/apps/rDock/src/rDock_2013.1_src/data/scripts/dock_solv.prm

>  <Rbt.Receptor>
prm/pocket_docking_3.prm

>  <SCORE>
-12.7822

>  <SCORE.INTER>
-13.0992

>  <SCORE.INTER.CONST>
1

>  <SCORE.INTER.POLAR>
0

>  <SCORE.INTER.ROT>
3

>  <SCORE.INTER.SOLV>
10.213

>  <SCORE.INTER.VDW>
-17.7371

>  <SCORE.INTER.norm>
-1.0916

>  <SCORE.INTRA>
0.316952

>  <SCORE.INTRA.DIHEDRAL>
-1.89575

>  <SCORE.INTRA.DIHEDRAL.0>
3.34563

>  <SCORE.INTRA.POLAR>
0

>  <SCORE.INTRA.POLAR.0>
0

>  <SCORE.INTRA.REPUL>
0

>  <SCORE.INTRA.REPUL.0>
0

>  <SCORE.INTRA.SOLV>
1.87379

>  <SCORE.INTRA.SOLV.lig_0>
-59.746

>  <SCORE.INTRA.VDW>
0.327927

>  <SCORE.INTRA.VDW.0>
-0.691186

>  <SCORE.INTRA.norm>
0.0264126

>  <SCORE.RESTR>
0

>  <SCORE.RESTR.CAVITY>
0

>  <SCORE.RESTR.norm>
0

>  <SCORE.SYSTEM>
0

>  <SCORE.SYSTEM.CONST>
0

>  <SCORE.SYSTEM.DIHEDRAL>
0

>  <SCORE.SYSTEM.SOLV>
0

>  <SCORE.SYSTEM.norm>
0

>  <SCORE.heavy>
12

>  <SCORE.norm>
-1.06518

>  <RMSD>
2.123

$$$$
ligand
 OpenBabel02271912143D
libRbt.so/2013.1/901 2013/11/27
 12 12  0  0  0  0  0  0  0  0999 V2000
  -21.8962  -11.1747   95.2517 C   0  0  0  0  0  0  0  0  0  0  0  0
  -19.6231   -6.1643   95.1744 C   0  0  0  0  0  0  0  0  0  0  0  0
  -23.3855   -8.9371   95.3424 N   0  0  0  0  0  0  0  0  0  0  0  0
  -22.8846  -11.4098   96.3140 N   0  0  0  0  0  0  0  0  0  0  0  0
  -23.5406  -12.3085   96.1772 N   0  0  0  0  0  0  0  0  0  0  0  0
  -24.1981  -13.2050   96.0360 N   0  0  0  0  0  0  0  0  0  0  0  0
  -19.3847   -8.5130   95.1928 N   0  0  0  0  0  0  0  0  0  0  0  0
  -20.1810   -7.4362   95.2223 C   0  0  0  0  0  0  0  0  0  0  0  0
  -21.5082   -7.5668   95.3651 N   0  0  0  0  0  0  0  0  0  0  0  0
  -22.0727   -8.7787   95.4699 C   0  0  0  0  0  0  0  0  0  0  0  0
  -21.2997   -9.9334   95.4355 C   0  0  0  0  0  0  0  0  0  0  0  0
  -19.9224   -9.8006   95.3054 C   0  0  0  0  0  0  0  0  0  0  0  0
  1 11  1  0  0  0  0
  1  4  1  0  0  0  0
  2  8  1  0  0  0  0
  3 10  1  0  0  0  0
  4  5  1  0  0  0  0
  5  6  1  0  0  0  0
  7  8  2  0  0  0  0
  7 12  1  0  0  0  0
  8  9  1  0  0  0  0
  9 10  2  0  0  0  0
 10 11  1  0  0  0  0
 11 12  2  0  0  0  0
M  END
>  <CHROM.1>
-58.08925525,170.84365018,-59.38544213,-21.68422192,-9.61106978,95.52983958
-2.17991174,0.09835584,-0.09157270

>  <Name>
ligand

>  <RI>
0

>  <Rbt.Current_Directory>
/home/itssahil/PROJECTS/Mol_Feturizer/Test_systems_manuscript/rnas/4nya

>  <Rbt.Executable>
rbdock ($Id: //depot/dev/client3/rdock/2013.1/src/exe/rbdock.cxx#4 $)

>  <Rbt.Library>
libRbt.so (2013.1, Build901 2013/11/27)

>  <Rbt.Parameter_File>
/export/apps/rDock/src/rDock_2013.1_src/data/scripts/dock_solv.prm

>  <Rbt.Receptor>
prm/pocket_docking_5.prm

>  <SCORE>
-12.7878

>  <SCORE.INTER>
-13.055

>  <SCORE.INTER.CONST>
1

>  <SCORE.INTER.POLAR>
0

>  <SCORE.INTER.ROT>
3

>  <SCORE.INTER.SOLV>
10.2191

>  <SCORE.INTER.VDW>
-17.7097

>  <SCORE.INTER.norm>
-1.08791

>  <SCORE.INTRA>
0.267141

>  <SCORE.INTRA.DIHEDRAL>
-1.85377

>  <SCORE.INTRA.DIHEDRAL.0>
3.34563

>  <SCORE.INTRA.POLAR>
0

>  <SCORE.INTRA.POLAR.0>
0

>  <SCORE.INTRA.REPUL>
0

>  <SCORE.INTRA.REPUL.0>
0

>  <SCORE.INTRA.SOLV>
1.81223

>  <SCORE.INTRA.SOLV.lig_0>
-59.746

>  <SCORE.INTRA.VDW>
0.287913

>  <SCORE.INTRA.VDW.0>
-0.691186

>  <SCORE.INTRA.norm>
0.0222617

>  <SCORE.RESTR>
0

>  <SCORE.RESTR.CAVITY>
0

>  <SCORE.RESTR.norm>
0

>  <SCORE.SYSTEM>
0

>  <SCORE.SYSTEM.CONST>
0

>  <SCORE.SYSTEM.DIHEDRAL>
0

>  <SCORE.SYSTEM.SOLV>
0

>  <SCORE.SYSTEM.norm>
0

>  <SCORE.heavy>
12

>  <SCORE.norm>
-1.06565

>  <RMSD>
2.126

$$$$
ligand
 OpenBabel02271912143D
libRbt.so/2013.1/901 2013/11/27
 12 12  0  0  0  0  0  0  0  0999 V2000
  -21.3502  -11.5129   95.1579 C   0  0  0  0  0  0  0  0  0  0  0  0
  -19.9841   -6.1851   95.3183 C   0  0  0  0  0  0  0  0  0  0  0  0
  -23.2077   -9.5735   95.3035 N   0  0  0  0  0  0  0  0  0  0  0  0
  -22.3255  -11.9474   96.1681 N   0  0  0  0  0  0  0  0  0  0  0  0
  -22.8942  -12.8822   95.9241 N   0  0  0  0  0  0  0  0  0  0  0  0
  -23.4645  -13.8145   95.6760 N   0  0  0  0  0  0  0  0  0  0  0  0
  -19.3404   -8.4555   95.2518 N   0  0  0  0  0  0  0  0  0  0  0  0
  -20.3124   -7.5354   95.3062 C   0  0  0  0  0  0  0  0  0  0  0  0
  -21.5984   -7.9002   95.4169 N   0  0  0  0  0  0  0  0  0  0  0  0
  -21.9444   -9.1950   95.4637 C   0  0  0  0  0  0  0  0  0  0  0  0
  -20.9815  -10.1956   95.4010 C   0  0  0  0  0  0  0  0  0  0  0  0
  -19.6469   -9.8205   95.3042 C   0  0  0  0  0  0  0  0  0  0  0  0
  1 11  1  0  0  0  0
  1  4  1  0  0  0  0
  2  8  1  0  0  0  0
  3 10  1  0  0  0  0
  4  5  1  0  0  0  0
  5  6  1  0  0  0  0
  7  8  2  0  0  0  0
  7 12  1  0  0  0  0
  8  9  1  0  0  0  0
  9 10  2  0  0  0  0
 10 11  1  0  0  0  0
 11 12  2  0  0  0  0
M  END
>  <CHROM.1>
-56.50858438,164.43128352,-58.54099508,-21.44631439,-9.93076305,95.47849289
-2.03148033,0.06323876,-0.05249028

>  <Name>
ligand

>  <RI>
0

>  <Rbt.Current_Directory>
/home/itssahil/PROJECTS/Mol_Feturizer/Test_systems_manuscript/rnas/4nya

>  <Rbt.Executable>
rbdock ($Id: //depot/dev/client3/rdock/2013.1/src/exe/rbdock.cxx#4 $)

>  <Rbt.Library>
libRbt.so (2013.1, Build901 2013/11/27)

>  <Rbt.Parameter_File>
/export/apps/rDock/src/rDock_2013.1_src/data/scripts/dock_solv.prm

>  <Rbt.Receptor>
prm/pocket_docking_8.prm

>  <SCORE>
-12.8953

>  <SCORE.INTER>
-13.4295

>  <SCORE.INTER.CONST>
1

>  <SCORE.INTER.POLAR>
0

>  <SCORE.INTER.ROT>
3

>  <SCORE.INTER.SOLV>
10.6385

>  <SCORE.INTER.VDW>
-18.0992

>  <SCORE.INTER.norm>
-1.11913

>  <SCORE.INTRA>
0.534261

>  <SCORE.INTRA.DIHEDRAL>
-1.77481

>  <SCORE.INTRA.DIHEDRAL.0>
3.34563

>  <SCORE.INTRA.POLAR>
0

>  <SCORE.INTRA.POLAR.0>
0

>  <SCORE.INTRA.REPUL>
0

>  <SCORE.INTRA.REPUL.0>
0

>  <SCORE.INTRA.SOLV>
2.23397

>  <SCORE.INTRA.SOLV.lig_0>
-59.746

>  <SCORE.INTRA.VDW>
0.30468

>  <SCORE.INTRA.VDW.0>
-0.691186

>  <SCORE.INTRA.norm>
0.0445218

>  <SCORE.RESTR>
0

>  <SCORE.RESTR.CAVITY>
0

>  <SCORE.RESTR.norm>
0

>  <SCORE.SYSTEM>
0

>  <SCORE.SYSTEM.CONST>
0

>  <SCORE.SYSTEM.DIHEDRAL>
0

>  <SCORE.SYSTEM.SOLV>
0

>  <SCORE.SYSTEM.norm>
0

>  <SCORE.heavy>
12

>  <SCORE.norm>
-1.07461

>  <RMSD>
2.176

$$$$
ligand
 OpenBabel02271912143D
libRbt.so/2013.1/901 2013/11/27
 12 12  0  0  0  0  0  0  0  0999 V2000
  -21.3574  -11.5492   95.1124 C   0  0  0  0  0  0  0  0  0  0  0  0
  -20.0218   -6.2170   95.3602 C   0  0  0  0  0  0  0  0  0  0  0  0
  -23.2272   -9.6205   95.2411 N   0  0  0  0  0  0  0  0  0  0  0  0
  -22.3433  -12.0030   96.1037 N   0  0  0  0  0  0  0  0  0  0  0  0
  -22.8999  -12.9402   95.8416 N   0  0  0  0  0  0  0  0  0  0  0  0
  -23.4589  -13.8767   95.5840 N   0  0  0  0  0  0  0  0  0  0  0  0
  -19.3654   -8.4834   95.2819 N   0  0  0  0  0  0  0  0  0  0  0  0
  -20.3430   -7.5686   95.3263 C   0  0  0  0  0  0  0  0  0  0  0  0
  -21.6291   -7.9408   95.4063 N   0  0  0  0  0  0  0  0  0  0  0  0
  -21.9695   -9.2377   95.4316 C   0  0  0  0  0  0  0  0  0  0  0  0
  -21.0005  -10.2329   95.3778 C   0  0  0  0  0  0  0  0  0  0  0  0
  -19.6660   -9.8503   95.3128 C   0  0  0  0  0  0  0  0  0  0  0  0
  1 11  1  0  0  0  0
  1  4  1  0  0  0  0
  2  8  1  0  0  0  0
  3 10  1  0  0  0  0
  4  5  1  0  0  0  0
  5  6  1  0  0  0  0
  7  8  2  0  0  0  0
  7 12  1  0  0  0  0
  8  9  1  0  0  0  0
  9 10  2  0  0  0  0
 10 11  1  0  0  0  0
 11 12  2  0  0  0  0
M  END
>  <CHROM.1>
-56.94950922,164.65723202,-179.06729191,-21.46555328,-9.97288972,95.45197069
-2.02545960,0.04289238,-0.04370743

>  <Name>
ligand

>  <RI>
0

>  <Rbt.Current_Directory>
/home/itssahil/PROJECTS/Mol_Feturizer/Test_systems_manuscript/rnas/4nya

>  <Rbt.Executable>
rbdock ($Id: //depot/dev/client3/rdock/2013.1/src/exe/rbdock.cxx#4 $)

>  <Rbt.Library>
libRbt.so (2013.1, Build901 2013/11/27)

>  <Rbt.Parameter_File>
/export/apps/rDock/src/rDock_2013.1_src/data/scripts/dock_solv.prm

>  <Rbt.Receptor>
prm/pocket_docking_3.prm

>  <SCORE>
-12.9016

>  <SCORE.INTER>
-13.4012

>  <SCORE.INTER.CONST>
1

>  <SCORE.INTER.POLAR>
0

>  <SCORE.INTER.ROT>
3

>  <SCORE.INTER.SOLV>
10.3574

>  <SCORE.INTER.VDW>
-17.9866

>  <SCORE.INTER.norm>
-1.11677

>  <SCORE.INTRA>
0.499663

>  <SCORE.INTRA.DIHEDRAL>
-1.76865

>  <SCORE.INTRA.DIHEDRAL.0>
3.34563

>  <SCORE.INTRA.POLAR>
0

>  <SCORE.INTRA.POLAR.0>
0

>  <SCORE.INTRA.REPUL>
0

>  <SCORE.INTRA.REPUL.0>
0

>  <SCORE.INTRA.SOLV>
2.18748

>  <SCORE.INTRA.SOLV.lig_0>
-59.746

>  <SCORE.INTRA.VDW>
0.290246

>  <SCORE.INTRA.VDW.0>
-0.691186

>  <SCORE.INTRA.norm>
0.0416386

>  <SCORE.RESTR>
0

>  <SCORE.RESTR.CAVITY>
0

>  <SCORE.RESTR.norm>
0

>  <SCORE.SYSTEM>
0

>  <SCORE.SYSTEM.CONST>
0

>  <SCORE.SYSTEM.DIHEDRAL>
0

>  <SCORE.SYSTEM.SOLV>
0

>  <SCORE.SYSTEM.norm>
0

>  <SCORE.heavy>
12

>  <SCORE.norm>
-1.07513

>  <RMSD>
2.177

$$$$
ligand
 OpenBabel02271912143D
libRbt.so/2013.1/901 2013/11/27
 12 12  0  0  0  0  0  0  0  0999 V2000
  -21.4142  -11.5360   95.0888 C   0  0  0  0  0  0  0  0  0  0  0  0
  -19.9398   -6.2447   95.4144 C   0  0  0  0  0  0  0  0  0  0  0  0
  -23.2074   -9.5876   95.5595 N   0  0  0  0  0  0  0  0  0  0  0  0
  -22.2295  -12.0423   96.2021 N   0  0  0  0  0  0  0  0  0  0  0  0
  -22.8581  -12.9421   95.9742 N   0  0  0  0  0  0  0  0  0  0  0  0
  -23.4823  -13.8443   95.7455 N   0  0  0  0  0  0  0  0  0  0  0  0
  -19.3500   -8.5140   95.1392 N   0  0  0  0  0  0  0  0  0  0  0  0
  -20.2925   -7.5877   95.3581 C   0  0  0  0  0  0  0  0  0  0  0  0
  -21.5646   -7.9435   95.5910 N   0  0  0  0  0  0  0  0  0  0  0  0
  -21.9272   -9.2346   95.5987 C   0  0  0  0  0  0  0  0  0  0  0  0
  -20.9963  -10.2406   95.3676 C   0  0  0  0  0  0  0  0  0  0  0  0
  -19.6741   -9.8759   95.1436 C   0  0  0  0  0  0  0  0  0  0  0  0
  1 11  1  0  0  0  0
  1  4  1  0  0  0  0
  2  8  1  0  0  0  0
  3 10  1  0  0  0  0
  4  5  1  0  0  0  0
  5  6  1  0  0  0  0
  7  8  2  0  0  0  0
  7 12  1  0  0  0  0
  8  9  1  0  0  0  0
  9 10  2  0  0  0  0
 10 11  1  0  0  0  0
 11 12  2  0  0  0  0
M  END
>  <CHROM.1>
-58.99610196,163.11083230,63.34297158,-21.43607770,-9.97880652,95.52187923
-2.03923197,0.17573280,0.00338294

>  <Name>
ligand

>  <RI>
0

>  <Rbt.Current_Directory>
/home/itssahil/PROJECTS/Mol_Feturizer/Test_systems_manuscript/rnas/4nya

>  <Rbt.Executable>
rbdock ($Id: //depot/dev/client3/rdock/2013.1/src/exe/rbdock.cxx#4 $)

>  <Rbt.Library>
libRbt.so (2013.1, Build901 2013/11/27)

>  <Rbt.Parameter_File>
/export/apps/rDock/src/rDock_2013.1_src/data/scripts/dock_solv.prm

>  <Rbt.Receptor>
prm/pocket_docking_4.prm

>  <SCORE>
-12.8303

>  <SCORE.INTER>
-13.2949

>  <SCORE.INTER.CONST>
1

>  <SCORE.INTER.POLAR>
0

>  <SCORE.INTER.ROT>
3

>  <SCORE.INTER.SOLV>
10.4436

>  <SCORE.INTER.VDW>
-17.9445

>  <SCORE.INTER.norm>
-1.10791

>  <SCORE.INTRA>
0.464653

>  <SCORE.INTRA.DIHEDRAL>
-1.67361

>  <SCORE.INTRA.DIHEDRAL.0>
3.34563

>  <SCORE.INTRA.POLAR>
0

>  <SCORE.INTRA.POLAR.0>
0

>  <SCORE.INTRA.REPUL>
0

>  <SCORE.INTRA.REPUL.0>
0

>  <SCORE.INTRA.SOLV>
2.14183

>  <SCORE.INTRA.SOLV.lig_0>
-59.746

>  <SCORE.INTRA.VDW>
0.230539

>  <SCORE.INTRA.VDW.0>
-0.691186

>  <SCORE.INTRA.norm>
0.0387211

>  <SCORE.RESTR>
0

>  <SCORE.RESTR.CAVITY>
0

>  <SCORE.RESTR.norm>
0

>  <SCORE.SYSTEM>
0

>  <SCORE.SYSTEM.CONST>
0

>  <SCORE.SYSTEM.DIHEDRAL>
0

>  <SCORE.SYSTEM.SOLV>
0

>  <SCORE.SYSTEM.norm>
0

>  <SCORE.heavy>
12

>  <SCORE.norm>
-1.06919

>  <RMSD>
2.185

$$$$
ligand
 OpenBabel02271912143D
libRbt.so/2013.1/901 2013/11/27
 12 12  0  0  0  0  0  0  0  0999 V2000
  -21.3871  -11.5768   95.0848 C   0  0  0  0  0  0  0  0  0  0  0  0
  -19.9295   -6.2813   95.4171 C   0  0  0  0  0  0  0  0  0  0  0  0
  -23.2109   -9.6117   95.2973 N   0  0  0  0  0  0  0  0  0  0  0  0
  -22.4005  -12.0122   96.0565 N   0  0  0  0  0  0  0  0  0  0  0  0
  -22.8987  -12.9913   95.8334 N   0  0  0  0  0  0  0  0  0  0  0  0
  -23.4003  -13.9691   95.6138 N   0  0  0  0  0  0  0  0  0  0  0  0
  -19.3250   -8.5590   95.2752 N   0  0  0  0  0  0  0  0  0  0  0  0
  -20.2810   -7.6247   95.3614 C   0  0  0  0  0  0  0  0  0  0  0  0
  -21.5729   -7.9708   95.4624 N   0  0  0  0  0  0  0  0  0  0  0  0
  -21.9410   -9.2603   95.4675 C   0  0  0  0  0  0  0  0  0  0  0  0
  -20.9956  -10.2747   95.3703 C   0  0  0  0  0  0  0  0  0  0  0  0
  -19.6548   -9.9195   95.2834 C   0  0  0  0  0  0  0  0  0  0  0  0
  1 11  1  0  0  0  0
  1  4  1  0  0  0  0
  2  8  1  0  0  0  0
  3 10  1  0  0  0  0
  4  5  1  0  0  0  0
  5  6  1  0  0  0  0
  7  8  2  0  0  0  0
  7 12  1  0  0  0  0
  8  9  1  0  0  0  0
  9 10  2  0  0  0  0
 10 11  1  0  0  0  0
 11 12  2  0  0  0  0
M  END
>  <CHROM.1>
-54.70216142,171.33100343,-165.06496518,-21.44155029,-10.01712687,95.46437700
-2.03342496,0.07076325,-0.02276657

>  <Name>
ligand

>  <RI>
0

>  <Rbt.Current_Directory>
/home/itssahil/PROJECTS/Mol_Feturizer/Test_systems_manuscript/rnas/4nya

>  <Rbt.Executable>
rbdock ($Id: //depot/dev/client3/rdock/2013.1/src/exe/rbdock.cxx#4 $)

>  <Rbt.Library>
libRbt.so (2013.1, Build901 2013/11/27)

>  <Rbt.Parameter_File>
/export/apps/rDock/src/rDock_2013.1_src/data/scripts/dock_solv.prm

>  <Rbt.Receptor>
prm/pocket_docking_8.prm

>  <SCORE>
-12.7934

>  <SCORE.INTER>
-13.245

>  <SCORE.INTER.CONST>
1

>  <SCORE.INTER.POLAR>
0

>  <SCORE.INTER.ROT>
3

>  <SCORE.INTER.SOLV>
10.2726

>  <SCORE.INTER.VDW>
-17.8542

>  <SCORE.INTER.norm>
-1.10375

>  <SCORE.INTRA>
0.451605

>  <SCORE.INTRA.DIHEDRAL>
-1.89106

>  <SCORE.INTRA.DIHEDRAL.0>
3.34563

>  <SCORE.INTRA.POLAR>
0

>  <SCORE.INTRA.POLAR.0>
0

>  <SCORE.INTRA.REPUL>
0

>  <SCORE.INTRA.REPUL.0>
0

>  <SCORE.INTRA.SOLV>
1.99772

>  <SCORE.INTRA.SOLV.lig_0>
-59.746

>  <SCORE.INTRA.VDW>
0.398276

>  <SCORE.INTRA.VDW.0>
-0.691186

>  <SCORE.INTRA.norm>
0.0376338

>  <SCORE.RESTR>
0

>  <SCORE.RESTR.CAVITY>
0

>  <SCORE.RESTR.norm>
0

>  <SCORE.SYSTEM>
0

>  <SCORE.SYSTEM.CONST>
0

>  <SCORE.SYSTEM.DIHEDRAL>
0

>  <SCORE.SYSTEM.SOLV>
0

>  <SCORE.SYSTEM.norm>
0

>  <SCORE.heavy>
12

>  <SCORE.norm>
-1.06612

>  <RMSD>
2.185

$$$$
ligand
 OpenBabel02271912143D
libRbt.so/2013.1/901 2013/11/27
 12 12  0  0  0  0  0  0  0  0999 V2000
  -21.4022  -11.5874   95.0914 C   0  0  0  0  0  0  0  0  0  0  0  0
  -19.9507   -6.2900   95.4199 C   0  0  0  0  0  0  0  0  0  0  0  0
  -23.2207   -9.6337   95.4210 N   0  0  0  0  0  0  0  0  0  0  0  0
  -22.3235  -12.0586   96.1353 N   0  0  0  0  0  0  0  0  0  0  0  0
  -22.8616  -13.0165   95.9124 N   0  0  0  0  0  0  0  0  0  0  0  0
  -23.4025  -13.9733   95.6937 N   0  0  0  0  0  0  0  0  0  0  0  0
  -19.3451   -8.5629   95.2177 N   0  0  0  0  0  0  0  0  0  0  0  0
  -20.2992   -7.6341   95.3641 C   0  0  0  0  0  0  0  0  0  0  0  0
  -21.5831   -7.9875   95.5253 N   0  0  0  0  0  0  0  0  0  0  0  0
  -21.9454   -9.2787   95.5319 C   0  0  0  0  0  0  0  0  0  0  0  0
  -21.0020  -10.2873   95.3740 C   0  0  0  0  0  0  0  0  0  0  0  0
  -19.6687   -9.9249   95.2245 C   0  0  0  0  0  0  0  0  0  0  0  0
  1 11  1  0  0  0  0
  1  4  1  0  0  0  0
  2  8  1  0  0  0  0
  3 10  1  0  0  0  0
  4  5  1  0  0  0  0
  5  6  1  0  0  0  0
  7  8  2  0  0  0  0
  7 12  1  0  0  0  0
  8  9  1  0  0  0  0
  9 10  2  0  0  0  0
 10 11  1  0  0  0  0
 11 12  2  0  0  0  0
M  END
>  <CHROM.1>
-56.88265961,168.80004998,-170.21429728,-21.44181124,-10.03255428,95.49798760
-2.02861167,0.11926733,-0.01323295

>  <Name>
ligand

>  <RI>
0

>  <Rbt.Current_Directory>
/home/itssahil/PROJECTS/Mol_Feturizer/Test_systems_manuscript/rnas/4nya

>  <Rbt.Executable>
rbdock ($Id: //depot/dev/client3/rdock/2013.1/src/exe/rbdock.cxx#4 $)

>  <Rbt.Library>
libRbt.so (2013.1, Build901 2013/11/27)

>  <Rbt.Parameter_File>
/export/apps/rDock/src/rDock_2013.1_src/data/scripts/dock_solv.prm

>  <Rbt.Receptor>
prm/pocket_docking_3.prm

>  <SCORE>
-12.8025

>  <SCORE.INTER>
-13.1976

>  <SCORE.INTER.CONST>
1

>  <SCORE.INTER.POLAR>
0

>  <SCORE.INTER.ROT>
3

>  <SCORE.INTER.SOLV>
10.4651

>  <SCORE.INTER.VDW>
-17.8867

>  <SCORE.INTER.norm>
-1.0998

>  <SCORE.INTRA>
0.395077

>  <SCORE.INTRA.DIHEDRAL>
-1.82815

>  <SCORE.INTRA.DIHEDRAL.0>
3.34563

>  <SCORE.INTRA.POLAR>
0

>  <SCORE.INTRA.POLAR.0>
0

>  <SCORE.INTRA.REPUL>
0

>  <SCORE.INTRA.REPUL.0>
0

>  <SCORE.INTRA.SOLV>
1.98204

>  <SCORE.INTRA.SOLV.lig_0>
-59.746

>  <SCORE.INTRA.VDW>
0.318131

>  <SCORE.INTRA.VDW.0>
-0.691186

>  <SCORE.INTRA.norm>
0.0329231

>  <SCORE.RESTR>
0

>  <SCORE.RESTR.CAVITY>
0

>  <SCORE.RESTR.norm>
0

>  <SCORE.SYSTEM>
0

>  <SCORE.SYSTEM.CONST>
0

>  <SCORE.SYSTEM.DIHEDRAL>
0

>  <SCORE.SYSTEM.SOLV>
0

>  <SCORE.SYSTEM.norm>
0

>  <SCORE.heavy>
12

>  <SCORE.norm>
-1.06687

>  <RMSD>
2.192

$$$$
ligand
 OpenBabel02271912143D
libRbt.so/2013.1/901 2013/11/27
 12 12  0  0  0  0  0  0  0  0999 V2000
  -21.2087  -11.5776   95.1412 C   0  0  0  0  0  0  0  0  0  0  0  0
  -20.1530   -6.1800   95.3131 C   0  0  0  0  0  0  0  0  0  0  0  0
  -23.1766   -9.7474   95.2425 N   0  0  0  0  0  0  0  0  0  0  0  0
  -22.1632  -12.0706   96.1443 N   0  0  0  0  0  0  0  0  0  0  0  0
  -22.6602  -13.0463   95.9040 N   0  0  0  0  0  0  0  0  0  0  0  0
  -23.1601  -14.0211   95.6677 N   0  0  0  0  0  0  0  0  0  0  0  0
  -19.3793   -8.4100   95.2670 N   0  0  0  0  0  0  0  0  0  0  0  0
  -20.4033   -7.5469   95.2984 C   0  0  0  0  0  0  0  0  0  0  0  0
  -21.6684   -7.9845   95.3837 N   0  0  0  0  0  0  0  0  0  0  0  0
  -21.9406   -9.2968   95.4275 C   0  0  0  0  0  0  0  0  0  0  0  0
  -20.9211  -10.2408   95.3878 C   0  0  0  0  0  0  0  0  0  0  0  0
  -19.6083   -9.7902   95.3173 C   0  0  0  0  0  0  0  0  0  0  0  0
  1 11  1  0  0  0  0
  1  4  1  0  0  0  0
  2  8  1  0  0  0  0
  3 10  1  0  0  0  0
  4  5  1  0  0  0  0
  5  6  1  0  0  0  0
  7  8  2  0  0  0  0
  7 12  1  0  0  0  0
  8  9  1  0  0  0  0
  9 10  2  0  0  0  0
 10 11  1  0  0  0  0
 11 12  2  0  0  0  0
M  END
>  <CHROM.1>
-57.33388850,165.44355203,-172.82324530,-21.39475669,-10.00690504,95.46186104
-1.96973518,0.04037736,-0.06228185

>  <Name>
ligand

>  <RI>
0

>  <Rbt.Current_Directory>
/home/itssahil/PROJECTS/Mol_Feturizer/Test_systems_manuscript/rnas/4nya

>  <Rbt.Executable>
rbdock ($Id: //depot/dev/client3/rdock/2013.1/src/exe/rbdock.cxx#4 $)

>  <Rbt.Library>
libRbt.so (2013.1, Build901 2013/11/27)

>  <Rbt.Parameter_File>
/export/apps/rDock/src/rDock_2013.1_src/data/scripts/dock_solv.prm

>  <Rbt.Receptor>
prm/pocket_docking_3.prm

>  <SCORE>
-12.8555

>  <SCORE.INTER>
-13.3334

>  <SCORE.INTER.CONST>
1

>  <SCORE.INTER.POLAR>
0

>  <SCORE.INTER.ROT>
3

>  <SCORE.INTER.SOLV>
11.2926

>  <SCORE.INTER.VDW>
-18.2531

>  <SCORE.INTER.norm>
-1.11112

>  <SCORE.INTRA>
0.477885

>  <SCORE.INTRA.DIHEDRAL>
-1.76208

>  <SCORE.INTRA.DIHEDRAL.0>
3.34563

>  <SCORE.INTRA.POLAR>
0

>  <SCORE.INTRA.POLAR.0>
0

>  <SCORE.INTRA.REPUL>
0

>  <SCORE.INTRA.REPUL.0>
0

>  <SCORE.INTRA.SOLV>
2.12326

>  <SCORE.INTRA.SOLV.lig_0>
-59.746

>  <SCORE.INTRA.VDW>
0.297297

>  <SCORE.INTRA.VDW.0>
-0.691186

>  <SCORE.INTRA.norm>
0.0398238

>  <SCORE.RESTR>
0

>  <SCORE.RESTR.CAVITY>
0

>  <SCORE.RESTR.norm>
0

>  <SCORE.SYSTEM>
0

>  <SCORE.SYSTEM.CONST>
0

>  <SCORE.SYSTEM.DIHEDRAL>
0

>  <SCORE.SYSTEM.SOLV>
0

>  <SCORE.SYSTEM.norm>
0

>  <SCORE.heavy>
12

>  <SCORE.norm>
-1.07129

>  <RMSD>
2.234

$$$$
ligand
 OpenBabel02271912143D
libRbt.so/2013.1/901 2013/11/27
 12 12  0  0  0  0  0  0  0  0999 V2000
  -21.1720  -11.5669   95.1296 C   0  0  0  0  0  0  0  0  0  0  0  0
  -20.1751   -6.1585   95.3106 C   0  0  0  0  0  0  0  0  0  0  0  0
  -23.1597   -9.7583   95.2332 N   0  0  0  0  0  0  0  0  0  0  0  0
  -22.1369  -12.0665   96.1195 N   0  0  0  0  0  0  0  0  0  0  0  0
  -22.6317  -13.0403   95.8673 N   0  0  0  0  0  0  0  0  0  0  0  0
  -23.1219  -14.0162   95.6154 N   0  0  0  0  0  0  0  0  0  0  0  0
  -19.3772   -8.3799   95.2611 N   0  0  0  0  0  0  0  0  0  0  0  0
  -20.4105   -7.5280   95.2936 C   0  0  0  0  0  0  0  0  0  0  0  0
  -21.6707   -7.9794   95.3778 N   0  0  0  0  0  0  0  0  0  0  0  0
  -21.9288   -9.2947   95.4194 C   0  0  0  0  0  0  0  0  0  0  0  0
  -20.8990  -10.2275   95.3785 C   0  0  0  0  0  0  0  0  0  0  0  0
  -19.5912   -9.7625   95.3091 C   0  0  0  0  0  0  0  0  0  0  0  0
  1 11  1  0  0  0  0
  1  4  1  0  0  0  0
  2  8  1  0  0  0  0
  3 10  1  0  0  0  0
  4  5  1  0  0  0  0
  5  6  1  0  0  0  0
  7  8  2  0  0  0  0
  7 12  1  0  0  0  0
  8  9  1  0  0  0  0
  9 10  2  0  0  0  0
 10 11  1  0  0  0  0
 11 12  2  0  0  0  0
M  END
>  <CHROM.1>
-56.48899151,164.72013512,63.47126133,-21.38082293,-9.99595914,95.44664908
-1.96320493,0.03895325,-0.05720438

>  <Name>
ligand

>  <RI>
0

>  <Rbt.Current_Directory>
/home/itssahil/PROJECTS/Mol_Feturizer/Test_systems_manuscript/rnas/4nya

>  <Rbt.Executable>
rbdock ($Id: //depot/dev/client3/rdock/2013.1/src/exe/rbdock.cxx#4 $)

>  <Rbt.Library>
libRbt.so (2013.1, Build901 2013/11/27)

>  <Rbt.Parameter_File>
/export/apps/rDock/src/rDock_2013.1_src/data/scripts/dock_solv.prm

>  <Rbt.Receptor>
prm/pocket_docking_3.prm

>  <SCORE>
-12.8886

>  <SCORE.INTER>
-13.4112

>  <SCORE.INTER.CONST>
1

>  <SCORE.INTER.POLAR>
0

>  <SCORE.INTER.ROT>
3

>  <SCORE.INTER.SOLV>
11.1583

>  <SCORE.INTER.VDW>
-18.2602

>  <SCORE.INTER.norm>
-1.1176

>  <SCORE.INTRA>
0.522559

>  <SCORE.INTRA.DIHEDRAL>
-1.77917

>  <SCORE.INTRA.DIHEDRAL.0>
3.34563

>  <SCORE.INTRA.POLAR>
0

>  <SCORE.INTRA.POLAR.0>
0

>  <SCORE.INTRA.REPUL>
0

>  <SCORE.INTRA.REPUL.0>
0

>  <SCORE.INTRA.SOLV>
2.21186

>  <SCORE.INTRA.SOLV.lig_0>
-59.746

>  <SCORE.INTRA.VDW>
0.306214

>  <SCORE.INTRA.VDW.0>
-0.691186

>  <SCORE.INTRA.norm>
0.0435466

>  <SCORE.RESTR>
0

>  <SCORE.RESTR.CAVITY>
0

>  <SCORE.RESTR.norm>
0

>  <SCORE.SYSTEM>
0

>  <SCORE.SYSTEM.CONST>
0

>  <SCORE.SYSTEM.DIHEDRAL>
0

>  <SCORE.SYSTEM.SOLV>
0

>  <SCORE.SYSTEM.norm>
0

>  <SCORE.heavy>
12

>  <SCORE.norm>
-1.07405

>  <RMSD>
2.240

$$$$
ligand
 OpenBabel02271912143D
libRbt.so/2013.1/901 2013/11/27
 12 12  0  0  0  0  0  0  0  0999 V2000
  -21.1799  -11.5423   95.0937 C   0  0  0  0  0  0  0  0  0  0  0  0
  -20.1466   -6.1417   95.3013 C   0  0  0  0  0  0  0  0  0  0  0  0
  -23.1536   -9.7236   95.2666 N   0  0  0  0  0  0  0  0  0  0  0  0
  -22.1237  -12.0455   96.1020 N   0  0  0  0  0  0  0  0  0  0  0  0
  -22.6089  -13.0282   95.8659 N   0  0  0  0  0  0  0  0  0  0  0  0
  -23.0893  -14.0128   95.6302 N   0  0  0  0  0  0  0  0  0  0  0  0
  -19.3635   -8.3669   95.2095 N   0  0  0  0  0  0  0  0  0  0  0  0
  -20.3905   -7.5096   95.2771 C   0  0  0  0  0  0  0  0  0  0  0  0
  -21.6508   -7.9547   95.3897 N   0  0  0  0  0  0  0  0  0  0  0  0
  -21.9154   -9.2688   95.4252 C   0  0  0  0  0  0  0  0  0  0  0  0
  -20.8926  -10.2070   95.3484 C   0  0  0  0  0  0  0  0  0  0  0  0
  -19.5843   -9.7488   95.2496 C   0  0  0  0  0  0  0  0  0  0  0  0
  1 11  1  0  0  0  0
  1  4  1  0  0  0  0
  2  8  1  0  0  0  0
  3 10  1  0  0  0  0
  4  5  1  0  0  0  0
  5  6  1  0  0  0  0
  7  8  2  0  0  0  0
  7 12  1  0  0  0  0
  8  9  1  0  0  0  0
  9 10  2  0  0  0  0
 10 11  1  0  0  0  0
 11 12  2  0  0  0  0
M  END
>  <CHROM.1>
-56.38451690,166.37055249,65.02004046,-21.36595602,-9.97690294,95.43425631
-1.96284954,0.06642798,-0.04894980

>  <Name>
ligand

>  <RI>
0

>  <Rbt.Current_Directory>
/home/itssahil/PROJECTS/Mol_Feturizer/Test_systems_manuscript/rnas/4nya

>  <Rbt.Executable>
rbdock ($Id: //depot/dev/client3/rdock/2013.1/src/exe/rbdock.cxx#4 $)

>  <Rbt.Library>
libRbt.so (2013.1, Build901 2013/11/27)

>  <Rbt.Parameter_File>
/export/apps/rDock/src/rDock_2013.1_src/data/scripts/dock_solv.prm

>  <Rbt.Receptor>
prm/pocket_docking_4.prm

>  <SCORE>
-12.886

>  <SCORE.INTER>
-13.3759

>  <SCORE.INTER.CONST>
1

>  <SCORE.INTER.POLAR>
0

>  <SCORE.INTER.ROT>
3

>  <SCORE.INTER.SOLV>
11.1547

>  <SCORE.INTER.VDW>
-18.2355

>  <SCORE.INTER.norm>
-1.11466

>  <SCORE.INTRA>
0.48984

>  <SCORE.INTRA.DIHEDRAL>
-1.81392

>  <SCORE.INTRA.DIHEDRAL.0>
3.34563

>  <SCORE.INTRA.POLAR>
0

>  <SCORE.INTRA.POLAR.0>
0

>  <SCORE.INTRA.REPUL>
0

>  <SCORE.INTRA.REPUL.0>
0

>  <SCORE.INTRA.SOLV>
2.13322

>  <SCORE.INTRA.SOLV.lig_0>
-59.746

>  <SCORE.INTRA.VDW>
0.330191

>  <SCORE.INTRA.VDW.0>
-0.691186

>  <SCORE.INTRA.norm>
0.04082

>  <SCORE.RESTR>
0

>  <SCORE.RESTR.CAVITY>
0

>  <SCORE.RESTR.norm>
0

>  <SCORE.SYSTEM>
0

>  <SCORE.SYSTEM.CONST>
0

>  <SCORE.SYSTEM.DIHEDRAL>
0

>  <SCORE.SYSTEM.SOLV>
0

>  <SCORE.SYSTEM.norm>
0

>  <SCORE.heavy>
12

>  <SCORE.norm>
-1.07384

>  <RMSD>
2.250

$$$$
ligand
 OpenBabel02271912143D
libRbt.so/2013.1/901 2013/11/27
 12 12  0  0  0  0  0  0  0  0999 V2000
  -21.1599  -11.5487   95.0924 C   0  0  0  0  0  0  0  0  0  0  0  0
  -20.2052   -6.1354   95.3413 C   0  0  0  0  0  0  0  0  0  0  0  0
  -23.1598   -9.7602   95.2789 N   0  0  0  0  0  0  0  0  0  0  0  0
  -22.1072  -12.0694   96.0885 N   0  0  0  0  0  0  0  0  0  0  0  0
  -22.5577  -13.0690   95.8547 N   0  0  0  0  0  0  0  0  0  0  0  0
  -23.0110  -14.0679   95.6251 N   0  0  0  0  0  0  0  0  0  0  0  0
  -19.3898   -8.3483   95.2326 N   0  0  0  0  0  0  0  0  0  0  0  0
  -20.4291   -7.5065   95.3067 C   0  0  0  0  0  0  0  0  0  0  0  0
  -21.6828   -7.9706   95.4157 N   0  0  0  0  0  0  0  0  0  0  0  0
  -21.9284   -9.2888   95.4411 C   0  0  0  0  0  0  0  0  0  0  0  0
  -20.8921  -10.2114   95.3573 C   0  0  0  0  0  0  0  0  0  0  0  0
  -19.5906   -9.7334   95.2622 C   0  0  0  0  0  0  0  0  0  0  0  0
  1 11  1  0  0  0  0
  1  4  1  0  0  0  0
  2  8  1  0  0  0  0
  3 10  1  0  0  0  0
  4  5  1  0  0  0  0
  5  6  1  0  0  0  0
  7  8  2  0  0  0  0
  7 12  1  0  0  0  0
  8  9  1  0  0  0  0
  9 10  2  0  0  0  0
 10 11  1  0  0  0  0
 11 12  2  0  0  0  0
M  END
>  <CHROM.1>
-55.80040271,167.86769239,-176.13811479,-21.36684575,-9.99066429,95.44562393
-1.94614977,0.06676799,-0.04275283

>  <Name>
ligand

>  <RI>
0

>  <Rbt.Current_Directory>
/home/itssahil/PROJECTS/Mol_Feturizer/Test_systems_manuscript/rnas/4nya

>  <Rbt.Executable>
rbdock ($Id: //depot/dev/client3/rdock/2013.1/src/exe/rbdock.cxx#4 $)

>  <Rbt.Library>
libRbt.so (2013.1, Build901 2013/11/27)

>  <Rbt.Parameter_File>
/export/apps/rDock/src/rDock_2013.1_src/data/scripts/dock_solv.prm

>  <Rbt.Receptor>
prm/pocket_docking_3.prm

>  <SCORE>
-12.8285

>  <SCORE.INTER>
-13.2971

>  <SCORE.INTER.CONST>
1

>  <SCORE.INTER.POLAR>
0

>  <SCORE.INTER.ROT>
3

>  <SCORE.INTER.SOLV>
11.1329

>  <SCORE.INTER.VDW>
-18.1757

>  <SCORE.INTER.norm>
-1.10809

>  <SCORE.INTRA>
0.468624

>  <SCORE.INTRA.DIHEDRAL>
-1.86119

>  <SCORE.INTRA.DIHEDRAL.0>
3.34563

>  <SCORE.INTRA.POLAR>
0

>  <SCORE.INTRA.POLAR.0>
0

>  <SCORE.INTRA.REPUL>
0

>  <SCORE.INTRA.REPUL.0>
0

>  <SCORE.INTRA.SOLV>
2.09515

>  <SCORE.INTRA.SOLV.lig_0>
-59.746

>  <SCORE.INTRA.VDW>
0.351646

>  <SCORE.INTRA.VDW.0>
-0.691186

>  <SCORE.INTRA.norm>
0.039052

>  <SCORE.RESTR>
0

>  <SCORE.RESTR.CAVITY>
0

>  <SCORE.RESTR.norm>
0

>  <SCORE.SYSTEM>
0

>  <SCORE.SYSTEM.CONST>
0

>  <SCORE.SYSTEM.DIHEDRAL>
0

>  <SCORE.SYSTEM.SOLV>
0

>  <SCORE.SYSTEM.norm>
0

>  <SCORE.heavy>
12

>  <SCORE.norm>
-1.06904

>  <RMSD>
2.266

$$$$
ligand
 OpenBabel02271912143D
libRbt.so/2013.1/901 2013/11/27
 12 12  0  0  0  0  0  0  0  0999 V2000
  -20.8700  -11.6539   95.0836 C   0  0  0  0  0  0  0  0  0  0  0  0
  -20.4370   -6.1767   95.3847 C   0  0  0  0  0  0  0  0  0  0  0  0
  -23.0345  -10.0607   95.1814 N   0  0  0  0  0  0  0  0  0  0  0  0
  -21.7390  -12.2841   96.0877 N   0  0  0  0  0  0  0  0  0  0  0  0
  -22.1673  -13.2803   95.8033 N   0  0  0  0  0  0  0  0  0  0  0  0
  -22.5908  -14.2781   95.5189 N   0  0  0  0  0  0  0  0  0  0  0  0
  -19.4145   -8.3034   95.3098 N   0  0  0  0  0  0  0  0  0  0  0  0
  -20.5302   -7.5625   95.3376 C   0  0  0  0  0  0  0  0  0  0  0  0
  -21.7388   -8.1421   95.3885 N   0  0  0  0  0  0  0  0  0  0  0  0
  -21.8611   -9.4775   95.4005 C   0  0  0  0  0  0  0  0  0  0  0  0
  -20.7405  -10.2990   95.3626 C   0  0  0  0  0  0  0  0  0  0  0  0
  -19.4863   -9.7013   95.3278 C   0  0  0  0  0  0  0  0  0  0  0  0
  1 11  1  0  0  0  0
  1  4  1  0  0  0  0
  2  8  1  0  0  0  0
  3 10  1  0  0  0  0
  4  5  1  0  0  0  0
  5  6  1  0  0  0  0
  7  8  2  0  0  0  0
  7 12  1  0  0  0  0
  8  9  1  0  0  0  0
  9 10  2  0  0  0  0
 10 11  1  0  0  0  0
 11 12  2  0  0  0  0
M  END
>  <CHROM.1>
-59.50448685,162.05784875,65.12688141,-21.24037450,-10.11848681,95.43557782
-1.86056812,0.01219409,-0.04691706

>  <Name>
ligand

>  <RI>
0

>  <Rbt.Current_Directory>
/home/itssahil/PROJECTS/Mol_Feturizer/Test_systems_manuscript/rnas/4nya

>  <Rbt.Executable>
rbdock ($Id: //depot/dev/client3/rdock/2013.1/src/exe/rbdock.cxx#4 $)

>  <Rbt.Library>
libRbt.so (2013.1, Build901 2013/11/27)

>  <Rbt.Parameter_File>
/export/apps/rDock/src/rDock_2013.1_src/data/scripts/dock_solv.prm

>  <Rbt.Receptor>
prm/pocket_docking_3.prm

>  <SCORE>
-12.8502

>  <SCORE.INTER>
-13.3345

>  <SCORE.INTER.CONST>
1

>  <SCORE.INTER.POLAR>
0

>  <SCORE.INTER.ROT>
3

>  <SCORE.INTER.SOLV>
11.5886

>  <SCORE.INTER.VDW>
-18.3525

>  <SCORE.INTER.norm>
-1.11121

>  <SCORE.INTRA>
0.484288

>  <SCORE.INTRA.DIHEDRAL>
-1.62902

>  <SCORE.INTRA.DIHEDRAL.0>
3.34563

>  <SCORE.INTRA.POLAR>
0

>  <SCORE.INTRA.POLAR.0>
0

>  <SCORE.INTRA.REPUL>
0

>  <SCORE.INTRA.REPUL.0>
0

>  <SCORE.INTRA.SOLV>
2.16705

>  <SCORE.INTRA.SOLV.lig_0>
-59.746

>  <SCORE.INTRA.VDW>
0.215269

>  <SCORE.INTRA.VDW.0>
-0.691186

>  <SCORE.INTRA.norm>
0.0403573

>  <SCORE.RESTR>
0

>  <SCORE.RESTR.CAVITY>
0

>  <SCORE.RESTR.norm>
0

>  <SCORE.SYSTEM>
0

>  <SCORE.SYSTEM.CONST>
0

>  <SCORE.SYSTEM.DIHEDRAL>
0

>  <SCORE.SYSTEM.SOLV>
0

>  <SCORE.SYSTEM.norm>
0

>  <SCORE.heavy>
12

>  <SCORE.norm>
-1.07085

>  <RMSD>
2.362

$$$$
ligand
 OpenBabel02271912143D
libRbt.so/2013.1/901 2013/11/27
 12 12  0  0  0  0  0  0  0  0999 V2000
  -20.8576  -11.6617   95.0834 C   0  0  0  0  0  0  0  0  0  0  0  0
  -20.4228   -6.1860   95.4070 C   0  0  0  0  0  0  0  0  0  0  0  0
  -23.0204  -10.0633   95.1039 N   0  0  0  0  0  0  0  0  0  0  0  0
  -21.8229  -12.2756   96.0064 N   0  0  0  0  0  0  0  0  0  0  0  0
  -22.1202  -13.3299   95.7682 N   0  0  0  0  0  0  0  0  0  0  0  0
  -22.4189  -14.3824   95.5254 N   0  0  0  0  0  0  0  0  0  0  0  0
  -19.4034   -8.3150   95.3670 N   0  0  0  0  0  0  0  0  0  0  0  0
  -20.5175   -7.5715   95.3549 C   0  0  0  0  0  0  0  0  0  0  0  0
  -21.7285   -8.1482   95.3607 N   0  0  0  0  0  0  0  0  0  0  0  0
  -21.8544   -9.4833   95.3665 C   0  0  0  0  0  0  0  0  0  0  0  0
  -20.7351  -10.3075   95.3687 C   0  0  0  0  0  0  0  0  0  0  0  0
  -19.4791   -9.7128   95.3806 C   0  0  0  0  0  0  0  0  0  0  0  0
  1 11  1  0  0  0  0
  1  4  1  0  0  0  0
  2  8  1  0  0  0  0
  3 10  1  0  0  0  0
  4  5  1  0  0  0  0
  5  6  1  0  0  0  0
  7  8  2  0  0  0  0
  7 12  1  0  0  0  0
  8  9  1  0  0  0  0
  9 10  2  0  0  0  0
 10 11  1  0  0  0  0
 11 12  2  0  0  0  0
M  END
>  <CHROM.1>
-56.30724650,170.89055023,-55.48729001,-21.22075103,-10.13701596,95.42703976
-1.84818373,-0.01844647,-0.04733058

>  <Name>
ligand

>  <RI>
0

>  <Rbt.Current_Directory>
/home/itssahil/PROJECTS/Mol_Feturizer/Test_systems_manuscript/rnas/4nya

>  <Rbt.Executable>
rbdock ($Id: //depot/dev/client3/rdock/2013.1/src/exe/rbdock.cxx#4 $)

>  <Rbt.Library>
libRbt.so (2013.1, Build901 2013/11/27)

>  <Rbt.Parameter_File>
/export/apps/rDock/src/rDock_2013.1_src/data/scripts/dock_solv.prm

>  <Rbt.Receptor>
prm/pocket_docking_5.prm

>  <SCORE>
-12.9468

>  <SCORE.INTER>
-13.302

>  <SCORE.INTER.CONST>
1

>  <SCORE.INTER.POLAR>
0

>  <SCORE.INTER.ROT>
3

>  <SCORE.INTER.SOLV>
11.7795

>  <SCORE.INTER.VDW>
-18.3945

>  <SCORE.INTER.norm>
-1.1085

>  <SCORE.INTRA>
0.355223

>  <SCORE.INTRA.DIHEDRAL>
-1.89669

>  <SCORE.INTRA.DIHEDRAL.0>
3.34563

>  <SCORE.INTRA.POLAR>
0

>  <SCORE.INTRA.POLAR.0>
0

>  <SCORE.INTRA.REPUL>
0

>  <SCORE.INTRA.REPUL.0>
0

>  <SCORE.INTRA.SOLV>
1.92346

>  <SCORE.INTRA.SOLV.lig_0>
-59.746

>  <SCORE.INTRA.VDW>
0.341834

>  <SCORE.INTRA.VDW.0>
-0.691186

>  <SCORE.INTRA.norm>
0.0296019

>  <SCORE.RESTR>
0

>  <SCORE.RESTR.CAVITY>
0

>  <SCORE.RESTR.norm>
0

>  <SCORE.SYSTEM>
0

>  <SCORE.SYSTEM.CONST>
0

>  <SCORE.SYSTEM.DIHEDRAL>
0

>  <SCORE.SYSTEM.SOLV>
0

>  <SCORE.SYSTEM.norm>
0

>  <SCORE.heavy>
12

>  <SCORE.norm>
-1.0789

>  <RMSD>
2.387

$$$$
ligand
 OpenBabel02271912143D
libRbt.so/2013.1/901 2013/11/27
 12 12  0  0  0  0  0  0  0  0999 V2000
  -20.8545  -11.6580   95.0631 C   0  0  0  0  0  0  0  0  0  0  0  0
  -20.4321   -6.1835   95.4229 C   0  0  0  0  0  0  0  0  0  0  0  0
  -23.0221  -10.0697   95.1729 N   0  0  0  0  0  0  0  0  0  0  0  0
  -21.7335  -12.2980   96.0521 N   0  0  0  0  0  0  0  0  0  0  0  0
  -22.0888  -13.3288   95.7915 N   0  0  0  0  0  0  0  0  0  0  0  0
  -22.4468  -14.3595   95.5353 N   0  0  0  0  0  0  0  0  0  0  0  0
  -19.4056   -8.3074   95.3278 N   0  0  0  0  0  0  0  0  0  0  0  0
  -20.5227   -7.5689   95.3610 C   0  0  0  0  0  0  0  0  0  0  0  0
  -21.7303   -8.1511   95.4031 N   0  0  0  0  0  0  0  0  0  0  0  0
  -21.8503   -9.4868   95.4007 C   0  0  0  0  0  0  0  0  0  0  0  0
  -20.7281  -10.3058   95.3567 C   0  0  0  0  0  0  0  0  0  0  0  0
  -19.4749   -9.7056   95.3310 C   0  0  0  0  0  0  0  0  0  0  0  0
  1 11  1  0  0  0  0
  1  4  1  0  0  0  0
  2  8  1  0  0  0  0
  3 10  1  0  0  0  0
  4  5  1  0  0  0  0
  5  6  1  0  0  0  0
  7  8  2  0  0  0  0
  7 12  1  0  0  0  0
  8  9  1  0  0  0  0
  9 10  2  0  0  0  0
 10 11  1  0  0  0  0
 11 12  2  0  0  0  0
M  END
>  <CHROM.1>
-59.03947959,167.04820177,-177.18868602,-21.21301326,-10.13588155,95.43832370
-1.84530115,0.01261758,-0.04122547

>  <Name>
ligand

>  <RI>
0

>  <Rbt.Current_Directory>
/home/itssahil/PROJECTS/Mol_Feturizer/Test_systems_manuscript/rnas/4nya

>  <Rbt.Executable>
rbdock ($Id: //depot/dev/client3/rdock/2013.1/src/exe/rbdock.cxx#4 $)

>  <Rbt.Library>
libRbt.so (2013.1, Build901 2013/11/27)

>  <Rbt.Parameter_File>
/export/apps/rDock/src/rDock_2013.1_src/data/scripts/dock_solv.prm

>  <Rbt.Receptor>
prm/pocket_docking_3.prm

>  <SCORE>
-12.9996

>  <SCORE.INTER>
-13.3399

>  <SCORE.INTER.CONST>
1

>  <SCORE.INTER.POLAR>
0

>  <SCORE.INTER.ROT>
3

>  <SCORE.INTER.SOLV>
11.7287

>  <SCORE.INTER.VDW>
-18.4028

>  <SCORE.INTER.norm>
-1.11166

>  <SCORE.INTRA>
0.340302

>  <SCORE.INTRA.DIHEDRAL>
-1.76023

>  <SCORE.INTRA.DIHEDRAL.0>
3.34563

>  <SCORE.INTRA.POLAR>
0

>  <SCORE.INTRA.POLAR.0>
0

>  <SCORE.INTRA.REPUL>
0

>  <SCORE.INTRA.REPUL.0>
0

>  <SCORE.INTRA.SOLV>
1.93271

>  <SCORE.INTRA.SOLV.lig_0>
-59.746

>  <SCORE.INTRA.VDW>
0.254063

>  <SCORE.INTRA.VDW.0>
-0.691186

>  <SCORE.INTRA.norm>
0.0283585

>  <SCORE.RESTR>
0

>  <SCORE.RESTR.CAVITY>
0

>  <SCORE.RESTR.norm>
0

>  <SCORE.SYSTEM>
0

>  <SCORE.SYSTEM.CONST>
0

>  <SCORE.SYSTEM.DIHEDRAL>
0

>  <SCORE.SYSTEM.SOLV>
0

>  <SCORE.SYSTEM.norm>
0

>  <SCORE.heavy>
12

>  <SCORE.norm>
-1.0833

>  <RMSD>
2.392

$$$$
ligand
 OpenBabel02271912143D
libRbt.so/2013.1/901 2013/11/27
 12 12  0  0  0  0  0  0  0  0999 V2000
  -20.8392  -11.6633   95.0516 C   0  0  0  0  0  0  0  0  0  0  0  0
  -20.4512   -6.1875   95.4289 C   0  0  0  0  0  0  0  0  0  0  0  0
  -23.0167  -10.0884   95.1569 N   0  0  0  0  0  0  0  0  0  0  0  0
  -21.7245  -12.3100   96.0307 N   0  0  0  0  0  0  0  0  0  0  0  0
  -22.0681  -13.3439   95.7668 N   0  0  0  0  0  0  0  0  0  0  0  0
  -22.4136  -14.3757   95.4985 N   0  0  0  0  0  0  0  0  0  0  0  0
  -19.4116   -8.3049   95.3320 N   0  0  0  0  0  0  0  0  0  0  0  0
  -20.5332   -7.5732   95.3626 C   0  0  0  0  0  0  0  0  0  0  0  0
  -21.7375   -8.1628   95.3980 N   0  0  0  0  0  0  0  0  0  0  0  0
  -21.8494   -9.4991   95.3913 C   0  0  0  0  0  0  0  0  0  0  0  0
  -20.7221  -10.3113   95.3496 C   0  0  0  0  0  0  0  0  0  0  0  0
  -19.4725   -9.7035   95.3309 C   0  0  0  0  0  0  0  0  0  0  0  0
  1 11  1  0  0  0  0
  1  4  1  0  0  0  0
  2  8  1  0  0  0  0
  3 10  1  0  0  0  0
  4  5  1  0  0  0  0
  5  6  1  0  0  0  0
  7  8  2  0  0  0  0
  7 12  1  0  0  0  0
  8  9  1  0  0  0  0
  9 10  2  0  0  0  0
 10 11  1  0  0  0  0
 11 12  2  0  0  0  0
M  END
>  <CHROM.1>
-58.72368918,167.34500213,-57.33924451,-21.20876759,-10.14438528,95.42808087
-1.83953521,0.00838752,-0.03733707

>  <Name>
ligand

>  <RI>
0

>  <Rbt.Current_Directory>
/home/itssahil/PROJECTS/Mol_Feturizer/Test_systems_manuscript/rnas/4nya

>  <Rbt.Executable>
rbdock ($Id: //depot/dev/client3/rdock/2013.1/src/exe/rbdock.cxx#4 $)

>  <Rbt.Library>
libRbt.so (2013.1, Build901 2013/11/27)

>  <Rbt.Parameter_File>
/export/apps/rDock/src/rDock_2013.1_src/data/scripts/dock_solv.prm

>  <Rbt.Receptor>
prm/blind_docking_100.prm

>  <SCORE>
-13.007

>  <SCORE.INTER>
-13.356

>  <SCORE.INTER.CONST>
1

>  <SCORE.INTER.POLAR>
0

>  <SCORE.INTER.ROT>
3

>  <SCORE.INTER.SOLV>
11.6166

>  <SCORE.INTER.VDW>
-18.3762

>  <SCORE.INTER.norm>
-1.113

>  <SCORE.INTRA>
0.348997

>  <SCORE.INTRA.DIHEDRAL>
-1.77508

>  <SCORE.INTRA.DIHEDRAL.0>
3.34563

>  <SCORE.INTRA.POLAR>
0

>  <SCORE.INTRA.POLAR.0>
0

>  <SCORE.INTRA.REPUL>
0

>  <SCORE.INTRA.REPUL.0>
0

>  <SCORE.INTRA.SOLV>
1.94512

>  <SCORE.INTRA.SOLV.lig_0>
-59.746

>  <SCORE.INTRA.VDW>
0.263974

>  <SCORE.INTRA.VDW.0>
-0.691186

>  <SCORE.INTRA.norm>
0.029083

>  <SCORE.RESTR>
0

>  <SCORE.RESTR.CAVITY>
0

>  <SCORE.RESTR.norm>
0

>  <SCORE.SYSTEM>
0

>  <SCORE.SYSTEM.CONST>
0

>  <SCORE.SYSTEM.DIHEDRAL>
0

>  <SCORE.SYSTEM.SOLV>
0

>  <SCORE.SYSTEM.norm>
0

>  <SCORE.heavy>
12

>  <SCORE.norm>
-1.08392

>  <RMSD>
2.399

$$$$
ligand
 OpenBabel02271912143D
libRbt.so/2013.1/901 2013/11/27
 12 12  0  0  0  0  0  0  0  0999 V2000
  -21.8332  -11.2910   95.8767 C   0  0  0  0  0  0  0  0  0  0  0  0
  -19.6943   -6.3032   94.9684 C   0  0  0  0  0  0  0  0  0  0  0  0
  -23.2503   -9.0417   96.2833 N   0  0  0  0  0  0  0  0  0  0  0  0
  -21.4990  -12.0474   94.6615 N   0  0  0  0  0  0  0  0  0  0  0  0
  -22.0043  -13.0422   94.5539 N   0  0  0  0  0  0  0  0  0  0  0  0
  -22.5071  -14.0376   94.4419 N   0  0  0  0  0  0  0  0  0  0  0  0
  -19.4488   -8.6508   95.0167 N   0  0  0  0  0  0  0  0  0  0  0  0
  -20.2111   -7.5684   95.2208 C   0  0  0  0  0  0  0  0  0  0  0  0
  -21.4465   -7.6841   95.7301 N   0  0  0  0  0  0  0  0  0  0  0  0
  -21.9541   -8.8870   96.0365 C   0  0  0  0  0  0  0  0  0  0  0  0
  -21.2151  -10.0473   95.8373 C   0  0  0  0  0  0  0  0  0  0  0  0
  -19.9281   -9.9291   95.3263 C   0  0  0  0  0  0  0  0  0  0  0  0
  1 11  1  0  0  0  0
  1  4  1  0  0  0  0
  2  8  1  0  0  0  0
  3 10  1  0  0  0  0
  4  5  1  0  0  0  0
  5  6  1  0  0  0  0
  7  8  2  0  0  0  0
  7 12  1  0  0  0  0
  8  9  1  0  0  0  0
  9 10  2  0  0  0  0
 10 11  1  0  0  0  0
 11 12  2  0  0  0  0
M  END
>  <CHROM.1>
127.88719238,-175.87808618,-179.27152602,-21.26041282,-9.89298212,95.31355664
1.90641552,-0.40650313,-2.90239971

>  <Name>
ligand

>  <RI>
0

>  <Rbt.Current_Directory>
/home/itssahil/PROJECTS/Mol_Feturizer/Test_systems_manuscript/rnas/4nya

>  <Rbt.Executable>
rbdock ($Id: //depot/dev/client3/rdock/2013.1/src/exe/rbdock.cxx#4 $)

>  <Rbt.Library>
libRbt.so (2013.1, Build901 2013/11/27)

>  <Rbt.Parameter_File>
/export/apps/rDock/src/rDock_2013.1_src/data/scripts/dock_solv.prm

>  <Rbt.Receptor>
prm/pocket_docking_3.prm

>  <SCORE>
-12.9563

>  <SCORE.INTER>
-12.3216

>  <SCORE.INTER.CONST>
1

>  <SCORE.INTER.POLAR>
0

>  <SCORE.INTER.ROT>
3

>  <SCORE.INTER.SOLV>
10.6846

>  <SCORE.INTER.VDW>
-17.376

>  <SCORE.INTER.norm>
-1.0268

>  <SCORE.INTRA>
-0.634626

>  <SCORE.INTRA.DIHEDRAL>
-1.24686

>  <SCORE.INTRA.DIHEDRAL.0>
3.34563

>  <SCORE.INTRA.POLAR>
0

>  <SCORE.INTRA.POLAR.0>
0

>  <SCORE.INTRA.REPUL>
0

>  <SCORE.INTRA.REPUL.0>
0

>  <SCORE.INTRA.SOLV>
-0.925612

>  <SCORE.INTRA.SOLV.lig_0>
-59.746

>  <SCORE.INTRA.VDW>
0.451608

>  <SCORE.INTRA.VDW.0>
-0.691186

>  <SCORE.INTRA.norm>
-0.0528855

>  <SCORE.RESTR>
0

>  <SCORE.RESTR.CAVITY>
0

>  <SCORE.RESTR.norm>
0

>  <SCORE.SYSTEM>
0

>  <SCORE.SYSTEM.CONST>
0

>  <SCORE.SYSTEM.DIHEDRAL>
0

>  <SCORE.SYSTEM.SOLV>
0

>  <SCORE.SYSTEM.norm>
0

>  <SCORE.heavy>
12

>  <SCORE.norm>
-1.07969

>  <RMSD>
2.413

$$$$
ligand
 OpenBabel02271912143D
libRbt.so/2013.1/901 2013/11/27
 12 12  0  0  0  0  0  0  0  0999 V2000
  -20.8377  -11.6637   95.0533 C   0  0  0  0  0  0  0  0  0  0  0  0
  -20.4568   -6.1883   95.4435 C   0  0  0  0  0  0  0  0  0  0  0  0
  -23.0172  -10.0923   95.1687 N   0  0  0  0  0  0  0  0  0  0  0  0
  -21.7398  -12.3090   96.0179 N   0  0  0  0  0  0  0  0  0  0  0  0
  -22.0383  -13.3619   95.7749 N   0  0  0  0  0  0  0  0  0  0  0  0
  -22.3319  -14.4160   95.5326 N   0  0  0  0  0  0  0  0  0  0  0  0
  -19.4143   -8.3039   95.3383 N   0  0  0  0  0  0  0  0  0  0  0  0
  -20.5369   -7.5739   95.3739 C   0  0  0  0  0  0  0  0  0  0  0  0
  -21.7402   -8.1654   95.4111 N   0  0  0  0  0  0  0  0  0  0  0  0
  -21.8501   -9.5019   95.4014 C   0  0  0  0  0  0  0  0  0  0  0  0
  -20.7218  -10.3123   95.3544 C   0  0  0  0  0  0  0  0  0  0  0  0
  -19.4731   -9.7026   95.3338 C   0  0  0  0  0  0  0  0  0  0  0  0
  1 11  1  0  0  0  0
  1  4  1  0  0  0  0
  2  8  1  0  0  0  0
  3 10  1  0  0  0  0
  4  5  1  0  0  0  0
  5  6  1  0  0  0  0
  7  8  2  0  0  0  0
  7 12  1  0  0  0  0
  8  9  1  0  0  0  0
  9 10  2  0  0  0  0
 10 11  1  0  0  0  0
 11 12  2  0  0  0  0
M  END
>  <CHROM.1>
-57.63970937,170.48133928,65.35408585,-21.20166152,-10.15022808,95.43702590
-1.83132998,0.01314928,-0.03635828

>  <Name>
ligand

>  <RI>
0

>  <Rbt.Current_Directory>
/home/itssahil/PROJECTS/Mol_Feturizer/Test_systems_manuscript/rnas/4nya

>  <Rbt.Executable>
rbdock ($Id: //depot/dev/client3/rdock/2013.1/src/exe/rbdock.cxx#4 $)

>  <Rbt.Library>
libRbt.so (2013.1, Build901 2013/11/27)

>  <Rbt.Parameter_File>
/export/apps/rDock/src/rDock_2013.1_src/data/scripts/dock_solv.prm

>  <Rbt.Receptor>
prm/pocket_docking_7.prm

>  <SCORE>
-13.0069

>  <SCORE.INTER>
-13.3058

>  <SCORE.INTER.CONST>
1

>  <SCORE.INTER.POLAR>
0

>  <SCORE.INTER.ROT>
3

>  <SCORE.INTER.SOLV>
11.7194

>  <SCORE.INTER.VDW>
-18.377

>  <SCORE.INTER.norm>
-1.10882

>  <SCORE.INTRA>
0.298876

>  <SCORE.INTRA.DIHEDRAL>
-1.85298

>  <SCORE.INTRA.DIHEDRAL.0>
3.34563

>  <SCORE.INTRA.POLAR>
0

>  <SCORE.INTRA.POLAR.0>
0

>  <SCORE.INTRA.REPUL>
0

>  <SCORE.INTRA.REPUL.0>
0

>  <SCORE.INTRA.SOLV>
1.85073

>  <SCORE.INTRA.SOLV.lig_0>
-59.746

>  <SCORE.INTRA.VDW>
0.300001

>  <SCORE.INTRA.VDW.0>
-0.691186

>  <SCORE.INTRA.norm>
0.0249063

>  <SCORE.RESTR>
0

>  <SCORE.RESTR.CAVITY>
0

>  <SCORE.RESTR.norm>
0

>  <SCORE.SYSTEM>
0

>  <SCORE.SYSTEM.CONST>
0

>  <SCORE.SYSTEM.DIHEDRAL>
0

>  <SCORE.SYSTEM.SOLV>
0

>  <SCORE.SYSTEM.norm>
0

>  <SCORE.heavy>
12

>  <SCORE.norm>
-1.08391

>  <RMSD>
2.414

$$$$
ligand
 OpenBabel02271912143D
libRbt.so/2013.1/901 2013/11/27
 12 12  0  0  0  0  0  0  0  0999 V2000
  -20.8145  -11.6721   95.0691 C   0  0  0  0  0  0  0  0  0  0  0  0
  -20.4596   -6.1939   95.4454 C   0  0  0  0  0  0  0  0  0  0  0  0
  -22.9995  -10.1041   95.0816 N   0  0  0  0  0  0  0  0  0  0  0  0
  -21.7363  -12.3190   96.0138 N   0  0  0  0  0  0  0  0  0  0  0  0
  -22.0253  -13.3733   95.7658 N   0  0  0  0  0  0  0  0  0  0  0  0
  -22.3174  -14.4275   95.5221 N   0  0  0  0  0  0  0  0  0  0  0  0
  -19.4101   -8.3081   95.3970 N   0  0  0  0  0  0  0  0  0  0  0  0
  -20.5344   -7.5801   95.3801 C   0  0  0  0  0  0  0  0  0  0  0  0
  -21.7372   -8.1736   95.3684 N   0  0  0  0  0  0  0  0  0  0  0  0
  -21.8445   -9.5103   95.3612 C   0  0  0  0  0  0  0  0  0  0  0  0
  -20.7138  -10.3188   95.3676 C   0  0  0  0  0  0  0  0  0  0  0  0
  -19.4664   -9.7069   95.3975 C   0  0  0  0  0  0  0  0  0  0  0  0
  1 11  1  0  0  0  0
  1  4  1  0  0  0  0
  2  8  1  0  0  0  0
  3 10  1  0  0  0  0
  4  5  1  0  0  0  0
  5  6  1  0  0  0  0
  7  8  2  0  0  0  0
  7 12  1  0  0  0  0
  8  9  1  0  0  0  0
  9 10  2  0  0  0  0
 10 11  1  0  0  0  0
 11 12  2  0  0  0  0
M  END
>  <CHROM.1>
-58.73641705,170.28006130,-177.52494416,-21.19334366,-10.15834676,95.43353554
-1.82902237,-0.03110295,-0.04498672

>  <Name>
ligand

>  <RI>
0

>  <Rbt.Current_Directory>
/home/itssahil/PROJECTS/Mol_Feturizer/Test_systems_manuscript/rnas/4nya

>  <Rbt.Executable>
rbdock ($Id: //depot/dev/client3/rdock/2013.1/src/exe/rbdock.cxx#4 $)

>  <Rbt.Library>
libRbt.so (2013.1, Build901 2013/11/27)

>  <Rbt.Parameter_File>
/export/apps/rDock/src/rDock_2013.1_src/data/scripts/dock_solv.prm

>  <Rbt.Receptor>
prm/pocket_docking_5.prm

>  <SCORE>
-12.9969

>  <SCORE.INTER>
-13.2476

>  <SCORE.INTER.CONST>
1

>  <SCORE.INTER.POLAR>
0

>  <SCORE.INTER.ROT>
3

>  <SCORE.INTER.SOLV>
11.9906

>  <SCORE.INTER.VDW>
-18.4286

>  <SCORE.INTER.norm>
-1.10396

>  <SCORE.INTRA>
0.250718

>  <SCORE.INTRA.DIHEDRAL>
-1.82591

>  <SCORE.INTRA.DIHEDRAL.0>
3.34563

>  <SCORE.INTRA.POLAR>
0

>  <SCORE.INTRA.POLAR.0>
0

>  <SCORE.INTRA.REPUL>
0

>  <SCORE.INTRA.REPUL.0>
0

>  <SCORE.INTRA.SOLV>
1.79073

>  <SCORE.INTRA.SOLV.lig_0>
-59.746

>  <SCORE.INTRA.VDW>
0.268306

>  <SCORE.INTRA.VDW.0>
-0.691186

>  <SCORE.INTRA.norm>
0.0208932

>  <SCORE.RESTR>
0

>  <SCORE.RESTR.CAVITY>
0

>  <SCORE.RESTR.norm>
0

>  <SCORE.SYSTEM>
0

>  <SCORE.SYSTEM.CONST>
0

>  <SCORE.SYSTEM.DIHEDRAL>
0

>  <SCORE.SYSTEM.SOLV>
0

>  <SCORE.SYSTEM.norm>
0

>  <SCORE.heavy>
12

>  <SCORE.norm>
-1.08307

>  <RMSD>
2.415

$$$$
ligand
 OpenBabel02271912143D
libRbt.so/2013.1/901 2013/11/27
 12 12  0  0  0  0  0  0  0  0999 V2000
  -20.8326  -11.6614   95.0526 C   0  0  0  0  0  0  0  0  0  0  0  0
  -20.5467   -6.1796   95.4356 C   0  0  0  0  0  0  0  0  0  0  0  0
  -23.0390  -10.1279   95.1668 N   0  0  0  0  0  0  0  0  0  0  0  0
  -21.7097  -12.3241   96.0283 N   0  0  0  0  0  0  0  0  0  0  0  0
  -22.0217  -13.3694   95.7700 N   0  0  0  0  0  0  0  0  0  0  0  0
  -22.3356  -14.4126   95.5072 N   0  0  0  0  0  0  0  0  0  0  0  0
  -19.4676   -8.2769   95.3328 N   0  0  0  0  0  0  0  0  0  0  0  0
  -20.6028   -7.5665   95.3678 C   0  0  0  0  0  0  0  0  0  0  0  0
  -21.7956   -8.1788   95.4062 N   0  0  0  0  0  0  0  0  0  0  0  0
  -21.8823   -9.5170   95.3982 C   0  0  0  0  0  0  0  0  0  0  0  0
  -20.7400  -10.3078   95.3519 C   0  0  0  0  0  0  0  0  0  0  0  0
  -19.5021   -9.6764   95.3300 C   0  0  0  0  0  0  0  0  0  0  0  0
  1 11  1  0  0  0  0
  1  4  1  0  0  0  0
  2  8  1  0  0  0  0
  3 10  1  0  0  0  0
  4  5  1  0  0  0  0
  5  6  1  0  0  0  0
  7  8  2  0  0  0  0
  7 12  1  0  0  0  0
  8  9  1  0  0  0  0
  9 10  2  0  0  0  0
 10 11  1  0  0  0  0
 11 12  2  0  0  0  0
M  END
>  <CHROM.1>
-58.34378814,168.23643803,-56.72145575,-21.22804450,-10.15109866,95.43226804
-1.81904857,0.01145467,-0.03636791

>  <Name>
ligand

>  <RI>
0

>  <Rbt.Current_Directory>
/home/itssahil/PROJECTS/Mol_Feturizer/Test_systems_manuscript/rnas/4nya

>  <Rbt.Executable>
rbdock ($Id: //depot/dev/client3/rdock/2013.1/src/exe/rbdock.cxx#4 $)

>  <Rbt.Library>
libRbt.so (2013.1, Build901 2013/11/27)

>  <Rbt.Parameter_File>
/export/apps/rDock/src/rDock_2013.1_src/data/scripts/dock_solv.prm

>  <Rbt.Receptor>
prm/pocket_docking_4.prm

>  <SCORE>
-13.0145

>  <SCORE.INTER>
-13.3518

>  <SCORE.INTER.CONST>
1

>  <SCORE.INTER.POLAR>
0

>  <SCORE.INTER.ROT>
3

>  <SCORE.INTER.SOLV>
11.5954

>  <SCORE.INTER.VDW>
-18.3663

>  <SCORE.INTER.norm>
-1.11265

>  <SCORE.INTRA>
0.33732

>  <SCORE.INTRA.DIHEDRAL>
-1.80132

>  <SCORE.INTRA.DIHEDRAL.0>
3.34563

>  <SCORE.INTRA.POLAR>
0

>  <SCORE.INTRA.POLAR.0>
0

>  <SCORE.INTRA.REPUL>
0

>  <SCORE.INTRA.REPUL.0>
0

>  <SCORE.INTRA.SOLV>
1.92419

>  <SCORE.INTRA.SOLV.lig_0>
-59.746

>  <SCORE.INTRA.VDW>
0.275884

>  <SCORE.INTRA.VDW.0>
-0.691186

>  <SCORE.INTRA.norm>
0.02811

>  <SCORE.RESTR>
0

>  <SCORE.RESTR.CAVITY>
0

>  <SCORE.RESTR.norm>
0

>  <SCORE.SYSTEM>
0

>  <SCORE.SYSTEM.CONST>
0

>  <SCORE.SYSTEM.DIHEDRAL>
0

>  <SCORE.SYSTEM.SOLV>
0

>  <SCORE.SYSTEM.norm>
0

>  <SCORE.heavy>
12

>  <SCORE.norm>
-1.08454

>  <RMSD>
2.418

$$$$
ligand
 OpenBabel02271912143D
libRbt.so/2013.1/901 2013/11/27
 12 12  0  0  0  0  0  0  0  0999 V2000
  -20.8255  -11.6623   95.0492 C   0  0  0  0  0  0  0  0  0  0  0  0
  -20.5466   -6.1804   95.4340 C   0  0  0  0  0  0  0  0  0  0  0  0
  -23.0339  -10.1315   95.1600 N   0  0  0  0  0  0  0  0  0  0  0  0
  -21.7003  -12.3270   96.0255 N   0  0  0  0  0  0  0  0  0  0  0  0
  -22.0162  -13.3703   95.7638 N   0  0  0  0  0  0  0  0  0  0  0  0
  -22.3341  -14.4116   95.4979 N   0  0  0  0  0  0  0  0  0  0  0  0
  -19.4650   -8.2764   95.3324 N   0  0  0  0  0  0  0  0  0  0  0  0
  -20.6010   -7.5673   95.3658 C   0  0  0  0  0  0  0  0  0  0  0  0
  -21.7931   -8.1810   95.4020 N   0  0  0  0  0  0  0  0  0  0  0  0
  -21.8783   -9.5193   95.3935 C   0  0  0  0  0  0  0  0  0  0  0  0
  -20.7350  -10.3087   95.3490 C   0  0  0  0  0  0  0  0  0  0  0  0
  -19.4978   -9.6759   95.3293 C   0  0  0  0  0  0  0  0  0  0  0  0
  1 11  1  0  0  0  0
  1  4  1  0  0  0  0
  2  8  1  0  0  0  0
  3 10  1  0  0  0  0
  4  5  1  0  0  0  0
  5  6  1  0  0  0  0
  7  8  2  0  0  0  0
  7 12  1  0  0  0  0
  8  9  1  0  0  0  0
  9 10  2  0  0  0  0
 10 11  1  0  0  0  0
 11 12  2  0  0  0  0
M  END
>  <CHROM.1>
-58.50528033,167.85664821,-58.68623781,-21.22396446,-10.15220129,95.42848229
-1.81860540,0.00948550,-0.03608295

>  <Name>
ligand

>  <RI>
0

>  <Rbt.Current_Directory>
/home/itssahil/PROJECTS/Mol_Feturizer/Test_systems_manuscript/rnas/4nya

>  <Rbt.Executable>
rbdock ($Id: //depot/dev/client3/rdock/2013.1/src/exe/rbdock.cxx#4 $)

>  <Rbt.Library>
libRbt.so (2013.1, Build901 2013/11/27)

>  <Rbt.Parameter_File>
/export/apps/rDock/src/rDock_2013.1_src/data/scripts/dock_solv.prm

>  <Rbt.Receptor>
prm/pocket_docking_7.prm

>  <SCORE>
-13.0126

>  <SCORE.INTER>
-13.3538

>  <SCORE.INTER.CONST>
1

>  <SCORE.INTER.POLAR>
0

>  <SCORE.INTER.ROT>
3

>  <SCORE.INTER.SOLV>
11.5799

>  <SCORE.INTER.VDW>
-18.3625

>  <SCORE.INTER.norm>
-1.11281

>  <SCORE.INTRA>
0.34112

>  <SCORE.INTRA.DIHEDRAL>
-1.79233

>  <SCORE.INTRA.DIHEDRAL.0>
3.34563

>  <SCORE.INTRA.POLAR>
0

>  <SCORE.INTRA.POLAR.0>
0

>  <SCORE.INTRA.REPUL>
0

>  <SCORE.INTRA.REPUL.0>
0

>  <SCORE.INTRA.SOLV>
1.93305

>  <SCORE.INTRA.SOLV.lig_0>
-59.746

>  <SCORE.INTRA.VDW>
0.270756

>  <SCORE.INTRA.VDW.0>
-0.691186

>  <SCORE.INTRA.norm>
0.0284267

>  <SCORE.RESTR>
0

>  <SCORE.RESTR.CAVITY>
0

>  <SCORE.RESTR.norm>
0

>  <SCORE.SYSTEM>
0

>  <SCORE.SYSTEM.CONST>
0

>  <SCORE.SYSTEM.DIHEDRAL>
0

>  <SCORE.SYSTEM.SOLV>
0

>  <SCORE.SYSTEM.norm>
0

>  <SCORE.heavy>
12

>  <SCORE.norm>
-1.08439

>  <RMSD>
2.419

$$$$
ligand
 OpenBabel02271912143D
libRbt.so/2013.1/901 2013/11/27
 12 12  0  0  0  0  0  0  0  0999 V2000
  -21.7907  -11.2539   95.9016 C   0  0  0  0  0  0  0  0  0  0  0  0
  -19.6720   -6.2629   94.9643 C   0  0  0  0  0  0  0  0  0  0  0  0
  -23.2665   -9.0175   96.1324 N   0  0  0  0  0  0  0  0  0  0  0  0
  -21.4500  -12.0053   94.6851 N   0  0  0  0  0  0  0  0  0  0  0  0
  -21.9385  -13.0090   94.5811 N   0  0  0  0  0  0  0  0  0  0  0  0
  -22.4314  -14.0101   94.4771 N   0  0  0  0  0  0  0  0  0  0  0  0
  -19.3943   -8.6027   95.1117 N   0  0  0  0  0  0  0  0  0  0  0  0
  -20.1852   -7.5276   95.2257 C   0  0  0  0  0  0  0  0  0  0  0  0
  -21.4505   -7.6478   95.6544 N   0  0  0  0  0  0  0  0  0  0  0  0
  -21.9592   -8.8483   95.9681 C   0  0  0  0  0  0  0  0  0  0  0  0
  -21.1905  -10.0015   95.8601 C   0  0  0  0  0  0  0  0  0  0  0  0
  -19.8738   -9.8780   95.4331 C   0  0  0  0  0  0  0  0  0  0  0  0
  1 11  1  0  0  0  0
  1  4  1  0  0  0  0
  2  8  1  0  0  0  0
  3 10  1  0  0  0  0
  4  5  1  0  0  0  0
  5  6  1  0  0  0  0
  7  8  2  0  0  0  0
  7 12  1  0  0  0  0
  8  9  1  0  0  0  0
  9 10  2  0  0  0  0
 10 11  1  0  0  0  0
 11 12  2  0  0  0  0
M  END
>  <CHROM.1>
123.34158628,-176.09702499,60.89784942,-21.22764807,-9.85446921,95.31630350
1.89317971,-0.34330722,-2.93473398

>  <Name>
ligand

>  <RI>
0

>  <Rbt.Current_Directory>
/home/itssahil/PROJECTS/Mol_Feturizer/Test_systems_manuscript/rnas/4nya

>  <Rbt.Executable>
rbdock ($Id: //depot/dev/client3/rdock/2013.1/src/exe/rbdock.cxx#4 $)

>  <Rbt.Library>
libRbt.so (2013.1, Build901 2013/11/27)

>  <Rbt.Parameter_File>
/export/apps/rDock/src/rDock_2013.1_src/data/scripts/dock_solv.prm

>  <Rbt.Receptor>
prm/pocket_docking_3.prm

>  <SCORE>
-13.0583

>  <SCORE.INTER>
-12.3218

>  <SCORE.INTER.CONST>
1

>  <SCORE.INTER.POLAR>
0

>  <SCORE.INTER.ROT>
3

>  <SCORE.INTER.SOLV>
11.0839

>  <SCORE.INTER.VDW>
-17.5092

>  <SCORE.INTER.norm>
-1.02682

>  <SCORE.INTRA>
-0.736471

>  <SCORE.INTRA.DIHEDRAL>
-1.35855

>  <SCORE.INTRA.DIHEDRAL.0>
3.34563

>  <SCORE.INTRA.POLAR>
0

>  <SCORE.INTRA.POLAR.0>
0

>  <SCORE.INTRA.REPUL>
0

>  <SCORE.INTRA.REPUL.0>
0

>  <SCORE.INTRA.SOLV>
-0.864945

>  <SCORE.INTRA.SOLV.lig_0>
-59.746

>  <SCORE.INTRA.VDW>
0.375277

>  <SCORE.INTRA.VDW.0>
-0.691186

>  <SCORE.INTRA.norm>
-0.0613725

>  <SCORE.RESTR>
0

>  <SCORE.RESTR.CAVITY>
0

>  <SCORE.RESTR.norm>
0

>  <SCORE.SYSTEM>
0

>  <SCORE.SYSTEM.CONST>
0

>  <SCORE.SYSTEM.DIHEDRAL>
0

>  <SCORE.SYSTEM.SOLV>
0

>  <SCORE.SYSTEM.norm>
0

>  <SCORE.heavy>
12

>  <SCORE.norm>
-1.08819

>  <RMSD>
2.431

$$$$
ligand
 OpenBabel02271912143D
libRbt.so/2013.1/901 2013/11/27
 12 12  0  0  0  0  0  0  0  0999 V2000
  -20.7468  -11.6944   95.0446 C   0  0  0  0  0  0  0  0  0  0  0  0
  -20.5780   -6.2083   95.4337 C   0  0  0  0  0  0  0  0  0  0  0  0
  -22.9853  -10.2056   95.1186 N   0  0  0  0  0  0  0  0  0  0  0  0
  -21.6466  -12.3711   95.9896 N   0  0  0  0  0  0  0  0  0  0  0  0
  -21.9169  -13.4280   95.7313 N   0  0  0  0  0  0  0  0  0  0  0  0
  -22.1822  -14.4858   95.4732 N   0  0  0  0  0  0  0  0  0  0  0  0
  -19.4554   -8.2834   95.3503 N   0  0  0  0  0  0  0  0  0  0  0  0
  -20.6050   -7.5960   95.3647 C   0  0  0  0  0  0  0  0  0  0  0  0
  -21.7858   -8.2320   95.3812 N   0  0  0  0  0  0  0  0  0  0  0  0
  -21.8455   -9.5717   95.3713 C   0  0  0  0  0  0  0  0  0  0  0  0
  -20.6870  -10.3394   95.3458 C   0  0  0  0  0  0  0  0  0  0  0  0
  -19.4618   -9.6833   95.3467 C   0  0  0  0  0  0  0  0  0  0  0  0
  1 11  1  0  0  0  0
  1  4  1  0  0  0  0
  2  8  1  0  0  0  0
  3 10  1  0  0  0  0
  4  5  1  0  0  0  0
  5  6  1  0  0  0  0
  7  8  2  0  0  0  0
  7 12  1  0  0  0  0
  8  9  1  0  0  0  0
  9 10  2  0  0  0  0
 10 11  1  0  0  0  0
 11 12  2  0  0  0  0
M  END
>  <CHROM.1>
-57.35876180,169.34260462,59.55634368,-21.17947349,-10.19326300,95.41543264
-1.79887896,-0.00625137,-0.03494507

>  <Name>
ligand

>  <RI>
0

>  <Rbt.Current_Directory>
/home/itssahil/PROJECTS/Mol_Feturizer/Test_systems_manuscript/rnas/4nya

>  <Rbt.Executable>
rbdock ($Id: //depot/dev/client3/rdock/2013.1/src/exe/rbdock.cxx#4 $)

>  <Rbt.Library>
libRbt.so (2013.1, Build901 2013/11/27)

>  <Rbt.Parameter_File>
/export/apps/rDock/src/rDock_2013.1_src/data/scripts/dock_solv.prm

>  <Rbt.Receptor>
prm/pocket_docking_8.prm

>  <SCORE>
-13.0273

>  <SCORE.INTER>
-13.3704

>  <SCORE.INTER.CONST>
1

>  <SCORE.INTER.POLAR>
0

>  <SCORE.INTER.ROT>
3

>  <SCORE.INTER.SOLV>
11.6496

>  <SCORE.INTER.VDW>
-18.3968

>  <SCORE.INTER.norm>
-1.1142

>  <SCORE.INTRA>
0.343119

>  <SCORE.INTRA.DIHEDRAL>
-1.85029

>  <SCORE.INTRA.DIHEDRAL.0>
3.34563

>  <SCORE.INTRA.POLAR>
0

>  <SCORE.INTRA.POLAR.0>
0

>  <SCORE.INTRA.REPUL>
0

>  <SCORE.INTRA.REPUL.0>
0

>  <SCORE.INTRA.SOLV>
1.92433

>  <SCORE.INTRA.SOLV.lig_0>
-59.746

>  <SCORE.INTRA.VDW>
0.306098

>  <SCORE.INTRA.VDW.0>
-0.691186

>  <SCORE.INTRA.norm>
0.0285932

>  <SCORE.RESTR>
0

>  <SCORE.RESTR.CAVITY>
0

>  <SCORE.RESTR.norm>
0

>  <SCORE.SYSTEM>
0

>  <SCORE.SYSTEM.CONST>
0

>  <SCORE.SYSTEM.DIHEDRAL>
0

>  <SCORE.SYSTEM.SOLV>
0

>  <SCORE.SYSTEM.norm>
0

>  <SCORE.heavy>
12

>  <SCORE.norm>
-1.08561

>  <RMSD>
2.452

$$$$
ligand
 OpenBabel02271912143D
libRbt.so/2013.1/901 2013/11/27
 12 12  0  0  0  0  0  0  0  0999 V2000
  -20.7653  -11.6713   95.0302 C   0  0  0  0  0  0  0  0  0  0  0  0
  -20.5524   -6.1905   95.4694 C   0  0  0  0  0  0  0  0  0  0  0  0
  -22.9918  -10.1658   95.1235 N   0  0  0  0  0  0  0  0  0  0  0  0
  -21.6461  -12.3548   95.9881 N   0  0  0  0  0  0  0  0  0  0  0  0
  -21.9115  -13.4139   95.7341 N   0  0  0  0  0  0  0  0  0  0  0  0
  -22.1796  -14.4730   95.4844 N   0  0  0  0  0  0  0  0  0  0  0  0
  -19.4464   -8.2736   95.3640 N   0  0  0  0  0  0  0  0  0  0  0  0
  -20.5905   -7.5773   95.3877 C   0  0  0  0  0  0  0  0  0  0  0  0
  -21.7762   -8.2042   95.4012 N   0  0  0  0  0  0  0  0  0  0  0  0
  -21.8464   -9.5432   95.3792 C   0  0  0  0  0  0  0  0  0  0  0  0
  -20.6940  -10.3197   95.3437 C   0  0  0  0  0  0  0  0  0  0  0  0
  -19.4637   -9.6733   95.3475 C   0  0  0  0  0  0  0  0  0  0  0  0
  1 11  1  0  0  0  0
  1  4  1  0  0  0  0
  2  8  1  0  0  0  0
  3 10  1  0  0  0  0
  4  5  1  0  0  0  0
  5  6  1  0  0  0  0
  7  8  2  0  0  0  0
  7 12  1  0  0  0  0
  8  9  1  0  0  0  0
  9 10  2  0  0  0  0
 10 11  1  0  0  0  0
 11 12  2  0  0  0  0
M  END
>  <CHROM.1>
-58.52459968,170.35181006,-178.88063862,-21.17652722,-10.17338033,95.42412367
-1.80046426,-0.00429497,-0.03104502

>  <Name>
ligand

>  <RI>
0

>  <Rbt.Current_Directory>
/home/itssahil/PROJECTS/Mol_Feturizer/Test_systems_manuscript/rnas/4nya

>  <Rbt.Executable>
rbdock ($Id: //depot/dev/client3/rdock/2013.1/src/exe/rbdock.cxx#4 $)

>  <Rbt.Library>
libRbt.so (2013.1, Build901 2013/11/27)

>  <Rbt.Parameter_File>
/export/apps/rDock/src/rDock_2013.1_src/data/scripts/dock_solv.prm

>  <Rbt.Receptor>
prm/blind_docking_100.prm

>  <SCORE>
-13.0425

>  <SCORE.INTER>
-13.2998

>  <SCORE.INTER.CONST>
1

>  <SCORE.INTER.POLAR>
0

>  <SCORE.INTER.ROT>
3

>  <SCORE.INTER.SOLV>
11.7048

>  <SCORE.INTER.VDW>
-18.3681

>  <SCORE.INTER.norm>
-1.10831

>  <SCORE.INTRA>
0.257293

>  <SCORE.INTRA.DIHEDRAL>
-1.83422

>  <SCORE.INTRA.DIHEDRAL.0>
3.34563

>  <SCORE.INTRA.POLAR>
0

>  <SCORE.INTRA.POLAR.0>
0

>  <SCORE.INTRA.REPUL>
0

>  <SCORE.INTRA.REPUL.0>
0

>  <SCORE.INTRA.SOLV>
1.80082

>  <SCORE.INTRA.SOLV.lig_0>
-59.746

>  <SCORE.INTRA.VDW>
0.273997

>  <SCORE.INTRA.VDW.0>
-0.691186

>  <SCORE.INTRA.norm>
0.0214411

>  <SCORE.RESTR>
0

>  <SCORE.RESTR.CAVITY>
0

>  <SCORE.RESTR.norm>
0

>  <SCORE.SYSTEM>
0

>  <SCORE.SYSTEM.CONST>
0

>  <SCORE.SYSTEM.DIHEDRAL>
0

>  <SCORE.SYSTEM.SOLV>
0

>  <SCORE.SYSTEM.norm>
0

>  <SCORE.heavy>
12

>  <SCORE.norm>
-1.08687

>  <RMSD>
2.453

$$$$
ligand
 OpenBabel02271912143D
libRbt.so/2013.1/901 2013/11/27
 12 12  0  0  0  0  0  0  0  0999 V2000
  -20.7658  -11.7050   95.0127 C   0  0  0  0  0  0  0  0  0  0  0  0
  -20.5354   -6.2244   95.4447 C   0  0  0  0  0  0  0  0  0  0  0  0
  -22.9876  -10.1926   95.1084 N   0  0  0  0  0  0  0  0  0  0  0  0
  -21.6588  -12.3818   95.9640 N   0  0  0  0  0  0  0  0  0  0  0  0
  -21.9212  -13.4427   95.7139 N   0  0  0  0  0  0  0  0  0  0  0  0
  -22.1785  -14.5044   95.4640 N   0  0  0  0  0  0  0  0  0  0  0  0
  -19.4359   -8.3109   95.3398 N   0  0  0  0  0  0  0  0  0  0  0  0
  -20.5778   -7.6111   95.3648 C   0  0  0  0  0  0  0  0  0  0  0  0
  -21.7654   -8.2344   95.3814 N   0  0  0  0  0  0  0  0  0  0  0  0
  -21.8398   -9.5732   95.3611 C   0  0  0  0  0  0  0  0  0  0  0  0
  -20.6898  -10.3532   95.3244 C   0  0  0  0  0  0  0  0  0  0  0  0
  -19.4576   -9.7106   95.3251 C   0  0  0  0  0  0  0  0  0  0  0  0
  1 11  1  0  0  0  0
  1  4  1  0  0  0  0
  2  8  1  0  0  0  0
  3 10  1  0  0  0  0
  4  5  1  0  0  0  0
  5  6  1  0  0  0  0
  7  8  2  0  0  0  0
  7 12  1  0  0  0  0
  8  9  1  0  0  0  0
  9 10  2  0  0  0  0
 10 11  1  0  0  0  0
 11 12  2  0  0  0  0
M  END
>  <CHROM.1>
-57.89549377,170.82680795,59.06239918,-21.17243165,-10.20528418,95.40340198
-1.80350343,-0.00162856,-0.03088786

>  <Name>
ligand

>  <RI>
0

>  <Rbt.Current_Directory>
/home/itssahil/PROJECTS/Mol_Feturizer/Test_systems_manuscript/rnas/4nya

>  <Rbt.Executable>
rbdock ($Id: //depot/dev/client3/rdock/2013.1/src/exe/rbdock.cxx#4 $)

>  <Rbt.Library>
libRbt.so (2013.1, Build901 2013/11/27)

>  <Rbt.Parameter_File>
/export/apps/rDock/src/rDock_2013.1_src/data/scripts/dock_solv.prm

>  <Rbt.Receptor>
prm/pocket_docking_6.prm

>  <SCORE>
-13.0275

>  <SCORE.INTER>
-13.3019

>  <SCORE.INTER.CONST>
1

>  <SCORE.INTER.POLAR>
0

>  <SCORE.INTER.ROT>
3

>  <SCORE.INTER.SOLV>
11.6361

>  <SCORE.INTER.VDW>
-18.3466

>  <SCORE.INTER.norm>
-1.10849

>  <SCORE.INTRA>
0.274414

>  <SCORE.INTRA.DIHEDRAL>
-1.85869

>  <SCORE.INTRA.DIHEDRAL.0>
3.34563

>  <SCORE.INTRA.POLAR>
0

>  <SCORE.INTRA.POLAR.0>
0

>  <SCORE.INTRA.REPUL>
0

>  <SCORE.INTRA.REPUL.0>
0

>  <SCORE.INTRA.SOLV>
1.82066

>  <SCORE.INTRA.SOLV.lig_0>
-59.746

>  <SCORE.INTRA.VDW>
0.293431

>  <SCORE.INTRA.VDW.0>
-0.691186

>  <SCORE.INTRA.norm>
0.0228678

>  <SCORE.RESTR>
0

>  <SCORE.RESTR.CAVITY>
0

>  <SCORE.RESTR.norm>
0

>  <SCORE.SYSTEM>
0

>  <SCORE.SYSTEM.CONST>
0

>  <SCORE.SYSTEM.DIHEDRAL>
0

>  <SCORE.SYSTEM.SOLV>
0

>  <SCORE.SYSTEM.norm>
0

>  <SCORE.heavy>
12

>  <SCORE.norm>
-1.08562

>  <RMSD>
2.454

$$$$
ligand
 OpenBabel02271912143D
libRbt.so/2013.1/901 2013/11/27
 12 12  0  0  0  0  0  0  0  0999 V2000
  -20.7565  -11.6669   95.0232 C   0  0  0  0  0  0  0  0  0  0  0  0
  -20.5795   -6.1844   95.4573 C   0  0  0  0  0  0  0  0  0  0  0  0
  -22.9928  -10.1754   95.1093 N   0  0  0  0  0  0  0  0  0  0  0  0
  -21.6587  -12.3497   95.9614 N   0  0  0  0  0  0  0  0  0  0  0  0
  -21.9024  -13.4153   95.7129 N   0  0  0  0  0  0  0  0  0  0  0  0
  -22.1478  -14.4792   95.4600 N   0  0  0  0  0  0  0  0  0  0  0  0
  -19.4600   -8.2605   95.3569 N   0  0  0  0  0  0  0  0  0  0  0  0
  -20.6086   -7.5714   95.3769 C   0  0  0  0  0  0  0  0  0  0  0  0
  -21.7903   -8.2059   95.3881 N   0  0  0  0  0  0  0  0  0  0  0  0
  -21.8520   -9.5453   95.3672 C   0  0  0  0  0  0  0  0  0  0  0  0
  -20.6946  -10.3145   95.3355 C   0  0  0  0  0  0  0  0  0  0  0  0
  -19.4685   -9.6603   95.3418 C   0  0  0  0  0  0  0  0  0  0  0  0
  1 11  1  0  0  0  0
  1  4  1  0  0  0  0
  2  8  1  0  0  0  0
  3 10  1  0  0  0  0
  4  5  1  0  0  0  0
  5  6  1  0  0  0  0
  7  8  2  0  0  0  0
  7 12  1  0  0  0  0
  8  9  1  0  0  0  0
  9 10  2  0  0  0  0
 10 11  1  0  0  0  0
 11 12  2  0  0  0  0
M  END
>  <CHROM.1>
-57.28422280,171.36882264,-58.12989249,-21.18050045,-10.17083689,95.41039823
-1.79510032,-0.00581911,-0.02943400

>  <Name>
ligand

>  <RI>
0

>  <Rbt.Current_Directory>
/home/itssahil/PROJECTS/Mol_Feturizer/Test_systems_manuscript/rnas/4nya

>  <Rbt.Executable>
rbdock ($Id: //depot/dev/client3/rdock/2013.1/src/exe/rbdock.cxx#4 $)

>  <Rbt.Library>
libRbt.so (2013.1, Build901 2013/11/27)

>  <Rbt.Parameter_File>
/export/apps/rDock/src/rDock_2013.1_src/data/scripts/dock_solv.prm

>  <Rbt.Receptor>
prm/pocket_docking_4.prm

>  <SCORE>
-13.032

>  <SCORE.INTER>
-13.3224

>  <SCORE.INTER.CONST>
1

>  <SCORE.INTER.POLAR>
0

>  <SCORE.INTER.ROT>
3

>  <SCORE.INTER.SOLV>
11.586

>  <SCORE.INTER.VDW>
-18.3436

>  <SCORE.INTER.norm>
-1.1102

>  <SCORE.INTRA>
0.290329

>  <SCORE.INTRA.DIHEDRAL>
-1.88217

>  <SCORE.INTRA.DIHEDRAL.0>
3.34563

>  <SCORE.INTRA.POLAR>
0

>  <SCORE.INTRA.POLAR.0>
0

>  <SCORE.INTRA.REPUL>
0

>  <SCORE.INTRA.REPUL.0>
0

>  <SCORE.INTRA.SOLV>
1.8387

>  <SCORE.INTRA.SOLV.lig_0>
-59.746

>  <SCORE.INTRA.VDW>
0.312065

>  <SCORE.INTRA.VDW.0>
-0.691186

>  <SCORE.INTRA.norm>
0.0241941

>  <SCORE.RESTR>
0

>  <SCORE.RESTR.CAVITY>
0

>  <SCORE.RESTR.norm>
0

>  <SCORE.SYSTEM>
0

>  <SCORE.SYSTEM.CONST>
0

>  <SCORE.SYSTEM.DIHEDRAL>
0

>  <SCORE.SYSTEM.SOLV>
0

>  <SCORE.SYSTEM.norm>
0

>  <SCORE.heavy>
12

>  <SCORE.norm>
-1.086

>  <RMSD>
2.458

$$$$
ligand
 OpenBabel02271912143D
libRbt.so/2013.1/901 2013/11/27
 12 12  0  0  0  0  0  0  0  0999 V2000
  -20.7640  -11.7235   95.0050 C   0  0  0  0  0  0  0  0  0  0  0  0
  -20.5540   -6.2431   95.4497 C   0  0  0  0  0  0  0  0  0  0  0  0
  -22.9913  -10.2189   95.0953 N   0  0  0  0  0  0  0  0  0  0  0  0
  -21.6376  -12.4102   95.9672 N   0  0  0  0  0  0  0  0  0  0  0  0
  -21.9058  -13.4681   95.7111 N   0  0  0  0  0  0  0  0  0  0  0  0
  -22.1760  -14.5242   95.4507 N   0  0  0  0  0  0  0  0  0  0  0  0
  -19.4470   -8.3256   95.3446 N   0  0  0  0  0  0  0  0  0  0  0  0
  -20.5914   -7.6298   95.3666 C   0  0  0  0  0  0  0  0  0  0  0  0
  -21.7769   -8.2571   95.3772 N   0  0  0  0  0  0  0  0  0  0  0  0
  -21.8466   -9.5961   95.3538 C   0  0  0  0  0  0  0  0  0  0  0  0
  -20.6938  -10.3721   95.3199 C   0  0  0  0  0  0  0  0  0  0  0  0
  -19.4638   -9.7253   95.3268 C   0  0  0  0  0  0  0  0  0  0  0  0
  1 11  1  0  0  0  0
  1  4  1  0  0  0  0
  2  8  1  0  0  0  0
  3 10  1  0  0  0  0
  4  5  1  0  0  0  0
  5  6  1  0  0  0  0
  7  8  2  0  0  0  0
  7 12  1  0  0  0  0
  8  9  1  0  0  0  0
  9 10  2  0  0  0  0
 10 11  1  0  0  0  0
 11 12  2  0  0  0  0
M  END
>  <CHROM.1>
-58.99448925,170.09403242,-58.09952414,-21.17515468,-10.22619229,95.40034943
-1.79941740,-0.00693304,-0.03058131

>  <Name>
ligand

>  <RI>
0

>  <Rbt.Current_Directory>
/home/itssahil/PROJECTS/Mol_Feturizer/Test_systems_manuscript/rnas/4nya

>  <Rbt.Executable>
rbdock ($Id: //depot/dev/client3/rdock/2013.1/src/exe/rbdock.cxx#4 $)

>  <Rbt.Library>
libRbt.so (2013.1, Build901 2013/11/27)

>  <Rbt.Parameter_File>
/export/apps/rDock/src/rDock_2013.1_src/data/scripts/dock_solv.prm

>  <Rbt.Receptor>
prm/blind_docking_100.prm

>  <SCORE>
-13.0225

>  <SCORE.INTER>
-13.2719

>  <SCORE.INTER.CONST>
1

>  <SCORE.INTER.POLAR>
0

>  <SCORE.INTER.ROT>
3

>  <SCORE.INTER.SOLV>
11.6594

>  <SCORE.INTER.VDW>
-18.3344

>  <SCORE.INTER.norm>
-1.106

>  <SCORE.INTRA>
0.249464

>  <SCORE.INTRA.DIHEDRAL>
-1.81651

>  <SCORE.INTRA.DIHEDRAL.0>
3.34563

>  <SCORE.INTRA.POLAR>
0

>  <SCORE.INTRA.POLAR.0>
0

>  <SCORE.INTRA.REPUL>
0

>  <SCORE.INTRA.REPUL.0>
0

>  <SCORE.INTRA.SOLV>
1.79032

>  <SCORE.INTRA.SOLV.lig_0>
-59.746

>  <SCORE.INTRA.VDW>
0.262559

>  <SCORE.INTRA.VDW.0>
-0.691186

>  <SCORE.INTRA.norm>
0.0207886

>  <SCORE.RESTR>
0

>  <SCORE.RESTR.CAVITY>
0

>  <SCORE.RESTR.norm>
0

>  <SCORE.SYSTEM>
0

>  <SCORE.SYSTEM.CONST>
0

>  <SCORE.SYSTEM.DIHEDRAL>
0

>  <SCORE.SYSTEM.SOLV>
0

>  <SCORE.SYSTEM.norm>
0

>  <SCORE.heavy>
12

>  <SCORE.norm>
-1.08521

>  <RMSD>
2.459

$$$$
ligand
 OpenBabel02271912143D
libRbt.so/2013.1/901 2013/11/27
 12 12  0  0  0  0  0  0  0  0999 V2000
  -20.7801  -11.7087   94.9863 C   0  0  0  0  0  0  0  0  0  0  0  0
  -20.5656   -6.2293   95.4422 C   0  0  0  0  0  0  0  0  0  0  0  0
  -23.0063  -10.2067   95.1320 N   0  0  0  0  0  0  0  0  0  0  0  0
  -21.6612  -12.3922   95.9440 N   0  0  0  0  0  0  0  0  0  0  0  0
  -21.9191  -13.4543   95.6946 N   0  0  0  0  0  0  0  0  0  0  0  0
  -22.1720  -14.5173   95.4458 N   0  0  0  0  0  0  0  0  0  0  0  0
  -19.4592   -8.3103   95.3057 N   0  0  0  0  0  0  0  0  0  0  0  0
  -20.6035   -7.6158   95.3560 C   0  0  0  0  0  0  0  0  0  0  0  0
  -21.7878   -8.2445   95.3918 N   0  0  0  0  0  0  0  0  0  0  0  0
  -21.8566   -9.5835   95.3661 C   0  0  0  0  0  0  0  0  0  0  0  0
  -20.7041  -10.3581   95.3035 C   0  0  0  0  0  0  0  0  0  0  0  0
  -19.4749   -9.7100   95.2842 C   0  0  0  0  0  0  0  0  0  0  0  0
  1 11  1  0  0  0  0
  1  4  1  0  0  0  0
  2  8  1  0  0  0  0
  3 10  1  0  0  0  0
  4  5  1  0  0  0  0
  5  6  1  0  0  0  0
  7  8  2  0  0  0  0
  7 12  1  0  0  0  0
  8  9  1  0  0  0  0
  9 10  2  0  0  0  0
 10 11  1  0  0  0  0
 11 12  2  0  0  0  0
M  END
>  <CHROM.1>
-57.40781430,171.14375458,64.17087857,-21.18705195,-10.21258134,95.39096302
-1.79914882,0.01771000,-0.02490057

>  <Name>
ligand

>  <RI>
0

>  <Rbt.Current_Directory>
/home/itssahil/PROJECTS/Mol_Feturizer/Test_systems_manuscript/rnas/4nya

>  <Rbt.Executable>
rbdock ($Id: //depot/dev/client3/rdock/2013.1/src/exe/rbdock.cxx#4 $)

>  <Rbt.Library>
libRbt.so (2013.1, Build901 2013/11/27)

>  <Rbt.Parameter_File>
/export/apps/rDock/src/rDock_2013.1_src/data/scripts/dock_solv.prm

>  <Rbt.Receptor>
prm/pocket_docking_5.prm

>  <SCORE>
-12.9902

>  <SCORE.INTER>
-13.2808

>  <SCORE.INTER.CONST>
1

>  <SCORE.INTER.POLAR>
0

>  <SCORE.INTER.ROT>
3

>  <SCORE.INTER.SOLV>
11.4146

>  <SCORE.INTER.VDW>
-18.2587

>  <SCORE.INTER.norm>
-1.10673

>  <SCORE.INTRA>
0.290527

>  <SCORE.INTRA.DIHEDRAL>
-1.87193

>  <SCORE.INTRA.DIHEDRAL.0>
3.34563

>  <SCORE.INTRA.POLAR>
0

>  <SCORE.INTRA.POLAR.0>
0

>  <SCORE.INTRA.REPUL>
0

>  <SCORE.INTRA.REPUL.0>
0

>  <SCORE.INTRA.SOLV>
1.83692

>  <SCORE.INTRA.SOLV.lig_0>
-59.746

>  <SCORE.INTRA.VDW>
0.308033

>  <SCORE.INTRA.VDW.0>
-0.691186

>  <SCORE.INTRA.norm>
0.0242106

>  <SCORE.RESTR>
0

>  <SCORE.RESTR.CAVITY>
0

>  <SCORE.RESTR.norm>
0

>  <SCORE.SYSTEM>
0

>  <SCORE.SYSTEM.CONST>
0

>  <SCORE.SYSTEM.DIHEDRAL>
0

>  <SCORE.SYSTEM.SOLV>
0

>  <SCORE.SYSTEM.norm>
0

>  <SCORE.heavy>
12

>  <SCORE.norm>
-1.08252

>  <RMSD>
2.459

$$$$
ligand
 OpenBabel02271912143D
libRbt.so/2013.1/901 2013/11/27
 12 12  0  0  0  0  0  0  0  0999 V2000
  -20.7572  -11.6565   95.0129 C   0  0  0  0  0  0  0  0  0  0  0  0
  -20.5803   -6.1740   95.4472 C   0  0  0  0  0  0  0  0  0  0  0  0
  -22.9937  -10.1662   95.1141 N   0  0  0  0  0  0  0  0  0  0  0  0
  -21.6151  -12.3484   95.9854 N   0  0  0  0  0  0  0  0  0  0  0  0
  -21.8913  -13.4034   95.7257 N   0  0  0  0  0  0  0  0  0  0  0  0
  -22.1692  -14.4565   95.4617 N   0  0  0  0  0  0  0  0  0  0  0  0
  -19.4604   -8.2495   95.3389 N   0  0  0  0  0  0  0  0  0  0  0  0
  -20.6092   -7.5611   95.3666 C   0  0  0  0  0  0  0  0  0  0  0  0
  -21.7905   -8.1961   95.3854 N   0  0  0  0  0  0  0  0  0  0  0  0
  -21.8516   -9.5356   95.3647 C   0  0  0  0  0  0  0  0  0  0  0  0
  -20.6940  -10.3041   95.3251 C   0  0  0  0  0  0  0  0  0  0  0  0
  -19.4682   -9.6493   95.3235 C   0  0  0  0  0  0  0  0  0  0  0  0
  1 11  1  0  0  0  0
  1  4  1  0  0  0  0
  2  8  1  0  0  0  0
  3 10  1  0  0  0  0
  4  5  1  0  0  0  0
  5  6  1  0  0  0  0
  7  8  2  0  0  0  0
  7 12  1  0  0  0  0
  8  9  1  0  0  0  0
  9 10  2  0  0  0  0
 10 11  1  0  0  0  0
 11 12  2  0  0  0  0
M  END
>  <CHROM.1>
-59.27402260,169.16541773,-55.26179396,-21.17782580,-10.16015669,95.40742310
-1.79461234,-0.00158487,-0.03170496

>  <Name>
ligand

>  <RI>
0

>  <Rbt.Current_Directory>
/home/itssahil/PROJECTS/Mol_Feturizer/Test_systems_manuscript/rnas/4nya

>  <Rbt.Executable>
rbdock ($Id: //depot/dev/client3/rdock/2013.1/src/exe/rbdock.cxx#4 $)

>  <Rbt.Library>
libRbt.so (2013.1, Build901 2013/11/27)

>  <Rbt.Parameter_File>
/export/apps/rDock/src/rDock_2013.1_src/data/scripts/dock_solv.prm

>  <Rbt.Receptor>
prm/pocket_docking_8.prm

>  <SCORE>
-13.0437

>  <SCORE.INTER>
-13.3124

>  <SCORE.INTER.CONST>
1

>  <SCORE.INTER.POLAR>
0

>  <SCORE.INTER.ROT>
3

>  <SCORE.INTER.SOLV>
11.645

>  <SCORE.INTER.VDW>
-18.3566

>  <SCORE.INTER.norm>
-1.10937

>  <SCORE.INTRA>
0.268661

>  <SCORE.INTRA.DIHEDRAL>
-1.78845

>  <SCORE.INTRA.DIHEDRAL.0>
3.34563

>  <SCORE.INTRA.POLAR>
0

>  <SCORE.INTRA.POLAR.0>
0

>  <SCORE.INTRA.REPUL>
0

>  <SCORE.INTRA.REPUL.0>
0

>  <SCORE.INTRA.SOLV>
1.81814

>  <SCORE.INTRA.SOLV.lig_0>
-59.746

>  <SCORE.INTRA.VDW>
0.253815

>  <SCORE.INTRA.VDW.0>
-0.691186

>  <SCORE.INTRA.norm>
0.0223884

>  <SCORE.RESTR>
0

>  <SCORE.RESTR.CAVITY>
0

>  <SCORE.RESTR.norm>
0

>  <SCORE.SYSTEM>
0

>  <SCORE.SYSTEM.CONST>
0

>  <SCORE.SYSTEM.DIHEDRAL>
0

>  <SCORE.SYSTEM.SOLV>
0

>  <SCORE.SYSTEM.norm>
0

>  <SCORE.heavy>
12

>  <SCORE.norm>
-1.08698

>  <RMSD>
2.459

$$$$
ligand
 OpenBabel02271912143D
libRbt.so/2013.1/901 2013/11/27
 12 12  0  0  0  0  0  0  0  0999 V2000
  -20.7615  -11.6611   95.0220 C   0  0  0  0  0  0  0  0  0  0  0  0
  -20.5915   -6.1778   95.4491 C   0  0  0  0  0  0  0  0  0  0  0  0
  -22.9999  -10.1737   95.1245 N   0  0  0  0  0  0  0  0  0  0  0  0
  -21.6346  -12.3491   95.9837 N   0  0  0  0  0  0  0  0  0  0  0  0
  -21.8909  -13.4115   95.7337 N   0  0  0  0  0  0  0  0  0  0  0  0
  -22.1499  -14.4738   95.4881 N   0  0  0  0  0  0  0  0  0  0  0  0
  -19.4689   -8.2519   95.3418 N   0  0  0  0  0  0  0  0  0  0  0  0
  -20.6185   -7.5650   95.3703 C   0  0  0  0  0  0  0  0  0  0  0  0
  -21.7989   -8.2017   95.3916 N   0  0  0  0  0  0  0  0  0  0  0  0
  -21.8583   -9.5412   95.3726 C   0  0  0  0  0  0  0  0  0  0  0  0
  -20.6997  -10.3082   95.3324 C   0  0  0  0  0  0  0  0  0  0  0  0
  -19.4748   -9.6518   95.3282 C   0  0  0  0  0  0  0  0  0  0  0  0
  1 11  1  0  0  0  0
  1  4  1  0  0  0  0
  2  8  1  0  0  0  0
  3 10  1  0  0  0  0
  4  5  1  0  0  0  0
  5  6  1  0  0  0  0
  7  8  2  0  0  0  0
  7 12  1  0  0  0  0
  8  9  1  0  0  0  0
  9 10  2  0  0  0  0
 10 11  1  0  0  0  0
 11 12  2  0  0  0  0
M  END
>  <CHROM.1>
-58.36019107,170.47200655,-179.78037805,-21.18332892,-10.16573822,95.41470217
-1.79222256,0.00106362,-0.03275021

>  <Name>
ligand

>  <RI>
0

>  <Rbt.Current_Directory>
/home/itssahil/PROJECTS/Mol_Feturizer/Test_systems_manuscript/rnas/4nya

>  <Rbt.Executable>
rbdock ($Id: //depot/dev/client3/rdock/2013.1/src/exe/rbdock.cxx#4 $)

>  <Rbt.Library>
libRbt.so (2013.1, Build901 2013/11/27)

>  <Rbt.Parameter_File>
/export/apps/rDock/src/rDock_2013.1_src/data/scripts/dock_solv.prm

>  <Rbt.Receptor>
prm/blind_docking_100.prm

>  <SCORE>
-13.052

>  <SCORE.INTER>
-13.313

>  <SCORE.INTER.CONST>
1

>  <SCORE.INTER.POLAR>
0

>  <SCORE.INTER.ROT>
3

>  <SCORE.INTER.SOLV>
11.712

>  <SCORE.INTER.VDW>
-18.3793

>  <SCORE.INTER.norm>
-1.10941

>  <SCORE.INTRA>
0.260917

>  <SCORE.INTRA.DIHEDRAL>
-1.84092

>  <SCORE.INTRA.DIHEDRAL.0>
3.34563

>  <SCORE.INTRA.POLAR>
0

>  <SCORE.INTRA.POLAR.0>
0

>  <SCORE.INTRA.REPUL>
0

>  <SCORE.INTRA.REPUL.0>
0

>  <SCORE.INTRA.SOLV>
1.80552

>  <SCORE.INTRA.SOLV.lig_0>
-59.746

>  <SCORE.INTRA.VDW>
0.278618

>  <SCORE.INTRA.VDW.0>
-0.691186

>  <SCORE.INTRA.norm>
0.0217431

>  <SCORE.RESTR>
0

>  <SCORE.RESTR.CAVITY>
0

>  <SCORE.RESTR.norm>
0

>  <SCORE.SYSTEM>
0

>  <SCORE.SYSTEM.CONST>
0

>  <SCORE.SYSTEM.DIHEDRAL>
0

>  <SCORE.SYSTEM.SOLV>
0

>  <SCORE.SYSTEM.norm>
0

>  <SCORE.heavy>
12

>  <SCORE.norm>
-1.08767

>  <RMSD>
2.461

$$$$
ligand
 OpenBabel02271912143D
libRbt.so/2013.1/901 2013/11/27
 12 12  0  0  0  0  0  0  0  0999 V2000
  -22.2489  -11.3436   95.4837 C   0  0  0  0  0  0  0  0  0  0  0  0
  -19.5405   -6.5644   95.1662 C   0  0  0  0  0  0  0  0  0  0  0  0
  -23.3032   -9.0487   96.4083 N   0  0  0  0  0  0  0  0  0  0  0  0
  -21.3781  -12.5276   95.4641 N   0  0  0  0  0  0  0  0  0  0  0  0
  -21.8868  -13.5013   95.2409 N   0  0  0  0  0  0  0  0  0  0  0  0
  -22.3983  -14.4741   95.0218 N   0  0  0  0  0  0  0  0  0  0  0  0
  -19.6142   -8.8960   94.8032 N   0  0  0  0  0  0  0  0  0  0  0  0
  -20.2001   -7.7835   95.2654 C   0  0  0  0  0  0  0  0  0  0  0  0
  -21.3886   -7.8394   95.8846 N   0  0  0  0  0  0  0  0  0  0  0  0
  -22.0258   -9.0083   96.0459 C   0  0  0  0  0  0  0  0  0  0  0  0
  -21.4731  -10.1949   95.5784 C   0  0  0  0  0  0  0  0  0  0  0  0
  -20.2335  -10.1426   94.9521 C   0  0  0  0  0  0  0  0  0  0  0  0
  1 11  1  0  0  0  0
  1  4  1  0  0  0  0
  2  8  1  0  0  0  0
  3 10  1  0  0  0  0
  4  5  1  0  0  0  0
  5  6  1  0  0  0  0
  7  8  2  0  0  0  0
  7 12  1  0  0  0  0
  8  9  1  0  0  0  0
  9 10  2  0  0  0  0
 10 11  1  0  0  0  0
 11 12  2  0  0  0  0
M  END
>  <CHROM.1>
-158.87627882,-171.48562033,-58.72261273,-21.31252528,-10.12893481,95.44025743
1.88143295,-0.40563578,-2.99098441

>  <Name>
ligand

>  <RI>
0

>  <Rbt.Current_Directory>
/home/itssahil/PROJECTS/Mol_Feturizer/Test_systems_manuscript/rnas/4nya

>  <Rbt.Executable>
rbdock ($Id: //depot/dev/client3/rdock/2013.1/src/exe/rbdock.cxx#4 $)

>  <Rbt.Library>
libRbt.so (2013.1, Build901 2013/11/27)

>  <Rbt.Parameter_File>
/export/apps/rDock/src/rDock_2013.1_src/data/scripts/dock_solv.prm

>  <Rbt.Receptor>
prm/pocket_docking_3.prm

>  <SCORE>
-13.7982

>  <SCORE.INTER>
-12.6568

>  <SCORE.INTER.CONST>
1

>  <SCORE.INTER.POLAR>
0

>  <SCORE.INTER.ROT>
3

>  <SCORE.INTER.SOLV>
9.51601

>  <SCORE.INTER.VDW>
-17.2099

>  <SCORE.INTER.norm>
-1.05473

>  <SCORE.INTRA>
-1.14303

>  <SCORE.INTRA.DIHEDRAL>
-2.18596

>  <SCORE.INTRA.DIHEDRAL.0>
3.34563

>  <SCORE.INTRA.POLAR>
0

>  <SCORE.INTRA.POLAR.0>
0

>  <SCORE.INTRA.REPUL>
0

>  <SCORE.INTRA.REPUL.0>
0

>  <SCORE.INTRA.SOLV>
-1.28169

>  <SCORE.INTRA.SOLV.lig_0>
-59.746

>  <SCORE.INTRA.VDW>
0.590791

>  <SCORE.INTRA.VDW.0>
-0.691186

>  <SCORE.INTRA.norm>
-0.0952529

>  <SCORE.RESTR>
0.00165722

>  <SCORE.RESTR.CAVITY>
0.00165722

>  <SCORE.RESTR.norm>
0.000138102

>  <SCORE.SYSTEM>
0

>  <SCORE.SYSTEM.CONST>
0

>  <SCORE.SYSTEM.DIHEDRAL>
0

>  <SCORE.SYSTEM.SOLV>
0

>  <SCORE.SYSTEM.norm>
0

>  <SCORE.heavy>
12

>  <SCORE.norm>
-1.14985

>  <RMSD>
2.461

$$$$
ligand
 OpenBabel02271912143D
libRbt.so/2013.1/901 2013/11/27
 12 12  0  0  0  0  0  0  0  0999 V2000
  -22.2244  -11.3018   95.3270 C   0  0  0  0  0  0  0  0  0  0  0  0
  -19.4967   -6.5233   95.2662 C   0  0  0  0  0  0  0  0  0  0  0  0
  -23.2936   -9.0425   96.3197 N   0  0  0  0  0  0  0  0  0  0  0  0
  -21.3814  -12.4971   95.4723 N   0  0  0  0  0  0  0  0  0  0  0  0
  -21.8903  -13.4771   95.2791 N   0  0  0  0  0  0  0  0  0  0  0  0
  -22.3998  -14.4554   95.0811 N   0  0  0  0  0  0  0  0  0  0  0  0
  -19.5682   -8.8380   94.8071 N   0  0  0  0  0  0  0  0  0  0  0  0
  -20.1616   -7.7431   95.3006 C   0  0  0  0  0  0  0  0  0  0  0  0
  -21.3642   -7.8198   95.8896 N   0  0  0  0  0  0  0  0  0  0  0  0
  -22.0080   -8.9920   95.9886 C   0  0  0  0  0  0  0  0  0  0  0  0
  -21.4478  -10.1607   95.4860 C   0  0  0  0  0  0  0  0  0  0  0  0
  -20.1940  -10.0874   94.8910 C   0  0  0  0  0  0  0  0  0  0  0  0
  1 11  1  0  0  0  0
  1  4  1  0  0  0  0
  2  8  1  0  0  0  0
  3 10  1  0  0  0  0
  4  5  1  0  0  0  0
  5  6  1  0  0  0  0
  7  8  2  0  0  0  0
  7 12  1  0  0  0  0
  8  9  1  0  0  0  0
  9 10  2  0  0  0  0
 10 11  1  0  0  0  0
 11 12  2  0  0  0  0
M  END
>  <CHROM.1>
-150.80196696,-175.17875775,62.96563322,-21.29102268,-10.09690967,95.42510790
1.88650422,-0.37378504,-2.99651355

>  <Name>
ligand

>  <RI>
0

>  <Rbt.Current_Directory>
/home/itssahil/PROJECTS/Mol_Feturizer/Test_systems_manuscript/rnas/4nya

>  <Rbt.Executable>
rbdock ($Id: //depot/dev/client3/rdock/2013.1/src/exe/rbdock.cxx#4 $)

>  <Rbt.Library>
libRbt.so (2013.1, Build901 2013/11/27)

>  <Rbt.Parameter_File>
/export/apps/rDock/src/rDock_2013.1_src/data/scripts/dock_solv.prm

>  <Rbt.Receptor>
prm/pocket_docking_3.prm

>  <SCORE>
-13.7451

>  <SCORE.INTER>
-12.4978

>  <SCORE.INTER.CONST>
1

>  <SCORE.INTER.POLAR>
0

>  <SCORE.INTER.ROT>
3

>  <SCORE.INTER.SOLV>
9.56487

>  <SCORE.INTER.VDW>
-17.1202

>  <SCORE.INTER.norm>
-1.04149

>  <SCORE.INTRA>
-1.24742

>  <SCORE.INTRA.DIHEDRAL>
-2.19896

>  <SCORE.INTRA.DIHEDRAL.0>
3.34563

>  <SCORE.INTRA.POLAR>
0

>  <SCORE.INTRA.POLAR.0>
0

>  <SCORE.INTRA.REPUL>
0

>  <SCORE.INTRA.REPUL.0>
0

>  <SCORE.INTRA.SOLV>
-1.24968

>  <SCORE.INTRA.SOLV.lig_0>
-59.746

>  <SCORE.INTRA.VDW>
0.476902

>  <SCORE.INTRA.VDW.0>
-0.691186

>  <SCORE.INTRA.norm>
-0.103952

>  <SCORE.RESTR>
0.000174712

>  <SCORE.RESTR.CAVITY>
0.000174712

>  <SCORE.RESTR.norm>
1.45593e-05

>  <SCORE.SYSTEM>
0

>  <SCORE.SYSTEM.CONST>
0

>  <SCORE.SYSTEM.DIHEDRAL>
0

>  <SCORE.SYSTEM.SOLV>
0

>  <SCORE.SYSTEM.norm>
0

>  <SCORE.heavy>
12

>  <SCORE.norm>
-1.14542

>  <RMSD>
2.464

$$$$
ligand
 OpenBabel02271912143D
libRbt.so/2013.1/901 2013/11/27
 12 12  0  0  0  0  0  0  0  0999 V2000
  -22.2298  -11.2779   95.3295 C   0  0  0  0  0  0  0  0  0  0  0  0
  -19.5452   -6.4749   95.2808 C   0  0  0  0  0  0  0  0  0  0  0  0
  -23.3187   -9.0312   96.3293 N   0  0  0  0  0  0  0  0  0  0  0  0
  -21.3853  -12.4662   95.5169 N   0  0  0  0  0  0  0  0  0  0  0  0
  -21.8922  -13.4530   95.3555 N   0  0  0  0  0  0  0  0  0  0  0  0
  -22.4002  -14.4381   95.1893 N   0  0  0  0  0  0  0  0  0  0  0  0
  -19.5962   -8.7888   94.8152 N   0  0  0  0  0  0  0  0  0  0  0  0
  -20.1991   -7.7008   95.3121 C   0  0  0  0  0  0  0  0  0  0  0  0
  -21.4006   -7.7899   95.9017 N   0  0  0  0  0  0  0  0  0  0  0  0
  -22.0338   -8.9681   95.9976 C   0  0  0  0  0  0  0  0  0  0  0  0
  -21.4634  -10.1303   95.4914 C   0  0  0  0  0  0  0  0  0  0  0  0
  -20.2107  -10.0441   94.8958 C   0  0  0  0  0  0  0  0  0  0  0  0
  1 11  1  0  0  0  0
  1  4  1  0  0  0  0
  2  8  1  0  0  0  0
  3 10  1  0  0  0  0
  4  5  1  0  0  0  0
  5  6  1  0  0  0  0
  7  8  2  0  0  0  0
  7 12  1  0  0  0  0
  8  9  1  0  0  0  0
  9 10  2  0  0  0  0
 10 11  1  0  0  0  0
 11 12  2  0  0  0  0
M  END
>  <CHROM.1>
-148.85760014,-176.93669579,57.42947691,-21.31145512,-10.06573526,95.45150546
1.88075459,-0.37359671,-3.01017100

>  <Name>
ligand

>  <RI>
0

>  <Rbt.Current_Directory>
/home/itssahil/PROJECTS/Mol_Feturizer/Test_systems_manuscript/rnas/4nya

>  <Rbt.Executable>
rbdock ($Id: //depot/dev/client3/rdock/2013.1/src/exe/rbdock.cxx#4 $)

>  <Rbt.Library>
libRbt.so (2013.1, Build901 2013/11/27)

>  <Rbt.Parameter_File>
/export/apps/rDock/src/rDock_2013.1_src/data/scripts/dock_solv.prm

>  <Rbt.Receptor>
prm/pocket_docking_3.prm

>  <SCORE>
-13.6871

>  <SCORE.INTER>
-12.4206

>  <SCORE.INTER.CONST>
1

>  <SCORE.INTER.POLAR>
0

>  <SCORE.INTER.ROT>
3

>  <SCORE.INTER.SOLV>
9.82165

>  <SCORE.INTER.VDW>
-17.1543

>  <SCORE.INTER.norm>
-1.03505

>  <SCORE.INTRA>
-1.26652

>  <SCORE.INTRA.DIHEDRAL>
-2.18979

>  <SCORE.INTRA.DIHEDRAL.0>
3.34563

>  <SCORE.INTRA.POLAR>
0

>  <SCORE.INTRA.POLAR.0>
0

>  <SCORE.INTRA.REPUL>
0

>  <SCORE.INTRA.REPUL.0>
0

>  <SCORE.INTRA.SOLV>
-1.24113

>  <SCORE.INTRA.SOLV.lig_0>
-59.746

>  <SCORE.INTRA.VDW>
0.448944

>  <SCORE.INTRA.VDW.0>
-0.691186

>  <SCORE.INTRA.norm>
-0.105543

>  <SCORE.RESTR>
0

>  <SCORE.RESTR.CAVITY>
0

>  <SCORE.RESTR.norm>
0

>  <SCORE.SYSTEM>
0

>  <SCORE.SYSTEM.CONST>
0

>  <SCORE.SYSTEM.DIHEDRAL>
0

>  <SCORE.SYSTEM.SOLV>
0

>  <SCORE.SYSTEM.norm>
0

>  <SCORE.heavy>
12

>  <SCORE.norm>
-1.14059

>  <RMSD>
2.465

$$$$
ligand
 OpenBabel02271912143D
libRbt.so/2013.1/901 2013/11/27
 12 12  0  0  0  0  0  0  0  0999 V2000
  -22.1969  -11.2681   95.2919 C   0  0  0  0  0  0  0  0  0  0  0  0
  -19.5052   -6.4689   95.2986 C   0  0  0  0  0  0  0  0  0  0  0  0
  -23.2961   -9.0238   96.2858 N   0  0  0  0  0  0  0  0  0  0  0  0
  -21.3676  -12.4580   95.5304 N   0  0  0  0  0  0  0  0  0  0  0  0
  -21.8857  -13.4443   95.4060 N   0  0  0  0  0  0  0  0  0  0  0  0
  -22.3994  -14.4327   95.2830 N   0  0  0  0  0  0  0  0  0  0  0  0
  -19.5531   -8.7809   94.8231 N   0  0  0  0  0  0  0  0  0  0  0  0
  -20.1612   -7.6939   95.3162 C   0  0  0  0  0  0  0  0  0  0  0  0
  -21.3707   -7.7836   95.8890 N   0  0  0  0  0  0  0  0  0  0  0  0
  -22.0068   -8.9613   95.9718 C   0  0  0  0  0  0  0  0  0  0  0  0
  -21.4312  -10.1223   95.4687 C   0  0  0  0  0  0  0  0  0  0  0  0
  -20.1705  -10.0355   94.8904 C   0  0  0  0  0  0  0  0  0  0  0  0
  1 11  1  0  0  0  0
  1  4  1  0  0  0  0
  2  8  1  0  0  0  0
  3 10  1  0  0  0  0
  4  5  1  0  0  0  0
  5  6  1  0  0  0  0
  7  8  2  0  0  0  0
  7 12  1  0  0  0  0
  8  9  1  0  0  0  0
  9 10  2  0  0  0  0
 10 11  1  0  0  0  0
 11 12  2  0  0  0  0
M  END
>  <CHROM.1>
-146.96539251,-179.50929361,-176.85413316,-21.28414543,-10.05823467,95.45568755
1.88519678,-0.35813811,-3.02174709

>  <Name>
ligand

>  <RI>
0

>  <Rbt.Current_Directory>
/home/itssahil/PROJECTS/Mol_Feturizer/Test_systems_manuscript/rnas/4nya

>  <Rbt.Executable>
rbdock ($Id: //depot/dev/client3/rdock/2013.1/src/exe/rbdock.cxx#4 $)

>  <Rbt.Library>
libRbt.so (2013.1, Build901 2013/11/27)

>  <Rbt.Parameter_File>
/export/apps/rDock/src/rDock_2013.1_src/data/scripts/dock_solv.prm

>  <Rbt.Receptor>
prm/pocket_docking_3.prm

>  <SCORE>
-13.7858

>  <SCORE.INTER>
-12.5046

>  <SCORE.INTER.CONST>
1

>  <SCORE.INTER.POLAR>
0

>  <SCORE.INTER.ROT>
3

>  <SCORE.INTER.SOLV>
10.1614

>  <SCORE.INTER.VDW>
-17.3236

>  <SCORE.INTER.norm>
-1.04205

>  <SCORE.INTRA>
-1.28177

>  <SCORE.INTRA.DIHEDRAL>
-2.17057

>  <SCORE.INTRA.DIHEDRAL.0>
3.34563

>  <SCORE.INTRA.POLAR>
0

>  <SCORE.INTRA.POLAR.0>
0

>  <SCORE.INTRA.REPUL>
0

>  <SCORE.INTRA.REPUL.0>
0

>  <SCORE.INTRA.SOLV>
-1.2368

>  <SCORE.INTRA.SOLV.lig_0>
-59.746

>  <SCORE.INTRA.VDW>
0.421924

>  <SCORE.INTRA.VDW.0>
-0.691186

>  <SCORE.INTRA.norm>
-0.106814

>  <SCORE.RESTR>
0.000649597

>  <SCORE.RESTR.CAVITY>
0.000649597

>  <SCORE.RESTR.norm>
5.41331e-05

>  <SCORE.SYSTEM>
0

>  <SCORE.SYSTEM.CONST>
0

>  <SCORE.SYSTEM.DIHEDRAL>
0

>  <SCORE.SYSTEM.SOLV>
0

>  <SCORE.SYSTEM.norm>
0

>  <SCORE.heavy>
12

>  <SCORE.norm>
-1.14881

>  <RMSD>
2.467

$$$$
ligand
 OpenBabel02271912143D
libRbt.so/2013.1/901 2013/11/27
 12 12  0  0  0  0  0  0  0  0999 V2000
  -22.2551  -11.3410   95.3012 C   0  0  0  0  0  0  0  0  0  0  0  0
  -19.5285   -6.5629   95.1864 C   0  0  0  0  0  0  0  0  0  0  0  0
  -23.3614   -9.0522   96.1789 N   0  0  0  0  0  0  0  0  0  0  0  0
  -21.4213  -12.5293   95.5320 N   0  0  0  0  0  0  0  0  0  0  0  0
  -21.9090  -13.5149   95.3145 N   0  0  0  0  0  0  0  0  0  0  0  0
  -22.4004  -14.4991   95.1002 N   0  0  0  0  0  0  0  0  0  0  0  0
  -19.5821   -8.8914   94.8008 N   0  0  0  0  0  0  0  0  0  0  0  0
  -20.1939   -7.7820   95.2357 C   0  0  0  0  0  0  0  0  0  0  0  0
  -21.4177   -7.8412   95.7816 N   0  0  0  0  0  0  0  0  0  0  0  0
  -22.0644   -9.0106   95.8946 C   0  0  0  0  0  0  0  0  0  0  0  0
  -21.4854  -10.1941   95.4518 C   0  0  0  0  0  0  0  0  0  0  0  0
  -20.2103  -10.1384   94.9020 C   0  0  0  0  0  0  0  0  0  0  0  0
  1 11  1  0  0  0  0
  1  4  1  0  0  0  0
  2  8  1  0  0  0  0
  3 10  1  0  0  0  0
  4  5  1  0  0  0  0
  5  6  1  0  0  0  0
  7  8  2  0  0  0  0
  7 12  1  0  0  0  0
  8  9  1  0  0  0  0
  9 10  2  0  0  0  0
 10 11  1  0  0  0  0
 11 12  2  0  0  0  0
M  END
>  <CHROM.1>
-150.15622813,-172.84750983,-55.21405910,-21.32419801,-10.13181289,95.38959502
1.87836480,-0.33733572,-3.02758940

>  <Name>
ligand

>  <RI>
0

>  <Rbt.Current_Directory>
/home/itssahil/PROJECTS/Mol_Feturizer/Test_systems_manuscript/rnas/4nya

>  <Rbt.Executable>
rbdock ($Id: //depot/dev/client3/rdock/2013.1/src/exe/rbdock.cxx#4 $)

>  <Rbt.Library>
libRbt.so (2013.1, Build901 2013/11/27)

>  <Rbt.Parameter_File>
/export/apps/rDock/src/rDock_2013.1_src/data/scripts/dock_solv.prm

>  <Rbt.Receptor>
prm/pocket_docking_3.prm

>  <SCORE>
-13.6323

>  <SCORE.INTER>
-12.3958

>  <SCORE.INTER.CONST>
1

>  <SCORE.INTER.POLAR>
0

>  <SCORE.INTER.ROT>
3

>  <SCORE.INTER.SOLV>
9.76907

>  <SCORE.INTER.VDW>
-17.1202

>  <SCORE.INTER.norm>
-1.03298

>  <SCORE.INTRA>
-1.23649

>  <SCORE.INTRA.DIHEDRAL>
-2.16618

>  <SCORE.INTRA.DIHEDRAL.0>
3.34563

>  <SCORE.INTRA.POLAR>
0

>  <SCORE.INTRA.POLAR.0>
0

>  <SCORE.INTRA.REPUL>
0

>  <SCORE.INTRA.REPUL.0>
0

>  <SCORE.INTRA.SOLV>
-1.23965

>  <SCORE.INTRA.SOLV.lig_0>
-59.746

>  <SCORE.INTRA.VDW>
0.466426

>  <SCORE.INTRA.VDW.0>
-0.691186

>  <SCORE.INTRA.norm>
-0.103041

>  <SCORE.RESTR>
0

>  <SCORE.RESTR.CAVITY>
0

>  <SCORE.RESTR.norm>
0

>  <SCORE.SYSTEM>
0

>  <SCORE.SYSTEM.CONST>
0

>  <SCORE.SYSTEM.DIHEDRAL>
0

>  <SCORE.SYSTEM.SOLV>
0

>  <SCORE.SYSTEM.norm>
0

>  <SCORE.heavy>
12

>  <SCORE.norm>
-1.13602

>  <RMSD>
2.472

$$$$
ligand
 OpenBabel02271912143D
libRbt.so/2013.1/901 2013/11/27
 12 12  0  0  0  0  0  0  0  0999 V2000
  -20.8878  -11.9229   94.9188 C   0  0  0  0  0  0  0  0  0  0  0  0
  -20.4957   -6.4743   95.5796 C   0  0  0  0  0  0  0  0  0  0  0  0
  -23.0628  -10.3640   95.1878 N   0  0  0  0  0  0  0  0  0  0  0  0
  -21.6215  -12.6548   95.9612 N   0  0  0  0  0  0  0  0  0  0  0  0
  -21.8582  -13.7255   95.7281 N   0  0  0  0  0  0  0  0  0  0  0  0
  -22.0973  -14.7963   95.4995 N   0  0  0  0  0  0  0  0  0  0  0  0
  -19.4567   -8.5795   95.3303 N   0  0  0  0  0  0  0  0  0  0  0  0
  -20.5777   -7.8546   95.4410 C   0  0  0  0  0  0  0  0  0  0  0  0
  -21.7789   -8.4497   95.4873 N   0  0  0  0  0  0  0  0  0  0  0  0
  -21.8887   -9.7841   95.4119 C   0  0  0  0  0  0  0  0  0  0  0  0
  -20.7623  -10.5887   95.2856 C   0  0  0  0  0  0  0  0  0  0  0  0
  -19.5152   -9.9762   95.2551 C   0  0  0  0  0  0  0  0  0  0  0  0
  1 11  1  0  0  0  0
  1  4  1  0  0  0  0
  2  8  1  0  0  0  0
  3 10  1  0  0  0  0
  4  5  1  0  0  0  0
  5  6  1  0  0  0  0
  7  8  2  0  0  0  0
  7 12  1  0  0  0  0
  8  9  1  0  0  0  0
  9 10  2  0  0  0  0
 10 11  1  0  0  0  0
 11 12  2  0  0  0  0
M  END
>  <CHROM.1>
-64.39468476,174.94708593,-176.39113902,-21.18641960,-10.44941559,95.42850746
-1.79230798,0.03831633,-0.01030604

>  <Name>
ligand

>  <RI>
0

>  <Rbt.Current_Directory>
/home/itssahil/PROJECTS/Mol_Feturizer/Test_systems_manuscript/rnas/4nya

>  <Rbt.Executable>
rbdock ($Id: //depot/dev/client3/rdock/2013.1/src/exe/rbdock.cxx#4 $)

>  <Rbt.Library>
libRbt.so (2013.1, Build901 2013/11/27)

>  <Rbt.Parameter_File>
/export/apps/rDock/src/rDock_2013.1_src/data/scripts/dock_solv.prm

>  <Rbt.Receptor>
prm/blind_docking_100.prm

>  <SCORE>
-12.8323

>  <SCORE.INTER>
-12.8591

>  <SCORE.INTER.CONST>
1

>  <SCORE.INTER.POLAR>
0

>  <SCORE.INTER.ROT>
3

>  <SCORE.INTER.SOLV>
11.8172

>  <SCORE.INTER.VDW>
-18.1118

>  <SCORE.INTER.norm>
-1.07159

>  <SCORE.INTRA>
0.0268357

>  <SCORE.INTRA.DIHEDRAL>
-1.71345

>  <SCORE.INTRA.DIHEDRAL.0>
3.34563

>  <SCORE.INTRA.POLAR>
0

>  <SCORE.INTRA.POLAR.0>
0

>  <SCORE.INTRA.REPUL>
0

>  <SCORE.INTRA.REPUL.0>
0

>  <SCORE.INTRA.SOLV>
1.43755

>  <SCORE.INTRA.SOLV.lig_0>
-59.746

>  <SCORE.INTRA.VDW>
0.16479

>  <SCORE.INTRA.VDW.0>
-0.691186

>  <SCORE.INTRA.norm>
0.00223631

>  <SCORE.RESTR>
0

>  <SCORE.RESTR.CAVITY>
0

>  <SCORE.RESTR.norm>
0

>  <SCORE.SYSTEM>
0

>  <SCORE.SYSTEM.CONST>
0

>  <SCORE.SYSTEM.DIHEDRAL>
0

>  <SCORE.SYSTEM.SOLV>
0

>  <SCORE.SYSTEM.norm>
0

>  <SCORE.heavy>
12

>  <SCORE.norm>
-1.06936

>  <RMSD>
2.513

$$$$
ligand
 OpenBabel02271912143D
libRbt.so/2013.1/901 2013/11/27
 12 12  0  0  0  0  0  0  0  0999 V2000
  -21.4932  -12.6551   95.7060 C   0  0  0  0  0  0  0  0  0  0  0  0
  -19.9918   -7.3799   95.2640 C   0  0  0  0  0  0  0  0  0  0  0  0
  -23.2217  -10.6436   96.1520 N   0  0  0  0  0  0  0  0  0  0  0  0
  -21.6501  -13.0362   94.2951 N   0  0  0  0  0  0  0  0  0  0  0  0
  -22.1934  -13.9991   94.1093 N   0  0  0  0  0  0  0  0  0  0  0  0
  -22.7409  -14.9594   93.9248 N   0  0  0  0  0  0  0  0  0  0  0  0
  -19.4367   -9.6730   95.1824 N   0  0  0  0  0  0  0  0  0  0  0  0
  -20.3485   -8.7161   95.3998 C   0  0  0  0  0  0  0  0  0  0  0  0
  -21.5861   -9.0274   95.8128 N   0  0  0  0  0  0  0  0  0  0  0  0
  -21.9454  -10.3047   96.0069 C   0  0  0  0  0  0  0  0  0  0  0  0
  -21.0465  -11.3420   95.7879 C   0  0  0  0  0  0  0  0  0  0  0  0
  -19.7581  -11.0216   95.3770 C   0  0  0  0  0  0  0  0  0  0  0  0
  1 11  1  0  0  0  0
  1  4  1  0  0  0  0
  2  8  1  0  0  0  0
  3 10  1  0  0  0  0
  4  5  1  0  0  0  0
  5  6  1  0  0  0  0
  7  8  2  0  0  0  0
  7 12  1  0  0  0  0
  8  9  1  0  0  0  0
  9 10  2  0  0  0  0
 10 11  1  0  0  0  0
 11 12  2  0  0  0  0
M  END
>  <CHROM.1>
97.46374988,-168.46756364,73.63754560,-21.30140607,-11.07539882,95.23223374
-1.92041002,0.32383104,0.32087613

>  <Name>
ligand

>  <RI>
0

>  <Rbt.Current_Directory>
/home/itssahil/PROJECTS/Mol_Feturizer/Test_systems_manuscript/rnas/4nya

>  <Rbt.Executable>
rbdock ($Id: //depot/dev/client3/rdock/2013.1/src/exe/rbdock.cxx#4 $)

>  <Rbt.Library>
libRbt.so (2013.1, Build901 2013/11/27)

>  <Rbt.Parameter_File>
/export/apps/rDock/src/rDock_2013.1_src/data/scripts/dock_solv.prm

>  <Rbt.Receptor>
prm/pocket_docking_4.prm

>  <SCORE>
-12.3718

>  <SCORE.INTER>
-11.5135

>  <SCORE.INTER.CONST>
1

>  <SCORE.INTER.POLAR>
0

>  <SCORE.INTER.ROT>
3

>  <SCORE.INTER.SOLV>
7.69846

>  <SCORE.INTER.VDW>
-15.8418

>  <SCORE.INTER.norm>
-0.959456

>  <SCORE.INTRA>
-0.858318

>  <SCORE.INTRA.DIHEDRAL>
-1.93913

>  <SCORE.INTRA.DIHEDRAL.0>
3.34563

>  <SCORE.INTRA.POLAR>
0

>  <SCORE.INTRA.POLAR.0>
0

>  <SCORE.INTRA.REPUL>
0

>  <SCORE.INTRA.REPUL.0>
0

>  <SCORE.INTRA.SOLV>
0.0590689

>  <SCORE.INTRA.SOLV.lig_0>
-59.746

>  <SCORE.INTRA.VDW>
0.0817143

>  <SCORE.INTRA.VDW.0>
-0.691186

>  <SCORE.INTRA.norm>
-0.0715265

>  <SCORE.RESTR>
0

>  <SCORE.RESTR.CAVITY>
0

>  <SCORE.RESTR.norm>
0

>  <SCORE.SYSTEM>
0

>  <SCORE.SYSTEM.CONST>
0

>  <SCORE.SYSTEM.DIHEDRAL>
0

>  <SCORE.SYSTEM.SOLV>
0

>  <SCORE.SYSTEM.norm>
0

>  <SCORE.heavy>
12

>  <SCORE.norm>
-1.03098

>  <RMSD>
2.570

$$$$
ligand
 OpenBabel02271912143D
libRbt.so/2013.1/901 2013/11/27
 12 12  0  0  0  0  0  0  0  0999 V2000
  -21.4396  -11.5709   95.0072 C   0  0  0  0  0  0  0  0  0  0  0  0
  -20.0204   -6.2689   95.3967 C   0  0  0  0  0  0  0  0  0  0  0  0
  -23.1578   -9.7014   95.8937 N   0  0  0  0  0  0  0  0  0  0  0  0
  -20.9232  -12.5008   96.0217 N   0  0  0  0  0  0  0  0  0  0  0  0
  -21.2919  -13.5567   95.9456 N   0  0  0  0  0  0  0  0  0  0  0  0
  -21.6580  -14.6129   95.8652 N   0  0  0  0  0  0  0  0  0  0  0  0
  -19.4484   -8.5022   94.8882 N   0  0  0  0  0  0  0  0  0  0  0  0
  -20.3548   -7.6155   95.3202 C   0  0  0  0  0  0  0  0  0  0  0  0
  -21.5619   -8.0181   95.7444 N   0  0  0  0  0  0  0  0  0  0  0  0
  -21.8961   -9.3168   95.7355 C   0  0  0  0  0  0  0  0  0  0  0  0
  -21.0018  -10.2827   95.2887 C   0  0  0  0  0  0  0  0  0  0  0  0
  -19.7440   -9.8704   94.8652 C   0  0  0  0  0  0  0  0  0  0  0  0
  1 11  1  0  0  0  0
  1  4  1  0  0  0  0
  2  8  1  0  0  0  0
  3 10  1  0  0  0  0
  4  5  1  0  0  0  0
  5  6  1  0  0  0  0
  7  8  2  0  0  0  0
  7 12  1  0  0  0  0
  8  9  1  0  0  0  0
  9 10  2  0  0  0  0
 10 11  1  0  0  0  0
 11 12  2  0  0  0  0
M  END
>  <CHROM.1>
-109.68402014,174.64886485,66.59063634,-21.04950238,-10.17044869,95.50665923
-1.74515160,0.25951081,-0.03138424

>  <Name>
ligand

>  <RI>
0

>  <Rbt.Current_Directory>
/home/itssahil/PROJECTS/Mol_Feturizer/Test_systems_manuscript/rnas/4nya

>  <Rbt.Executable>
rbdock ($Id: //depot/dev/client3/rdock/2013.1/src/exe/rbdock.cxx#4 $)

>  <Rbt.Library>
libRbt.so (2013.1, Build901 2013/11/27)

>  <Rbt.Parameter_File>
/export/apps/rDock/src/rDock_2013.1_src/data/scripts/dock_solv.prm

>  <Rbt.Receptor>
prm/pocket_docking_7.prm

>  <SCORE>
-13.0328

>  <SCORE.INTER>
-12.2711

>  <SCORE.INTER.CONST>
1

>  <SCORE.INTER.POLAR>
0

>  <SCORE.INTER.ROT>
3

>  <SCORE.INTER.SOLV>
13.9661

>  <SCORE.INTER.VDW>
-18.4361

>  <SCORE.INTER.norm>
-1.02259

>  <SCORE.INTRA>
-0.761678

>  <SCORE.INTRA.DIHEDRAL>
-1.17578

>  <SCORE.INTRA.DIHEDRAL.0>
3.34563

>  <SCORE.INTRA.POLAR>
0

>  <SCORE.INTRA.POLAR.0>
0

>  <SCORE.INTRA.REPUL>
0

>  <SCORE.INTRA.REPUL.0>
0

>  <SCORE.INTRA.SOLV>
-0.575838

>  <SCORE.INTRA.SOLV.lig_0>
-59.746

>  <SCORE.INTRA.VDW>
0.114134

>  <SCORE.INTRA.VDW.0>
-0.691186

>  <SCORE.INTRA.norm>
-0.0634731

>  <SCORE.RESTR>
0

>  <SCORE.RESTR.CAVITY>
0

>  <SCORE.RESTR.norm>
0

>  <SCORE.SYSTEM>
0

>  <SCORE.SYSTEM.CONST>
0

>  <SCORE.SYSTEM.DIHEDRAL>
0

>  <SCORE.SYSTEM.SOLV>
0

>  <SCORE.SYSTEM.norm>
0

>  <SCORE.heavy>
12

>  <SCORE.norm>
-1.08607

>  <RMSD>
2.642

$$$$
ligand
 OpenBabel02271912143D
libRbt.so/2013.1/901 2013/11/27
 12 12  0  0  0  0  0  0  0  0999 V2000
  -21.4451  -11.5781   94.9611 C   0  0  0  0  0  0  0  0  0  0  0  0
  -20.0045   -6.2822   95.3554 C   0  0  0  0  0  0  0  0  0  0  0  0
  -23.1538   -9.7035   95.8549 N   0  0  0  0  0  0  0  0  0  0  0  0
  -20.9052  -12.5162   95.9555 N   0  0  0  0  0  0  0  0  0  0  0  0
  -21.2913  -13.5668   95.8924 N   0  0  0  0  0  0  0  0  0  0  0  0
  -21.6752  -14.6181   95.8338 N   0  0  0  0  0  0  0  0  0  0  0  0
  -19.4425   -8.5169   94.8418 N   0  0  0  0  0  0  0  0  0  0  0  0
  -20.3444   -7.6274   95.2775 C   0  0  0  0  0  0  0  0  0  0  0  0
  -21.5519   -8.0261   95.7042 N   0  0  0  0  0  0  0  0  0  0  0  0
  -21.8910   -9.3235   95.6941 C   0  0  0  0  0  0  0  0  0  0  0  0
  -21.0016  -10.2920   95.2435 C   0  0  0  0  0  0  0  0  0  0  0  0
  -19.7433   -9.8839   94.8174 C   0  0  0  0  0  0  0  0  0  0  0  0
  1 11  1  0  0  0  0
  1  4  1  0  0  0  0
  2  8  1  0  0  0  0
  3 10  1  0  0  0  0
  4  5  1  0  0  0  0
  5  6  1  0  0  0  0
  7  8  2  0  0  0  0
  7 12  1  0  0  0  0
  8  9  1  0  0  0  0
  9 10  2  0  0  0  0
 10 11  1  0  0  0  0
 11 12  2  0  0  0  0
M  END
>  <CHROM.1>
-110.93589287,173.41065745,-168.90132513,-21.04543784,-10.18022919,95.46160751
-1.74758783,0.26096636,-0.02982463

>  <Name>
ligand

>  <RI>
0

>  <Rbt.Current_Directory>
/home/itssahil/PROJECTS/Mol_Feturizer/Test_systems_manuscript/rnas/4nya

>  <Rbt.Executable>
rbdock ($Id: //depot/dev/client3/rdock/2013.1/src/exe/rbdock.cxx#4 $)

>  <Rbt.Library>
libRbt.so (2013.1, Build901 2013/11/27)

>  <Rbt.Parameter_File>
/export/apps/rDock/src/rDock_2013.1_src/data/scripts/dock_solv.prm

>  <Rbt.Receptor>
prm/pocket_docking_7.prm

>  <SCORE>
-13.0348

>  <SCORE.INTER>
-12.2622

>  <SCORE.INTER.CONST>
1

>  <SCORE.INTER.POLAR>
0

>  <SCORE.INTER.ROT>
3

>  <SCORE.INTER.SOLV>
13.7554

>  <SCORE.INTER.VDW>
-18.36

>  <SCORE.INTER.norm>
-1.02185

>  <SCORE.INTRA>
-0.772565

>  <SCORE.INTRA.DIHEDRAL>
-1.16766

>  <SCORE.INTRA.DIHEDRAL.0>
3.34563

>  <SCORE.INTRA.POLAR>
0

>  <SCORE.INTRA.POLAR.0>
0

>  <SCORE.INTRA.REPUL>
0

>  <SCORE.INTRA.REPUL.0>
0

>  <SCORE.INTRA.SOLV>
-0.610932

>  <SCORE.INTRA.SOLV.lig_0>
-59.746

>  <SCORE.INTRA.VDW>
0.11673

>  <SCORE.INTRA.VDW.0>
-0.691186

>  <SCORE.INTRA.norm>
-0.0643804

>  <SCORE.RESTR>
0

>  <SCORE.RESTR.CAVITY>
0

>  <SCORE.RESTR.norm>
0

>  <SCORE.SYSTEM>
0

>  <SCORE.SYSTEM.CONST>
0

>  <SCORE.SYSTEM.DIHEDRAL>
0

>  <SCORE.SYSTEM.SOLV>
0

>  <SCORE.SYSTEM.norm>
0

>  <SCORE.heavy>
12

>  <SCORE.norm>
-1.08623

>  <RMSD>
2.643

$$$$
ligand
 OpenBabel02271912143D
libRbt.so/2013.1/901 2013/11/27
 12 12  0  0  0  0  0  0  0  0999 V2000
  -21.8460  -12.7892   95.6406 C   0  0  0  0  0  0  0  0  0  0  0  0
  -19.7560   -7.7171   95.2126 C   0  0  0  0  0  0  0  0  0  0  0  0
  -23.3523  -10.5946   96.0248 N   0  0  0  0  0  0  0  0  0  0  0  0
  -21.9092  -13.2079   94.2330 N   0  0  0  0  0  0  0  0  0  0  0  0
  -22.3568  -14.2186   94.0463 N   0  0  0  0  0  0  0  0  0  0  0  0
  -22.8086  -15.2275   93.8617 N   0  0  0  0  0  0  0  0  0  0  0  0
  -19.4570  -10.0583   95.1602 N   0  0  0  0  0  0  0  0  0  0  0  0
  -20.2626   -9.0043   95.3455 C   0  0  0  0  0  0  0  0  0  0  0  0
  -21.5383   -9.1728   95.7242 N   0  0  0  0  0  0  0  0  0  0  0  0
  -22.0426  -10.4006   95.9150 C   0  0  0  0  0  0  0  0  0  0  0  0
  -21.2587  -11.5331   95.7281 C   0  0  0  0  0  0  0  0  0  0  0  0
  -19.9316  -11.3612   95.3529 C   0  0  0  0  0  0  0  0  0  0  0  0
  1 11  1  0  0  0  0
  1  4  1  0  0  0  0
  2  8  1  0  0  0  0
  3 10  1  0  0  0  0
  4  5  1  0  0  0  0
  5  6  1  0  0  0  0
  7  8  2  0  0  0  0
  7 12  1  0  0  0  0
  8  9  1  0  0  0  0
  9 10  2  0  0  0  0
 10 11  1  0  0  0  0
 11 12  2  0  0  0  0
M  END
>  <CHROM.1>
101.82233808,179.29492707,60.37552676,-21.39127398,-11.28589348,95.16756453
1.95623075,-0.29773996,-2.81040847

>  <Name>
ligand

>  <RI>
0

>  <Rbt.Current_Directory>
/home/itssahil/PROJECTS/Mol_Feturizer/Test_systems_manuscript/rnas/4nya

>  <Rbt.Executable>
rbdock ($Id: //depot/dev/client3/rdock/2013.1/src/exe/rbdock.cxx#4 $)

>  <Rbt.Library>
libRbt.so (2013.1, Build901 2013/11/27)

>  <Rbt.Parameter_File>
/export/apps/rDock/src/rDock_2013.1_src/data/scripts/dock_solv.prm

>  <Rbt.Receptor>
prm/pocket_docking_8.prm

>  <SCORE>
-12.6687

>  <SCORE.INTER>
-11.6465

>  <SCORE.INTER.CONST>
1

>  <SCORE.INTER.POLAR>
0

>  <SCORE.INTER.ROT>
3

>  <SCORE.INTER.SOLV>
6.84032

>  <SCORE.INTER.VDW>
-15.6445

>  <SCORE.INTER.norm>
-0.970544

>  <SCORE.INTRA>
-1.02216

>  <SCORE.INTRA.DIHEDRAL>
-1.9931

>  <SCORE.INTRA.DIHEDRAL.0>
3.34563

>  <SCORE.INTRA.POLAR>
0

>  <SCORE.INTRA.POLAR.0>
0

>  <SCORE.INTRA.REPUL>
0

>  <SCORE.INTRA.REPUL.0>
0

>  <SCORE.INTRA.SOLV>
-0.289487

>  <SCORE.INTRA.SOLV.lig_0>
-59.746

>  <SCORE.INTRA.VDW>
0.119133

>  <SCORE.INTRA.VDW.0>
-0.691186

>  <SCORE.INTRA.norm>
-0.0851802

>  <SCORE.RESTR>
0

>  <SCORE.RESTR.CAVITY>
0

>  <SCORE.RESTR.norm>
0

>  <SCORE.SYSTEM>
0

>  <SCORE.SYSTEM.CONST>
0

>  <SCORE.SYSTEM.DIHEDRAL>
0

>  <SCORE.SYSTEM.SOLV>
0

>  <SCORE.SYSTEM.norm>
0

>  <SCORE.heavy>
12

>  <SCORE.norm>
-1.05572

>  <RMSD>
2.661

$$$$
ligand
 OpenBabel02271912143D
libRbt.so/2013.1/901 2013/11/27
 12 12  0  0  0  0  0  0  0  0999 V2000
  -21.8439  -12.7719   95.6270 C   0  0  0  0  0  0  0  0  0  0  0  0
  -19.6783   -7.7335   95.1765 C   0  0  0  0  0  0  0  0  0  0  0  0
  -23.3325  -10.5529   95.9325 N   0  0  0  0  0  0  0  0  0  0  0  0
  -21.8894  -13.2048   94.2230 N   0  0  0  0  0  0  0  0  0  0  0  0
  -22.3231  -14.2226   94.0421 N   0  0  0  0  0  0  0  0  0  0  0  0
  -22.7532  -15.2421   93.8643 N   0  0  0  0  0  0  0  0  0  0  0  0
  -19.4078  -10.0788   95.1706 N   0  0  0  0  0  0  0  0  0  0  0  0
  -20.2048   -9.0120   95.3158 C   0  0  0  0  0  0  0  0  0  0  0  0
  -21.4928   -9.1586   95.6607 N   0  0  0  0  0  0  0  0  0  0  0  0
  -22.0179  -10.3768   95.8569 C   0  0  0  0  0  0  0  0  0  0  0  0
  -21.2434  -11.5218   95.7108 C   0  0  0  0  0  0  0  0  0  0  0  0
  -19.9042  -11.3724   95.3709 C   0  0  0  0  0  0  0  0  0  0  0  0
  1 11  1  0  0  0  0
  1  4  1  0  0  0  0
  2  8  1  0  0  0  0
  3 10  1  0  0  0  0
  4  5  1  0  0  0  0
  5  6  1  0  0  0  0
  7  8  2  0  0  0  0
  7 12  1  0  0  0  0
  8  9  1  0  0  0  0
  9 10  2  0  0  0  0
 10 11  1  0  0  0  0
 11 12  2  0  0  0  0
M  END
>  <CHROM.1>
101.04219663,177.87470091,-58.84402972,-21.35509158,-11.28297858,95.14287362
1.95673760,-0.26770596,-2.82663753

>  <Name>
ligand

>  <RI>
0

>  <Rbt.Current_Directory>
/home/itssahil/PROJECTS/Mol_Feturizer/Test_systems_manuscript/rnas/4nya

>  <Rbt.Executable>
rbdock ($Id: //depot/dev/client3/rdock/2013.1/src/exe/rbdock.cxx#4 $)

>  <Rbt.Library>
libRbt.so (2013.1, Build901 2013/11/27)

>  <Rbt.Parameter_File>
/export/apps/rDock/src/rDock_2013.1_src/data/scripts/dock_solv.prm

>  <Rbt.Receptor>
prm/pocket_docking_6.prm

>  <SCORE>
-12.6181

>  <SCORE.INTER>
-11.5894

>  <SCORE.INTER.CONST>
1

>  <SCORE.INTER.POLAR>
0

>  <SCORE.INTER.ROT>
3

>  <SCORE.INTER.SOLV>
7.13361

>  <SCORE.INTER.VDW>
-15.7042

>  <SCORE.INTER.norm>
-0.965787

>  <SCORE.INTRA>
-1.02861

>  <SCORE.INTRA.DIHEDRAL>
-2.00888

>  <SCORE.INTRA.DIHEDRAL.0>
3.34563

>  <SCORE.INTRA.POLAR>
0

>  <SCORE.INTRA.POLAR.0>
0

>  <SCORE.INTRA.REPUL>
0

>  <SCORE.INTRA.REPUL.0>
0

>  <SCORE.INTRA.SOLV>
-0.275204

>  <SCORE.INTRA.SOLV.lig_0>
-59.746

>  <SCORE.INTRA.VDW>
0.113434

>  <SCORE.INTRA.VDW.0>
-0.691186

>  <SCORE.INTRA.norm>
-0.0857174

>  <SCORE.RESTR>
0

>  <SCORE.RESTR.CAVITY>
0

>  <SCORE.RESTR.norm>
0

>  <SCORE.SYSTEM>
0

>  <SCORE.SYSTEM.CONST>
0

>  <SCORE.SYSTEM.DIHEDRAL>
0

>  <SCORE.SYSTEM.SOLV>
0

>  <SCORE.SYSTEM.norm>
0

>  <SCORE.heavy>
12

>  <SCORE.norm>
-1.0515

>  <RMSD>
2.670

$$$$
ligand
 OpenBabel02271912143D
libRbt.so/2013.1/901 2013/11/27
 12 12  0  0  0  0  0  0  0  0999 V2000
  -21.6569  -13.0476   95.6766 C   0  0  0  0  0  0  0  0  0  0  0  0
  -19.8308   -7.8732   95.2658 C   0  0  0  0  0  0  0  0  0  0  0  0
  -23.2688  -10.9349   96.0903 N   0  0  0  0  0  0  0  0  0  0  0  0
  -22.0077  -13.3399   94.2795 N   0  0  0  0  0  0  0  0  0  0  0  0
  -22.4324  -14.3596   94.0881 N   0  0  0  0  0  0  0  0  0  0  0  0
  -22.8527  -15.3811   93.8988 N   0  0  0  0  0  0  0  0  0  0  0  0
  -19.4141  -10.1959   95.1939 N   0  0  0  0  0  0  0  0  0  0  0  0
  -20.2703   -9.1853   95.3942 C   0  0  0  0  0  0  0  0  0  0  0  0
  -21.5321   -9.4208   95.7833 N   0  0  0  0  0  0  0  0  0  0  0  0
  -21.9718  -10.6739   95.9699 C   0  0  0  0  0  0  0  0  0  0  0  0
  -21.1332  -11.7639   95.7677 C   0  0  0  0  0  0  0  0  0  0  0  0
  -19.8202  -11.5224   95.3817 C   0  0  0  0  0  0  0  0  0  0  0  0
  1 11  1  0  0  0  0
  1  4  1  0  0  0  0
  2  8  1  0  0  0  0
  3 10  1  0  0  0  0
  4  5  1  0  0  0  0
  5  6  1  0  0  0  0
  7  8  2  0  0  0  0
  7 12  1  0  0  0  0
  8  9  1  0  0  0  0
  9 10  2  0  0  0  0
 10 11  1  0  0  0  0
 11 12  2  0  0  0  0
M  END
>  <CHROM.1>
88.58601996,179.40878764,-58.16351093,-21.36687308,-11.48621470,95.21313604
-1.96903378,0.28516165,0.33030074

>  <Name>
ligand

>  <RI>
0

>  <Rbt.Current_Directory>
/home/itssahil/PROJECTS/Mol_Feturizer/Test_systems_manuscript/rnas/4nya

>  <Rbt.Executable>
rbdock ($Id: //depot/dev/client3/rdock/2013.1/src/exe/rbdock.cxx#4 $)

>  <Rbt.Library>
libRbt.so (2013.1, Build901 2013/11/27)

>  <Rbt.Parameter_File>
/export/apps/rDock/src/rDock_2013.1_src/data/scripts/dock_solv.prm

>  <Rbt.Receptor>
prm/pocket_docking_7.prm

>  <SCORE>
-12.6729

>  <SCORE.INTER>
-11.7378

>  <SCORE.INTER.CONST>
1

>  <SCORE.INTER.POLAR>
0

>  <SCORE.INTER.ROT>
3

>  <SCORE.INTER.SOLV>
6.85962

>  <SCORE.INTER.VDW>
-15.7117

>  <SCORE.INTER.norm>
-0.97815

>  <SCORE.INTRA>
-0.935103

>  <SCORE.INTRA.DIHEDRAL>
-2.22463

>  <SCORE.INTRA.DIHEDRAL.0>
3.34563

>  <SCORE.INTRA.POLAR>
0

>  <SCORE.INTRA.POLAR.0>
0

>  <SCORE.INTRA.REPUL>
0

>  <SCORE.INTRA.REPUL.0>
0

>  <SCORE.INTRA.SOLV>
0.265566

>  <SCORE.INTRA.SOLV.lig_0>
-59.746

>  <SCORE.INTRA.VDW>
0.0444278

>  <SCORE.INTRA.VDW.0>
-0.691186

>  <SCORE.INTRA.norm>
-0.0779253

>  <SCORE.RESTR>
0

>  <SCORE.RESTR.CAVITY>
0

>  <SCORE.RESTR.norm>
0

>  <SCORE.SYSTEM>
0

>  <SCORE.SYSTEM.CONST>
0

>  <SCORE.SYSTEM.DIHEDRAL>
0

>  <SCORE.SYSTEM.SOLV>
0

>  <SCORE.SYSTEM.norm>
0

>  <SCORE.heavy>
12

>  <SCORE.norm>
-1.05608

>  <RMSD>
2.728

$$$$
ligand
 OpenBabel02271912143D
libRbt.so/2013.1/901 2013/11/27
 12 12  0  0  0  0  0  0  0  0999 V2000
  -21.9310  -11.1266   95.2996 C   0  0  0  0  0  0  0  0  0  0  0  0
  -19.6318   -6.1323   95.0816 C   0  0  0  0  0  0  0  0  0  0  0  0
  -23.3664   -8.8838   95.6769 N   0  0  0  0  0  0  0  0  0  0  0  0
  -21.1964  -12.1493   96.0579 N   0  0  0  0  0  0  0  0  0  0  0  0
  -21.0324  -13.1232   95.5275 N   0  0  0  0  0  0  0  0  0  0  0  0
  -20.8662  -14.0987   95.0014 N   0  0  0  0  0  0  0  0  0  0  0  0
  -19.4210   -8.4816   94.9835 N   0  0  0  0  0  0  0  0  0  0  0  0
  -20.1925   -7.4012   95.1622 C   0  0  0  0  0  0  0  0  0  0  0  0
  -21.4882   -7.5280   95.4849 N   0  0  0  0  0  0  0  0  0  0  0  0
  -22.0468   -8.7391   95.6248 C   0  0  0  0  0  0  0  0  0  0  0  0
  -21.2999   -9.8970   95.4417 C   0  0  0  0  0  0  0  0  0  0  0  0
  -19.9529   -9.7689   95.1247 C   0  0  0  0  0  0  0  0  0  0  0  0
  1 11  1  0  0  0  0
  1  4  1  0  0  0  0
  2  8  1  0  0  0  0
  3 10  1  0  0  0  0
  4  5  1  0  0  0  0
  5  6  1  0  0  0  0
  7  8  2  0  0  0  0
  7 12  1  0  0  0  0
  8  9  1  0  0  0  0
  9 10  2  0  0  0  0
 10 11  1  0  0  0  0
 11 12  2  0  0  0  0
M  END
>  <CHROM.1>
-138.68744293,-135.47830752,-178.24583361,-21.03467169,-9.79530513,95.37204796
1.69300118,-0.18755588,3.13228580

>  <Name>
ligand

>  <RI>
0

>  <Rbt.Current_Directory>
/home/itssahil/PROJECTS/Mol_Feturizer/Test_systems_manuscript/rnas/4nya

>  <Rbt.Executable>
rbdock ($Id: //depot/dev/client3/rdock/2013.1/src/exe/rbdock.cxx#4 $)

>  <Rbt.Library>
libRbt.so (2013.1, Build901 2013/11/27)

>  <Rbt.Parameter_File>
/export/apps/rDock/src/rDock_2013.1_src/data/scripts/dock_solv.prm

>  <Rbt.Receptor>
prm/pocket_docking_3.prm

>  <SCORE>
-12.8517

>  <SCORE.INTER>
-12.1307

>  <SCORE.INTER.CONST>
1

>  <SCORE.INTER.POLAR>
0

>  <SCORE.INTER.ROT>
3

>  <SCORE.INTER.SOLV>
15.2257

>  <SCORE.INTER.VDW>
-18.7624

>  <SCORE.INTER.norm>
-1.01089

>  <SCORE.INTRA>
-0.720936

>  <SCORE.INTRA.DIHEDRAL>
-0.991947

>  <SCORE.INTRA.DIHEDRAL.0>
3.34563

>  <SCORE.INTRA.POLAR>
0

>  <SCORE.INTRA.POLAR.0>
0

>  <SCORE.INTRA.REPUL>
0

>  <SCORE.INTRA.REPUL.0>
0

>  <SCORE.INTRA.SOLV>
-0.964035

>  <SCORE.INTRA.SOLV.lig_0>
-59.746

>  <SCORE.INTRA.VDW>
0.257055

>  <SCORE.INTRA.VDW.0>
-0.691186

>  <SCORE.INTRA.norm>
-0.060078

>  <SCORE.RESTR>
0

>  <SCORE.RESTR.CAVITY>
0

>  <SCORE.RESTR.norm>
0

>  <SCORE.SYSTEM>
0

>  <SCORE.SYSTEM.CONST>
0

>  <SCORE.SYSTEM.DIHEDRAL>
0

>  <SCORE.SYSTEM.SOLV>
0

>  <SCORE.SYSTEM.norm>
0

>  <SCORE.heavy>
12

>  <SCORE.norm>
-1.07097

>  <RMSD>
2.754

$$$$
ligand
 OpenBabel02271912143D
libRbt.so/2013.1/901 2013/11/27
 12 12  0  0  0  0  0  0  0  0999 V2000
  -21.5499  -11.4038   95.2855 C   0  0  0  0  0  0  0  0  0  0  0  0
  -19.8122   -6.1833   95.2276 C   0  0  0  0  0  0  0  0  0  0  0  0
  -23.1025   -9.3800   96.1377 N   0  0  0  0  0  0  0  0  0  0  0  0
  -20.5220  -12.4071   95.5974 N   0  0  0  0  0  0  0  0  0  0  0  0
  -20.8287  -13.4765   95.4589 N   0  0  0  0  0  0  0  0  0  0  0  0
  -21.1396  -14.5446   95.3230 N   0  0  0  0  0  0  0  0  0  0  0  0
  -19.3995   -8.4755   94.8422 N   0  0  0  0  0  0  0  0  0  0  0  0
  -20.2263   -7.5093   95.2631 C   0  0  0  0  0  0  0  0  0  0  0  0
  -21.4261   -7.8096   95.7822 N   0  0  0  0  0  0  0  0  0  0  0  0
  -21.8330   -9.0835   95.8817 C   0  0  0  0  0  0  0  0  0  0  0  0
  -21.0237  -10.1288   95.4522 C   0  0  0  0  0  0  0  0  0  0  0  0
  -19.7728   -9.8219   94.9303 C   0  0  0  0  0  0  0  0  0  0  0  0
  1 11  1  0  0  0  0
  1  4  1  0  0  0  0
  2  8  1  0  0  0  0
  3 10  1  0  0  0  0
  4  5  1  0  0  0  0
  5  6  1  0  0  0  0
  7  8  2  0  0  0  0
  7 12  1  0  0  0  0
  8  9  1  0  0  0  0
  9 10  2  0  0  0  0
 10 11  1  0  0  0  0
 11 12  2  0  0  0  0
M  END
>  <CHROM.1>
-147.47713528,-177.83153548,-48.08409034,-20.88813054,-10.03810576,95.43297140
1.67816165,-0.32286163,-3.11870344

>  <Name>
ligand

>  <RI>
0

>  <Rbt.Current_Directory>
/home/itssahil/PROJECTS/Mol_Feturizer/Test_systems_manuscript/rnas/4nya

>  <Rbt.Executable>
rbdock ($Id: //depot/dev/client3/rdock/2013.1/src/exe/rbdock.cxx#4 $)

>  <Rbt.Library>
libRbt.so (2013.1, Build901 2013/11/27)

>  <Rbt.Parameter_File>
/export/apps/rDock/src/rDock_2013.1_src/data/scripts/dock_solv.prm

>  <Rbt.Receptor>
prm/pocket_docking_6.prm

>  <SCORE>
-14.8686

>  <SCORE.INTER>
-13.6121

>  <SCORE.INTER.CONST>
1

>  <SCORE.INTER.POLAR>
0

>  <SCORE.INTER.ROT>
3

>  <SCORE.INTER.SOLV>
13.4508

>  <SCORE.INTER.VDW>
-19.1583

>  <SCORE.INTER.norm>
-1.13434

>  <SCORE.INTRA>
-1.25653

>  <SCORE.INTRA.DIHEDRAL>
-2.13942

>  <SCORE.INTRA.DIHEDRAL.0>
3.34563

>  <SCORE.INTRA.POLAR>
0

>  <SCORE.INTRA.POLAR.0>
0

>  <SCORE.INTRA.REPUL>
0

>  <SCORE.INTRA.REPUL.0>
0

>  <SCORE.INTRA.SOLV>
-1.23346

>  <SCORE.INTRA.SOLV.lig_0>
-59.746

>  <SCORE.INTRA.VDW>
0.429914

>  <SCORE.INTRA.VDW.0>
-0.691186

>  <SCORE.INTRA.norm>
-0.104711

>  <SCORE.RESTR>
0

>  <SCORE.RESTR.CAVITY>
0

>  <SCORE.RESTR.norm>
0

>  <SCORE.SYSTEM>
0

>  <SCORE.SYSTEM.CONST>
0

>  <SCORE.SYSTEM.DIHEDRAL>
0

>  <SCORE.SYSTEM.SOLV>
0

>  <SCORE.SYSTEM.norm>
0

>  <SCORE.heavy>
12

>  <SCORE.norm>
-1.23905

>  <RMSD>
2.766

$$$$
ligand
 OpenBabel02271912143D
libRbt.so/2013.1/901 2013/11/27
 12 12  0  0  0  0  0  0  0  0999 V2000
  -21.2353  -11.6773   94.9156 C   0  0  0  0  0  0  0  0  0  0  0  0
  -20.2289   -6.2935   95.4437 C   0  0  0  0  0  0  0  0  0  0  0  0
  -23.0392   -9.9927   95.9837 N   0  0  0  0  0  0  0  0  0  0  0  0
  -20.4677  -12.6053   95.7584 N   0  0  0  0  0  0  0  0  0  0  0  0
  -20.8371  -13.6635   95.7774 N   0  0  0  0  0  0  0  0  0  0  0  0
  -21.2111  -14.7198   95.7979 N   0  0  0  0  0  0  0  0  0  0  0  0
  -19.5114   -8.4505   94.8066 N   0  0  0  0  0  0  0  0  0  0  0  0
  -20.4572   -7.6596   95.3303 C   0  0  0  0  0  0  0  0  0  0  0  0
  -21.5980   -8.1774   95.8096 N   0  0  0  0  0  0  0  0  0  0  0  0
  -21.8255   -9.4982   95.7656 C   0  0  0  0  0  0  0  0  0  0  0  0
  -20.8863  -10.3685   95.2246 C   0  0  0  0  0  0  0  0  0  0  0  0
  -19.6959   -9.8368   94.7434 C   0  0  0  0  0  0  0  0  0  0  0  0
  1 11  1  0  0  0  0
  1  4  1  0  0  0  0
  2  8  1  0  0  0  0
  3 10  1  0  0  0  0
  4  5  1  0  0  0  0
  5  6  1  0  0  0  0
  7  8  2  0  0  0  0
  7 12  1  0  0  0  0
  8  9  1  0  0  0  0
  9 10  2  0  0  0  0
 10 11  1  0  0  0  0
 11 12  2  0  0  0  0
M  END
>  <CHROM.1>
-115.89871335,165.74453528,-56.33143890,-20.92169149,-10.26503411,95.45523859
-1.65657505,0.31617685,-0.02396562

>  <Name>
ligand

>  <RI>
0

>  <Rbt.Current_Directory>
/home/itssahil/PROJECTS/Mol_Feturizer/Test_systems_manuscript/rnas/4nya

>  <Rbt.Executable>
rbdock ($Id: //depot/dev/client3/rdock/2013.1/src/exe/rbdock.cxx#4 $)

>  <Rbt.Library>
libRbt.so (2013.1, Build901 2013/11/27)

>  <Rbt.Parameter_File>
/export/apps/rDock/src/rDock_2013.1_src/data/scripts/dock_solv.prm

>  <Rbt.Receptor>
prm/blind_docking_100.prm

>  <SCORE>
-13.1465

>  <SCORE.INTER>
-12.3395

>  <SCORE.INTER.CONST>
1

>  <SCORE.INTER.POLAR>
0

>  <SCORE.INTER.ROT>
3

>  <SCORE.INTER.SOLV>
14.5596

>  <SCORE.INTER.VDW>
-18.6796

>  <SCORE.INTER.norm>
-1.02829

>  <SCORE.INTRA>
-0.807015

>  <SCORE.INTRA.DIHEDRAL>
-1.18828

>  <SCORE.INTRA.DIHEDRAL.0>
3.34563

>  <SCORE.INTRA.POLAR>
0

>  <SCORE.INTRA.POLAR.0>
0

>  <SCORE.INTRA.REPUL>
0

>  <SCORE.INTRA.REPUL.0>
0

>  <SCORE.INTRA.SOLV>
-0.692447

>  <SCORE.INTRA.SOLV.lig_0>
-59.746

>  <SCORE.INTRA.VDW>
0.133347

>  <SCORE.INTRA.VDW.0>
-0.691186

>  <SCORE.INTRA.norm>
-0.0672513

>  <SCORE.RESTR>
0

>  <SCORE.RESTR.CAVITY>
0

>  <SCORE.RESTR.norm>
0

>  <SCORE.SYSTEM>
0

>  <SCORE.SYSTEM.CONST>
0

>  <SCORE.SYSTEM.DIHEDRAL>
0

>  <SCORE.SYSTEM.SOLV>
0

>  <SCORE.SYSTEM.norm>
0

>  <SCORE.heavy>
12

>  <SCORE.norm>
-1.09554

>  <RMSD>
2.772

$$$$
ligand
 OpenBabel02271912143D
libRbt.so/2013.1/901 2013/11/27
 12 12  0  0  0  0  0  0  0  0999 V2000
  -21.5704  -11.4241   95.3121 C   0  0  0  0  0  0  0  0  0  0  0  0
  -19.8472   -6.2001   95.1784 C   0  0  0  0  0  0  0  0  0  0  0  0
  -23.1208   -9.3944   96.1546 N   0  0  0  0  0  0  0  0  0  0  0  0
  -20.4942  -12.4171   95.4397 N   0  0  0  0  0  0  0  0  0  0  0  0
  -20.8065  -13.4885   95.3338 N   0  0  0  0  0  0  0  0  0  0  0  0
  -21.1219  -14.5591   95.2319 N   0  0  0  0  0  0  0  0  0  0  0  0
  -19.4318   -8.4956   94.8159 N   0  0  0  0  0  0  0  0  0  0  0  0
  -20.2575   -7.5267   95.2329 C   0  0  0  0  0  0  0  0  0  0  0  0
  -21.4518   -7.8240   95.7660 N   0  0  0  0  0  0  0  0  0  0  0  0
  -21.8545   -9.0977   95.8839 C   0  0  0  0  0  0  0  0  0  0  0  0
  -21.0461  -10.1459   95.4594 C   0  0  0  0  0  0  0  0  0  0  0  0
  -19.8007   -9.8418   94.9229 C   0  0  0  0  0  0  0  0  0  0  0  0
  1 11  1  0  0  0  0
  1  4  1  0  0  0  0
  2  8  1  0  0  0  0
  3 10  1  0  0  0  0
  4  5  1  0  0  0  0
  5  6  1  0  0  0  0
  7  8  2  0  0  0  0
  7 12  1  0  0  0  0
  8  9  1  0  0  0  0
  9 10  2  0  0  0  0
 10 11  1  0  0  0  0
 11 12  2  0  0  0  0
M  END
>  <CHROM.1>
-155.41694115,-179.82217907,-59.05736707,-20.90159955,-10.05396202,95.39388090
1.66825035,-0.34190513,-3.10752155

>  <Name>
ligand

>  <RI>
0

>  <Rbt.Current_Directory>
/home/itssahil/PROJECTS/Mol_Feturizer/Test_systems_manuscript/rnas/4nya

>  <Rbt.Executable>
rbdock ($Id: //depot/dev/client3/rdock/2013.1/src/exe/rbdock.cxx#4 $)

>  <Rbt.Library>
libRbt.so (2013.1, Build901 2013/11/27)

>  <Rbt.Parameter_File>
/export/apps/rDock/src/rDock_2013.1_src/data/scripts/dock_solv.prm

>  <Rbt.Receptor>
prm/pocket_docking_6.prm

>  <SCORE>
-14.8969

>  <SCORE.INTER>
-13.6834

>  <SCORE.INTER.CONST>
1

>  <SCORE.INTER.POLAR>
0

>  <SCORE.INTER.ROT>
3

>  <SCORE.INTER.SOLV>
13.2888

>  <SCORE.INTER.VDW>
-19.1519

>  <SCORE.INTER.norm>
-1.14029

>  <SCORE.INTRA>
-1.21346

>  <SCORE.INTRA.DIHEDRAL>
-2.24687

>  <SCORE.INTRA.DIHEDRAL.0>
3.34563

>  <SCORE.INTRA.POLAR>
0

>  <SCORE.INTRA.POLAR.0>
0

>  <SCORE.INTRA.REPUL>
0

>  <SCORE.INTRA.REPUL.0>
0

>  <SCORE.INTRA.SOLV>
-1.28352

>  <SCORE.INTRA.SOLV.lig_0>
-59.746

>  <SCORE.INTRA.VDW>
0.551728

>  <SCORE.INTRA.VDW.0>
-0.691186

>  <SCORE.INTRA.norm>
-0.101122

>  <SCORE.RESTR>
0

>  <SCORE.RESTR.CAVITY>
0

>  <SCORE.RESTR.norm>
0

>  <SCORE.SYSTEM>
0

>  <SCORE.SYSTEM.CONST>
0

>  <SCORE.SYSTEM.DIHEDRAL>
0

>  <SCORE.SYSTEM.SOLV>
0

>  <SCORE.SYSTEM.norm>
0

>  <SCORE.heavy>
12

>  <SCORE.norm>
-1.24141

>  <RMSD>
2.772

$$$$
ligand
 OpenBabel02271912143D
libRbt.so/2013.1/901 2013/11/27
 12 12  0  0  0  0  0  0  0  0999 V2000
  -21.7399  -11.0428   95.3833 C   0  0  0  0  0  0  0  0  0  0  0  0
  -19.7048   -5.9461   94.9835 C   0  0  0  0  0  0  0  0  0  0  0  0
  -23.2766   -8.8663   95.7502 N   0  0  0  0  0  0  0  0  0  0  0  0
  -20.8188  -12.0448   95.9384 N   0  0  0  0  0  0  0  0  0  0  0  0
  -20.8955  -13.0726   95.4973 N   0  0  0  0  0  0  0  0  0  0  0  0
  -20.9772  -14.1000   95.0572 N   0  0  0  0  0  0  0  0  0  0  0  0
  -19.3776   -8.2837   94.9336 N   0  0  0  0  0  0  0  0  0  0  0  0
  -20.1978   -7.2393   95.1096 C   0  0  0  0  0  0  0  0  0  0  0  0
  -21.4759   -7.4230   95.4726 N   0  0  0  0  0  0  0  0  0  0  0  0
  -21.9680   -8.6568   95.6566 C   0  0  0  0  0  0  0  0  0  0  0  0
  -21.1685   -9.7799   95.4787 C   0  0  0  0  0  0  0  0  0  0  0  0
  -19.8391   -9.5921   95.1199 C   0  0  0  0  0  0  0  0  0  0  0  0
  1 11  1  0  0  0  0
  1  4  1  0  0  0  0
  2  8  1  0  0  0  0
  3 10  1  0  0  0  0
  4  5  1  0  0  0  0
  5  6  1  0  0  0  0
  7  8  2  0  0  0  0
  7 12  1  0  0  0  0
  8  9  1  0  0  0  0
  9 10  2  0  0  0  0
 10 11  1  0  0  0  0
 11 12  2  0  0  0  0
M  END
>  <CHROM.1>
-148.53658862,-151.06099768,-52.11453194,-20.95336938,-9.68932100,95.36383283
1.67647471,-0.20929224,3.12414061

>  <Name>
ligand

>  <RI>
0

>  <Rbt.Current_Directory>
/home/itssahil/PROJECTS/Mol_Feturizer/Test_systems_manuscript/rnas/4nya

>  <Rbt.Executable>
rbdock ($Id: //depot/dev/client3/rdock/2013.1/src/exe/rbdock.cxx#4 $)

>  <Rbt.Library>
libRbt.so (2013.1, Build901 2013/11/27)

>  <Rbt.Parameter_File>
/export/apps/rDock/src/rDock_2013.1_src/data/scripts/dock_solv.prm

>  <Rbt.Receptor>
prm/pocket_docking_3.prm

>  <SCORE>
-12.8905

>  <SCORE.INTER>
-11.9183

>  <SCORE.INTER.CONST>
1

>  <SCORE.INTER.POLAR>
0

>  <SCORE.INTER.ROT>
3

>  <SCORE.INTER.SOLV>
15.4544

>  <SCORE.INTER.VDW>
-18.697

>  <SCORE.INTER.norm>
-0.99319

>  <SCORE.INTRA>
-0.972221

>  <SCORE.INTRA.DIHEDRAL>
-1.61179

>  <SCORE.INTRA.DIHEDRAL.0>
3.34563

>  <SCORE.INTRA.POLAR>
0

>  <SCORE.INTRA.POLAR.0>
0

>  <SCORE.INTRA.REPUL>
0

>  <SCORE.INTRA.REPUL.0>
0

>  <SCORE.INTRA.SOLV>
-1.141

>  <SCORE.INTRA.SOLV.lig_0>
-59.746

>  <SCORE.INTRA.VDW>
0.404177

>  <SCORE.INTRA.VDW.0>
-0.691186

>  <SCORE.INTRA.norm>
-0.0810184

>  <SCORE.RESTR>
2.6255e-06

>  <SCORE.RESTR.CAVITY>
2.6255e-06

>  <SCORE.RESTR.norm>
2.18792e-07

>  <SCORE.SYSTEM>
0

>  <SCORE.SYSTEM.CONST>
0

>  <SCORE.SYSTEM.DIHEDRAL>
0

>  <SCORE.SYSTEM.SOLV>
0

>  <SCORE.SYSTEM.norm>
0

>  <SCORE.heavy>
12

>  <SCORE.norm>
-1.07421

>  <RMSD>
2.791

$$$$
ligand
 OpenBabel02271912143D
libRbt.so/2013.1/901 2013/11/27
 12 12  0  0  0  0  0  0  0  0999 V2000
  -21.5722  -11.5734   95.3732 C   0  0  0  0  0  0  0  0  0  0  0  0
  -19.9248   -6.3260   95.2071 C   0  0  0  0  0  0  0  0  0  0  0  0
  -23.1769   -9.5555   96.1385 N   0  0  0  0  0  0  0  0  0  0  0  0
  -20.5278  -12.5496   95.7150 N   0  0  0  0  0  0  0  0  0  0  0  0
  -20.7687  -13.6199   95.4846 N   0  0  0  0  0  0  0  0  0  0  0  0
  -21.0052  -14.6913   95.2564 N   0  0  0  0  0  0  0  0  0  0  0  0
  -19.4644   -8.6201   94.8929 N   0  0  0  0  0  0  0  0  0  0  0  0
  -20.3164   -7.6578   95.2706 C   0  0  0  0  0  0  0  0  0  0  0  0
  -21.5211   -7.9655   95.7737 N   0  0  0  0  0  0  0  0  0  0  0  0
  -21.9078   -9.2433   95.8999 C   0  0  0  0  0  0  0  0  0  0  0  0
  -21.0717  -10.2851   95.5155 C   0  0  0  0  0  0  0  0  0  0  0  0
  -19.8159   -9.9700   95.0104 C   0  0  0  0  0  0  0  0  0  0  0  0
  1 11  1  0  0  0  0
  1  4  1  0  0  0  0
  2  8  1  0  0  0  0
  3 10  1  0  0  0  0
  4  5  1  0  0  0  0
  5  6  1  0  0  0  0
  7  8  2  0  0  0  0
  7 12  1  0  0  0  0
  8  9  1  0  0  0  0
  9 10  2  0  0  0  0
 10 11  1  0  0  0  0
 11 12  2  0  0  0  0
M  END
>  <CHROM.1>
-148.25550898,-170.90415278,-175.61124744,-20.92362690,-10.19082179,95.46169582
1.64712525,-0.31104512,-3.13075257

>  <Name>
ligand

>  <RI>
0

>  <Rbt.Current_Directory>
/home/itssahil/PROJECTS/Mol_Feturizer/Test_systems_manuscript/rnas/4nya

>  <Rbt.Executable>
rbdock ($Id: //depot/dev/client3/rdock/2013.1/src/exe/rbdock.cxx#4 $)

>  <Rbt.Library>
libRbt.so (2013.1, Build901 2013/11/27)

>  <Rbt.Parameter_File>
/export/apps/rDock/src/rDock_2013.1_src/data/scripts/dock_solv.prm

>  <Rbt.Receptor>
prm/pocket_docking_4.prm

>  <SCORE>
-14.9741

>  <SCORE.INTER>
-13.7215

>  <SCORE.INTER.CONST>
1

>  <SCORE.INTER.POLAR>
0

>  <SCORE.INTER.ROT>
3

>  <SCORE.INTER.SOLV>
13.2579

>  <SCORE.INTER.VDW>
-19.167

>  <SCORE.INTER.norm>
-1.14346

>  <SCORE.INTRA>
-1.2526

>  <SCORE.INTRA.DIHEDRAL>
-2.11962

>  <SCORE.INTRA.DIHEDRAL.0>
3.34563

>  <SCORE.INTRA.POLAR>
0

>  <SCORE.INTRA.POLAR.0>
0

>  <SCORE.INTRA.REPUL>
0

>  <SCORE.INTRA.REPUL.0>
0

>  <SCORE.INTRA.SOLV>
-1.22511

>  <SCORE.INTRA.SOLV.lig_0>
-59.746

>  <SCORE.INTRA.VDW>
0.419765

>  <SCORE.INTRA.VDW.0>
-0.691186

>  <SCORE.INTRA.norm>
-0.104383

>  <SCORE.RESTR>
0

>  <SCORE.RESTR.CAVITY>
0

>  <SCORE.RESTR.norm>
0

>  <SCORE.SYSTEM>
0

>  <SCORE.SYSTEM.CONST>
0

>  <SCORE.SYSTEM.DIHEDRAL>
0

>  <SCORE.SYSTEM.SOLV>
0

>  <SCORE.SYSTEM.norm>
0

>  <SCORE.heavy>
12

>  <SCORE.norm>
-1.24784

>  <RMSD>
2.791

$$$$
ligand
 OpenBabel02271912143D
libRbt.so/2013.1/901 2013/11/27
 12 12  0  0  0  0  0  0  0  0999 V2000
  -21.5291  -11.5197   95.3951 C   0  0  0  0  0  0  0  0  0  0  0  0
  -19.8124   -6.2942   95.2368 C   0  0  0  0  0  0  0  0  0  0  0  0
  -23.1040   -9.4825   96.1713 N   0  0  0  0  0  0  0  0  0  0  0  0
  -20.4668  -12.5102   95.6204 N   0  0  0  0  0  0  0  0  0  0  0  0
  -20.7471  -13.5773   95.4214 N   0  0  0  0  0  0  0  0  0  0  0  0
  -21.0315  -14.6434   95.2253 N   0  0  0  0  0  0  0  0  0  0  0  0
  -19.3838   -8.5934   94.9150 N   0  0  0  0  0  0  0  0  0  0  0  0
  -20.2215   -7.6209   95.2982 C   0  0  0  0  0  0  0  0  0  0  0  0
  -21.4285   -7.9138   95.8048 N   0  0  0  0  0  0  0  0  0  0  0  0
  -21.8317   -9.1867   95.9290 C   0  0  0  0  0  0  0  0  0  0  0  0
  -21.0110  -10.2386   95.5389 C   0  0  0  0  0  0  0  0  0  0  0  0
  -19.7529   -9.9389   95.0303 C   0  0  0  0  0  0  0  0  0  0  0  0
  1 11  1  0  0  0  0
  1  4  1  0  0  0  0
  2  8  1  0  0  0  0
  3 10  1  0  0  0  0
  4  5  1  0  0  0  0
  5  6  1  0  0  0  0
  7  8  2  0  0  0  0
  7 12  1  0  0  0  0
  8  9  1  0  0  0  0
  9 10  2  0  0  0  0
 10 11  1  0  0  0  0
 11 12  2  0  0  0  0
M  END
>  <CHROM.1>
-152.98595950,-173.68809962,-49.03217427,-20.86112294,-10.14598122,95.46488940
1.66132829,-0.31864971,-3.11296509

>  <Name>
ligand

>  <RI>
0

>  <Rbt.Current_Directory>
/home/itssahil/PROJECTS/Mol_Feturizer/Test_systems_manuscript/rnas/4nya

>  <Rbt.Executable>
rbdock ($Id: //depot/dev/client3/rdock/2013.1/src/exe/rbdock.cxx#4 $)

>  <Rbt.Library>
libRbt.so (2013.1, Build901 2013/11/27)

>  <Rbt.Parameter_File>
/export/apps/rDock/src/rDock_2013.1_src/data/scripts/dock_solv.prm

>  <Rbt.Receptor>
prm/pocket_docking_4.prm

>  <SCORE>
-14.954

>  <SCORE.INTER>
-13.7488

>  <SCORE.INTER.CONST>
1

>  <SCORE.INTER.POLAR>
0

>  <SCORE.INTER.ROT>
3

>  <SCORE.INTER.SOLV>
13.4901

>  <SCORE.INTER.VDW>
-19.2626

>  <SCORE.INTER.norm>
-1.14574

>  <SCORE.INTRA>
-1.20517

>  <SCORE.INTRA.DIHEDRAL>
-2.17265

>  <SCORE.INTRA.DIHEDRAL.0>
3.34563

>  <SCORE.INTRA.POLAR>
0

>  <SCORE.INTRA.POLAR.0>
0

>  <SCORE.INTRA.REPUL>
0

>  <SCORE.INTRA.REPUL.0>
0

>  <SCORE.INTRA.SOLV>
-1.25841

>  <SCORE.INTRA.SOLV.lig_0>
-59.746

>  <SCORE.INTRA.VDW>
0.510365

>  <SCORE.INTRA.VDW.0>
-0.691186

>  <SCORE.INTRA.norm>
-0.100431

>  <SCORE.RESTR>
0

>  <SCORE.RESTR.CAVITY>
0

>  <SCORE.RESTR.norm>
0

>  <SCORE.SYSTEM>
0

>  <SCORE.SYSTEM.CONST>
0

>  <SCORE.SYSTEM.DIHEDRAL>
0

>  <SCORE.SYSTEM.SOLV>
0

>  <SCORE.SYSTEM.norm>
0

>  <SCORE.heavy>
12

>  <SCORE.norm>
-1.24617

>  <RMSD>
2.791

$$$$
ligand
 OpenBabel02271912143D
libRbt.so/2013.1/901 2013/11/27
 12 12  0  0  0  0  0  0  0  0999 V2000
  -21.5193  -11.5247   95.2755 C   0  0  0  0  0  0  0  0  0  0  0  0
  -19.9277   -6.2575   95.2758 C   0  0  0  0  0  0  0  0  0  0  0  0
  -23.1862   -9.5367   95.9839 N   0  0  0  0  0  0  0  0  0  0  0  0
  -20.4598  -12.4934   95.5915 N   0  0  0  0  0  0  0  0  0  0  0  0
  -20.7671  -13.5714   95.5779 N   0  0  0  0  0  0  0  0  0  0  0  0
  -21.0696  -14.6504   95.5657 N   0  0  0  0  0  0  0  0  0  0  0  0
  -19.4241   -8.5412   94.9525 N   0  0  0  0  0  0  0  0  0  0  0  0
  -20.3063   -7.5944   95.2984 C   0  0  0  0  0  0  0  0  0  0  0  0
  -21.5324   -7.9231   95.7318 N   0  0  0  0  0  0  0  0  0  0  0  0
  -21.9100   -9.2069   95.8181 C   0  0  0  0  0  0  0  0  0  0  0  0
  -21.0424  -10.2334   95.4634 C   0  0  0  0  0  0  0  0  0  0  0  0
  -19.7653   -9.8966   95.0309 C   0  0  0  0  0  0  0  0  0  0  0  0
  1 11  1  0  0  0  0
  1  4  1  0  0  0  0
  2  8  1  0  0  0  0
  3 10  1  0  0  0  0
  4  5  1  0  0  0  0
  5  6  1  0  0  0  0
  7  8  2  0  0  0  0
  7 12  1  0  0  0  0
  8  9  1  0  0  0  0
  9 10  2  0  0  0  0
 10 11  1  0  0  0  0
 11 12  2  0  0  0  0
M  END
>  <CHROM.1>
-151.17165847,173.83535180,-177.82828001,-20.91059412,-10.13858940,95.46558859
1.65127146,-0.24800852,3.13280738

>  <Name>
ligand

>  <RI>
0

>  <Rbt.Current_Directory>
/home/itssahil/PROJECTS/Mol_Feturizer/Test_systems_manuscript/rnas/4nya

>  <Rbt.Executable>
rbdock ($Id: //depot/dev/client3/rdock/2013.1/src/exe/rbdock.cxx#4 $)

>  <Rbt.Library>
libRbt.so (2013.1, Build901 2013/11/27)

>  <Rbt.Parameter_File>
/export/apps/rDock/src/rDock_2013.1_src/data/scripts/dock_solv.prm

>  <Rbt.Receptor>
prm/pocket_docking_5.prm

>  <SCORE>
-14.9561

>  <SCORE.INTER>
-13.7075

>  <SCORE.INTER.CONST>
1

>  <SCORE.INTER.POLAR>
0

>  <SCORE.INTER.ROT>
3

>  <SCORE.INTER.SOLV>
13.8386

>  <SCORE.INTER.VDW>
-19.3512

>  <SCORE.INTER.norm>
-1.14229

>  <SCORE.INTRA>
-1.24855

>  <SCORE.INTRA.DIHEDRAL>
-2.19147

>  <SCORE.INTRA.DIHEDRAL.0>
3.34563

>  <SCORE.INTRA.POLAR>
0

>  <SCORE.INTRA.POLAR.0>
0

>  <SCORE.INTRA.REPUL>
0

>  <SCORE.INTRA.REPUL.0>
0

>  <SCORE.INTRA.SOLV>
-1.27229

>  <SCORE.INTRA.SOLV.lig_0>
-59.746

>  <SCORE.INTRA.VDW>
0.483325

>  <SCORE.INTRA.VDW.0>
-0.691186

>  <SCORE.INTRA.norm>
-0.104046

>  <SCORE.RESTR>
0

>  <SCORE.RESTR.CAVITY>
0

>  <SCORE.RESTR.norm>
0

>  <SCORE.SYSTEM>
0

>  <SCORE.SYSTEM.CONST>
0

>  <SCORE.SYSTEM.DIHEDRAL>
0

>  <SCORE.SYSTEM.SOLV>
0

>  <SCORE.SYSTEM.norm>
0

>  <SCORE.heavy>
12

>  <SCORE.norm>
-1.24634

>  <RMSD>
2.792

$$$$
ligand
 OpenBabel02271912143D
libRbt.so/2013.1/901 2013/11/27
 12 12  0  0  0  0  0  0  0  0999 V2000
  -21.5774  -11.5755   95.3857 C   0  0  0  0  0  0  0  0  0  0  0  0
  -19.9447   -6.3224   95.2557 C   0  0  0  0  0  0  0  0  0  0  0  0
  -23.2069   -9.5627   96.1112 N   0  0  0  0  0  0  0  0  0  0  0  0
  -20.5246  -12.5481   95.7119 N   0  0  0  0  0  0  0  0  0  0  0  0
  -20.7664  -13.6195   95.4876 N   0  0  0  0  0  0  0  0  0  0  0  0
  -21.0083  -14.6895   95.2585 N   0  0  0  0  0  0  0  0  0  0  0  0
  -19.4690   -8.6151   94.9540 N   0  0  0  0  0  0  0  0  0  0  0  0
  -20.3331   -7.6556   95.3106 C   0  0  0  0  0  0  0  0  0  0  0  0
  -21.5484   -7.9672   95.7850 N   0  0  0  0  0  0  0  0  0  0  0  0
  -21.9336   -9.2463   95.9028 C   0  0  0  0  0  0  0  0  0  0  0  0
  -21.0850  -10.2854   95.5390 C   0  0  0  0  0  0  0  0  0  0  0  0
  -19.8186   -9.9662   95.0639 C   0  0  0  0  0  0  0  0  0  0  0  0
  1 11  1  0  0  0  0
  1  4  1  0  0  0  0
  2  8  1  0  0  0  0
  3 10  1  0  0  0  0
  4  5  1  0  0  0  0
  5  6  1  0  0  0  0
  7  8  2  0  0  0  0
  7 12  1  0  0  0  0
  8  9  1  0  0  0  0
  9 10  2  0  0  0  0
 10 11  1  0  0  0  0
 11 12  2  0  0  0  0
M  END
>  <CHROM.1>
-150.04571900,-171.91485352,65.25933792,-20.93546240,-10.19049402,95.48034958
1.64319205,-0.28901848,-3.12779639

>  <Name>
ligand

>  <RI>
0

>  <Rbt.Current_Directory>
/home/itssahil/PROJECTS/Mol_Feturizer/Test_systems_manuscript/rnas/4nya

>  <Rbt.Executable>
rbdock ($Id: //depot/dev/client3/rdock/2013.1/src/exe/rbdock.cxx#4 $)

>  <Rbt.Library>
libRbt.so (2013.1, Build901 2013/11/27)

>  <Rbt.Parameter_File>
/export/apps/rDock/src/rDock_2013.1_src/data/scripts/dock_solv.prm

>  <Rbt.Receptor>
prm/pocket_docking_7.prm

>  <SCORE>
-14.9932

>  <SCORE.INTER>
-13.746

>  <SCORE.INTER.CONST>
1

>  <SCORE.INTER.POLAR>
0

>  <SCORE.INTER.ROT>
3

>  <SCORE.INTER.SOLV>
13.1664

>  <SCORE.INTER.VDW>
-19.1528

>  <SCORE.INTER.norm>
-1.1455

>  <SCORE.INTRA>
-1.24726

>  <SCORE.INTRA.DIHEDRAL>
-2.15236

>  <SCORE.INTRA.DIHEDRAL.0>
3.34563

>  <SCORE.INTRA.POLAR>
0

>  <SCORE.INTRA.POLAR.0>
0

>  <SCORE.INTRA.REPUL>
0

>  <SCORE.INTRA.REPUL.0>
0

>  <SCORE.INTRA.SOLV>
-1.23677

>  <SCORE.INTRA.SOLV.lig_0>
-59.746

>  <SCORE.INTRA.VDW>
0.447298

>  <SCORE.INTRA.VDW.0>
-0.691186

>  <SCORE.INTRA.norm>
-0.103939

>  <SCORE.RESTR>
0

>  <SCORE.RESTR.CAVITY>
0

>  <SCORE.RESTR.norm>
0

>  <SCORE.SYSTEM>
0

>  <SCORE.SYSTEM.CONST>
0

>  <SCORE.SYSTEM.DIHEDRAL>
0

>  <SCORE.SYSTEM.SOLV>
0

>  <SCORE.SYSTEM.norm>
0

>  <SCORE.heavy>
12

>  <SCORE.norm>
-1.24944

>  <RMSD>
2.792

$$$$
ligand
 OpenBabel02271912143D
libRbt.so/2013.1/901 2013/11/27
 12 12  0  0  0  0  0  0  0  0999 V2000
  -21.5273  -11.5249   95.4121 C   0  0  0  0  0  0  0  0  0  0  0  0
  -19.8085   -6.3011   95.2242 C   0  0  0  0  0  0  0  0  0  0  0  0
  -23.1035   -9.4822   96.1710 N   0  0  0  0  0  0  0  0  0  0  0  0
  -20.4590  -12.5137   95.6156 N   0  0  0  0  0  0  0  0  0  0  0  0
  -20.7413  -13.5811   95.4212 N   0  0  0  0  0  0  0  0  0  0  0  0
  -21.0281  -14.6473   95.2290 N   0  0  0  0  0  0  0  0  0  0  0  0
  -19.3798   -8.6025   94.9185 N   0  0  0  0  0  0  0  0  0  0  0  0
  -20.2182   -7.6272   95.2932 C   0  0  0  0  0  0  0  0  0  0  0  0
  -21.4266   -7.9164   95.7985 N   0  0  0  0  0  0  0  0  0  0  0  0
  -21.8306   -9.1884   95.9301 C   0  0  0  0  0  0  0  0  0  0  0  0
  -21.0092  -10.2430   95.5489 C   0  0  0  0  0  0  0  0  0  0  0  0
  -19.7497   -9.9471   95.0415 C   0  0  0  0  0  0  0  0  0  0  0  0
  1 11  1  0  0  0  0
  1  4  1  0  0  0  0
  2  8  1  0  0  0  0
  3 10  1  0  0  0  0
  4  5  1  0  0  0  0
  5  6  1  0  0  0  0
  7  8  2  0  0  0  0
  7 12  1  0  0  0  0
  8  9  1  0  0  0  0
  9 10  2  0  0  0  0
 10 11  1  0  0  0  0
 11 12  2  0  0  0  0
M  END
>  <CHROM.1>
-154.29873642,-173.78030806,-39.69575749,-20.85789027,-10.15057133,95.46611797
1.66064507,-0.31818881,-3.11449176

>  <Name>
ligand

>  <RI>
0

>  <Rbt.Current_Directory>
/home/itssahil/PROJECTS/Mol_Feturizer/Test_systems_manuscript/rnas/4nya

>  <Rbt.Executable>
rbdock ($Id: //depot/dev/client3/rdock/2013.1/src/exe/rbdock.cxx#4 $)

>  <Rbt.Library>
libRbt.so (2013.1, Build901 2013/11/27)

>  <Rbt.Parameter_File>
/export/apps/rDock/src/rDock_2013.1_src/data/scripts/dock_solv.prm

>  <Rbt.Receptor>
prm/pocket_docking_8.prm

>  <SCORE>
-14.9165

>  <SCORE.INTER>
-13.7438

>  <SCORE.INTER.CONST>
1

>  <SCORE.INTER.POLAR>
0

>  <SCORE.INTER.ROT>
3

>  <SCORE.INTER.SOLV>
13.5208

>  <SCORE.INTER.VDW>
-19.2694

>  <SCORE.INTER.norm>
-1.14531

>  <SCORE.INTRA>
-1.17272

>  <SCORE.INTRA.DIHEDRAL>
-2.10942

>  <SCORE.INTRA.DIHEDRAL.0>
3.34563

>  <SCORE.INTRA.POLAR>
0

>  <SCORE.INTRA.POLAR.0>
0

>  <SCORE.INTRA.REPUL>
0

>  <SCORE.INTRA.REPUL.0>
0

>  <SCORE.INTRA.SOLV>
-1.26547

>  <SCORE.INTRA.SOLV.lig_0>
-59.746

>  <SCORE.INTRA.VDW>
0.514728

>  <SCORE.INTRA.VDW.0>
-0.691186

>  <SCORE.INTRA.norm>
-0.0977264

>  <SCORE.RESTR>
0

>  <SCORE.RESTR.CAVITY>
0

>  <SCORE.RESTR.norm>
0

>  <SCORE.SYSTEM>
0

>  <SCORE.SYSTEM.CONST>
0

>  <SCORE.SYSTEM.DIHEDRAL>
0

>  <SCORE.SYSTEM.SOLV>
0

>  <SCORE.SYSTEM.norm>
0

>  <SCORE.heavy>
12

>  <SCORE.norm>
-1.24304

>  <RMSD>
2.792

$$$$
ligand
 OpenBabel02271912143D
libRbt.so/2013.1/901 2013/11/27
 12 12  0  0  0  0  0  0  0  0999 V2000
  -21.5327  -11.4378   95.4645 C   0  0  0  0  0  0  0  0  0  0  0  0
  -19.8606   -6.2063   95.1290 C   0  0  0  0  0  0  0  0  0  0  0  0
  -23.1207   -9.3897   96.1831 N   0  0  0  0  0  0  0  0  0  0  0  0
  -20.4414  -12.4115   95.6111 N   0  0  0  0  0  0  0  0  0  0  0  0
  -20.7252  -13.4857   95.4623 N   0  0  0  0  0  0  0  0  0  0  0  0
  -21.0103  -14.5586   95.3088 N   0  0  0  0  0  0  0  0  0  0  0  0
  -19.4144   -8.5110   94.8791 N   0  0  0  0  0  0  0  0  0  0  0  0
  -20.2583   -7.5336   95.2353 C   0  0  0  0  0  0  0  0  0  0  0  0
  -21.4602   -7.8199   95.7574 N   0  0  0  0  0  0  0  0  0  0  0  0
  -21.8522   -9.0914   95.9247 C   0  0  0  0  0  0  0  0  0  0  0  0
  -21.0246  -10.1485   95.5643 C   0  0  0  0  0  0  0  0  0  0  0  0
  -19.7717   -9.8551   95.0395 C   0  0  0  0  0  0  0  0  0  0  0  0
  1 11  1  0  0  0  0
  1  4  1  0  0  0  0
  2  8  1  0  0  0  0
  3 10  1  0  0  0  0
  4  5  1  0  0  0  0
  5  6  1  0  0  0  0
  7  8  2  0  0  0  0
  7 12  1  0  0  0  0
  8  9  1  0  0  0  0
  9 10  2  0  0  0  0
 10 11  1  0  0  0  0
 11 12  2  0  0  0  0
M  END
>  <CHROM.1>
-157.40056929,-175.13486145,63.00557541,-20.87355447,-10.05676916,95.46222974
1.65078983,-0.33025415,-3.13434008

>  <Name>
ligand

>  <RI>
0

>  <Rbt.Current_Directory>
/home/itssahil/PROJECTS/Mol_Feturizer/Test_systems_manuscript/rnas/4nya

>  <Rbt.Executable>
rbdock ($Id: //depot/dev/client3/rdock/2013.1/src/exe/rbdock.cxx#4 $)

>  <Rbt.Library>
libRbt.so (2013.1, Build901 2013/11/27)

>  <Rbt.Parameter_File>
/export/apps/rDock/src/rDock_2013.1_src/data/scripts/dock_solv.prm

>  <Rbt.Receptor>
prm/pocket_docking_4.prm

>  <SCORE>
-14.9474

>  <SCORE.INTER>
-13.7592

>  <SCORE.INTER.CONST>
1

>  <SCORE.INTER.POLAR>
0

>  <SCORE.INTER.ROT>
3

>  <SCORE.INTER.SOLV>
13.8968

>  <SCORE.INTER.VDW>
-19.405

>  <SCORE.INTER.norm>
-1.1466

>  <SCORE.INTRA>
-1.18822

>  <SCORE.INTRA.DIHEDRAL>
-2.22644

>  <SCORE.INTRA.DIHEDRAL.0>
3.34563

>  <SCORE.INTRA.POLAR>
0

>  <SCORE.INTRA.POLAR.0>
0

>  <SCORE.INTRA.REPUL>
0

>  <SCORE.INTRA.REPUL.0>
0

>  <SCORE.INTRA.SOLV>
-1.28409

>  <SCORE.INTRA.SOLV.lig_0>
-59.746

>  <SCORE.INTRA.VDW>
0.567048

>  <SCORE.INTRA.VDW.0>
-0.691186

>  <SCORE.INTRA.norm>
-0.0990182

>  <SCORE.RESTR>
0

>  <SCORE.RESTR.CAVITY>
0

>  <SCORE.RESTR.norm>
0

>  <SCORE.SYSTEM>
0

>  <SCORE.SYSTEM.CONST>
0

>  <SCORE.SYSTEM.DIHEDRAL>
0

>  <SCORE.SYSTEM.SOLV>
0

>  <SCORE.SYSTEM.norm>
0

>  <SCORE.heavy>
12

>  <SCORE.norm>
-1.24562

>  <RMSD>
2.795

$$$$
ligand
 OpenBabel02271912143D
libRbt.so/2013.1/901 2013/11/27
 12 12  0  0  0  0  0  0  0  0999 V2000
  -21.5373  -11.5802   95.3447 C   0  0  0  0  0  0  0  0  0  0  0  0
  -19.8587   -6.3414   95.2222 C   0  0  0  0  0  0  0  0  0  0  0  0
  -23.1366   -9.5574   96.1084 N   0  0  0  0  0  0  0  0  0  0  0  0
  -20.5082  -12.5640   95.7103 N   0  0  0  0  0  0  0  0  0  0  0  0
  -20.7562  -13.6336   95.4840 N   0  0  0  0  0  0  0  0  0  0  0  0
  -21.0087  -14.7022   95.2598 N   0  0  0  0  0  0  0  0  0  0  0  0
  -19.4089   -8.6363   94.8986 N   0  0  0  0  0  0  0  0  0  0  0  0
  -20.2584   -7.6713   95.2748 C   0  0  0  0  0  0  0  0  0  0  0  0
  -21.4689   -7.9749   95.7663 N   0  0  0  0  0  0  0  0  0  0  0  0
  -21.8639   -9.2512   95.8820 C   0  0  0  0  0  0  0  0  0  0  0  0
  -21.0307  -10.2956   95.4984 C   0  0  0  0  0  0  0  0  0  0  0  0
  -19.7690   -9.9849   95.0055 C   0  0  0  0  0  0  0  0  0  0  0  0
  1 11  1  0  0  0  0
  1  4  1  0  0  0  0
  2  8  1  0  0  0  0
  3 10  1  0  0  0  0
  4  5  1  0  0  0  0
  5  6  1  0  0  0  0
  7  8  2  0  0  0  0
  7 12  1  0  0  0  0
  8  9  1  0  0  0  0
  9 10  2  0  0  0  0
 10 11  1  0  0  0  0
 11 12  2  0  0  0  0
M  END
>  <CHROM.1>
-147.34339864,-171.50715728,-46.37135007,-20.88493321,-10.20211070,95.45503498
1.65581935,-0.30067361,-3.12803644

>  <Name>
ligand

>  <RI>
0

>  <Rbt.Current_Directory>
/home/itssahil/PROJECTS/Mol_Feturizer/Test_systems_manuscript/rnas/4nya

>  <Rbt.Executable>
rbdock ($Id: //depot/dev/client3/rdock/2013.1/src/exe/rbdock.cxx#4 $)

>  <Rbt.Library>
libRbt.so (2013.1, Build901 2013/11/27)

>  <Rbt.Parameter_File>
/export/apps/rDock/src/rDock_2013.1_src/data/scripts/dock_solv.prm

>  <Rbt.Receptor>
prm/pocket_docking_6.prm

>  <SCORE>
-14.8963

>  <SCORE.INTER>
-13.6776

>  <SCORE.INTER.CONST>
1

>  <SCORE.INTER.POLAR>
0

>  <SCORE.INTER.ROT>
3

>  <SCORE.INTER.SOLV>
13.3451

>  <SCORE.INTER.VDW>
-19.1668

>  <SCORE.INTER.norm>
-1.1398

>  <SCORE.INTRA>
-1.21864

>  <SCORE.INTRA.DIHEDRAL>
-2.0719

>  <SCORE.INTRA.DIHEDRAL.0>
3.34563

>  <SCORE.INTRA.POLAR>
0

>  <SCORE.INTRA.POLAR.0>
0

>  <SCORE.INTRA.REPUL>
0

>  <SCORE.INTRA.REPUL.0>
0

>  <SCORE.INTRA.SOLV>
-1.21685

>  <SCORE.INTRA.SOLV.lig_0>
-59.746

>  <SCORE.INTRA.VDW>
0.425729

>  <SCORE.INTRA.VDW.0>
-0.691186

>  <SCORE.INTRA.norm>
-0.101554

>  <SCORE.RESTR>
0

>  <SCORE.RESTR.CAVITY>
0

>  <SCORE.RESTR.norm>
0

>  <SCORE.SYSTEM>
0

>  <SCORE.SYSTEM.CONST>
0

>  <SCORE.SYSTEM.DIHEDRAL>
0

>  <SCORE.SYSTEM.SOLV>
0

>  <SCORE.SYSTEM.norm>
0

>  <SCORE.heavy>
12

>  <SCORE.norm>
-1.24135

>  <RMSD>
2.795

$$$$
ligand
 OpenBabel02271912143D
libRbt.so/2013.1/901 2013/11/27
 12 12  0  0  0  0  0  0  0  0999 V2000
  -21.5247  -11.5771   95.3498 C   0  0  0  0  0  0  0  0  0  0  0  0
  -19.8525   -6.3354   95.2771 C   0  0  0  0  0  0  0  0  0  0  0  0
  -23.1338   -9.5616   96.1124 N   0  0  0  0  0  0  0  0  0  0  0  0
  -20.4806  -12.5619   95.6667 N   0  0  0  0  0  0  0  0  0  0  0  0
  -20.7434  -13.6321   95.4608 N   0  0  0  0  0  0  0  0  0  0  0  0
  -21.0104  -14.7014   95.2575 N   0  0  0  0  0  0  0  0  0  0  0  0
  -19.3965   -8.6275   94.9424 N   0  0  0  0  0  0  0  0  0  0  0  0
  -20.2508   -7.6662   95.3174 C   0  0  0  0  0  0  0  0  0  0  0  0
  -21.4653   -7.9746   95.7958 N   0  0  0  0  0  0  0  0  0  0  0  0
  -21.8595   -9.2522   95.8995 C   0  0  0  0  0  0  0  0  0  0  0  0
  -21.0214  -10.2929   95.5166 C   0  0  0  0  0  0  0  0  0  0  0  0
  -19.7557   -9.9772   95.0371 C   0  0  0  0  0  0  0  0  0  0  0  0
  1 11  1  0  0  0  0
  1  4  1  0  0  0  0
  2  8  1  0  0  0  0
  3 10  1  0  0  0  0
  4  5  1  0  0  0  0
  5  6  1  0  0  0  0
  7  8  2  0  0  0  0
  7 12  1  0  0  0  0
  8  9  1  0  0  0  0
  9 10  2  0  0  0  0
 10 11  1  0  0  0  0
 11 12  2  0  0  0  0
M  END
>  <CHROM.1>
-149.58927105,-173.72571923,-50.15008666,-20.87566899,-10.19940893,95.46952207
1.65497437,-0.29262087,-3.11932405

>  <Name>
ligand

>  <RI>
0

>  <Rbt.Current_Directory>
/home/itssahil/PROJECTS/Mol_Feturizer/Test_systems_manuscript/rnas/4nya

>  <Rbt.Executable>
rbdock ($Id: //depot/dev/client3/rdock/2013.1/src/exe/rbdock.cxx#4 $)

>  <Rbt.Library>
libRbt.so (2013.1, Build901 2013/11/27)

>  <Rbt.Parameter_File>
/export/apps/rDock/src/rDock_2013.1_src/data/scripts/dock_solv.prm

>  <Rbt.Receptor>
prm/blind_docking_100.prm

>  <SCORE>
-14.972

>  <SCORE.INTER>
-13.7365

>  <SCORE.INTER.CONST>
1

>  <SCORE.INTER.POLAR>
0

>  <SCORE.INTER.ROT>
3

>  <SCORE.INTER.SOLV>
13.3196

>  <SCORE.INTER.VDW>
-19.1976

>  <SCORE.INTER.norm>
-1.14471

>  <SCORE.INTRA>
-1.23548

>  <SCORE.INTRA.DIHEDRAL>
-2.1498

>  <SCORE.INTRA.DIHEDRAL.0>
3.34563

>  <SCORE.INTRA.POLAR>
0

>  <SCORE.INTRA.POLAR.0>
0

>  <SCORE.INTRA.REPUL>
0

>  <SCORE.INTRA.REPUL.0>
0

>  <SCORE.INTRA.SOLV>
-1.23816

>  <SCORE.INTRA.SOLV.lig_0>
-59.746

>  <SCORE.INTRA.VDW>
0.458497

>  <SCORE.INTRA.VDW.0>
-0.691186

>  <SCORE.INTRA.norm>
-0.102957

>  <SCORE.RESTR>
0

>  <SCORE.RESTR.CAVITY>
0

>  <SCORE.RESTR.norm>
0

>  <SCORE.SYSTEM>
0

>  <SCORE.SYSTEM.CONST>
0

>  <SCORE.SYSTEM.DIHEDRAL>
0

>  <SCORE.SYSTEM.SOLV>
0

>  <SCORE.SYSTEM.norm>
0

>  <SCORE.heavy>
12

>  <SCORE.norm>
-1.24767

>  <RMSD>
2.797

$$$$
ligand
 OpenBabel02271912143D
libRbt.so/2013.1/901 2013/11/27
 12 12  0  0  0  0  0  0  0  0999 V2000
  -21.5032  -11.5260   95.2914 C   0  0  0  0  0  0  0  0  0  0  0  0
  -19.9017   -6.2621   95.2347 C   0  0  0  0  0  0  0  0  0  0  0  0
  -23.1552   -9.5304   96.0130 N   0  0  0  0  0  0  0  0  0  0  0  0
  -20.4388  -12.4947   95.5902 N   0  0  0  0  0  0  0  0  0  0  0  0
  -20.7428  -13.5735   95.5668 N   0  0  0  0  0  0  0  0  0  0  0  0
  -21.0474  -14.6516   95.5384 N   0  0  0  0  0  0  0  0  0  0  0  0
  -19.4075   -8.5487   94.9179 N   0  0  0  0  0  0  0  0  0  0  0  0
  -20.2825   -7.5981   95.2715 C   0  0  0  0  0  0  0  0  0  0  0  0
  -21.5024   -7.9216   95.7256 N   0  0  0  0  0  0  0  0  0  0  0  0
  -21.8811   -9.2042   95.8257 C   0  0  0  0  0  0  0  0  0  0  0  0
  -21.0210  -10.2345   95.4640 C   0  0  0  0  0  0  0  0  0  0  0  0
  -19.7501   -9.9030   95.0099 C   0  0  0  0  0  0  0  0  0  0  0  0
  1 11  1  0  0  0  0
  1  4  1  0  0  0  0
  2  8  1  0  0  0  0
  3 10  1  0  0  0  0
  4  5  1  0  0  0  0
  5  6  1  0  0  0  0
  7  8  2  0  0  0  0
  7 12  1  0  0  0  0
  8  9  1  0  0  0  0
  9 10  2  0  0  0  0
 10 11  1  0  0  0  0
 11 12  2  0  0  0  0
M  END
>  <CHROM.1>
-151.46990146,175.04313973,68.29793688,-20.88749360,-10.14012661,95.45569389
1.65172434,-0.26478085,3.13217315

>  <Name>
ligand

>  <RI>
0

>  <Rbt.Current_Directory>
/home/itssahil/PROJECTS/Mol_Feturizer/Test_systems_manuscript/rnas/4nya

>  <Rbt.Executable>
rbdock ($Id: //depot/dev/client3/rdock/2013.1/src/exe/rbdock.cxx#4 $)

>  <Rbt.Library>
libRbt.so (2013.1, Build901 2013/11/27)

>  <Rbt.Parameter_File>
/export/apps/rDock/src/rDock_2013.1_src/data/scripts/dock_solv.prm

>  <Rbt.Receptor>
prm/pocket_docking_6.prm

>  <SCORE>
-14.9295

>  <SCORE.INTER>
-13.6898

>  <SCORE.INTER.CONST>
1

>  <SCORE.INTER.POLAR>
0

>  <SCORE.INTER.ROT>
3

>  <SCORE.INTER.SOLV>
13.945

>  <SCORE.INTER.VDW>
-19.3749

>  <SCORE.INTER.norm>
-1.14081

>  <SCORE.INTRA>
-1.23977

>  <SCORE.INTRA.DIHEDRAL>
-2.18763

>  <SCORE.INTRA.DIHEDRAL.0>
3.34563

>  <SCORE.INTRA.POLAR>
0

>  <SCORE.INTRA.POLAR.0>
0

>  <SCORE.INTRA.REPUL>
0

>  <SCORE.INTRA.REPUL.0>
0

>  <SCORE.INTRA.SOLV>
-1.26991

>  <SCORE.INTRA.SOLV.lig_0>
-59.746

>  <SCORE.INTRA.VDW>
0.489001

>  <SCORE.INTRA.VDW.0>
-0.691186

>  <SCORE.INTRA.norm>
-0.103314

>  <SCORE.RESTR>
0

>  <SCORE.RESTR.CAVITY>
0

>  <SCORE.RESTR.norm>
0

>  <SCORE.SYSTEM>
0

>  <SCORE.SYSTEM.CONST>
0

>  <SCORE.SYSTEM.DIHEDRAL>
0

>  <SCORE.SYSTEM.SOLV>
0

>  <SCORE.SYSTEM.norm>
0

>  <SCORE.heavy>
12

>  <SCORE.norm>
-1.24413

>  <RMSD>
2.797

$$$$
ligand
 OpenBabel02271912143D
libRbt.so/2013.1/901 2013/11/27
 12 12  0  0  0  0  0  0  0  0999 V2000
  -21.5457  -11.5559   95.3178 C   0  0  0  0  0  0  0  0  0  0  0  0
  -19.9376   -6.2938   95.2710 C   0  0  0  0  0  0  0  0  0  0  0  0
  -23.1971   -9.5589   96.0375 N   0  0  0  0  0  0  0  0  0  0  0  0
  -20.5210  -12.5268   95.7273 N   0  0  0  0  0  0  0  0  0  0  0  0
  -20.7555  -13.6014   95.5105 N   0  0  0  0  0  0  0  0  0  0  0  0
  -20.9948  -14.6749   95.2950 N   0  0  0  0  0  0  0  0  0  0  0  0
  -19.4454   -8.5808   94.9528 N   0  0  0  0  0  0  0  0  0  0  0  0
  -20.3201   -7.6294   95.3053 C   0  0  0  0  0  0  0  0  0  0  0  0
  -21.5415   -7.9519   95.7560 N   0  0  0  0  0  0  0  0  0  0  0  0
  -21.9221   -9.2341   95.8537 C   0  0  0  0  0  0  0  0  0  0  0  0
  -21.0624  -10.2651   95.4931 C   0  0  0  0  0  0  0  0  0  0  0  0
  -19.7899   -9.9347   95.0425 C   0  0  0  0  0  0  0  0  0  0  0  0
  1 11  1  0  0  0  0
  1  4  1  0  0  0  0
  2  8  1  0  0  0  0
  3 10  1  0  0  0  0
  4  5  1  0  0  0  0
  5  6  1  0  0  0  0
  7  8  2  0  0  0  0
  7 12  1  0  0  0  0
  8  9  1  0  0  0  0
  9 10  2  0  0  0  0
 10 11  1  0  0  0  0
 11 12  2  0  0  0  0
M  END
>  <CHROM.1>
-146.69250379,-172.78123452,-37.53073781,-20.92046584,-10.17004752,95.46427092
1.64401408,-0.26610547,-3.13347120

>  <Name>
ligand

>  <RI>
0

>  <Rbt.Current_Directory>
/home/itssahil/PROJECTS/Mol_Feturizer/Test_systems_manuscript/rnas/4nya

>  <Rbt.Executable>
rbdock ($Id: //depot/dev/client3/rdock/2013.1/src/exe/rbdock.cxx#4 $)

>  <Rbt.Library>
libRbt.so (2013.1, Build901 2013/11/27)

>  <Rbt.Parameter_File>
/export/apps/rDock/src/rDock_2013.1_src/data/scripts/dock_solv.prm

>  <Rbt.Receptor>
prm/pocket_docking_8.prm

>  <SCORE>
-14.9136

>  <SCORE.INTER>
-13.7215

>  <SCORE.INTER.CONST>
1

>  <SCORE.INTER.POLAR>
0

>  <SCORE.INTER.ROT>
3

>  <SCORE.INTER.SOLV>
13.3341

>  <SCORE.INTER.VDW>
-19.1924

>  <SCORE.INTER.norm>
-1.14346

>  <SCORE.INTRA>
-1.19214

>  <SCORE.INTRA.DIHEDRAL>
-2.00382

>  <SCORE.INTRA.DIHEDRAL.0>
3.34563

>  <SCORE.INTRA.POLAR>
0

>  <SCORE.INTRA.POLAR.0>
0

>  <SCORE.INTRA.REPUL>
0

>  <SCORE.INTRA.REPUL.0>
0

>  <SCORE.INTRA.SOLV>
-1.21556

>  <SCORE.INTRA.SOLV.lig_0>
-59.746

>  <SCORE.INTRA.VDW>
0.417548

>  <SCORE.INTRA.VDW.0>
-0.691186

>  <SCORE.INTRA.norm>
-0.099345

>  <SCORE.RESTR>
0

>  <SCORE.RESTR.CAVITY>
0

>  <SCORE.RESTR.norm>
0

>  <SCORE.SYSTEM>
0

>  <SCORE.SYSTEM.CONST>
0

>  <SCORE.SYSTEM.DIHEDRAL>
0

>  <SCORE.SYSTEM.SOLV>
0

>  <SCORE.SYSTEM.norm>
0

>  <SCORE.heavy>
12

>  <SCORE.norm>
-1.2428

>  <RMSD>
2.797

$$$$
ligand
 OpenBabel02271912143D
libRbt.so/2013.1/901 2013/11/27
 12 12  0  0  0  0  0  0  0  0999 V2000
  -21.5187  -11.5743   95.3507 C   0  0  0  0  0  0  0  0  0  0  0  0
  -19.8579   -6.3285   95.3224 C   0  0  0  0  0  0  0  0  0  0  0  0
  -23.1260   -9.5707   96.1475 N   0  0  0  0  0  0  0  0  0  0  0  0
  -20.4612  -12.5596   95.6181 N   0  0  0  0  0  0  0  0  0  0  0  0
  -20.7362  -13.6303   95.4318 N   0  0  0  0  0  0  0  0  0  0  0  0
  -21.0108  -14.6999   95.2406 N   0  0  0  0  0  0  0  0  0  0  0  0
  -19.3998   -8.6159   94.9592 N   0  0  0  0  0  0  0  0  0  0  0  0
  -20.2531   -7.6605   95.3512 C   0  0  0  0  0  0  0  0  0  0  0  0
  -21.4633   -7.9768   95.8355 N   0  0  0  0  0  0  0  0  0  0  0  0
  -21.8540   -9.2562   95.9283 C   0  0  0  0  0  0  0  0  0  0  0  0
  -21.0167  -10.2909   95.5276 C   0  0  0  0  0  0  0  0  0  0  0  0
  -19.7555   -9.9673   95.0419 C   0  0  0  0  0  0  0  0  0  0  0  0
  1 11  1  0  0  0  0
  1  4  1  0  0  0  0
  2  8  1  0  0  0  0
  3 10  1  0  0  0  0
  4  5  1  0  0  0  0
  5  6  1  0  0  0  0
  7  8  2  0  0  0  0
  7 12  1  0  0  0  0
  8  9  1  0  0  0  0
  9 10  2  0  0  0  0
 10 11  1  0  0  0  0
 11 12  2  0  0  0  0
M  END
>  <CHROM.1>
-150.91332767,-175.69078991,73.84330981,-20.87220172,-10.19698351,95.47939994
1.65380793,-0.30051925,-3.10898687

>  <Name>
ligand

>  <RI>
0

>  <Rbt.Current_Directory>
/home/itssahil/PROJECTS/Mol_Feturizer/Test_systems_manuscript/rnas/4nya

>  <Rbt.Executable>
rbdock ($Id: //depot/dev/client3/rdock/2013.1/src/exe/rbdock.cxx#4 $)

>  <Rbt.Library>
libRbt.so (2013.1, Build901 2013/11/27)

>  <Rbt.Parameter_File>
/export/apps/rDock/src/rDock_2013.1_src/data/scripts/dock_solv.prm

>  <Rbt.Receptor>
prm/pocket_docking_7.prm

>  <SCORE>
-14.9782

>  <SCORE.INTER>
-13.7529

>  <SCORE.INTER.CONST>
1

>  <SCORE.INTER.POLAR>
0

>  <SCORE.INTER.ROT>
3

>  <SCORE.INTER.SOLV>
13.3179

>  <SCORE.INTER.VDW>
-19.2079

>  <SCORE.INTER.norm>
-1.14607

>  <SCORE.INTRA>
-1.2253

>  <SCORE.INTRA.DIHEDRAL>
-2.15593

>  <SCORE.INTRA.DIHEDRAL.0>
3.34563

>  <SCORE.INTRA.POLAR>
0

>  <SCORE.INTRA.POLAR.0>
0

>  <SCORE.INTRA.REPUL>
0

>  <SCORE.INTRA.REPUL.0>
0

>  <SCORE.INTRA.SOLV>
-1.2519

>  <SCORE.INTRA.SOLV.lig_0>
-59.746

>  <SCORE.INTRA.VDW>
0.478614

>  <SCORE.INTRA.VDW.0>
-0.691186

>  <SCORE.INTRA.norm>
-0.102109

>  <SCORE.RESTR>
0

>  <SCORE.RESTR.CAVITY>
0

>  <SCORE.RESTR.norm>
0

>  <SCORE.SYSTEM>
0

>  <SCORE.SYSTEM.CONST>
0

>  <SCORE.SYSTEM.DIHEDRAL>
0

>  <SCORE.SYSTEM.SOLV>
0

>  <SCORE.SYSTEM.norm>
0

>  <SCORE.heavy>
12

>  <SCORE.norm>
-1.24818

>  <RMSD>
2.798

$$$$
ligand
 OpenBabel02271912143D
libRbt.so/2013.1/901 2013/11/27
 12 12  0  0  0  0  0  0  0  0999 V2000
  -21.5500  -11.5774   95.3440 C   0  0  0  0  0  0  0  0  0  0  0  0
  -19.9531   -6.3122   95.2744 C   0  0  0  0  0  0  0  0  0  0  0  0
  -23.1996   -9.5825   96.0735 N   0  0  0  0  0  0  0  0  0  0  0  0
  -20.5118  -12.5457   95.7250 N   0  0  0  0  0  0  0  0  0  0  0  0
  -20.7484  -13.6207   95.5124 N   0  0  0  0  0  0  0  0  0  0  0  0
  -20.9809  -14.6968   95.3027 N   0  0  0  0  0  0  0  0  0  0  0  0
  -19.4589   -8.5987   94.9564 N   0  0  0  0  0  0  0  0  0  0  0  0
  -20.3326   -7.6485   95.3142 C   0  0  0  0  0  0  0  0  0  0  0  0
  -21.5497   -7.9727   95.7755 N   0  0  0  0  0  0  0  0  0  0  0  0
  -21.9268   -9.2554   95.8787 C   0  0  0  0  0  0  0  0  0  0  0  0
  -21.0679  -10.2853   95.5129 C   0  0  0  0  0  0  0  0  0  0  0  0
  -19.7998   -9.9532   95.0514 C   0  0  0  0  0  0  0  0  0  0  0  0
  1 11  1  0  0  0  0
  1  4  1  0  0  0  0
  2  8  1  0  0  0  0
  3 10  1  0  0  0  0
  4  5  1  0  0  0  0
  5  6  1  0  0  0  0
  7  8  2  0  0  0  0
  7 12  1  0  0  0  0
  8  9  1  0  0  0  0
  9 10  2  0  0  0  0
 10 11  1  0  0  0  0
 11 12  2  0  0  0  0
M  END
>  <CHROM.1>
-147.66007084,-172.96135864,-168.07282907,-20.92418170,-10.19016549,95.47731370
1.64017338,-0.27556958,-3.13307711

>  <Name>
ligand

>  <RI>
0

>  <Rbt.Current_Directory>
/home/itssahil/PROJECTS/Mol_Feturizer/Test_systems_manuscript/rnas/4nya

>  <Rbt.Executable>
rbdock ($Id: //depot/dev/client3/rdock/2013.1/src/exe/rbdock.cxx#4 $)

>  <Rbt.Library>
libRbt.so (2013.1, Build901 2013/11/27)

>  <Rbt.Parameter_File>
/export/apps/rDock/src/rDock_2013.1_src/data/scripts/dock_solv.prm

>  <Rbt.Receptor>
prm/pocket_docking_4.prm

>  <SCORE>
-14.949

>  <SCORE.INTER>
-13.7122

>  <SCORE.INTER.CONST>
1

>  <SCORE.INTER.POLAR>
0

>  <SCORE.INTER.ROT>
3

>  <SCORE.INTER.SOLV>
13.3467

>  <SCORE.INTER.VDW>
-19.1904

>  <SCORE.INTER.norm>
-1.14269

>  <SCORE.INTRA>
-1.2368

>  <SCORE.INTRA.DIHEDRAL>
-2.10552

>  <SCORE.INTRA.DIHEDRAL.0>
3.34563

>  <SCORE.INTRA.POLAR>
0

>  <SCORE.INTRA.POLAR.0>
0

>  <SCORE.INTRA.REPUL>
0

>  <SCORE.INTRA.REPUL.0>
0

>  <SCORE.INTRA.SOLV>
-1.22674

>  <SCORE.INTRA.SOLV.lig_0>
-59.746

>  <SCORE.INTRA.VDW>
0.429334

>  <SCORE.INTRA.VDW.0>
-0.691186

>  <SCORE.INTRA.norm>
-0.103066

>  <SCORE.RESTR>
0

>  <SCORE.RESTR.CAVITY>
0

>  <SCORE.RESTR.norm>
0

>  <SCORE.SYSTEM>
0

>  <SCORE.SYSTEM.CONST>
0

>  <SCORE.SYSTEM.DIHEDRAL>
0

>  <SCORE.SYSTEM.SOLV>
0

>  <SCORE.SYSTEM.norm>
0

>  <SCORE.heavy>
12

>  <SCORE.norm>
-1.24575

>  <RMSD>
2.800

$$$$
ligand
 OpenBabel02271912143D
libRbt.so/2013.1/901 2013/11/27
 12 12  0  0  0  0  0  0  0  0999 V2000
  -21.5452  -11.5575   95.3191 C   0  0  0  0  0  0  0  0  0  0  0  0
  -19.9483   -6.2922   95.2576 C   0  0  0  0  0  0  0  0  0  0  0  0
  -23.1895   -9.5651   96.0671 N   0  0  0  0  0  0  0  0  0  0  0  0
  -20.4662  -12.5251   95.5641 N   0  0  0  0  0  0  0  0  0  0  0  0
  -20.7381  -13.6031   95.4198 N   0  0  0  0  0  0  0  0  0  0  0  0
  -21.0109  -14.6797   95.2707 N   0  0  0  0  0  0  0  0  0  0  0  0
  -19.4565   -8.5776   94.9280 N   0  0  0  0  0  0  0  0  0  0  0  0
  -20.3276   -7.6286   95.2953 C   0  0  0  0  0  0  0  0  0  0  0  0
  -21.5415   -7.9543   95.7637 N   0  0  0  0  0  0  0  0  0  0  0  0
  -21.9181   -9.2374   95.8648 C   0  0  0  0  0  0  0  0  0  0  0  0
  -21.0619  -10.2661   95.4894 C   0  0  0  0  0  0  0  0  0  0  0  0
  -19.7969   -9.9324   95.0204 C   0  0  0  0  0  0  0  0  0  0  0  0
  1 11  1  0  0  0  0
  1  4  1  0  0  0  0
  2  8  1  0  0  0  0
  3 10  1  0  0  0  0
  4  5  1  0  0  0  0
  5  6  1  0  0  0  0
  7  8  2  0  0  0  0
  7 12  1  0  0  0  0
  8  9  1  0  0  0  0
  9 10  2  0  0  0  0
 10 11  1  0  0  0  0
 11 12  2  0  0  0  0
M  END
>  <CHROM.1>
-153.08780574,-178.01432500,60.44508624,-20.91758930,-10.17101684,95.43819209
1.64093360,-0.28588779,-3.12257496

>  <Name>
ligand

>  <RI>
0

>  <Rbt.Current_Directory>
/home/itssahil/PROJECTS/Mol_Feturizer/Test_systems_manuscript/rnas/4nya

>  <Rbt.Executable>
rbdock ($Id: //depot/dev/client3/rdock/2013.1/src/exe/rbdock.cxx#4 $)

>  <Rbt.Library>
libRbt.so (2013.1, Build901 2013/11/27)

>  <Rbt.Parameter_File>
/export/apps/rDock/src/rDock_2013.1_src/data/scripts/dock_solv.prm

>  <Rbt.Receptor>
prm/pocket_docking_5.prm

>  <SCORE>
-15.0098

>  <SCORE.INTER>
-13.7715

>  <SCORE.INTER.CONST>
1

>  <SCORE.INTER.POLAR>
0

>  <SCORE.INTER.ROT>
3

>  <SCORE.INTER.SOLV>
13.2414

>  <SCORE.INTER.VDW>
-19.1948

>  <SCORE.INTER.norm>
-1.14762

>  <SCORE.INTRA>
-1.2383

>  <SCORE.INTRA.DIHEDRAL>
-2.23451

>  <SCORE.INTRA.DIHEDRAL.0>
3.34563

>  <SCORE.INTRA.POLAR>
0

>  <SCORE.INTRA.POLAR.0>
0

>  <SCORE.INTRA.REPUL>
0

>  <SCORE.INTRA.REPUL.0>
0

>  <SCORE.INTRA.SOLV>
-1.26866

>  <SCORE.INTRA.SOLV.lig_0>
-59.746

>  <SCORE.INTRA.VDW>
0.513286

>  <SCORE.INTRA.VDW.0>
-0.691186

>  <SCORE.INTRA.norm>
-0.103192

>  <SCORE.RESTR>
0

>  <SCORE.RESTR.CAVITY>
0

>  <SCORE.RESTR.norm>
0

>  <SCORE.SYSTEM>
0

>  <SCORE.SYSTEM.CONST>
0

>  <SCORE.SYSTEM.DIHEDRAL>
0

>  <SCORE.SYSTEM.SOLV>
0

>  <SCORE.SYSTEM.norm>
0

>  <SCORE.heavy>
12

>  <SCORE.norm>
-1.25081

>  <RMSD>
2.800

$$$$
ligand
 OpenBabel02271912143D
libRbt.so/2013.1/901 2013/11/27
 12 12  0  0  0  0  0  0  0  0999 V2000
  -21.5312  -11.5224   95.3018 C   0  0  0  0  0  0  0  0  0  0  0  0
  -19.9197   -6.2613   95.2665 C   0  0  0  0  0  0  0  0  0  0  0  0
  -23.1774   -9.5271   96.0376 N   0  0  0  0  0  0  0  0  0  0  0  0
  -20.4706  -12.4947   95.6022 N   0  0  0  0  0  0  0  0  0  0  0  0
  -20.7400  -13.5716   95.4456 N   0  0  0  0  0  0  0  0  0  0  0  0
  -21.0048  -14.6495   95.2909 N   0  0  0  0  0  0  0  0  0  0  0  0
  -19.4307   -8.5473   94.9372 N   0  0  0  0  0  0  0  0  0  0  0  0
  -20.3029   -7.5967   95.2978 C   0  0  0  0  0  0  0  0  0  0  0  0
  -21.5222   -7.9201   95.7536 N   0  0  0  0  0  0  0  0  0  0  0  0
  -21.9032   -9.2024   95.8484 C   0  0  0  0  0  0  0  0  0  0  0  0
  -21.0461  -10.2326   95.4794 C   0  0  0  0  0  0  0  0  0  0  0  0
  -19.7757   -9.9013   95.0235 C   0  0  0  0  0  0  0  0  0  0  0  0
  1 11  1  0  0  0  0
  1  4  1  0  0  0  0
  2  8  1  0  0  0  0
  3 10  1  0  0  0  0
  4  5  1  0  0  0  0
  5  6  1  0  0  0  0
  7  8  2  0  0  0  0
  7 12  1  0  0  0  0
  8  9  1  0  0  0  0
  9 10  2  0  0  0  0
 10 11  1  0  0  0  0
 11 12  2  0  0  0  0
M  END
>  <CHROM.1>
-151.07459033,-177.31176934,-177.23695226,-20.90303954,-10.13836729,95.44065499
1.64482563,-0.27333766,-3.12580056

>  <Name>
ligand

>  <RI>
0

>  <Rbt.Current_Directory>
/home/itssahil/PROJECTS/Mol_Feturizer/Test_systems_manuscript/rnas/4nya

>  <Rbt.Executable>
rbdock ($Id: //depot/dev/client3/rdock/2013.1/src/exe/rbdock.cxx#4 $)

>  <Rbt.Library>
libRbt.so (2013.1, Build901 2013/11/27)

>  <Rbt.Parameter_File>
/export/apps/rDock/src/rDock_2013.1_src/data/scripts/dock_solv.prm

>  <Rbt.Receptor>
prm/pocket_docking_8.prm

>  <SCORE>
-15.0386

>  <SCORE.INTER>
-13.7821

>  <SCORE.INTER.CONST>
1

>  <SCORE.INTER.POLAR>
0

>  <SCORE.INTER.ROT>
3

>  <SCORE.INTER.SOLV>
13.3731

>  <SCORE.INTER.VDW>
-19.2458

>  <SCORE.INTER.norm>
-1.14851

>  <SCORE.INTRA>
-1.25648

>  <SCORE.INTRA.DIHEDRAL>
-2.21486

>  <SCORE.INTRA.DIHEDRAL.0>
3.34563

>  <SCORE.INTRA.POLAR>
0

>  <SCORE.INTRA.POLAR.0>
0

>  <SCORE.INTRA.REPUL>
0

>  <SCORE.INTRA.REPUL.0>
0

>  <SCORE.INTRA.SOLV>
-1.25909

>  <SCORE.INTRA.SOLV.lig_0>
-59.746

>  <SCORE.INTRA.VDW>
0.480497

>  <SCORE.INTRA.VDW.0>
-0.691186

>  <SCORE.INTRA.norm>
-0.104707

>  <SCORE.RESTR>
0

>  <SCORE.RESTR.CAVITY>
0

>  <SCORE.RESTR.norm>
0

>  <SCORE.SYSTEM>
0

>  <SCORE.SYSTEM.CONST>
0

>  <SCORE.SYSTEM.DIHEDRAL>
0

>  <SCORE.SYSTEM.SOLV>
0

>  <SCORE.SYSTEM.norm>
0

>  <SCORE.heavy>
12

>  <SCORE.norm>
-1.25321

>  <RMSD>
2.800

$$$$
ligand
 OpenBabel02271912143D
libRbt.so/2013.1/901 2013/11/27
 12 12  0  0  0  0  0  0  0  0999 V2000
  -21.5386  -11.5388   95.3754 C   0  0  0  0  0  0  0  0  0  0  0  0
  -19.9458   -6.2743   95.2145 C   0  0  0  0  0  0  0  0  0  0  0  0
  -23.1594   -9.5394   96.1552 N   0  0  0  0  0  0  0  0  0  0  0  0
  -20.4540  -12.5042   95.6040 N   0  0  0  0  0  0  0  0  0  0  0  0
  -20.7195  -13.5810   95.4406 N   0  0  0  0  0  0  0  0  0  0  0  0
  -20.9859  -14.6565   95.2724 N   0  0  0  0  0  0  0  0  0  0  0  0
  -19.4638   -8.5627   94.8914 N   0  0  0  0  0  0  0  0  0  0  0  0
  -20.3234   -7.6102   95.2766 C   0  0  0  0  0  0  0  0  0  0  0  0
  -21.5221   -7.9315   95.7855 N   0  0  0  0  0  0  0  0  0  0  0  0
  -21.8950   -9.2136   95.9104 C   0  0  0  0  0  0  0  0  0  0  0  0
  -21.0505  -10.2458   95.5184 C   0  0  0  0  0  0  0  0  0  0  0  0
  -19.8009   -9.9165   95.0072 C   0  0  0  0  0  0  0  0  0  0  0  0
  1 11  1  0  0  0  0
  1  4  1  0  0  0  0
  2  8  1  0  0  0  0
  3 10  1  0  0  0  0
  4  5  1  0  0  0  0
  5  6  1  0  0  0  0
  7  8  2  0  0  0  0
  7 12  1  0  0  0  0
  8  9  1  0  0  0  0
  9 10  2  0  0  0  0
 10 11  1  0  0  0  0
 11 12  2  0  0  0  0
M  END
>  <CHROM.1>
-152.74597589,-175.74812422,61.64589326,-20.90568968,-10.15061026,95.45405564
1.63902246,-0.31875099,-3.12680234

>  <Name>
ligand

>  <RI>
0

>  <Rbt.Current_Directory>
/home/itssahil/PROJECTS/Mol_Feturizer/Test_systems_manuscript/rnas/4nya

>  <Rbt.Executable>
rbdock ($Id: //depot/dev/client3/rdock/2013.1/src/exe/rbdock.cxx#4 $)

>  <Rbt.Library>
libRbt.so (2013.1, Build901 2013/11/27)

>  <Rbt.Parameter_File>
/export/apps/rDock/src/rDock_2013.1_src/data/scripts/dock_solv.prm

>  <Rbt.Receptor>
prm/pocket_docking_5.prm

>  <SCORE>
-15.0695

>  <SCORE.INTER>
-13.8354

>  <SCORE.INTER.CONST>
1

>  <SCORE.INTER.POLAR>
0

>  <SCORE.INTER.ROT>
3

>  <SCORE.INTER.SOLV>
13.4686

>  <SCORE.INTER.VDW>
-19.3132

>  <SCORE.INTER.norm>
-1.15295

>  <SCORE.INTRA>
-1.23404

>  <SCORE.INTRA.DIHEDRAL>
-2.22017

>  <SCORE.INTRA.DIHEDRAL.0>
3.34563

>  <SCORE.INTRA.POLAR>
0

>  <SCORE.INTRA.POLAR.0>
0

>  <SCORE.INTRA.REPUL>
0

>  <SCORE.INTRA.REPUL.0>
0

>  <SCORE.INTRA.SOLV>
-1.26224

>  <SCORE.INTRA.SOLV.lig_0>
-59.746

>  <SCORE.INTRA.VDW>
0.50716

>  <SCORE.INTRA.VDW.0>
-0.691186

>  <SCORE.INTRA.norm>
-0.102837

>  <SCORE.RESTR>
0

>  <SCORE.RESTR.CAVITY>
0

>  <SCORE.RESTR.norm>
0

>  <SCORE.SYSTEM>
0

>  <SCORE.SYSTEM.CONST>
0

>  <SCORE.SYSTEM.DIHEDRAL>
0

>  <SCORE.SYSTEM.SOLV>
0

>  <SCORE.SYSTEM.norm>
0

>  <SCORE.heavy>
12

>  <SCORE.norm>
-1.25579

>  <RMSD>
2.801

$$$$
ligand
 OpenBabel02271912143D
libRbt.so/2013.1/901 2013/11/27
 12 12  0  0  0  0  0  0  0  0999 V2000
  -21.5421  -11.5515   95.3125 C   0  0  0  0  0  0  0  0  0  0  0  0
  -19.9466   -6.2863   95.2173 C   0  0  0  0  0  0  0  0  0  0  0  0
  -23.1804   -9.5565   96.0666 N   0  0  0  0  0  0  0  0  0  0  0  0
  -20.4630  -12.5183   95.5602 N   0  0  0  0  0  0  0  0  0  0  0  0
  -20.7321  -13.5961   95.4101 N   0  0  0  0  0  0  0  0  0  0  0  0
  -21.0049  -14.6732   95.2636 N   0  0  0  0  0  0  0  0  0  0  0  0
  -19.4572   -8.5729   94.8924 N   0  0  0  0  0  0  0  0  0  0  0  0
  -20.3254   -7.6226   95.2633 C   0  0  0  0  0  0  0  0  0  0  0  0
  -21.5353   -7.9467   95.7431 N   0  0  0  0  0  0  0  0  0  0  0  0
  -21.9108   -9.2294   95.8523 C   0  0  0  0  0  0  0  0  0  0  0  0
  -21.0576  -10.2594   95.4738 C   0  0  0  0  0  0  0  0  0  0  0  0
  -19.7967   -9.9273   94.9929 C   0  0  0  0  0  0  0  0  0  0  0  0
  1 11  1  0  0  0  0
  1  4  1  0  0  0  0
  2  8  1  0  0  0  0
  3 10  1  0  0  0  0
  4  5  1  0  0  0  0
  5  6  1  0  0  0  0
  7  8  2  0  0  0  0
  7 12  1  0  0  0  0
  8  9  1  0  0  0  0
  9 10  2  0  0  0  0
 10 11  1  0  0  0  0
 11 12  2  0  0  0  0
M  END
>  <CHROM.1>
-152.74310506,-177.24988170,-57.73191651,-20.91353468,-10.16442888,95.42061686
1.64066441,-0.29433728,-3.12603515

>  <Name>
ligand

>  <RI>
0

>  <Rbt.Current_Directory>
/home/itssahil/PROJECTS/Mol_Feturizer/Test_systems_manuscript/rnas/4nya

>  <Rbt.Executable>
rbdock ($Id: //depot/dev/client3/rdock/2013.1/src/exe/rbdock.cxx#4 $)

>  <Rbt.Library>
libRbt.so (2013.1, Build901 2013/11/27)

>  <Rbt.Parameter_File>
/export/apps/rDock/src/rDock_2013.1_src/data/scripts/dock_solv.prm

>  <Rbt.Receptor>
prm/pocket_docking_5.prm

>  <SCORE>
-15.0094

>  <SCORE.INTER>
-13.7704

>  <SCORE.INTER.CONST>
1

>  <SCORE.INTER.POLAR>
0

>  <SCORE.INTER.ROT>
3

>  <SCORE.INTER.SOLV>
13.3105

>  <SCORE.INTER.VDW>
-19.2171

>  <SCORE.INTER.norm>
-1.14754

>  <SCORE.INTRA>
-1.23901

>  <SCORE.INTRA.DIHEDRAL>
-2.22808

>  <SCORE.INTRA.DIHEDRAL.0>
3.34563

>  <SCORE.INTRA.POLAR>
0

>  <SCORE.INTRA.POLAR.0>
0

>  <SCORE.INTRA.REPUL>
0

>  <SCORE.INTRA.REPUL.0>
0

>  <SCORE.INTRA.SOLV>
-1.26522

>  <SCORE.INTRA.SOLV.lig_0>
-59.746

>  <SCORE.INTRA.VDW>
0.507643

>  <SCORE.INTRA.VDW.0>
-0.691186

>  <SCORE.INTRA.norm>
-0.10325

>  <SCORE.RESTR>
0

>  <SCORE.RESTR.CAVITY>
0

>  <SCORE.RESTR.norm>
0

>  <SCORE.SYSTEM>
0

>  <SCORE.SYSTEM.CONST>
0

>  <SCORE.SYSTEM.DIHEDRAL>
0

>  <SCORE.SYSTEM.SOLV>
0

>  <SCORE.SYSTEM.norm>
0

>  <SCORE.heavy>
12

>  <SCORE.norm>
-1.25079

>  <RMSD>
2.801

$$$$
ligand
 OpenBabel02271912143D
libRbt.so/2013.1/901 2013/11/27
 12 12  0  0  0  0  0  0  0  0999 V2000
  -21.5478  -11.5485   95.3219 C   0  0  0  0  0  0  0  0  0  0  0  0
  -19.9557   -6.2820   95.2382 C   0  0  0  0  0  0  0  0  0  0  0  0
  -23.1953   -9.5541   96.0576 N   0  0  0  0  0  0  0  0  0  0  0  0
  -20.4666  -12.5136   95.5665 N   0  0  0  0  0  0  0  0  0  0  0  0
  -20.7337  -13.5917   95.4140 N   0  0  0  0  0  0  0  0  0  0  0  0
  -21.0044  -14.6689   95.2652 N   0  0  0  0  0  0  0  0  0  0  0  0
  -19.4612   -8.5685   94.9202 N   0  0  0  0  0  0  0  0  0  0  0  0
  -20.3338   -7.6185   95.2815 C   0  0  0  0  0  0  0  0  0  0  0  0
  -21.5482   -7.9432   95.7494 N   0  0  0  0  0  0  0  0  0  0  0  0
  -21.9238   -9.2262   95.8559 C   0  0  0  0  0  0  0  0  0  0  0  0
  -21.0659  -10.2558   95.4869 C   0  0  0  0  0  0  0  0  0  0  0  0
  -19.8005   -9.9231   95.0185 C   0  0  0  0  0  0  0  0  0  0  0  0
  1 11  1  0  0  0  0
  1  4  1  0  0  0  0
  2  8  1  0  0  0  0
  3 10  1  0  0  0  0
  4  5  1  0  0  0  0
  5  6  1  0  0  0  0
  7  8  2  0  0  0  0
  7 12  1  0  0  0  0
  8  9  1  0  0  0  0
  9 10  2  0  0  0  0
 10 11  1  0  0  0  0
 11 12  2  0  0  0  0
M  END
>  <CHROM.1>
-153.38085310,-177.29740259,-58.94169442,-20.92054828,-10.16058519,95.43108696
1.63894832,-0.28527086,-3.12499490

>  <Name>
ligand

>  <RI>
0

>  <Rbt.Current_Directory>
/home/itssahil/PROJECTS/Mol_Feturizer/Test_systems_manuscript/rnas/4nya

>  <Rbt.Executable>
rbdock ($Id: //depot/dev/client3/rdock/2013.1/src/exe/rbdock.cxx#4 $)

>  <Rbt.Library>
libRbt.so (2013.1, Build901 2013/11/27)

>  <Rbt.Parameter_File>
/export/apps/rDock/src/rDock_2013.1_src/data/scripts/dock_solv.prm

>  <Rbt.Receptor>
prm/pocket_docking_6.prm

>  <SCORE>
-15.0109

>  <SCORE.INTER>
-13.7777

>  <SCORE.INTER.CONST>
1

>  <SCORE.INTER.POLAR>
0

>  <SCORE.INTER.ROT>
3

>  <SCORE.INTER.SOLV>
13.2762

>  <SCORE.INTER.VDW>
-19.2106

>  <SCORE.INTER.norm>
-1.14815

>  <SCORE.INTRA>
-1.23319

>  <SCORE.INTRA.DIHEDRAL>
-2.23315

>  <SCORE.INTRA.DIHEDRAL.0>
3.34563

>  <SCORE.INTRA.POLAR>
0

>  <SCORE.INTRA.POLAR.0>
0

>  <SCORE.INTRA.REPUL>
0

>  <SCORE.INTRA.REPUL.0>
0

>  <SCORE.INTRA.SOLV>
-1.26881

>  <SCORE.INTRA.SOLV.lig_0>
-59.746

>  <SCORE.INTRA.VDW>
0.517792

>  <SCORE.INTRA.VDW.0>
-0.691186

>  <SCORE.INTRA.norm>
-0.102766

>  <SCORE.RESTR>
0

>  <SCORE.RESTR.CAVITY>
0

>  <SCORE.RESTR.norm>
0

>  <SCORE.SYSTEM>
0

>  <SCORE.SYSTEM.CONST>
0

>  <SCORE.SYSTEM.DIHEDRAL>
0

>  <SCORE.SYSTEM.SOLV>
0

>  <SCORE.SYSTEM.norm>
0

>  <SCORE.heavy>
12

>  <SCORE.norm>
-1.25091

>  <RMSD>
2.801

$$$$
ligand
 OpenBabel02271912143D
libRbt.so/2013.1/901 2013/11/27
 12 12  0  0  0  0  0  0  0  0999 V2000
  -21.5250  -11.5666   95.3568 C   0  0  0  0  0  0  0  0  0  0  0  0
  -19.8587   -6.3227   95.3044 C   0  0  0  0  0  0  0  0  0  0  0  0
  -23.1647   -9.5477   96.0411 N   0  0  0  0  0  0  0  0  0  0  0  0
  -20.4778  -12.5467   95.6781 N   0  0  0  0  0  0  0  0  0  0  0  0
  -20.7365  -13.6184   95.4753 N   0  0  0  0  0  0  0  0  0  0  0  0
  -20.9949  -14.6890   95.2677 N   0  0  0  0  0  0  0  0  0  0  0  0
  -19.3871   -8.6167   95.0062 N   0  0  0  0  0  0  0  0  0  0  0  0
  -20.2563   -7.6538   95.3405 C   0  0  0  0  0  0  0  0  0  0  0  0
  -21.4877   -7.9605   95.7750 N   0  0  0  0  0  0  0  0  0  0  0  0
  -21.8837   -9.2378   95.8742 C   0  0  0  0  0  0  0  0  0  0  0  0
  -21.0302  -10.2802   95.5320 C   0  0  0  0  0  0  0  0  0  0  0  0
  -19.7477   -9.9662   95.0983 C   0  0  0  0  0  0  0  0  0  0  0  0
  1 11  1  0  0  0  0
  1  4  1  0  0  0  0
  2  8  1  0  0  0  0
  3 10  1  0  0  0  0
  4  5  1  0  0  0  0
  5  6  1  0  0  0  0
  7  8  2  0  0  0  0
  7 12  1  0  0  0  0
  8  9  1  0  0  0  0
  9 10  2  0  0  0  0
 10 11  1  0  0  0  0
 11 12  2  0  0  0  0
M  END
>  <CHROM.1>
-151.47369479,-174.27344208,70.45304925,-20.88018533,-10.18657126,95.47886752
1.65063555,-0.25726196,-3.12226156

>  <Name>
ligand

>  <RI>
0

>  <Rbt.Current_Directory>
/home/itssahil/PROJECTS/Mol_Feturizer/Test_systems_manuscript/rnas/4nya

>  <Rbt.Executable>
rbdock ($Id: //depot/dev/client3/rdock/2013.1/src/exe/rbdock.cxx#4 $)

>  <Rbt.Library>
libRbt.so (2013.1, Build901 2013/11/27)

>  <Rbt.Parameter_File>
/export/apps/rDock/src/rDock_2013.1_src/data/scripts/dock_solv.prm

>  <Rbt.Receptor>
prm/pocket_docking_5.prm

>  <SCORE>
-14.9742

>  <SCORE.INTER>
-13.7498

>  <SCORE.INTER.CONST>
1

>  <SCORE.INTER.POLAR>
0

>  <SCORE.INTER.ROT>
3

>  <SCORE.INTER.SOLV>
13.3702

>  <SCORE.INTER.VDW>
-19.2233

>  <SCORE.INTER.norm>
-1.14582

>  <SCORE.INTRA>
-1.22441

>  <SCORE.INTRA.DIHEDRAL>
-2.17036

>  <SCORE.INTRA.DIHEDRAL.0>
3.34563

>  <SCORE.INTRA.POLAR>
0

>  <SCORE.INTRA.POLAR.0>
0

>  <SCORE.INTRA.REPUL>
0

>  <SCORE.INTRA.REPUL.0>
0

>  <SCORE.INTRA.SOLV>
-1.25184

>  <SCORE.INTRA.SOLV.lig_0>
-59.746

>  <SCORE.INTRA.VDW>
0.486686

>  <SCORE.INTRA.VDW.0>
-0.691186

>  <SCORE.INTRA.norm>
-0.102034

>  <SCORE.RESTR>
0

>  <SCORE.RESTR.CAVITY>
0

>  <SCORE.RESTR.norm>
0

>  <SCORE.SYSTEM>
0

>  <SCORE.SYSTEM.CONST>
0

>  <SCORE.SYSTEM.DIHEDRAL>
0

>  <SCORE.SYSTEM.SOLV>
0

>  <SCORE.SYSTEM.norm>
0

>  <SCORE.heavy>
12

>  <SCORE.norm>
-1.24785

>  <RMSD>
2.802

$$$$
ligand
 OpenBabel02271912143D
libRbt.so/2013.1/901 2013/11/27
 12 12  0  0  0  0  0  0  0  0999 V2000
  -21.5160  -11.5147   95.3259 C   0  0  0  0  0  0  0  0  0  0  0  0
  -19.9375   -6.2445   95.2222 C   0  0  0  0  0  0  0  0  0  0  0  0
  -23.1690   -9.5217   96.0529 N   0  0  0  0  0  0  0  0  0  0  0  0
  -20.4334  -12.4762   95.5788 N   0  0  0  0  0  0  0  0  0  0  0  0
  -20.7256  -13.5579   95.5421 N   0  0  0  0  0  0  0  0  0  0  0  0
  -21.0130  -14.6405   95.5066 N   0  0  0  0  0  0  0  0  0  0  0  0
  -19.4369   -8.5309   94.9136 N   0  0  0  0  0  0  0  0  0  0  0  0
  -20.3122   -7.5818   95.2706 C   0  0  0  0  0  0  0  0  0  0  0  0
  -21.5260   -7.9078   95.7391 N   0  0  0  0  0  0  0  0  0  0  0  0
  -21.8983   -9.1913   95.8506 C   0  0  0  0  0  0  0  0  0  0  0  0
  -21.0376  -10.2202   95.4861 C   0  0  0  0  0  0  0  0  0  0  0  0
  -19.7728   -9.8860   95.0170 C   0  0  0  0  0  0  0  0  0  0  0  0
  1 11  1  0  0  0  0
  1  4  1  0  0  0  0
  2  8  1  0  0  0  0
  3 10  1  0  0  0  0
  4  5  1  0  0  0  0
  5  6  1  0  0  0  0
  7  8  2  0  0  0  0
  7 12  1  0  0  0  0
  8  9  1  0  0  0  0
  9 10  2  0  0  0  0
 10 11  1  0  0  0  0
 11 12  2  0  0  0  0
M  END
>  <CHROM.1>
-153.21439061,176.18843385,-179.71843584,-20.89922580,-10.12558054,95.45988130
1.64277050,-0.27849511,3.13407614

>  <Name>
ligand

>  <RI>
0

>  <Rbt.Current_Directory>
/home/itssahil/PROJECTS/Mol_Feturizer/Test_systems_manuscript/rnas/4nya

>  <Rbt.Executable>
rbdock ($Id: //depot/dev/client3/rdock/2013.1/src/exe/rbdock.cxx#4 $)

>  <Rbt.Library>
libRbt.so (2013.1, Build901 2013/11/27)

>  <Rbt.Parameter_File>
/export/apps/rDock/src/rDock_2013.1_src/data/scripts/dock_solv.prm

>  <Rbt.Receptor>
prm/pocket_docking_5.prm

>  <SCORE>
-14.9543

>  <SCORE.INTER>
-13.7155

>  <SCORE.INTER.CONST>
1

>  <SCORE.INTER.POLAR>
0

>  <SCORE.INTER.ROT>
3

>  <SCORE.INTER.SOLV>
13.9182

>  <SCORE.INTER.VDW>
-19.3831

>  <SCORE.INTER.norm>
-1.14296

>  <SCORE.INTRA>
-1.2388

>  <SCORE.INTRA.DIHEDRAL>
-2.2266

>  <SCORE.INTRA.DIHEDRAL.0>
3.34563

>  <SCORE.INTRA.POLAR>
0

>  <SCORE.INTRA.POLAR.0>
0

>  <SCORE.INTRA.REPUL>
0

>  <SCORE.INTRA.REPUL.0>
0

>  <SCORE.INTRA.SOLV>
-1.28112

>  <SCORE.INTRA.SOLV.lig_0>
-59.746

>  <SCORE.INTRA.VDW>
0.515063

>  <SCORE.INTRA.VDW.0>
-0.691186

>  <SCORE.INTRA.norm>
-0.103233

>  <SCORE.RESTR>
0

>  <SCORE.RESTR.CAVITY>
0

>  <SCORE.RESTR.norm>
0

>  <SCORE.SYSTEM>
0

>  <SCORE.SYSTEM.CONST>
0

>  <SCORE.SYSTEM.DIHEDRAL>
0

>  <SCORE.SYSTEM.SOLV>
0

>  <SCORE.SYSTEM.norm>
0

>  <SCORE.heavy>
12

>  <SCORE.norm>
-1.24619

>  <RMSD>
2.802

$$$$
ligand
 OpenBabel02271912143D
libRbt.so/2013.1/901 2013/11/27
 12 12  0  0  0  0  0  0  0  0999 V2000
  -21.5420  -11.5379   95.3272 C   0  0  0  0  0  0  0  0  0  0  0  0
  -19.9474   -6.2722   95.2440 C   0  0  0  0  0  0  0  0  0  0  0  0
  -23.1918   -9.5420   96.0535 N   0  0  0  0  0  0  0  0  0  0  0  0
  -20.4721  -12.5042   95.6140 N   0  0  0  0  0  0  0  0  0  0  0  0
  -20.7337  -13.5818   95.4497 N   0  0  0  0  0  0  0  0  0  0  0  0
  -20.9905  -14.6605   95.2870 N   0  0  0  0  0  0  0  0  0  0  0  0
  -19.4525   -8.5592   94.9308 N   0  0  0  0  0  0  0  0  0  0  0  0
  -20.3263   -7.6085   95.2872 C   0  0  0  0  0  0  0  0  0  0  0  0
  -21.5428   -7.9322   95.7503 N   0  0  0  0  0  0  0  0  0  0  0  0
  -21.9193   -9.2149   95.8568 C   0  0  0  0  0  0  0  0  0  0  0  0
  -21.0603  -10.2453   95.4927 C   0  0  0  0  0  0  0  0  0  0  0  0
  -19.7928   -9.9136   95.0293 C   0  0  0  0  0  0  0  0  0  0  0  0
  1 11  1  0  0  0  0
  1  4  1  0  0  0  0
  2  8  1  0  0  0  0
  3 10  1  0  0  0  0
  4  5  1  0  0  0  0
  5  6  1  0  0  0  0
  7  8  2  0  0  0  0
  7 12  1  0  0  0  0
  8  9  1  0  0  0  0
  9 10  2  0  0  0  0
 10 11  1  0  0  0  0
 11 12  2  0  0  0  0
M  END
>  <CHROM.1>
-151.81188325,-176.37202780,-178.94710538,-20.91510424,-10.15045588,95.44359907
1.63934704,-0.27940069,-3.12931847

>  <Name>
ligand

>  <RI>
0

>  <Rbt.Current_Directory>
/home/itssahil/PROJECTS/Mol_Feturizer/Test_systems_manuscript/rnas/4nya

>  <Rbt.Executable>
rbdock ($Id: //depot/dev/client3/rdock/2013.1/src/exe/rbdock.cxx#4 $)

>  <Rbt.Library>
libRbt.so (2013.1, Build901 2013/11/27)

>  <Rbt.Parameter_File>
/export/apps/rDock/src/rDock_2013.1_src/data/scripts/dock_solv.prm

>  <Rbt.Receptor>
prm/pocket_docking_6.prm

>  <SCORE>
-15.0216

>  <SCORE.INTER>
-13.7734

>  <SCORE.INTER.CONST>
1

>  <SCORE.INTER.POLAR>
0

>  <SCORE.INTER.ROT>
3

>  <SCORE.INTER.SOLV>
13.3682

>  <SCORE.INTER.VDW>
-19.2384

>  <SCORE.INTER.norm>
-1.14778

>  <SCORE.INTRA>
-1.24821

>  <SCORE.INTRA.DIHEDRAL>
-2.21798

>  <SCORE.INTRA.DIHEDRAL.0>
3.34563

>  <SCORE.INTRA.POLAR>
0

>  <SCORE.INTRA.POLAR.0>
0

>  <SCORE.INTRA.REPUL>
0

>  <SCORE.INTRA.REPUL.0>
0

>  <SCORE.INTRA.SOLV>
-1.26148

>  <SCORE.INTRA.SOLV.lig_0>
-59.746

>  <SCORE.INTRA.VDW>
0.491514

>  <SCORE.INTRA.VDW.0>
-0.691186

>  <SCORE.INTRA.norm>
-0.104018

>  <SCORE.RESTR>
0

>  <SCORE.RESTR.CAVITY>
0

>  <SCORE.RESTR.norm>
0

>  <SCORE.SYSTEM>
0

>  <SCORE.SYSTEM.CONST>
0

>  <SCORE.SYSTEM.DIHEDRAL>
0

>  <SCORE.SYSTEM.SOLV>
0

>  <SCORE.SYSTEM.norm>
0

>  <SCORE.heavy>
12

>  <SCORE.norm>
-1.2518

>  <RMSD>
2.802

$$$$
ligand
 OpenBabel02271912143D
libRbt.so/2013.1/901 2013/11/27
 12 12  0  0  0  0  0  0  0  0999 V2000
  -21.5375  -11.5838   95.3404 C   0  0  0  0  0  0  0  0  0  0  0  0
  -19.9487   -6.3161   95.2735 C   0  0  0  0  0  0  0  0  0  0  0  0
  -23.1752   -9.5958   96.1142 N   0  0  0  0  0  0  0  0  0  0  0  0
  -20.4616  -12.5515   95.5982 N   0  0  0  0  0  0  0  0  0  0  0  0
  -20.7265  -13.6282   95.4329 N   0  0  0  0  0  0  0  0  0  0  0  0
  -20.9951  -14.7041   95.2709 N   0  0  0  0  0  0  0  0  0  0  0  0
  -19.4579   -8.5999   94.9316 N   0  0  0  0  0  0  0  0  0  0  0  0
  -20.3257   -7.6531   95.3122 C   0  0  0  0  0  0  0  0  0  0  0  0
  -21.5333   -7.9819   95.7947 N   0  0  0  0  0  0  0  0  0  0  0  0
  -21.9068   -9.2658   95.8970 C   0  0  0  0  0  0  0  0  0  0  0  0
  -21.0539  -10.2922   95.5082 C   0  0  0  0  0  0  0  0  0  0  0  0
  -19.7953   -9.9554   95.0245 C   0  0  0  0  0  0  0  0  0  0  0  0
  1 11  1  0  0  0  0
  1  4  1  0  0  0  0
  2  8  1  0  0  0  0
  3 10  1  0  0  0  0
  4  5  1  0  0  0  0
  5  6  1  0  0  0  0
  7  8  2  0  0  0  0
  7 12  1  0  0  0  0
  8  9  1  0  0  0  0
  9 10  2  0  0  0  0
 10 11  1  0  0  0  0
 11 12  2  0  0  0  0
M  END
>  <CHROM.1>
-151.85223215,-176.58612700,-56.12536963,-20.91065133,-10.19673636,95.45811498
1.63972859,-0.29757438,-3.12120583

>  <Name>
ligand

>  <RI>
0

>  <Rbt.Current_Directory>
/home/itssahil/PROJECTS/Mol_Feturizer/Test_systems_manuscript/rnas/4nya

>  <Rbt.Executable>
rbdock ($Id: //depot/dev/client3/rdock/2013.1/src/exe/rbdock.cxx#4 $)

>  <Rbt.Library>
libRbt.so (2013.1, Build901 2013/11/27)

>  <Rbt.Parameter_File>
/export/apps/rDock/src/rDock_2013.1_src/data/scripts/dock_solv.prm

>  <Rbt.Receptor>
prm/pocket_docking_7.prm

>  <SCORE>
-15.0173

>  <SCORE.INTER>
-13.7735

>  <SCORE.INTER.CONST>
1

>  <SCORE.INTER.POLAR>
0

>  <SCORE.INTER.ROT>
3

>  <SCORE.INTER.SOLV>
13.2866

>  <SCORE.INTER.VDW>
-19.2112

>  <SCORE.INTER.norm>
-1.14779

>  <SCORE.INTRA>
-1.24373

>  <SCORE.INTRA.DIHEDRAL>
-2.21573

>  <SCORE.INTRA.DIHEDRAL.0>
3.34563

>  <SCORE.INTRA.POLAR>
0

>  <SCORE.INTRA.POLAR.0>
0

>  <SCORE.INTRA.REPUL>
0

>  <SCORE.INTRA.REPUL.0>
0

>  <SCORE.INTRA.SOLV>
-1.25878

>  <SCORE.INTRA.SOLV.lig_0>
-59.746

>  <SCORE.INTRA.VDW>
0.493526

>  <SCORE.INTRA.VDW.0>
-0.691186

>  <SCORE.INTRA.norm>
-0.103644

>  <SCORE.RESTR>
0

>  <SCORE.RESTR.CAVITY>
0

>  <SCORE.RESTR.norm>
0

>  <SCORE.SYSTEM>
0

>  <SCORE.SYSTEM.CONST>
0

>  <SCORE.SYSTEM.DIHEDRAL>
0

>  <SCORE.SYSTEM.SOLV>
0

>  <SCORE.SYSTEM.norm>
0

>  <SCORE.heavy>
12

>  <SCORE.norm>
-1.25144

>  <RMSD>
2.802

$$$$
ligand
 OpenBabel02271912143D
libRbt.so/2013.1/901 2013/11/27
 12 12  0  0  0  0  0  0  0  0999 V2000
  -21.5447  -11.5591   95.3198 C   0  0  0  0  0  0  0  0  0  0  0  0
  -19.9520   -6.2924   95.2638 C   0  0  0  0  0  0  0  0  0  0  0  0
  -23.1914   -9.5686   96.0676 N   0  0  0  0  0  0  0  0  0  0  0  0
  -20.4654  -12.5260   95.5659 N   0  0  0  0  0  0  0  0  0  0  0  0
  -20.7349  -13.6038   95.4160 N   0  0  0  0  0  0  0  0  0  0  0  0
  -20.9996  -14.6826   95.2676 N   0  0  0  0  0  0  0  0  0  0  0  0
  -19.4580   -8.5772   94.9330 N   0  0  0  0  0  0  0  0  0  0  0  0
  -20.3303   -7.6291   95.3001 C   0  0  0  0  0  0  0  0  0  0  0  0
  -21.5444   -7.9562   95.7670 N   0  0  0  0  0  0  0  0  0  0  0  0
  -21.9200   -9.2397   95.8668 C   0  0  0  0  0  0  0  0  0  0  0  0
  -21.0626  -10.2674   95.4915 C   0  0  0  0  0  0  0  0  0  0  0  0
  -19.7975   -9.9323   95.0240 C   0  0  0  0  0  0  0  0  0  0  0  0
  1 11  1  0  0  0  0
  1  4  1  0  0  0  0
  2  8  1  0  0  0  0
  3 10  1  0  0  0  0
  4  5  1  0  0  0  0
  5  6  1  0  0  0  0
  7  8  2  0  0  0  0
  7 12  1  0  0  0  0
  8  9  1  0  0  0  0
  9 10  2  0  0  0  0
 10 11  1  0  0  0  0
 11 12  2  0  0  0  0
M  END
>  <CHROM.1>
-153.05339817,-177.74373267,-178.37269393,-20.91755584,-10.17228070,95.44010433
1.63932345,-0.28502822,-3.12195373

>  <Name>
ligand

>  <RI>
0

>  <Rbt.Current_Directory>
/home/itssahil/PROJECTS/Mol_Feturizer/Test_systems_manuscript/rnas/4nya

>  <Rbt.Executable>
rbdock ($Id: //depot/dev/client3/rdock/2013.1/src/exe/rbdock.cxx#4 $)

>  <Rbt.Library>
libRbt.so (2013.1, Build901 2013/11/27)

>  <Rbt.Parameter_File>
/export/apps/rDock/src/rDock_2013.1_src/data/scripts/dock_solv.prm

>  <Rbt.Receptor>
prm/pocket_docking_8.prm

>  <SCORE>
-15.0056

>  <SCORE.INTER>
-13.7651

>  <SCORE.INTER.CONST>
1

>  <SCORE.INTER.POLAR>
0

>  <SCORE.INTER.ROT>
3

>  <SCORE.INTER.SOLV>
13.2563

>  <SCORE.INTER.VDW>
-19.1955

>  <SCORE.INTER.norm>
-1.14709

>  <SCORE.INTRA>
-1.24054

>  <SCORE.INTRA.DIHEDRAL>
-2.2327

>  <SCORE.INTRA.DIHEDRAL.0>
3.34563

>  <SCORE.INTRA.POLAR>
0

>  <SCORE.INTRA.POLAR.0>
0

>  <SCORE.INTRA.REPUL>
0

>  <SCORE.INTRA.REPUL.0>
0

>  <SCORE.INTRA.SOLV>
-1.2712

>  <SCORE.INTRA.SOLV.lig_0>
-59.746

>  <SCORE.INTRA.VDW>
0.511405

>  <SCORE.INTRA.VDW.0>
-0.691186

>  <SCORE.INTRA.norm>
-0.103379

>  <SCORE.RESTR>
0

>  <SCORE.RESTR.CAVITY>
0

>  <SCORE.RESTR.norm>
0

>  <SCORE.SYSTEM>
0

>  <SCORE.SYSTEM.CONST>
0

>  <SCORE.SYSTEM.DIHEDRAL>
0

>  <SCORE.SYSTEM.SOLV>
0

>  <SCORE.SYSTEM.norm>
0

>  <SCORE.heavy>
12

>  <SCORE.norm>
-1.25047

>  <RMSD>
2.802

$$$$
ligand
 OpenBabel02271912143D
libRbt.so/2013.1/901 2013/11/27
 12 12  0  0  0  0  0  0  0  0999 V2000
  -21.5321  -11.5683   95.3600 C   0  0  0  0  0  0  0  0  0  0  0  0
  -19.8792   -6.3200   95.3329 C   0  0  0  0  0  0  0  0  0  0  0  0
  -23.1920   -9.5524   96.0035 N   0  0  0  0  0  0  0  0  0  0  0  0
  -20.4802  -12.5443   95.6783 N   0  0  0  0  0  0  0  0  0  0  0  0
  -20.7345  -13.6169   95.4740 N   0  0  0  0  0  0  0  0  0  0  0  0
  -20.9892  -14.6880   95.2648 N   0  0  0  0  0  0  0  0  0  0  0  0
  -19.3949   -8.6133   95.0502 N   0  0  0  0  0  0  0  0  0  0  0  0
  -20.2739   -7.6521   95.3631 C   0  0  0  0  0  0  0  0  0  0  0  0
  -21.5138   -7.9612   95.7710 N   0  0  0  0  0  0  0  0  0  0  0  0
  -21.9084   -9.2394   95.8643 C   0  0  0  0  0  0  0  0  0  0  0  0
  -21.0447  -10.2801   95.5432 C   0  0  0  0  0  0  0  0  0  0  0  0
  -19.7538   -9.9636   95.1373 C   0  0  0  0  0  0  0  0  0  0  0  0
  1 11  1  0  0  0  0
  1  4  1  0  0  0  0
  2  8  1  0  0  0  0
  3 10  1  0  0  0  0
  4  5  1  0  0  0  0
  5  6  1  0  0  0  0
  7  8  2  0  0  0  0
  7 12  1  0  0  0  0
  8  9  1  0  0  0  0
  9 10  2  0  0  0  0
 10 11  1  0  0  0  0
 11 12  2  0  0  0  0
M  END
>  <CHROM.1>
-152.70084205,-174.56535824,61.98483038,-20.89226944,-10.18599878,95.48638194
1.64633515,-0.23694082,-3.12142993

>  <Name>
ligand

>  <RI>
0

>  <Rbt.Current_Directory>
/home/itssahil/PROJECTS/Mol_Feturizer/Test_systems_manuscript/rnas/4nya

>  <Rbt.Executable>
rbdock ($Id: //depot/dev/client3/rdock/2013.1/src/exe/rbdock.cxx#4 $)

>  <Rbt.Library>
libRbt.so (2013.1, Build901 2013/11/27)

>  <Rbt.Parameter_File>
/export/apps/rDock/src/rDock_2013.1_src/data/scripts/dock_solv.prm

>  <Rbt.Receptor>
prm/pocket_docking_4.prm

>  <SCORE>
-14.9901

>  <SCORE.INTER>
-13.7613

>  <SCORE.INTER.CONST>
1

>  <SCORE.INTER.POLAR>
0

>  <SCORE.INTER.ROT>
3

>  <SCORE.INTER.SOLV>
13.3375

>  <SCORE.INTER.VDW>
-19.22

>  <SCORE.INTER.norm>
-1.14678

>  <SCORE.INTRA>
-1.22875

>  <SCORE.INTRA.DIHEDRAL>
-2.21022

>  <SCORE.INTRA.DIHEDRAL.0>
3.34563

>  <SCORE.INTRA.POLAR>
0

>  <SCORE.INTRA.POLAR.0>
0

>  <SCORE.INTRA.REPUL>
0

>  <SCORE.INTRA.REPUL.0>
0

>  <SCORE.INTRA.SOLV>
-1.25932

>  <SCORE.INTRA.SOLV.lig_0>
-59.746

>  <SCORE.INTRA.VDW>
0.506021

>  <SCORE.INTRA.VDW.0>
-0.691186

>  <SCORE.INTRA.norm>
-0.102396

>  <SCORE.RESTR>
0

>  <SCORE.RESTR.CAVITY>
0

>  <SCORE.RESTR.norm>
0

>  <SCORE.SYSTEM>
0

>  <SCORE.SYSTEM.CONST>
0

>  <SCORE.SYSTEM.DIHEDRAL>
0

>  <SCORE.SYSTEM.SOLV>
0

>  <SCORE.SYSTEM.norm>
0

>  <SCORE.heavy>
12

>  <SCORE.norm>
-1.24917

>  <RMSD>
2.803

$$$$
ligand
 OpenBabel02271912143D
libRbt.so/2013.1/901 2013/11/27
 12 12  0  0  0  0  0  0  0  0999 V2000
  -21.5409  -11.5343   95.3317 C   0  0  0  0  0  0  0  0  0  0  0  0
  -19.9474   -6.2685   95.2353 C   0  0  0  0  0  0  0  0  0  0  0  0
  -23.1921   -9.5367   96.0499 N   0  0  0  0  0  0  0  0  0  0  0  0
  -20.4654  -12.4991   95.6023 N   0  0  0  0  0  0  0  0  0  0  0  0
  -20.7299  -13.5775   95.4481 N   0  0  0  0  0  0  0  0  0  0  0  0
  -20.9895  -14.6570   95.2955 N   0  0  0  0  0  0  0  0  0  0  0  0
  -19.4515   -8.5563   94.9296 N   0  0  0  0  0  0  0  0  0  0  0  0
  -20.3260   -7.6048   95.2820 C   0  0  0  0  0  0  0  0  0  0  0  0
  -21.5431   -7.9274   95.7443 N   0  0  0  0  0  0  0  0  0  0  0  0
  -21.9195   -9.2098   95.8540 C   0  0  0  0  0  0  0  0  0  0  0  0
  -21.0597  -10.2411   95.4941 C   0  0  0  0  0  0  0  0  0  0  0  0
  -19.7916   -9.9105   95.0315 C   0  0  0  0  0  0  0  0  0  0  0  0
  1 11  1  0  0  0  0
  1  4  1  0  0  0  0
  2  8  1  0  0  0  0
  3 10  1  0  0  0  0
  4  5  1  0  0  0  0
  5  6  1  0  0  0  0
  7  8  2  0  0  0  0
  7 12  1  0  0  0  0
  8  9  1  0  0  0  0
  9 10  2  0  0  0  0
 10 11  1  0  0  0  0
 11 12  2  0  0  0  0
M  END
>  <CHROM.1>
-152.70011600,-176.93153804,-179.00307381,-20.91385680,-10.14635157,95.44150180
1.63871507,-0.27889188,-3.13059927

>  <Name>
ligand

>  <RI>
0

>  <Rbt.Current_Directory>
/home/itssahil/PROJECTS/Mol_Feturizer/Test_systems_manuscript/rnas/4nya

>  <Rbt.Executable>
rbdock ($Id: //depot/dev/client3/rdock/2013.1/src/exe/rbdock.cxx#4 $)

>  <Rbt.Library>
libRbt.so (2013.1, Build901 2013/11/27)

>  <Rbt.Parameter_File>
/export/apps/rDock/src/rDock_2013.1_src/data/scripts/dock_solv.prm

>  <Rbt.Receptor>
prm/pocket_docking_5.prm

>  <SCORE>
-15.0221

>  <SCORE.INTER>
-13.7801

>  <SCORE.INTER.CONST>
1

>  <SCORE.INTER.POLAR>
0

>  <SCORE.INTER.ROT>
3

>  <SCORE.INTER.SOLV>
13.4034

>  <SCORE.INTER.VDW>
-19.2545

>  <SCORE.INTER.norm>
-1.14834

>  <SCORE.INTRA>
-1.24197

>  <SCORE.INTRA.DIHEDRAL>
-2.22742

>  <SCORE.INTRA.DIHEDRAL.0>
3.34563

>  <SCORE.INTRA.POLAR>
0

>  <SCORE.INTRA.POLAR.0>
0

>  <SCORE.INTRA.REPUL>
0

>  <SCORE.INTRA.REPUL.0>
0

>  <SCORE.INTRA.SOLV>
-1.26767

>  <SCORE.INTRA.SOLV.lig_0>
-59.746

>  <SCORE.INTRA.VDW>
0.505571

>  <SCORE.INTRA.VDW.0>
-0.691186

>  <SCORE.INTRA.norm>
-0.103498

>  <SCORE.RESTR>
0

>  <SCORE.RESTR.CAVITY>
0

>  <SCORE.RESTR.norm>
0

>  <SCORE.SYSTEM>
0

>  <SCORE.SYSTEM.CONST>
0

>  <SCORE.SYSTEM.DIHEDRAL>
0

>  <SCORE.SYSTEM.SOLV>
0

>  <SCORE.SYSTEM.norm>
0

>  <SCORE.heavy>
12

>  <SCORE.norm>
-1.25184

>  <RMSD>
2.803

$$$$
ligand
 OpenBabel02271912143D
libRbt.so/2013.1/901 2013/11/27
 12 12  0  0  0  0  0  0  0  0999 V2000
  -21.5384  -11.5468   95.3683 C   0  0  0  0  0  0  0  0  0  0  0  0
  -19.9473   -6.2815   95.2187 C   0  0  0  0  0  0  0  0  0  0  0  0
  -23.1719   -9.5469   96.1199 N   0  0  0  0  0  0  0  0  0  0  0  0
  -20.4558  -12.5108   95.6114 N   0  0  0  0  0  0  0  0  0  0  0  0
  -20.7185  -13.5883   95.4476 N   0  0  0  0  0  0  0  0  0  0  0  0
  -20.9847  -14.6650   95.2873 N   0  0  0  0  0  0  0  0  0  0  0  0
  -19.4590   -8.5703   94.9078 N   0  0  0  0  0  0  0  0  0  0  0  0
  -20.3248   -7.6176   95.2783 C   0  0  0  0  0  0  0  0  0  0  0  0
  -21.5305   -7.9387   95.7704 N   0  0  0  0  0  0  0  0  0  0  0  0
  -21.9042   -9.2208   95.8928 C   0  0  0  0  0  0  0  0  0  0  0  0
  -21.0534  -10.2532   95.5154 C   0  0  0  0  0  0  0  0  0  0  0  0
  -19.7967   -9.9241   95.0217 C   0  0  0  0  0  0  0  0  0  0  0  0
  1 11  1  0  0  0  0
  1  4  1  0  0  0  0
  2  8  1  0  0  0  0
  3 10  1  0  0  0  0
  4  5  1  0  0  0  0
  5  6  1  0  0  0  0
  7  8  2  0  0  0  0
  7 12  1  0  0  0  0
  8  9  1  0  0  0  0
  9 10  2  0  0  0  0
 10 11  1  0  0  0  0
 11 12  2  0  0  0  0
M  END
>  <CHROM.1>
-152.88910795,-175.82106427,-60.48696819,-20.90786096,-10.15808618,95.45309220
1.63820161,-0.30419011,-3.12953614

>  <Name>
ligand

>  <RI>
0

>  <Rbt.Current_Directory>
/home/itssahil/PROJECTS/Mol_Feturizer/Test_systems_manuscript/rnas/4nya

>  <Rbt.Executable>
rbdock ($Id: //depot/dev/client3/rdock/2013.1/src/exe/rbdock.cxx#4 $)

>  <Rbt.Library>
libRbt.so (2013.1, Build901 2013/11/27)

>  <Rbt.Parameter_File>
/export/apps/rDock/src/rDock_2013.1_src/data/scripts/dock_solv.prm

>  <Rbt.Receptor>
prm/pocket_docking_5.prm

>  <SCORE>
-15.0755

>  <SCORE.INTER>
-13.8422

>  <SCORE.INTER.CONST>
1

>  <SCORE.INTER.POLAR>
0

>  <SCORE.INTER.ROT>
3

>  <SCORE.INTER.SOLV>
13.4537

>  <SCORE.INTER.VDW>
-19.3127

>  <SCORE.INTER.norm>
-1.15352

>  <SCORE.INTRA>
-1.23322

>  <SCORE.INTRA.DIHEDRAL>
-2.22224

>  <SCORE.INTRA.DIHEDRAL.0>
3.34563

>  <SCORE.INTRA.POLAR>
0

>  <SCORE.INTRA.POLAR.0>
0

>  <SCORE.INTRA.REPUL>
0

>  <SCORE.INTRA.REPUL.0>
0

>  <SCORE.INTRA.SOLV>
-1.26315

>  <SCORE.INTRA.SOLV.lig_0>
-59.746

>  <SCORE.INTRA.VDW>
0.509473

>  <SCORE.INTRA.VDW.0>
-0.691186

>  <SCORE.INTRA.norm>
-0.102769

>  <SCORE.RESTR>
0

>  <SCORE.RESTR.CAVITY>
0

>  <SCORE.RESTR.norm>
0

>  <SCORE.SYSTEM>
0

>  <SCORE.SYSTEM.CONST>
0

>  <SCORE.SYSTEM.DIHEDRAL>
0

>  <SCORE.SYSTEM.SOLV>
0

>  <SCORE.SYSTEM.norm>
0

>  <SCORE.heavy>
12

>  <SCORE.norm>
-1.25629

>  <RMSD>
2.803

$$$$
ligand
 OpenBabel02271912143D
libRbt.so/2013.1/901 2013/11/27
 12 12  0  0  0  0  0  0  0  0999 V2000
  -21.5275  -11.5460   95.3755 C   0  0  0  0  0  0  0  0  0  0  0  0
  -19.9368   -6.2798   95.2592 C   0  0  0  0  0  0  0  0  0  0  0  0
  -23.1619   -9.5508   96.1376 N   0  0  0  0  0  0  0  0  0  0  0  0
  -20.4430  -12.5111   95.6052 N   0  0  0  0  0  0  0  0  0  0  0  0
  -20.7147  -13.5898   95.4660 N   0  0  0  0  0  0  0  0  0  0  0  0
  -20.9873  -14.6672   95.3219 N   0  0  0  0  0  0  0  0  0  0  0  0
  -19.4480   -8.5666   94.9350 N   0  0  0  0  0  0  0  0  0  0  0  0
  -20.3142   -7.6163   95.3103 C   0  0  0  0  0  0  0  0  0  0  0  0
  -21.5204   -7.9404   95.7994 N   0  0  0  0  0  0  0  0  0  0  0  0
  -21.8941   -9.2232   95.9136 C   0  0  0  0  0  0  0  0  0  0  0  0
  -21.0428  -10.2533   95.5309 C   0  0  0  0  0  0  0  0  0  0  0  0
  -19.7856   -9.9211   95.0404 C   0  0  0  0  0  0  0  0  0  0  0  0
  1 11  1  0  0  0  0
  1  4  1  0  0  0  0
  2  8  1  0  0  0  0
  3 10  1  0  0  0  0
  4  5  1  0  0  0  0
  5  6  1  0  0  0  0
  7  8  2  0  0  0  0
  7 12  1  0  0  0  0
  8  9  1  0  0  0  0
  9 10  2  0  0  0  0
 10 11  1  0  0  0  0
 11 12  2  0  0  0  0
M  END
>  <CHROM.1>
-153.25924932,-177.72248009,62.30713630,-20.89885158,-10.15822517,95.47448777
1.63969864,-0.30202918,-3.12703425

>  <Name>
ligand

>  <RI>
0

>  <Rbt.Current_Directory>
/home/itssahil/PROJECTS/Mol_Feturizer/Test_systems_manuscript/rnas/4nya

>  <Rbt.Executable>
rbdock ($Id: //depot/dev/client3/rdock/2013.1/src/exe/rbdock.cxx#4 $)

>  <Rbt.Library>
libRbt.so (2013.1, Build901 2013/11/27)

>  <Rbt.Parameter_File>
/export/apps/rDock/src/rDock_2013.1_src/data/scripts/dock_solv.prm

>  <Rbt.Receptor>
prm/pocket_docking_6.prm

>  <SCORE>
-15.0619

>  <SCORE.INTER>
-13.8268

>  <SCORE.INTER.CONST>
1

>  <SCORE.INTER.POLAR>
0

>  <SCORE.INTER.ROT>
3

>  <SCORE.INTER.SOLV>
13.5165

>  <SCORE.INTER.VDW>
-19.3234

>  <SCORE.INTER.norm>
-1.15223

>  <SCORE.INTRA>
-1.23516

>  <SCORE.INTRA.DIHEDRAL>
-2.23307

>  <SCORE.INTRA.DIHEDRAL.0>
3.34563

>  <SCORE.INTRA.POLAR>
0

>  <SCORE.INTRA.POLAR.0>
0

>  <SCORE.INTRA.REPUL>
0

>  <SCORE.INTRA.REPUL.0>
0

>  <SCORE.INTRA.SOLV>
-1.26909

>  <SCORE.INTRA.SOLV.lig_0>
-59.746

>  <SCORE.INTRA.VDW>
0.515917

>  <SCORE.INTRA.VDW.0>
-0.691186

>  <SCORE.INTRA.norm>
-0.10293

>  <SCORE.RESTR>
0

>  <SCORE.RESTR.CAVITY>
0

>  <SCORE.RESTR.norm>
0

>  <SCORE.SYSTEM>
0

>  <SCORE.SYSTEM.CONST>
0

>  <SCORE.SYSTEM.DIHEDRAL>
0

>  <SCORE.SYSTEM.SOLV>
0

>  <SCORE.SYSTEM.norm>
0

>  <SCORE.heavy>
12

>  <SCORE.norm>
-1.25516

>  <RMSD>
2.803

$$$$
ligand
 OpenBabel02271912143D
libRbt.so/2013.1/901 2013/11/27
 12 12  0  0  0  0  0  0  0  0999 V2000
  -21.5211  -11.5705   95.3546 C   0  0  0  0  0  0  0  0  0  0  0  0
  -19.8623   -6.3252   95.2433 C   0  0  0  0  0  0  0  0  0  0  0  0
  -23.1454   -9.5510   96.0730 N   0  0  0  0  0  0  0  0  0  0  0  0
  -20.4596  -12.5482   95.6335 N   0  0  0  0  0  0  0  0  0  0  0  0
  -20.7293  -13.6220   95.4574 N   0  0  0  0  0  0  0  0  0  0  0  0
  -20.9973  -14.6950   95.2765 N   0  0  0  0  0  0  0  0  0  0  0  0
  -19.3958   -8.6196   94.9410 N   0  0  0  0  0  0  0  0  0  0  0  0
  -20.2574   -7.6566   95.2937 C   0  0  0  0  0  0  0  0  0  0  0  0
  -21.4773   -7.9630   95.7598 N   0  0  0  0  0  0  0  0  0  0  0  0
  -21.8693   -9.2404   95.8732 C   0  0  0  0  0  0  0  0  0  0  0  0
  -21.0234  -10.2830   95.5132 C   0  0  0  0  0  0  0  0  0  0  0  0
  -19.7525   -9.9692   95.0466 C   0  0  0  0  0  0  0  0  0  0  0  0
  1 11  1  0  0  0  0
  1  4  1  0  0  0  0
  2  8  1  0  0  0  0
  3 10  1  0  0  0  0
  4  5  1  0  0  0  0
  5  6  1  0  0  0  0
  7  8  2  0  0  0  0
  7 12  1  0  0  0  0
  8  9  1  0  0  0  0
  9 10  2  0  0  0  0
 10 11  1  0  0  0  0
 11 12  2  0  0  0  0
M  END
>  <CHROM.1>
-152.30864189,-175.39141374,90.43879053,-20.87522580,-10.18969288,95.45529593
1.65045224,-0.28241976,-3.12572715

>  <Name>
ligand

>  <RI>
0

>  <Rbt.Current_Directory>
/home/itssahil/PROJECTS/Mol_Feturizer/Test_systems_manuscript/rnas/4nya

>  <Rbt.Executable>
rbdock ($Id: //depot/dev/client3/rdock/2013.1/src/exe/rbdock.cxx#4 $)

>  <Rbt.Library>
libRbt.so (2013.1, Build901 2013/11/27)

>  <Rbt.Parameter_File>
/export/apps/rDock/src/rDock_2013.1_src/data/scripts/dock_solv.prm

>  <Rbt.Receptor>
prm/pocket_docking_7.prm

>  <SCORE>
-14.8997

>  <SCORE.INTER>
-13.764

>  <SCORE.INTER.CONST>
1

>  <SCORE.INTER.POLAR>
0

>  <SCORE.INTER.ROT>
3

>  <SCORE.INTER.SOLV>
13.4268

>  <SCORE.INTER.VDW>
-19.2516

>  <SCORE.INTER.norm>
-1.147

>  <SCORE.INTRA>
-1.13567

>  <SCORE.INTRA.DIHEDRAL>
-2.0108

>  <SCORE.INTRA.DIHEDRAL.0>
3.34563

>  <SCORE.INTRA.POLAR>
0

>  <SCORE.INTRA.POLAR.0>
0

>  <SCORE.INTRA.REPUL>
0

>  <SCORE.INTRA.REPUL.0>
0

>  <SCORE.INTRA.SOLV>
-1.26003

>  <SCORE.INTRA.SOLV.lig_0>
-59.746

>  <SCORE.INTRA.VDW>
0.499747

>  <SCORE.INTRA.VDW.0>
-0.691186

>  <SCORE.INTRA.norm>
-0.0946392

>  <SCORE.RESTR>
0

>  <SCORE.RESTR.CAVITY>
0

>  <SCORE.RESTR.norm>
0

>  <SCORE.SYSTEM>
0

>  <SCORE.SYSTEM.CONST>
0

>  <SCORE.SYSTEM.DIHEDRAL>
0

>  <SCORE.SYSTEM.SOLV>
0

>  <SCORE.SYSTEM.norm>
0

>  <SCORE.heavy>
12

>  <SCORE.norm>
-1.24164

>  <RMSD>
2.803

$$$$
ligand
 OpenBabel02271912143D
libRbt.so/2013.1/901 2013/11/27
 12 12  0  0  0  0  0  0  0  0999 V2000
  -21.5323  -11.5370   95.3218 C   0  0  0  0  0  0  0  0  0  0  0  0
  -19.9388   -6.2709   95.2441 C   0  0  0  0  0  0  0  0  0  0  0  0
  -23.1793   -9.5431   96.0595 N   0  0  0  0  0  0  0  0  0  0  0  0
  -20.4623  -12.5039   95.6062 N   0  0  0  0  0  0  0  0  0  0  0  0
  -20.7253  -13.5815   95.4438 N   0  0  0  0  0  0  0  0  0  0  0  0
  -20.9918  -14.6584   95.2849 N   0  0  0  0  0  0  0  0  0  0  0  0
  -19.4449   -8.5571   94.9237 N   0  0  0  0  0  0  0  0  0  0  0  0
  -20.3173   -7.6074   95.2859 C   0  0  0  0  0  0  0  0  0  0  0  0
  -21.5319   -7.9323   95.7532 N   0  0  0  0  0  0  0  0  0  0  0  0
  -21.9078   -9.2153   95.8583 C   0  0  0  0  0  0  0  0  0  0  0  0
  -21.0501  -10.2447   95.4883 C   0  0  0  0  0  0  0  0  0  0  0  0
  -19.7846   -9.9118   95.0204 C   0  0  0  0  0  0  0  0  0  0  0  0
  1 11  1  0  0  0  0
  1  4  1  0  0  0  0
  2  8  1  0  0  0  0
  3 10  1  0  0  0  0
  4  5  1  0  0  0  0
  5  6  1  0  0  0  0
  7  8  2  0  0  0  0
  7 12  1  0  0  0  0
  8  9  1  0  0  0  0
  9 10  2  0  0  0  0
 10 11  1  0  0  0  0
 11 12  2  0  0  0  0
M  END
>  <CHROM.1>
-151.62830013,-176.54398452,-60.58952187,-20.90641320,-10.14969392,95.44094602
1.64039249,-0.28298156,-3.12816523

>  <Name>
ligand

>  <RI>
0

>  <Rbt.Current_Directory>
/home/itssahil/PROJECTS/Mol_Feturizer/Test_systems_manuscript/rnas/4nya

>  <Rbt.Executable>
rbdock ($Id: //depot/dev/client3/rdock/2013.1/src/exe/rbdock.cxx#4 $)

>  <Rbt.Library>
libRbt.so (2013.1, Build901 2013/11/27)

>  <Rbt.Parameter_File>
/export/apps/rDock/src/rDock_2013.1_src/data/scripts/dock_solv.prm

>  <Rbt.Receptor>
prm/pocket_docking_7.prm

>  <SCORE>
-15.0143

>  <SCORE.INTER>
-13.7666

>  <SCORE.INTER.CONST>
1

>  <SCORE.INTER.POLAR>
0

>  <SCORE.INTER.ROT>
3

>  <SCORE.INTER.SOLV>
13.4037

>  <SCORE.INTER.VDW>
-19.2457

>  <SCORE.INTER.norm>
-1.14722

>  <SCORE.INTRA>
-1.24763

>  <SCORE.INTRA.DIHEDRAL>
-2.21772

>  <SCORE.INTRA.DIHEDRAL.0>
3.34563

>  <SCORE.INTRA.POLAR>
0

>  <SCORE.INTRA.POLAR.0>
0

>  <SCORE.INTRA.REPUL>
0

>  <SCORE.INTRA.REPUL.0>
0

>  <SCORE.INTRA.SOLV>
-1.25754

>  <SCORE.INTRA.SOLV.lig_0>
-59.746

>  <SCORE.INTRA.VDW>
0.489998

>  <SCORE.INTRA.VDW.0>
-0.691186

>  <SCORE.INTRA.norm>
-0.103969

>  <SCORE.RESTR>
0

>  <SCORE.RESTR.CAVITY>
0

>  <SCORE.RESTR.norm>
0

>  <SCORE.SYSTEM>
0

>  <SCORE.SYSTEM.CONST>
0

>  <SCORE.SYSTEM.DIHEDRAL>
0

>  <SCORE.SYSTEM.SOLV>
0

>  <SCORE.SYSTEM.norm>
0

>  <SCORE.heavy>
12

>  <SCORE.norm>
-1.25119

>  <RMSD>
2.803

$$$$
ligand
 OpenBabel02271912143D
libRbt.so/2013.1/901 2013/11/27
 12 12  0  0  0  0  0  0  0  0999 V2000
  -21.5237  -11.5149   95.3334 C   0  0  0  0  0  0  0  0  0  0  0  0
  -19.9270   -6.2503   95.2218 C   0  0  0  0  0  0  0  0  0  0  0  0
  -23.1906   -9.5102   95.9933 N   0  0  0  0  0  0  0  0  0  0  0  0
  -20.4455  -12.4763   95.6046 N   0  0  0  0  0  0  0  0  0  0  0  0
  -20.7300  -13.5583   95.5343 N   0  0  0  0  0  0  0  0  0  0  0  0
  -21.0098  -14.6414   95.4652 N   0  0  0  0  0  0  0  0  0  0  0  0
  -19.4248   -8.5411   94.9503 N   0  0  0  0  0  0  0  0  0  0  0  0
  -20.3070   -7.5861   95.2729 C   0  0  0  0  0  0  0  0  0  0  0  0
  -21.5345   -7.9040   95.7101 N   0  0  0  0  0  0  0  0  0  0  0  0
  -21.9137   -9.1853   95.8237 C   0  0  0  0  0  0  0  0  0  0  0  0
  -21.0461  -10.2201   95.4941 C   0  0  0  0  0  0  0  0  0  0  0  0
  -19.7675   -9.8942   95.0577 C   0  0  0  0  0  0  0  0  0  0  0  0
  1 11  1  0  0  0  0
  1  4  1  0  0  0  0
  2  8  1  0  0  0  0
  3 10  1  0  0  0  0
  4  5  1  0  0  0  0
  5  6  1  0  0  0  0
  7  8  2  0  0  0  0
  7 12  1  0  0  0  0
  8  9  1  0  0  0  0
  9 10  2  0  0  0  0
 10 11  1  0  0  0  0
 11 12  2  0  0  0  0
M  END
>  <CHROM.1>
-154.15049553,178.21031930,-179.65717291,-20.90263497,-10.12629325,95.45572476
1.64248873,-0.25347105,3.13412390

>  <Name>
ligand

>  <RI>
0

>  <Rbt.Current_Directory>
/home/itssahil/PROJECTS/Mol_Feturizer/Test_systems_manuscript/rnas/4nya

>  <Rbt.Executable>
rbdock ($Id: //depot/dev/client3/rdock/2013.1/src/exe/rbdock.cxx#4 $)

>  <Rbt.Library>
libRbt.so (2013.1, Build901 2013/11/27)

>  <Rbt.Parameter_File>
/export/apps/rDock/src/rDock_2013.1_src/data/scripts/dock_solv.prm

>  <Rbt.Receptor>
prm/pocket_docking_7.prm

>  <SCORE>
-14.8999

>  <SCORE.INTER>
-13.6678

>  <SCORE.INTER.CONST>
1

>  <SCORE.INTER.POLAR>
0

>  <SCORE.INTER.ROT>
3

>  <SCORE.INTER.SOLV>
13.8848

>  <SCORE.INTER.VDW>
-19.3401

>  <SCORE.INTER.norm>
-1.13899

>  <SCORE.INTRA>
-1.23204

>  <SCORE.INTRA.DIHEDRAL>
-2.24047

>  <SCORE.INTRA.DIHEDRAL.0>
3.34563

>  <SCORE.INTRA.POLAR>
0

>  <SCORE.INTRA.POLAR.0>
0

>  <SCORE.INTRA.REPUL>
0

>  <SCORE.INTRA.REPUL.0>
0

>  <SCORE.INTRA.SOLV>
-1.28346

>  <SCORE.INTRA.SOLV.lig_0>
-59.746

>  <SCORE.INTRA.VDW>
0.529918

>  <SCORE.INTRA.VDW.0>
-0.691186

>  <SCORE.INTRA.norm>
-0.10267

>  <SCORE.RESTR>
0

>  <SCORE.RESTR.CAVITY>
0

>  <SCORE.RESTR.norm>
0

>  <SCORE.SYSTEM>
0

>  <SCORE.SYSTEM.CONST>
0

>  <SCORE.SYSTEM.DIHEDRAL>
0

>  <SCORE.SYSTEM.SOLV>
0

>  <SCORE.SYSTEM.norm>
0

>  <SCORE.heavy>
12

>  <SCORE.norm>
-1.24166

>  <RMSD>
2.803

$$$$
ligand
 OpenBabel02271912143D
libRbt.so/2013.1/901 2013/11/27
 12 12  0  0  0  0  0  0  0  0999 V2000
  -21.5213  -11.5919   95.3368 C   0  0  0  0  0  0  0  0  0  0  0  0
  -19.8752   -6.3419   95.2609 C   0  0  0  0  0  0  0  0  0  0  0  0
  -23.1446   -9.5828   96.0861 N   0  0  0  0  0  0  0  0  0  0  0  0
  -20.4922  -12.5706   95.7158 N   0  0  0  0  0  0  0  0  0  0  0  0
  -20.7386  -13.6429   95.5006 N   0  0  0  0  0  0  0  0  0  0  0  0
  -20.9810  -14.7163   95.2883 N   0  0  0  0  0  0  0  0  0  0  0  0
  -19.4059   -8.6324   94.9340 N   0  0  0  0  0  0  0  0  0  0  0  0
  -20.2670   -7.6746   95.3021 C   0  0  0  0  0  0  0  0  0  0  0  0
  -21.4824   -7.9881   95.7748 N   0  0  0  0  0  0  0  0  0  0  0  0
  -21.8707   -9.2675   95.8793 C   0  0  0  0  0  0  0  0  0  0  0  0
  -21.0253  -10.3048   95.5033 C   0  0  0  0  0  0  0  0  0  0  0  0
  -19.7587   -9.9838   95.0298 C   0  0  0  0  0  0  0  0  0  0  0  0
  1 11  1  0  0  0  0
  1  4  1  0  0  0  0
  2  8  1  0  0  0  0
  3 10  1  0  0  0  0
  4  5  1  0  0  0  0
  5  6  1  0  0  0  0
  7  8  2  0  0  0  0
  7 12  1  0  0  0  0
  8  9  1  0  0  0  0
  9 10  2  0  0  0  0
 10 11  1  0  0  0  0
 11 12  2  0  0  0  0
M  END
>  <CHROM.1>
-147.21687082,-172.69338481,-166.95438503,-20.88132613,-10.21087602,95.46824809
1.65031676,-0.28494553,-3.12940884

>  <Name>
ligand

>  <RI>
0

>  <Rbt.Current_Directory>
/home/itssahil/PROJECTS/Mol_Feturizer/Test_systems_manuscript/rnas/4nya

>  <Rbt.Executable>
rbdock ($Id: //depot/dev/client3/rdock/2013.1/src/exe/rbdock.cxx#4 $)

>  <Rbt.Library>
libRbt.so (2013.1, Build901 2013/11/27)

>  <Rbt.Parameter_File>
/export/apps/rDock/src/rDock_2013.1_src/data/scripts/dock_solv.prm

>  <Rbt.Receptor>
prm/pocket_docking_8.prm

>  <SCORE>
-15.011

>  <SCORE.INTER>
-13.7782

>  <SCORE.INTER.CONST>
1

>  <SCORE.INTER.POLAR>
0

>  <SCORE.INTER.ROT>
3

>  <SCORE.INTER.SOLV>
13.4533

>  <SCORE.INTER.VDW>
-19.2699

>  <SCORE.INTER.norm>
-1.14819

>  <SCORE.INTRA>
-1.2328

>  <SCORE.INTRA.DIHEDRAL>
-2.08896

>  <SCORE.INTRA.DIHEDRAL.0>
3.34563

>  <SCORE.INTRA.POLAR>
0

>  <SCORE.INTRA.POLAR.0>
0

>  <SCORE.INTRA.REPUL>
0

>  <SCORE.INTRA.REPUL.0>
0

>  <SCORE.INTRA.SOLV>
-1.2229

>  <SCORE.INTRA.SOLV.lig_0>
-59.746

>  <SCORE.INTRA.VDW>
0.423123

>  <SCORE.INTRA.VDW.0>
-0.691186

>  <SCORE.INTRA.norm>
-0.102734

>  <SCORE.RESTR>
0

>  <SCORE.RESTR.CAVITY>
0

>  <SCORE.RESTR.norm>
0

>  <SCORE.SYSTEM>
0

>  <SCORE.SYSTEM.CONST>
0

>  <SCORE.SYSTEM.DIHEDRAL>
0

>  <SCORE.SYSTEM.SOLV>
0

>  <SCORE.SYSTEM.norm>
0

>  <SCORE.heavy>
12

>  <SCORE.norm>
-1.25092

>  <RMSD>
2.803

$$$$
ligand
 OpenBabel02271912143D
libRbt.so/2013.1/901 2013/11/27
 12 12  0  0  0  0  0  0  0  0999 V2000
  -21.5350  -11.5353   95.3216 C   0  0  0  0  0  0  0  0  0  0  0  0
  -19.9486   -6.2671   95.2351 C   0  0  0  0  0  0  0  0  0  0  0  0
  -23.1847   -9.5423   96.0560 N   0  0  0  0  0  0  0  0  0  0  0  0
  -20.4623  -12.5001   95.6024 N   0  0  0  0  0  0  0  0  0  0  0  0
  -20.7234  -13.5781   95.4399 N   0  0  0  0  0  0  0  0  0  0  0  0
  -20.9883  -14.6554   95.2807 N   0  0  0  0  0  0  0  0  0  0  0  0
  -19.4516   -8.5532   94.9185 N   0  0  0  0  0  0  0  0  0  0  0  0
  -20.3253   -7.6040   95.2791 C   0  0  0  0  0  0  0  0  0  0  0  0
  -21.5394   -7.9298   95.7470 N   0  0  0  0  0  0  0  0  0  0  0  0
  -21.9136   -9.2131   95.8543 C   0  0  0  0  0  0  0  0  0  0  0  0
  -21.0546  -10.2420   95.4859 C   0  0  0  0  0  0  0  0  0  0  0  0
  -19.7895   -9.9082   95.0174 C   0  0  0  0  0  0  0  0  0  0  0  0
  1 11  1  0  0  0  0
  1  4  1  0  0  0  0
  2  8  1  0  0  0  0
  3 10  1  0  0  0  0
  4  5  1  0  0  0  0
  5  6  1  0  0  0  0
  7  8  2  0  0  0  0
  7 12  1  0  0  0  0
  8  9  1  0  0  0  0
  9 10  2  0  0  0  0
 10 11  1  0  0  0  0
 11 12  2  0  0  0  0
M  END
>  <CHROM.1>
-151.85376913,-176.45738770,-58.00683896,-20.91050916,-10.14679549,95.43654427
1.63862165,-0.28348845,-3.12914493

>  <Name>
ligand

>  <RI>
0

>  <Rbt.Current_Directory>
/home/itssahil/PROJECTS/Mol_Feturizer/Test_systems_manuscript/rnas/4nya

>  <Rbt.Executable>
rbdock ($Id: //depot/dev/client3/rdock/2013.1/src/exe/rbdock.cxx#4 $)

>  <Rbt.Library>
libRbt.so (2013.1, Build901 2013/11/27)

>  <Rbt.Parameter_File>
/export/apps/rDock/src/rDock_2013.1_src/data/scripts/dock_solv.prm

>  <Rbt.Receptor>
prm/blind_docking_100.prm

>  <SCORE>
-15.0215

>  <SCORE.INTER>
-13.7767

>  <SCORE.INTER.CONST>
1

>  <SCORE.INTER.POLAR>
0

>  <SCORE.INTER.ROT>
3

>  <SCORE.INTER.SOLV>
13.4062

>  <SCORE.INTER.VDW>
-19.2532

>  <SCORE.INTER.norm>
-1.14806

>  <SCORE.INTRA>
-1.24482

>  <SCORE.INTRA.DIHEDRAL>
-2.21802

>  <SCORE.INTRA.DIHEDRAL.0>
3.34563

>  <SCORE.INTRA.POLAR>
0

>  <SCORE.INTRA.POLAR.0>
0

>  <SCORE.INTRA.REPUL>
0

>  <SCORE.INTRA.REPUL.0>
0

>  <SCORE.INTRA.SOLV>
-1.25858

>  <SCORE.INTRA.SOLV.lig_0>
-59.746

>  <SCORE.INTRA.VDW>
0.493486

>  <SCORE.INTRA.VDW.0>
-0.691186

>  <SCORE.INTRA.norm>
-0.103735

>  <SCORE.RESTR>
0

>  <SCORE.RESTR.CAVITY>
0

>  <SCORE.RESTR.norm>
0

>  <SCORE.SYSTEM>
0

>  <SCORE.SYSTEM.CONST>
0

>  <SCORE.SYSTEM.DIHEDRAL>
0

>  <SCORE.SYSTEM.SOLV>
0

>  <SCORE.SYSTEM.norm>
0

>  <SCORE.heavy>
12

>  <SCORE.norm>
-1.25179

>  <RMSD>
2.804

$$$$
ligand
 OpenBabel02271912143D
libRbt.so/2013.1/901 2013/11/27
 12 12  0  0  0  0  0  0  0  0999 V2000
  -21.5172  -11.5156   95.3263 C   0  0  0  0  0  0  0  0  0  0  0  0
  -19.9231   -6.2498   95.2410 C   0  0  0  0  0  0  0  0  0  0  0  0
  -23.1460   -9.5250   96.1121 N   0  0  0  0  0  0  0  0  0  0  0  0
  -20.4434  -12.4846   95.5883 N   0  0  0  0  0  0  0  0  0  0  0  0
  -20.7126  -13.5618   95.4336 N   0  0  0  0  0  0  0  0  0  0  0  0
  -20.9825  -14.6378   95.2740 N   0  0  0  0  0  0  0  0  0  0  0  0
  -19.4377   -8.5344   94.8971 N   0  0  0  0  0  0  0  0  0  0  0  0
  -20.3013   -7.5863   95.2842 C   0  0  0  0  0  0  0  0  0  0  0  0
  -21.5051   -7.9133   95.7772 N   0  0  0  0  0  0  0  0  0  0  0  0
  -21.8791   -9.1966   95.8838 C   0  0  0  0  0  0  0  0  0  0  0  0
  -21.0307  -10.2244   95.4888 C   0  0  0  0  0  0  0  0  0  0  0  0
  -19.7759   -9.8894   94.9941 C   0  0  0  0  0  0  0  0  0  0  0  0
  1 11  1  0  0  0  0
  1  4  1  0  0  0  0
  2  8  1  0  0  0  0
  3 10  1  0  0  0  0
  4  5  1  0  0  0  0
  5  6  1  0  0  0  0
  7  8  2  0  0  0  0
  7 12  1  0  0  0  0
  8  9  1  0  0  0  0
  9 10  2  0  0  0  0
 10 11  1  0  0  0  0
 11 12  2  0  0  0  0
M  END
>  <CHROM.1>
-151.32251530,-176.95287867,62.03812679,-20.88878906,-10.12937227,95.44185525
1.64190769,-0.30494187,-3.12423990

>  <Name>
ligand

>  <RI>
0

>  <Rbt.Current_Directory>
/home/itssahil/PROJECTS/Mol_Feturizer/Test_systems_manuscript/rnas/4nya

>  <Rbt.Executable>
rbdock ($Id: //depot/dev/client3/rdock/2013.1/src/exe/rbdock.cxx#4 $)

>  <Rbt.Library>
libRbt.so (2013.1, Build901 2013/11/27)

>  <Rbt.Parameter_File>
/export/apps/rDock/src/rDock_2013.1_src/data/scripts/dock_solv.prm

>  <Rbt.Receptor>
prm/pocket_docking_5.prm

>  <SCORE>
-14.9878

>  <SCORE.INTER>
-13.7367

>  <SCORE.INTER.CONST>
1

>  <SCORE.INTER.POLAR>
0

>  <SCORE.INTER.ROT>
3

>  <SCORE.INTER.SOLV>
13.5247

>  <SCORE.INTER.VDW>
-19.2661

>  <SCORE.INTER.norm>
-1.14473

>  <SCORE.INTRA>
-1.25107

>  <SCORE.INTRA.DIHEDRAL>
-2.2163

>  <SCORE.INTRA.DIHEDRAL.0>
3.34563

>  <SCORE.INTRA.POLAR>
0

>  <SCORE.INTRA.POLAR.0>
0

>  <SCORE.INTRA.REPUL>
0

>  <SCORE.INTRA.REPUL.0>
0

>  <SCORE.INTRA.SOLV>
-1.25665

>  <SCORE.INTRA.SOLV.lig_0>
-59.746

>  <SCORE.INTRA.VDW>
0.485407

>  <SCORE.INTRA.VDW.0>
-0.691186

>  <SCORE.INTRA.norm>
-0.104256

>  <SCORE.RESTR>
0

>  <SCORE.RESTR.CAVITY>
0

>  <SCORE.RESTR.norm>
0

>  <SCORE.SYSTEM>
0

>  <SCORE.SYSTEM.CONST>
0

>  <SCORE.SYSTEM.DIHEDRAL>
0

>  <SCORE.SYSTEM.SOLV>
0

>  <SCORE.SYSTEM.norm>
0

>  <SCORE.heavy>
12

>  <SCORE.norm>
-1.24898

>  <RMSD>
2.804

$$$$
ligand
 OpenBabel02271912143D
libRbt.so/2013.1/901 2013/11/27
 12 12  0  0  0  0  0  0  0  0999 V2000
  -21.5375  -11.5464   95.3714 C   0  0  0  0  0  0  0  0  0  0  0  0
  -19.9555   -6.2783   95.2201 C   0  0  0  0  0  0  0  0  0  0  0  0
  -23.1692   -9.5502   96.1366 N   0  0  0  0  0  0  0  0  0  0  0  0
  -20.4521  -12.5091   95.6074 N   0  0  0  0  0  0  0  0  0  0  0  0
  -20.7134  -13.5865   95.4409 N   0  0  0  0  0  0  0  0  0  0  0  0
  -20.9785  -14.6631   95.2779 N   0  0  0  0  0  0  0  0  0  0  0  0
  -19.4656   -8.5658   94.9025 N   0  0  0  0  0  0  0  0  0  0  0  0
  -20.3306   -7.6151   95.2799 C   0  0  0  0  0  0  0  0  0  0  0  0
  -21.5326   -7.9389   95.7792 N   0  0  0  0  0  0  0  0  0  0  0  0
  -21.9036   -9.2217   95.9019 C   0  0  0  0  0  0  0  0  0  0  0  0
  -21.0536  -10.2522   95.5175 C   0  0  0  0  0  0  0  0  0  0  0  0
  -19.8005   -9.9203   95.0163 C   0  0  0  0  0  0  0  0  0  0  0  0
  1 11  1  0  0  0  0
  1  4  1  0  0  0  0
  2  8  1  0  0  0  0
  3 10  1  0  0  0  0
  4  5  1  0  0  0  0
  5  6  1  0  0  0  0
  7  8  2  0  0  0  0
  7 12  1  0  0  0  0
  8  9  1  0  0  0  0
  9 10  2  0  0  0  0
 10 11  1  0  0  0  0
 11 12  2  0  0  0  0
M  END
>  <CHROM.1>
-152.83467824,-175.66481475,-55.29865721,-20.90844435,-10.15669686,95.45405002
1.63654032,-0.31066136,-3.12815308

>  <Name>
ligand

>  <RI>
0

>  <Rbt.Current_Directory>
/home/itssahil/PROJECTS/Mol_Feturizer/Test_systems_manuscript/rnas/4nya

>  <Rbt.Executable>
rbdock ($Id: //depot/dev/client3/rdock/2013.1/src/exe/rbdock.cxx#4 $)

>  <Rbt.Library>
libRbt.so (2013.1, Build901 2013/11/27)

>  <Rbt.Parameter_File>
/export/apps/rDock/src/rDock_2013.1_src/data/scripts/dock_solv.prm

>  <Rbt.Receptor>
prm/pocket_docking_5.prm

>  <SCORE>
-15.0701

>  <SCORE.INTER>
-13.8401

>  <SCORE.INTER.CONST>
1

>  <SCORE.INTER.POLAR>
0

>  <SCORE.INTER.ROT>
3

>  <SCORE.INTER.SOLV>
13.4669

>  <SCORE.INTER.VDW>
-19.3157

>  <SCORE.INTER.norm>
-1.15334

>  <SCORE.INTRA>
-1.22998

>  <SCORE.INTRA.DIHEDRAL>
-2.21486

>  <SCORE.INTRA.DIHEDRAL.0>
3.34563

>  <SCORE.INTRA.POLAR>
0

>  <SCORE.INTRA.POLAR.0>
0

>  <SCORE.INTRA.REPUL>
0

>  <SCORE.INTRA.REPUL.0>
0

>  <SCORE.INTRA.SOLV>
-1.26234

>  <SCORE.INTRA.SOLV.lig_0>
-59.746

>  <SCORE.INTRA.VDW>
0.508624

>  <SCORE.INTRA.VDW.0>
-0.691186

>  <SCORE.INTRA.norm>
-0.102498

>  <SCORE.RESTR>
0

>  <SCORE.RESTR.CAVITY>
0

>  <SCORE.RESTR.norm>
0

>  <SCORE.SYSTEM>
0

>  <SCORE.SYSTEM.CONST>
0

>  <SCORE.SYSTEM.DIHEDRAL>
0

>  <SCORE.SYSTEM.SOLV>
0

>  <SCORE.SYSTEM.norm>
0

>  <SCORE.heavy>
12

>  <SCORE.norm>
-1.25584

>  <RMSD>
2.804

$$$$
ligand
 OpenBabel02271912143D
libRbt.so/2013.1/901 2013/11/27
 12 12  0  0  0  0  0  0  0  0999 V2000
  -21.5237  -11.5250   95.3184 C   0  0  0  0  0  0  0  0  0  0  0  0
  -19.9238   -6.2606   95.2538 C   0  0  0  0  0  0  0  0  0  0  0  0
  -23.1717   -9.5299   96.0509 N   0  0  0  0  0  0  0  0  0  0  0  0
  -20.4499  -12.4928   95.5848 N   0  0  0  0  0  0  0  0  0  0  0  0
  -20.7208  -13.5710   95.4409 N   0  0  0  0  0  0  0  0  0  0  0  0
  -20.9926  -14.6481   95.2921 N   0  0  0  0  0  0  0  0  0  0  0  0
  -19.4310   -8.5470   94.9330 N   0  0  0  0  0  0  0  0  0  0  0  0
  -20.3040   -7.5967   95.2923 C   0  0  0  0  0  0  0  0  0  0  0  0
  -21.5211   -7.9207   95.7539 N   0  0  0  0  0  0  0  0  0  0  0  0
  -21.8989   -9.2033   95.8558 C   0  0  0  0  0  0  0  0  0  0  0  0
  -21.0408  -10.2333   95.4885 C   0  0  0  0  0  0  0  0  0  0  0  0
  -19.7727   -9.9014   95.0267 C   0  0  0  0  0  0  0  0  0  0  0  0
  1 11  1  0  0  0  0
  1  4  1  0  0  0  0
  2  8  1  0  0  0  0
  3 10  1  0  0  0  0
  4  5  1  0  0  0  0
  5  6  1  0  0  0  0
  7  8  2  0  0  0  0
  7 12  1  0  0  0  0
  8  9  1  0  0  0  0
  9 10  2  0  0  0  0
 10 11  1  0  0  0  0
 11 12  2  0  0  0  0
M  END
>  <CHROM.1>
-152.56894565,-177.91429826,62.15046471,-20.89682797,-10.13856487,95.44095688
1.64182174,-0.27877824,-3.12662246

>  <Name>
ligand

>  <RI>
0

>  <Rbt.Current_Directory>
/home/itssahil/PROJECTS/Mol_Feturizer/Test_systems_manuscript/rnas/4nya

>  <Rbt.Executable>
rbdock ($Id: //depot/dev/client3/rdock/2013.1/src/exe/rbdock.cxx#4 $)

>  <Rbt.Library>
libRbt.so (2013.1, Build901 2013/11/27)

>  <Rbt.Parameter_File>
/export/apps/rDock/src/rDock_2013.1_src/data/scripts/dock_solv.prm

>  <Rbt.Receptor>
prm/pocket_docking_6.prm

>  <SCORE>
-15.0235

>  <SCORE.INTER>
-13.7808

>  <SCORE.INTER.CONST>
1

>  <SCORE.INTER.POLAR>
0

>  <SCORE.INTER.ROT>
3

>  <SCORE.INTER.SOLV>
13.4553

>  <SCORE.INTER.VDW>
-19.2723

>  <SCORE.INTER.norm>
-1.1484

>  <SCORE.INTRA>
-1.24268

>  <SCORE.INTRA.DIHEDRAL>
-2.22972

>  <SCORE.INTRA.DIHEDRAL.0>
3.34563

>  <SCORE.INTRA.POLAR>
0

>  <SCORE.INTRA.POLAR.0>
0

>  <SCORE.INTRA.REPUL>
0

>  <SCORE.INTRA.REPUL.0>
0

>  <SCORE.INTRA.SOLV>
-1.26569

>  <SCORE.INTRA.SOLV.lig_0>
-59.746

>  <SCORE.INTRA.VDW>
0.505021

>  <SCORE.INTRA.VDW.0>
-0.691186

>  <SCORE.INTRA.norm>
-0.103557

>  <SCORE.RESTR>
0

>  <SCORE.RESTR.CAVITY>
0

>  <SCORE.RESTR.norm>
0

>  <SCORE.SYSTEM>
0

>  <SCORE.SYSTEM.CONST>
0

>  <SCORE.SYSTEM.DIHEDRAL>
0

>  <SCORE.SYSTEM.SOLV>
0

>  <SCORE.SYSTEM.norm>
0

>  <SCORE.heavy>
12

>  <SCORE.norm>
-1.25196

>  <RMSD>
2.804

$$$$
ligand
 OpenBabel02271912143D
libRbt.so/2013.1/901 2013/11/27
 12 12  0  0  0  0  0  0  0  0999 V2000
  -21.5266  -11.5798   95.3571 C   0  0  0  0  0  0  0  0  0  0  0  0
  -19.8594   -6.3361   95.3231 C   0  0  0  0  0  0  0  0  0  0  0  0
  -23.1729   -9.5610   96.0257 N   0  0  0  0  0  0  0  0  0  0  0  0
  -20.4943  -12.5603   95.7224 N   0  0  0  0  0  0  0  0  0  0  0  0
  -20.7383  -13.6306   95.4947 N   0  0  0  0  0  0  0  0  0  0  0  0
  -20.9780  -14.7019   95.2694 N   0  0  0  0  0  0  0  0  0  0  0  0
  -19.3850   -8.6299   95.0288 N   0  0  0  0  0  0  0  0  0  0  0  0
  -20.2574   -7.6671   95.3547 C   0  0  0  0  0  0  0  0  0  0  0  0
  -21.4931   -7.9738   95.7769 N   0  0  0  0  0  0  0  0  0  0  0  0
  -21.8902   -9.2512   95.8717 C   0  0  0  0  0  0  0  0  0  0  0  0
  -21.0334  -10.2935   95.5376 C   0  0  0  0  0  0  0  0  0  0  0  0
  -19.7466   -9.9795   95.1169 C   0  0  0  0  0  0  0  0  0  0  0  0
  1 11  1  0  0  0  0
  1  4  1  0  0  0  0
  2  8  1  0  0  0  0
  3 10  1  0  0  0  0
  4  5  1  0  0  0  0
  5  6  1  0  0  0  0
  7  8  2  0  0  0  0
  7 12  1  0  0  0  0
  8  9  1  0  0  0  0
  9 10  2  0  0  0  0
 10 11  1  0  0  0  0
 11 12  2  0  0  0  0
M  END
>  <CHROM.1>
-149.99207198,-172.66974229,-174.24872038,-20.88223897,-10.19975708,95.48981123
1.64958855,-0.24657583,-3.12376091

>  <Name>
ligand

>  <RI>
0

>  <Rbt.Current_Directory>
/home/itssahil/PROJECTS/Mol_Feturizer/Test_systems_manuscript/rnas/4nya

>  <Rbt.Executable>
rbdock ($Id: //depot/dev/client3/rdock/2013.1/src/exe/rbdock.cxx#4 $)

>  <Rbt.Library>
libRbt.so (2013.1, Build901 2013/11/27)

>  <Rbt.Parameter_File>
/export/apps/rDock/src/rDock_2013.1_src/data/scripts/dock_solv.prm

>  <Rbt.Receptor>
prm/pocket_docking_6.prm

>  <SCORE>
-15.0468

>  <SCORE.INTER>
-13.8088

>  <SCORE.INTER.CONST>
1

>  <SCORE.INTER.POLAR>
0

>  <SCORE.INTER.ROT>
3

>  <SCORE.INTER.SOLV>
13.4026

>  <SCORE.INTER.VDW>
-19.2734

>  <SCORE.INTER.norm>
-1.15073

>  <SCORE.INTRA>
-1.238

>  <SCORE.INTRA.DIHEDRAL>
-2.15964

>  <SCORE.INTRA.DIHEDRAL.0>
3.34563

>  <SCORE.INTRA.POLAR>
0

>  <SCORE.INTRA.POLAR.0>
0

>  <SCORE.INTRA.REPUL>
0

>  <SCORE.INTRA.REPUL.0>
0

>  <SCORE.INTRA.SOLV>
-1.24154

>  <SCORE.INTRA.SOLV.lig_0>
-59.746

>  <SCORE.INTRA.VDW>
0.462588

>  <SCORE.INTRA.VDW.0>
-0.691186

>  <SCORE.INTRA.norm>
-0.103167

>  <SCORE.RESTR>
0

>  <SCORE.RESTR.CAVITY>
0

>  <SCORE.RESTR.norm>
0

>  <SCORE.SYSTEM>
0

>  <SCORE.SYSTEM.CONST>
0

>  <SCORE.SYSTEM.DIHEDRAL>
0

>  <SCORE.SYSTEM.SOLV>
0

>  <SCORE.SYSTEM.norm>
0

>  <SCORE.heavy>
12

>  <SCORE.norm>
-1.2539

>  <RMSD>
2.804

$$$$
ligand
 OpenBabel02271912143D
libRbt.so/2013.1/901 2013/11/27
 12 12  0  0  0  0  0  0  0  0999 V2000
  -21.5393  -11.5408   95.3251 C   0  0  0  0  0  0  0  0  0  0  0  0
  -19.9566   -6.2719   95.2178 C   0  0  0  0  0  0  0  0  0  0  0  0
  -23.1882   -9.5466   96.0581 N   0  0  0  0  0  0  0  0  0  0  0  0
  -20.4660  -12.5041   95.6090 N   0  0  0  0  0  0  0  0  0  0  0  0
  -20.7274  -13.5830   95.4526 N   0  0  0  0  0  0  0  0  0  0  0  0
  -20.9840  -14.6629   95.2977 N   0  0  0  0  0  0  0  0  0  0  0  0
  -19.4590   -8.5587   94.9068 N   0  0  0  0  0  0  0  0  0  0  0  0
  -20.3323   -7.6090   95.2670 C   0  0  0  0  0  0  0  0  0  0  0  0
  -21.5448   -7.9340   95.7394 N   0  0  0  0  0  0  0  0  0  0  0  0
  -21.9178   -9.2172   95.8517 C   0  0  0  0  0  0  0  0  0  0  0  0
  -21.0592  -10.2467   95.4841 C   0  0  0  0  0  0  0  0  0  0  0  0
  -19.7957   -9.9135   95.0109 C   0  0  0  0  0  0  0  0  0  0  0  0
  1 11  1  0  0  0  0
  1  4  1  0  0  0  0
  2  8  1  0  0  0  0
  3 10  1  0  0  0  0
  4  5  1  0  0  0  0
  5  6  1  0  0  0  0
  7  8  2  0  0  0  0
  7 12  1  0  0  0  0
  8  9  1  0  0  0  0
  9 10  2  0  0  0  0
 10 11  1  0  0  0  0
 11 12  2  0  0  0  0
M  END
>  <CHROM.1>
-151.72120396,-176.56415876,-179.09155812,-20.91499253,-10.15179899,95.43517513
1.63757297,-0.28608970,-3.13324465

>  <Name>
ligand

>  <RI>
0

>  <Rbt.Current_Directory>
/home/itssahil/PROJECTS/Mol_Feturizer/Test_systems_manuscript/rnas/4nya

>  <Rbt.Executable>
rbdock ($Id: //depot/dev/client3/rdock/2013.1/src/exe/rbdock.cxx#4 $)

>  <Rbt.Library>
libRbt.so (2013.1, Build901 2013/11/27)

>  <Rbt.Parameter_File>
/export/apps/rDock/src/rDock_2013.1_src/data/scripts/dock_solv.prm

>  <Rbt.Receptor>
prm/pocket_docking_6.prm

>  <SCORE>
-15.0248

>  <SCORE.INTER>
-13.7751

>  <SCORE.INTER.CONST>
1

>  <SCORE.INTER.POLAR>
0

>  <SCORE.INTER.ROT>
3

>  <SCORE.INTER.SOLV>
13.4285

>  <SCORE.INTER.VDW>
-19.2595

>  <SCORE.INTER.norm>
-1.14792

>  <SCORE.INTRA>
-1.24973

>  <SCORE.INTRA.DIHEDRAL>
-2.21845

>  <SCORE.INTRA.DIHEDRAL.0>
3.34563

>  <SCORE.INTRA.POLAR>
0

>  <SCORE.INTRA.POLAR.0>
0

>  <SCORE.INTRA.REPUL>
0

>  <SCORE.INTRA.REPUL.0>
0

>  <SCORE.INTRA.SOLV>
-1.26136

>  <SCORE.INTRA.SOLV.lig_0>
-59.746

>  <SCORE.INTRA.VDW>
0.490174

>  <SCORE.INTRA.VDW.0>
-0.691186

>  <SCORE.INTRA.norm>
-0.104144

>  <SCORE.RESTR>
0

>  <SCORE.RESTR.CAVITY>
0

>  <SCORE.RESTR.norm>
0

>  <SCORE.SYSTEM>
0

>  <SCORE.SYSTEM.CONST>
0

>  <SCORE.SYSTEM.DIHEDRAL>
0

>  <SCORE.SYSTEM.SOLV>
0

>  <SCORE.SYSTEM.norm>
0

>  <SCORE.heavy>
12

>  <SCORE.norm>
-1.25207

>  <RMSD>
2.804

$$$$
ligand
 OpenBabel02271912143D
libRbt.so/2013.1/901 2013/11/27
 12 12  0  0  0  0  0  0  0  0999 V2000
  -21.5175  -11.5268   95.3033 C   0  0  0  0  0  0  0  0  0  0  0  0
  -19.9188   -6.2618   95.2593 C   0  0  0  0  0  0  0  0  0  0  0  0
  -23.1587   -9.5371   96.0649 N   0  0  0  0  0  0  0  0  0  0  0  0
  -20.4538  -12.4976   95.5977 N   0  0  0  0  0  0  0  0  0  0  0  0
  -20.7205  -13.5745   95.4369 N   0  0  0  0  0  0  0  0  0  0  0  0
  -20.9883  -14.6501   95.2713 N   0  0  0  0  0  0  0  0  0  0  0  0
  -19.4289   -8.5460   94.9184 N   0  0  0  0  0  0  0  0  0  0  0  0
  -20.2985   -7.5982   95.2924 C   0  0  0  0  0  0  0  0  0  0  0  0
  -21.5111   -7.9256   95.7632 N   0  0  0  0  0  0  0  0  0  0  0  0
  -21.8878   -9.2090   95.8600 C   0  0  0  0  0  0  0  0  0  0  0  0
  -21.0331  -10.2363   95.4776 C   0  0  0  0  0  0  0  0  0  0  0  0
  -19.7695   -9.9010   95.0061 C   0  0  0  0  0  0  0  0  0  0  0  0
  1 11  1  0  0  0  0
  1  4  1  0  0  0  0
  2  8  1  0  0  0  0
  3 10  1  0  0  0  0
  4  5  1  0  0  0  0
  5  6  1  0  0  0  0
  7  8  2  0  0  0  0
  7 12  1  0  0  0  0
  8  9  1  0  0  0  0
  9 10  2  0  0  0  0
 10 11  1  0  0  0  0
 11 12  2  0  0  0  0
M  END
>  <CHROM.1>
-150.64313977,-176.94164384,58.68628538,-20.89151925,-10.14143464,95.43785974
1.64314105,-0.28606904,-3.12413365

>  <Name>
ligand

>  <RI>
0

>  <Rbt.Current_Directory>
/home/itssahil/PROJECTS/Mol_Feturizer/Test_systems_manuscript/rnas/4nya

>  <Rbt.Executable>
rbdock ($Id: //depot/dev/client3/rdock/2013.1/src/exe/rbdock.cxx#4 $)

>  <Rbt.Library>
libRbt.so (2013.1, Build901 2013/11/27)

>  <Rbt.Parameter_File>
/export/apps/rDock/src/rDock_2013.1_src/data/scripts/dock_solv.prm

>  <Rbt.Receptor>
prm/pocket_docking_8.prm

>  <SCORE>
-15.0549

>  <SCORE.INTER>
-13.7985

>  <SCORE.INTER.CONST>
1

>  <SCORE.INTER.POLAR>
0

>  <SCORE.INTER.ROT>
3

>  <SCORE.INTER.SOLV>
13.4468

>  <SCORE.INTER.VDW>
-19.2813

>  <SCORE.INTER.norm>
-1.14987

>  <SCORE.INTRA>
-1.25644

>  <SCORE.INTRA.DIHEDRAL>
-2.21073

>  <SCORE.INTRA.DIHEDRAL.0>
3.34563

>  <SCORE.INTRA.POLAR>
0

>  <SCORE.INTRA.POLAR.0>
0

>  <SCORE.INTRA.REPUL>
0

>  <SCORE.INTRA.REPUL.0>
0

>  <SCORE.INTRA.SOLV>
-1.25245

>  <SCORE.INTRA.SOLV.lig_0>
-59.746

>  <SCORE.INTRA.VDW>
0.475149

>  <SCORE.INTRA.VDW.0>
-0.691186

>  <SCORE.INTRA.norm>
-0.104703

>  <SCORE.RESTR>
0

>  <SCORE.RESTR.CAVITY>
0

>  <SCORE.RESTR.norm>
0

>  <SCORE.SYSTEM>
0

>  <SCORE.SYSTEM.CONST>
0

>  <SCORE.SYSTEM.DIHEDRAL>
0

>  <SCORE.SYSTEM.SOLV>
0

>  <SCORE.SYSTEM.norm>
0

>  <SCORE.heavy>
12

>  <SCORE.norm>
-1.25458

>  <RMSD>
2.804

$$$$
ligand
 OpenBabel02271912143D
libRbt.so/2013.1/901 2013/11/27
 12 12  0  0  0  0  0  0  0  0999 V2000
  -21.5181  -11.5263   95.3051 C   0  0  0  0  0  0  0  0  0  0  0  0
  -19.9223   -6.2605   95.2643 C   0  0  0  0  0  0  0  0  0  0  0  0
  -23.1642   -9.5368   96.0568 N   0  0  0  0  0  0  0  0  0  0  0  0
  -20.4545  -12.4961   95.6029 N   0  0  0  0  0  0  0  0  0  0  0  0
  -20.7225  -13.5738   95.4493 N   0  0  0  0  0  0  0  0  0  0  0  0
  -20.9913  -14.6502   95.2909 N   0  0  0  0  0  0  0  0  0  0  0  0
  -19.4293   -8.5446   94.9278 N   0  0  0  0  0  0  0  0  0  0  0  0
  -20.3014   -7.5971   95.2967 C   0  0  0  0  0  0  0  0  0  0  0  0
  -21.5160   -7.9247   95.7618 N   0  0  0  0  0  0  0  0  0  0  0  0
  -21.8925   -9.2082   95.8579 C   0  0  0  0  0  0  0  0  0  0  0  0
  -21.0353  -10.2354   95.4806 C   0  0  0  0  0  0  0  0  0  0  0  0
  -19.7696   -9.8998   95.0150 C   0  0  0  0  0  0  0  0  0  0  0  0
  1 11  1  0  0  0  0
  1  4  1  0  0  0  0
  2  8  1  0  0  0  0
  3 10  1  0  0  0  0
  4  5  1  0  0  0  0
  5  6  1  0  0  0  0
  7  8  2  0  0  0  0
  7 12  1  0  0  0  0
  8  9  1  0  0  0  0
  9 10  2  0  0  0  0
 10 11  1  0  0  0  0
 11 12  2  0  0  0  0
M  END
>  <CHROM.1>
-150.75993005,-177.41090934,60.85037588,-20.89407598,-10.14056632,95.44276511
1.64291227,-0.28087799,-3.12609081

>  <Name>
ligand

>  <RI>
0

>  <Rbt.Current_Directory>
/home/itssahil/PROJECTS/Mol_Feturizer/Test_systems_manuscript/rnas/4nya

>  <Rbt.Executable>
rbdock ($Id: //depot/dev/client3/rdock/2013.1/src/exe/rbdock.cxx#4 $)

>  <Rbt.Library>
libRbt.so (2013.1, Build901 2013/11/27)

>  <Rbt.Parameter_File>
/export/apps/rDock/src/rDock_2013.1_src/data/scripts/dock_solv.prm

>  <Rbt.Receptor>
prm/pocket_docking_8.prm

>  <SCORE>
-15.0515

>  <SCORE.INTER>
-13.7942

>  <SCORE.INTER.CONST>
1

>  <SCORE.INTER.POLAR>
0

>  <SCORE.INTER.ROT>
3

>  <SCORE.INTER.SOLV>
13.4577

>  <SCORE.INTER.VDW>
-19.282

>  <SCORE.INTER.norm>
-1.14952

>  <SCORE.INTRA>
-1.25722

>  <SCORE.INTRA.DIHEDRAL>
-2.21429

>  <SCORE.INTRA.DIHEDRAL.0>
3.34563

>  <SCORE.INTRA.POLAR>
0

>  <SCORE.INTRA.POLAR.0>
0

>  <SCORE.INTRA.REPUL>
0

>  <SCORE.INTRA.REPUL.0>
0

>  <SCORE.INTRA.SOLV>
-1.25419

>  <SCORE.INTRA.SOLV.lig_0>
-59.746

>  <SCORE.INTRA.VDW>
0.477018

>  <SCORE.INTRA.VDW.0>
-0.691186

>  <SCORE.INTRA.norm>
-0.104768

>  <SCORE.RESTR>
0

>  <SCORE.RESTR.CAVITY>
0

>  <SCORE.RESTR.norm>
0

>  <SCORE.SYSTEM>
0

>  <SCORE.SYSTEM.CONST>
0

>  <SCORE.SYSTEM.DIHEDRAL>
0

>  <SCORE.SYSTEM.SOLV>
0

>  <SCORE.SYSTEM.norm>
0

>  <SCORE.heavy>
12

>  <SCORE.norm>
-1.25429

>  <RMSD>
2.804

$$$$
ligand
 OpenBabel02271912143D
libRbt.so/2013.1/901 2013/11/27
 12 12  0  0  0  0  0  0  0  0999 V2000
  -21.5220  -11.5226   95.3169 C   0  0  0  0  0  0  0  0  0  0  0  0
  -19.9233   -6.2581   95.2373 C   0  0  0  0  0  0  0  0  0  0  0  0
  -23.1659   -9.5270   96.0572 N   0  0  0  0  0  0  0  0  0  0  0  0
  -20.4488  -12.4902   95.5858 N   0  0  0  0  0  0  0  0  0  0  0  0
  -20.7175  -13.5682   95.4360 N   0  0  0  0  0  0  0  0  0  0  0  0
  -20.9899  -14.6454   95.2897 N   0  0  0  0  0  0  0  0  0  0  0  0
  -19.4321   -8.5448   94.9160 N   0  0  0  0  0  0  0  0  0  0  0  0
  -20.3031   -7.5942   95.2795 C   0  0  0  0  0  0  0  0  0  0  0  0
  -21.5173   -7.9179   95.7486 N   0  0  0  0  0  0  0  0  0  0  0  0
  -21.8943   -9.2005   95.8542 C   0  0  0  0  0  0  0  0  0  0  0  0
  -21.0383  -10.2308   95.4828 C   0  0  0  0  0  0  0  0  0  0  0  0
  -19.7731   -9.8991   95.0130 C   0  0  0  0  0  0  0  0  0  0  0  0
  1 11  1  0  0  0  0
  1  4  1  0  0  0  0
  2  8  1  0  0  0  0
  3 10  1  0  0  0  0
  4  5  1  0  0  0  0
  5  6  1  0  0  0  0
  7  8  2  0  0  0  0
  7 12  1  0  0  0  0
  8  9  1  0  0  0  0
  9 10  2  0  0  0  0
 10 11  1  0  0  0  0
 11 12  2  0  0  0  0
M  END
>  <CHROM.1>
-152.22399989,-177.35686723,-59.32050126,-20.89470535,-10.13599143,95.43483981
1.64176608,-0.28458983,-3.12785302

>  <Name>
ligand

>  <RI>
0

>  <Rbt.Current_Directory>
/home/itssahil/PROJECTS/Mol_Feturizer/Test_systems_manuscript/rnas/4nya

>  <Rbt.Executable>
rbdock ($Id: //depot/dev/client3/rdock/2013.1/src/exe/rbdock.cxx#4 $)

>  <Rbt.Library>
libRbt.so (2013.1, Build901 2013/11/27)

>  <Rbt.Parameter_File>
/export/apps/rDock/src/rDock_2013.1_src/data/scripts/dock_solv.prm

>  <Rbt.Receptor>
prm/blind_docking_100.prm

>  <SCORE>
-15.0263

>  <SCORE.INTER>
-13.7814

>  <SCORE.INTER.CONST>
1

>  <SCORE.INTER.POLAR>
0

>  <SCORE.INTER.ROT>
3

>  <SCORE.INTER.SOLV>
13.4859

>  <SCORE.INTER.VDW>
-19.2829

>  <SCORE.INTER.norm>
-1.14845

>  <SCORE.INTRA>
-1.24495

>  <SCORE.INTRA.DIHEDRAL>
-2.22631

>  <SCORE.INTRA.DIHEDRAL.0>
3.34563

>  <SCORE.INTRA.POLAR>
0

>  <SCORE.INTRA.POLAR.0>
0

>  <SCORE.INTRA.REPUL>
0

>  <SCORE.INTRA.REPUL.0>
0

>  <SCORE.INTRA.SOLV>
-1.26258

>  <SCORE.INTRA.SOLV.lig_0>
-59.746

>  <SCORE.INTRA.VDW>
0.499498

>  <SCORE.INTRA.VDW.0>
-0.691186

>  <SCORE.INTRA.norm>
-0.103746

>  <SCORE.RESTR>
0

>  <SCORE.RESTR.CAVITY>
0

>  <SCORE.RESTR.norm>
0

>  <SCORE.SYSTEM>
0

>  <SCORE.SYSTEM.CONST>
0

>  <SCORE.SYSTEM.DIHEDRAL>
0

>  <SCORE.SYSTEM.SOLV>
0

>  <SCORE.SYSTEM.norm>
0

>  <SCORE.heavy>
12

>  <SCORE.norm>
-1.25219

>  <RMSD>
2.805

$$$$
ligand
 OpenBabel02271912143D
libRbt.so/2013.1/901 2013/11/27
 12 12  0  0  0  0  0  0  0  0999 V2000
  -21.5297  -11.5427   95.3340 C   0  0  0  0  0  0  0  0  0  0  0  0
  -19.9438   -6.2749   95.2213 C   0  0  0  0  0  0  0  0  0  0  0  0
  -23.1803   -9.5461   96.0563 N   0  0  0  0  0  0  0  0  0  0  0  0
  -20.4514  -12.5055   95.6002 N   0  0  0  0  0  0  0  0  0  0  0  0
  -20.7182  -13.5852   95.4593 N   0  0  0  0  0  0  0  0  0  0  0  0
  -20.9885  -14.6641   95.3218 N   0  0  0  0  0  0  0  0  0  0  0  0
  -19.4462   -8.5626   94.9172 N   0  0  0  0  0  0  0  0  0  0  0  0
  -20.3204   -7.6117   95.2720 C   0  0  0  0  0  0  0  0  0  0  0  0
  -21.5349   -7.9351   95.7404 N   0  0  0  0  0  0  0  0  0  0  0  0
  -21.9090   -9.2178   95.8540 C   0  0  0  0  0  0  0  0  0  0  0  0
  -21.0495  -10.2486   95.4920 C   0  0  0  0  0  0  0  0  0  0  0  0
  -19.7840   -9.9170   95.0230 C   0  0  0  0  0  0  0  0  0  0  0  0
  1 11  1  0  0  0  0
  1  4  1  0  0  0  0
  2  8  1  0  0  0  0
  3 10  1  0  0  0  0
  4  5  1  0  0  0  0
  5  6  1  0  0  0  0
  7  8  2  0  0  0  0
  7 12  1  0  0  0  0
  8  9  1  0  0  0  0
  9 10  2  0  0  0  0
 10 11  1  0  0  0  0
 11 12  2  0  0  0  0
M  END
>  <CHROM.1>
-152.74559235,-177.53939304,-58.83370571,-20.90549049,-10.15371261,95.44106331
1.63873524,-0.28287639,-3.13420749

>  <Name>
ligand

>  <RI>
0

>  <Rbt.Current_Directory>
/home/itssahil/PROJECTS/Mol_Feturizer/Test_systems_manuscript/rnas/4nya

>  <Rbt.Executable>
rbdock ($Id: //depot/dev/client3/rdock/2013.1/src/exe/rbdock.cxx#4 $)

>  <Rbt.Library>
libRbt.so (2013.1, Build901 2013/11/27)

>  <Rbt.Parameter_File>
/export/apps/rDock/src/rDock_2013.1_src/data/scripts/dock_solv.prm

>  <Rbt.Receptor>
prm/blind_docking_100.prm

>  <SCORE>
-15.0271

>  <SCORE.INTER>
-13.7867

>  <SCORE.INTER.CONST>
1

>  <SCORE.INTER.POLAR>
0

>  <SCORE.INTER.ROT>
3

>  <SCORE.INTER.SOLV>
13.5062

>  <SCORE.INTER.VDW>
-19.2932

>  <SCORE.INTER.norm>
-1.14889

>  <SCORE.INTRA>
-1.24035

>  <SCORE.INTRA.DIHEDRAL>
-2.23037

>  <SCORE.INTRA.DIHEDRAL.0>
3.34563

>  <SCORE.INTRA.POLAR>
0

>  <SCORE.INTRA.POLAR.0>
0

>  <SCORE.INTRA.REPUL>
0

>  <SCORE.INTRA.REPUL.0>
0

>  <SCORE.INTRA.SOLV>
-1.26583

>  <SCORE.INTRA.SOLV.lig_0>
-59.746

>  <SCORE.INTRA.VDW>
0.507751

>  <SCORE.INTRA.VDW.0>
-0.691186

>  <SCORE.INTRA.norm>
-0.103363

>  <SCORE.RESTR>
0

>  <SCORE.RESTR.CAVITY>
0

>  <SCORE.RESTR.norm>
0

>  <SCORE.SYSTEM>
0

>  <SCORE.SYSTEM.CONST>
0

>  <SCORE.SYSTEM.DIHEDRAL>
0

>  <SCORE.SYSTEM.SOLV>
0

>  <SCORE.SYSTEM.norm>
0

>  <SCORE.heavy>
12

>  <SCORE.norm>
-1.25225

>  <RMSD>
2.805

$$$$
ligand
 OpenBabel02271912143D
libRbt.so/2013.1/901 2013/11/27
 12 12  0  0  0  0  0  0  0  0999 V2000
  -21.5386  -11.5443   95.3715 C   0  0  0  0  0  0  0  0  0  0  0  0
  -19.9601   -6.2746   95.2450 C   0  0  0  0  0  0  0  0  0  0  0  0
  -23.1806   -9.5507   96.1215 N   0  0  0  0  0  0  0  0  0  0  0  0
  -20.4698  -12.5073   95.6728 N   0  0  0  0  0  0  0  0  0  0  0  0
  -20.7175  -13.5838   95.4816 N   0  0  0  0  0  0  0  0  0  0  0  0
  -20.9613  -14.6614   95.2935 N   0  0  0  0  0  0  0  0  0  0  0  0
  -19.4646   -8.5612   94.9296 N   0  0  0  0  0  0  0  0  0  0  0  0
  -20.3345   -7.6118   95.2988 C   0  0  0  0  0  0  0  0  0  0  0  0
  -21.5417   -7.9374   95.7844 N   0  0  0  0  0  0  0  0  0  0  0  0
  -21.9128   -9.2207   95.9012 C   0  0  0  0  0  0  0  0  0  0  0  0
  -21.0576  -10.2499   95.5248 C   0  0  0  0  0  0  0  0  0  0  0  0
  -19.7994   -9.9162   95.0379 C   0  0  0  0  0  0  0  0  0  0  0  0
  1 11  1  0  0  0  0
  1  4  1  0  0  0  0
  2  8  1  0  0  0  0
  3 10  1  0  0  0  0
  4  5  1  0  0  0  0
  5  6  1  0  0  0  0
  7  8  2  0  0  0  0
  7 12  1  0  0  0  0
  8  9  1  0  0  0  0
  9 10  2  0  0  0  0
 10 11  1  0  0  0  0
 11 12  2  0  0  0  0
M  END
>  <CHROM.1>
-150.49158797,-174.10321191,-160.92800897,-20.91225429,-10.15434476,95.47196176
1.63528121,-0.29749638,-3.13171952

>  <Name>
ligand

>  <RI>
0

>  <Rbt.Current_Directory>
/home/itssahil/PROJECTS/Mol_Feturizer/Test_systems_manuscript/rnas/4nya

>  <Rbt.Executable>
rbdock ($Id: //depot/dev/client3/rdock/2013.1/src/exe/rbdock.cxx#4 $)

>  <Rbt.Library>
libRbt.so (2013.1, Build901 2013/11/27)

>  <Rbt.Parameter_File>
/export/apps/rDock/src/rDock_2013.1_src/data/scripts/dock_solv.prm

>  <Rbt.Receptor>
prm/blind_docking_100.prm

>  <SCORE>
-14.9124

>  <SCORE.INTER>
-13.7103

>  <SCORE.INTER.CONST>
1

>  <SCORE.INTER.POLAR>
0

>  <SCORE.INTER.ROT>
3

>  <SCORE.INTER.SOLV>
13.509

>  <SCORE.INTER.VDW>
-19.2432

>  <SCORE.INTER.norm>
-1.14252

>  <SCORE.INTRA>
-1.20213

>  <SCORE.INTRA.DIHEDRAL>
-2.09732

>  <SCORE.INTRA.DIHEDRAL.0>
3.34563

>  <SCORE.INTRA.POLAR>
0

>  <SCORE.INTRA.POLAR.0>
0

>  <SCORE.INTRA.REPUL>
0

>  <SCORE.INTRA.REPUL.0>
0

>  <SCORE.INTRA.SOLV>
-1.24824

>  <SCORE.INTRA.SOLV.lig_0>
-59.746

>  <SCORE.INTRA.VDW>
0.470656

>  <SCORE.INTRA.VDW.0>
-0.691186

>  <SCORE.INTRA.norm>
-0.100177

>  <SCORE.RESTR>
0

>  <SCORE.RESTR.CAVITY>
0

>  <SCORE.RESTR.norm>
0

>  <SCORE.SYSTEM>
0

>  <SCORE.SYSTEM.CONST>
0

>  <SCORE.SYSTEM.DIHEDRAL>
0

>  <SCORE.SYSTEM.SOLV>
0

>  <SCORE.SYSTEM.norm>
0

>  <SCORE.heavy>
12

>  <SCORE.norm>
-1.2427

>  <RMSD>
2.805

$$$$
ligand
 OpenBabel02271912143D
libRbt.so/2013.1/901 2013/11/27
 12 12  0  0  0  0  0  0  0  0999 V2000
  -21.5366  -11.5521   95.3655 C   0  0  0  0  0  0  0  0  0  0  0  0
  -19.9232   -6.2931   95.2336 C   0  0  0  0  0  0  0  0  0  0  0  0
  -23.1910   -9.5409   96.0371 N   0  0  0  0  0  0  0  0  0  0  0  0
  -20.4568  -12.5166   95.6191 N   0  0  0  0  0  0  0  0  0  0  0  0
  -20.7199  -13.5942   95.4576 N   0  0  0  0  0  0  0  0  0  0  0  0
  -20.9873  -14.6709   95.2986 N   0  0  0  0  0  0  0  0  0  0  0  0
  -19.4310   -8.5858   94.9608 N   0  0  0  0  0  0  0  0  0  0  0  0
  -20.3072   -7.6275   95.2897 C   0  0  0  0  0  0  0  0  0  0  0  0
  -21.5320   -7.9407   95.7377 N   0  0  0  0  0  0  0  0  0  0  0  0
  -21.9145   -9.2206   95.8562 C   0  0  0  0  0  0  0  0  0  0  0  0
  -21.0532  -10.2587   95.5205 C   0  0  0  0  0  0  0  0  0  0  0  0
  -19.7774   -9.9376   95.0728 C   0  0  0  0  0  0  0  0  0  0  0  0
  1 11  1  0  0  0  0
  1  4  1  0  0  0  0
  2  8  1  0  0  0  0
  3 10  1  0  0  0  0
  4  5  1  0  0  0  0
  5  6  1  0  0  0  0
  7  8  2  0  0  0  0
  7 12  1  0  0  0  0
  8  9  1  0  0  0  0
  9 10  2  0  0  0  0
 10 11  1  0  0  0  0
 11 12  2  0  0  0  0
M  END
>  <CHROM.1>
-154.56021222,-176.25423986,-44.24839478,-20.90323014,-10.16428055,95.45364073
1.63988633,-0.26813173,-3.13193882

>  <Name>
ligand

>  <RI>
0

>  <Rbt.Current_Directory>
/home/itssahil/PROJECTS/Mol_Feturizer/Test_systems_manuscript/rnas/4nya

>  <Rbt.Executable>
rbdock ($Id: //depot/dev/client3/rdock/2013.1/src/exe/rbdock.cxx#4 $)

>  <Rbt.Library>
libRbt.so (2013.1, Build901 2013/11/27)

>  <Rbt.Parameter_File>
/export/apps/rDock/src/rDock_2013.1_src/data/scripts/dock_solv.prm

>  <Rbt.Receptor>
prm/blind_docking_100.prm

>  <SCORE>
-14.9724

>  <SCORE.INTER>
-13.7885

>  <SCORE.INTER.CONST>
1

>  <SCORE.INTER.POLAR>
0

>  <SCORE.INTER.ROT>
3

>  <SCORE.INTER.SOLV>
13.443

>  <SCORE.INTER.VDW>
-19.2733

>  <SCORE.INTER.norm>
-1.14904

>  <SCORE.INTRA>
-1.18391

>  <SCORE.INTRA.DIHEDRAL>
-2.16895

>  <SCORE.INTRA.DIHEDRAL.0>
3.34563

>  <SCORE.INTRA.POLAR>
0

>  <SCORE.INTRA.POLAR.0>
0

>  <SCORE.INTRA.REPUL>
0

>  <SCORE.INTRA.REPUL.0>
0

>  <SCORE.INTRA.SOLV>
-1.27243

>  <SCORE.INTRA.SOLV.lig_0>
-59.746

>  <SCORE.INTRA.VDW>
0.536784

>  <SCORE.INTRA.VDW.0>
-0.691186

>  <SCORE.INTRA.norm>
-0.0986591

>  <SCORE.RESTR>
0

>  <SCORE.RESTR.CAVITY>
0

>  <SCORE.RESTR.norm>
0

>  <SCORE.SYSTEM>
0

>  <SCORE.SYSTEM.CONST>
0

>  <SCORE.SYSTEM.DIHEDRAL>
0

>  <SCORE.SYSTEM.SOLV>
0

>  <SCORE.SYSTEM.norm>
0

>  <SCORE.heavy>
12

>  <SCORE.norm>
-1.2477

>  <RMSD>
2.805

$$$$
ligand
 OpenBabel02271912143D
libRbt.so/2013.1/901 2013/11/27
 12 12  0  0  0  0  0  0  0  0999 V2000
  -21.5178  -11.5290   95.3005 C   0  0  0  0  0  0  0  0  0  0  0  0
  -19.9231   -6.2629   95.2476 C   0  0  0  0  0  0  0  0  0  0  0  0
  -23.1595   -9.5395   96.0616 N   0  0  0  0  0  0  0  0  0  0  0  0
  -20.4528  -12.4986   95.5944 N   0  0  0  0  0  0  0  0  0  0  0  0
  -20.7186  -13.5758   95.4341 N   0  0  0  0  0  0  0  0  0  0  0  0
  -20.9881  -14.6522   95.2770 N   0  0  0  0  0  0  0  0  0  0  0  0
  -19.4319   -8.5471   94.9090 N   0  0  0  0  0  0  0  0  0  0  0  0
  -20.3018   -7.5995   95.2829 C   0  0  0  0  0  0  0  0  0  0  0  0
  -21.5135   -7.9272   95.7557 N   0  0  0  0  0  0  0  0  0  0  0  0
  -21.8891   -9.2107   95.8547 C   0  0  0  0  0  0  0  0  0  0  0  0
  -21.0341  -10.2379   95.4725 C   0  0  0  0  0  0  0  0  0  0  0  0
  -19.7714   -9.9022   94.9989 C   0  0  0  0  0  0  0  0  0  0  0  0
  1 11  1  0  0  0  0
  1  4  1  0  0  0  0
  2  8  1  0  0  0  0
  3 10  1  0  0  0  0
  4  5  1  0  0  0  0
  5  6  1  0  0  0  0
  7  8  2  0  0  0  0
  7 12  1  0  0  0  0
  8  9  1  0  0  0  0
  9 10  2  0  0  0  0
 10 11  1  0  0  0  0
 11 12  2  0  0  0  0
M  END
>  <CHROM.1>
-150.65649841,-176.86408723,-57.02193592,-20.89277505,-10.14298149,95.43270673
1.64250667,-0.28733269,-3.12586658

>  <Name>
ligand

>  <RI>
0

>  <Rbt.Current_Directory>
/home/itssahil/PROJECTS/Mol_Feturizer/Test_systems_manuscript/rnas/4nya

>  <Rbt.Executable>
rbdock ($Id: //depot/dev/client3/rdock/2013.1/src/exe/rbdock.cxx#4 $)

>  <Rbt.Library>
libRbt.so (2013.1, Build901 2013/11/27)

>  <Rbt.Parameter_File>
/export/apps/rDock/src/rDock_2013.1_src/data/scripts/dock_solv.prm

>  <Rbt.Receptor>
prm/pocket_docking_4.prm

>  <SCORE>
-15.0198

>  <SCORE.INTER>
-13.7648

>  <SCORE.INTER.CONST>
1

>  <SCORE.INTER.POLAR>
0

>  <SCORE.INTER.ROT>
3

>  <SCORE.INTER.SOLV>
13.4622

>  <SCORE.INTER.VDW>
-19.2639

>  <SCORE.INTER.norm>
-1.14706

>  <SCORE.INTRA>
-1.25506

>  <SCORE.INTRA.DIHEDRAL>
-2.20851

>  <SCORE.INTRA.DIHEDRAL.0>
3.34563

>  <SCORE.INTRA.POLAR>
0

>  <SCORE.INTRA.POLAR.0>
0

>  <SCORE.INTRA.REPUL>
0

>  <SCORE.INTRA.REPUL.0>
0

>  <SCORE.INTRA.SOLV>
-1.25231

>  <SCORE.INTRA.SOLV.lig_0>
-59.746

>  <SCORE.INTRA.VDW>
0.475352

>  <SCORE.INTRA.VDW.0>
-0.691186

>  <SCORE.INTRA.norm>
-0.104588

>  <SCORE.RESTR>
0

>  <SCORE.RESTR.CAVITY>
0

>  <SCORE.RESTR.norm>
0

>  <SCORE.SYSTEM>
0

>  <SCORE.SYSTEM.CONST>
0

>  <SCORE.SYSTEM.DIHEDRAL>
0

>  <SCORE.SYSTEM.SOLV>
0

>  <SCORE.SYSTEM.norm>
0

>  <SCORE.heavy>
12

>  <SCORE.norm>
-1.25165

>  <RMSD>
2.805

$$$$
ligand
 OpenBabel02271912143D
libRbt.so/2013.1/901 2013/11/27
 12 12  0  0  0  0  0  0  0  0999 V2000
  -21.5325  -11.5669   95.3537 C   0  0  0  0  0  0  0  0  0  0  0  0
  -19.9486   -6.2977   95.2854 C   0  0  0  0  0  0  0  0  0  0  0  0
  -23.1755   -9.5793   96.1170 N   0  0  0  0  0  0  0  0  0  0  0  0
  -20.4479  -12.5320   95.5838 N   0  0  0  0  0  0  0  0  0  0  0  0
  -20.7148  -13.6095   95.4271 N   0  0  0  0  0  0  0  0  0  0  0  0
  -20.9800  -14.6863   95.2656 N   0  0  0  0  0  0  0  0  0  0  0  0
  -19.4540   -8.5816   94.9493 N   0  0  0  0  0  0  0  0  0  0  0  0
  -20.3244   -7.6351   95.3245 C   0  0  0  0  0  0  0  0  0  0  0  0
  -21.5338   -7.9642   95.8022 N   0  0  0  0  0  0  0  0  0  0  0  0
  -21.9065   -9.2483   95.9049 C   0  0  0  0  0  0  0  0  0  0  0  0
  -21.0508  -10.2745   95.5216 C   0  0  0  0  0  0  0  0  0  0  0  0
  -19.7905   -9.9372   95.0429 C   0  0  0  0  0  0  0  0  0  0  0  0
  1 11  1  0  0  0  0
  1  4  1  0  0  0  0
  2  8  1  0  0  0  0
  3 10  1  0  0  0  0
  4  5  1  0  0  0  0
  5  6  1  0  0  0  0
  7  8  2  0  0  0  0
  7 12  1  0  0  0  0
  8  9  1  0  0  0  0
  9 10  2  0  0  0  0
 10 11  1  0  0  0  0
 11 12  2  0  0  0  0
M  END
>  <CHROM.1>
-153.31070107,-177.25495414,92.96608990,-20.90571164,-10.17879971,95.46446575
1.63723330,-0.29508530,-3.11921446

>  <Name>
ligand

>  <RI>
0

>  <Rbt.Current_Directory>
/home/itssahil/PROJECTS/Mol_Feturizer/Test_systems_manuscript/rnas/4nya

>  <Rbt.Executable>
rbdock ($Id: //depot/dev/client3/rdock/2013.1/src/exe/rbdock.cxx#4 $)

>  <Rbt.Library>
libRbt.so (2013.1, Build901 2013/11/27)

>  <Rbt.Parameter_File>
/export/apps/rDock/src/rDock_2013.1_src/data/scripts/dock_solv.prm

>  <Rbt.Receptor>
prm/pocket_docking_5.prm

>  <SCORE>
-14.9188

>  <SCORE.INTER>
-13.7992

>  <SCORE.INTER.CONST>
1

>  <SCORE.INTER.POLAR>
0

>  <SCORE.INTER.ROT>
3

>  <SCORE.INTER.SOLV>
13.3555

>  <SCORE.INTER.VDW>
-19.2513

>  <SCORE.INTER.norm>
-1.14994

>  <SCORE.INTRA>
-1.1196

>  <SCORE.INTRA.DIHEDRAL>
-2.00195

>  <SCORE.INTRA.DIHEDRAL.0>
3.34563

>  <SCORE.INTRA.POLAR>
0

>  <SCORE.INTRA.POLAR.0>
0

>  <SCORE.INTRA.REPUL>
0

>  <SCORE.INTRA.REPUL.0>
0

>  <SCORE.INTRA.SOLV>
-1.26959

>  <SCORE.INTRA.SOLV.lig_0>
-59.746

>  <SCORE.INTRA.VDW>
0.516168

>  <SCORE.INTRA.VDW.0>
-0.691186

>  <SCORE.INTRA.norm>
-0.0933

>  <SCORE.RESTR>
0

>  <SCORE.RESTR.CAVITY>
0

>  <SCORE.RESTR.norm>
0

>  <SCORE.SYSTEM>
0

>  <SCORE.SYSTEM.CONST>
0

>  <SCORE.SYSTEM.DIHEDRAL>
0

>  <SCORE.SYSTEM.SOLV>
0

>  <SCORE.SYSTEM.norm>
0

>  <SCORE.heavy>
12

>  <SCORE.norm>
-1.24324

>  <RMSD>
2.805

$$$$
ligand
 OpenBabel02271912143D
libRbt.so/2013.1/901 2013/11/27
 12 12  0  0  0  0  0  0  0  0999 V2000
  -21.5172  -11.5300   95.3001 C   0  0  0  0  0  0  0  0  0  0  0  0
  -19.9251   -6.2630   95.2644 C   0  0  0  0  0  0  0  0  0  0  0  0
  -23.1659   -9.5421   96.0501 N   0  0  0  0  0  0  0  0  0  0  0  0
  -20.4572  -12.4995   95.6117 N   0  0  0  0  0  0  0  0  0  0  0  0
  -20.7221  -13.5771   95.4527 N   0  0  0  0  0  0  0  0  0  0  0  0
  -20.9825  -14.6558   95.2955 N   0  0  0  0  0  0  0  0  0  0  0  0
  -19.4299   -8.5466   94.9276 N   0  0  0  0  0  0  0  0  0  0  0  0
  -20.3032   -7.5999   95.2956 C   0  0  0  0  0  0  0  0  0  0  0  0
  -21.5184   -7.9286   95.7585 N   0  0  0  0  0  0  0  0  0  0  0  0
  -21.8941   -9.2124   95.8534 C   0  0  0  0  0  0  0  0  0  0  0  0
  -21.0356  -10.2388   95.4770 C   0  0  0  0  0  0  0  0  0  0  0  0
  -19.7694   -9.9021   95.0137 C   0  0  0  0  0  0  0  0  0  0  0  0
  1 11  1  0  0  0  0
  1  4  1  0  0  0  0
  2  8  1  0  0  0  0
  3 10  1  0  0  0  0
  4  5  1  0  0  0  0
  5  6  1  0  0  0  0
  7  8  2  0  0  0  0
  7 12  1  0  0  0  0
  8  9  1  0  0  0  0
  9 10  2  0  0  0  0
 10 11  1  0  0  0  0
 11 12  2  0  0  0  0
M  END
>  <CHROM.1>
-150.21518424,-177.06453499,-176.30227648,-20.89436977,-10.14410392,95.44211829
1.64200077,-0.27865117,-3.12738247

>  <Name>
ligand

>  <RI>
0

>  <Rbt.Current_Directory>
/home/itssahil/PROJECTS/Mol_Feturizer/Test_systems_manuscript/rnas/4nya

>  <Rbt.Executable>
rbdock ($Id: //depot/dev/client3/rdock/2013.1/src/exe/rbdock.cxx#4 $)

>  <Rbt.Library>
libRbt.so (2013.1, Build901 2013/11/27)

>  <Rbt.Parameter_File>
/export/apps/rDock/src/rDock_2013.1_src/data/scripts/dock_solv.prm

>  <Rbt.Receptor>
prm/pocket_docking_6.prm

>  <SCORE>
-15.0439

>  <SCORE.INTER>
-13.7828

>  <SCORE.INTER.CONST>
1

>  <SCORE.INTER.POLAR>
0

>  <SCORE.INTER.ROT>
3

>  <SCORE.INTER.SOLV>
13.4801

>  <SCORE.INTER.VDW>
-19.2819

>  <SCORE.INTER.norm>
-1.14857

>  <SCORE.INTRA>
-1.26108

>  <SCORE.INTRA.DIHEDRAL>
-2.20381

>  <SCORE.INTRA.DIHEDRAL.0>
3.34563

>  <SCORE.INTRA.POLAR>
0

>  <SCORE.INTRA.POLAR.0>
0

>  <SCORE.INTRA.REPUL>
0

>  <SCORE.INTRA.REPUL.0>
0

>  <SCORE.INTRA.SOLV>
-1.25337

>  <SCORE.INTRA.SOLV.lig_0>
-59.746

>  <SCORE.INTRA.VDW>
0.467508

>  <SCORE.INTRA.VDW.0>
-0.691186

>  <SCORE.INTRA.norm>
-0.10509

>  <SCORE.RESTR>
0

>  <SCORE.RESTR.CAVITY>
0

>  <SCORE.RESTR.norm>
0

>  <SCORE.SYSTEM>
0

>  <SCORE.SYSTEM.CONST>
0

>  <SCORE.SYSTEM.DIHEDRAL>
0

>  <SCORE.SYSTEM.SOLV>
0

>  <SCORE.SYSTEM.norm>
0

>  <SCORE.heavy>
12

>  <SCORE.norm>
-1.25366

>  <RMSD>
2.805

$$$$
ligand
 OpenBabel02271912143D
libRbt.so/2013.1/901 2013/11/27
 12 12  0  0  0  0  0  0  0  0999 V2000
  -21.5104  -11.5285   95.2932 C   0  0  0  0  0  0  0  0  0  0  0  0
  -19.9255   -6.2592   95.2715 C   0  0  0  0  0  0  0  0  0  0  0  0
  -23.1569   -9.5462   96.0630 N   0  0  0  0  0  0  0  0  0  0  0  0
  -20.4448  -12.4978   95.5857 N   0  0  0  0  0  0  0  0  0  0  0  0
  -20.7168  -13.5762   95.4451 N   0  0  0  0  0  0  0  0  0  0  0  0
  -20.9895  -14.6534   95.2996 N   0  0  0  0  0  0  0  0  0  0  0  0
  -19.4295   -8.5406   94.9211 N   0  0  0  0  0  0  0  0  0  0  0  0
  -20.3017   -7.5967   95.2990 C   0  0  0  0  0  0  0  0  0  0  0  0
  -21.5135   -7.9292   95.7682 N   0  0  0  0  0  0  0  0  0  0  0  0
  -21.8869   -9.2140   95.8596 C   0  0  0  0  0  0  0  0  0  0  0  0
  -21.0294  -10.2375   95.4730 C   0  0  0  0  0  0  0  0  0  0  0  0
  -19.7667   -9.8969   95.0031 C   0  0  0  0  0  0  0  0  0  0  0  0
  1 11  1  0  0  0  0
  1  4  1  0  0  0  0
  2  8  1  0  0  0  0
  3 10  1  0  0  0  0
  4  5  1  0  0  0  0
  5  6  1  0  0  0  0
  7  8  2  0  0  0  0
  7 12  1  0  0  0  0
  8  9  1  0  0  0  0
  9 10  2  0  0  0  0
 10 11  1  0  0  0  0
 11 12  2  0  0  0  0
M  END
>  <CHROM.1>
-150.55907530,-178.40859410,62.48164731,-20.89032076,-10.14247957,95.44064916
1.64246364,-0.28441599,-3.12506848

>  <Name>
ligand

>  <RI>
0

>  <Rbt.Current_Directory>
/home/itssahil/PROJECTS/Mol_Feturizer/Test_systems_manuscript/rnas/4nya

>  <Rbt.Executable>
rbdock ($Id: //depot/dev/client3/rdock/2013.1/src/exe/rbdock.cxx#4 $)

>  <Rbt.Library>
libRbt.so (2013.1, Build901 2013/11/27)

>  <Rbt.Parameter_File>
/export/apps/rDock/src/rDock_2013.1_src/data/scripts/dock_solv.prm

>  <Rbt.Receptor>
prm/pocket_docking_6.prm

>  <SCORE>
-15.046

>  <SCORE.INTER>
-13.7856

>  <SCORE.INTER.CONST>
1

>  <SCORE.INTER.POLAR>
0

>  <SCORE.INTER.ROT>
3

>  <SCORE.INTER.SOLV>
13.4844

>  <SCORE.INTER.VDW>
-19.2852

>  <SCORE.INTER.norm>
-1.1488

>  <SCORE.INTRA>
-1.26039

>  <SCORE.INTRA.DIHEDRAL>
-2.21429

>  <SCORE.INTRA.DIHEDRAL.0>
3.34563

>  <SCORE.INTRA.POLAR>
0

>  <SCORE.INTRA.POLAR.0>
0

>  <SCORE.INTRA.REPUL>
0

>  <SCORE.INTRA.REPUL.0>
0

>  <SCORE.INTRA.SOLV>
-1.25498

>  <SCORE.INTRA.SOLV.lig_0>
-59.746

>  <SCORE.INTRA.VDW>
0.474248

>  <SCORE.INTRA.VDW.0>
-0.691186

>  <SCORE.INTRA.norm>
-0.105032

>  <SCORE.RESTR>
0

>  <SCORE.RESTR.CAVITY>
0

>  <SCORE.RESTR.norm>
0

>  <SCORE.SYSTEM>
0

>  <SCORE.SYSTEM.CONST>
0

>  <SCORE.SYSTEM.DIHEDRAL>
0

>  <SCORE.SYSTEM.SOLV>
0

>  <SCORE.SYSTEM.norm>
0

>  <SCORE.heavy>
12

>  <SCORE.norm>
-1.25383

>  <RMSD>
2.805

$$$$
ligand
 OpenBabel02271912143D
libRbt.so/2013.1/901 2013/11/27
 12 12  0  0  0  0  0  0  0  0999 V2000
  -21.5374  -11.5540   95.3643 C   0  0  0  0  0  0  0  0  0  0  0  0
  -19.9392   -6.2901   95.2458 C   0  0  0  0  0  0  0  0  0  0  0  0
  -23.1914   -9.5509   96.0605 N   0  0  0  0  0  0  0  0  0  0  0  0
  -20.4572  -12.5173   95.6207 N   0  0  0  0  0  0  0  0  0  0  0  0
  -20.7232  -13.5964   95.4735 N   0  0  0  0  0  0  0  0  0  0  0  0
  -20.9845  -14.6764   95.3279 N   0  0  0  0  0  0  0  0  0  0  0  0
  -19.4433   -8.5801   94.9569 N   0  0  0  0  0  0  0  0  0  0  0  0
  -20.3192   -7.6258   95.2982 C   0  0  0  0  0  0  0  0  0  0  0  0
  -21.5393   -7.9446   95.7551 N   0  0  0  0  0  0  0  0  0  0  0  0
  -21.9173   -9.2261   95.8703 C   0  0  0  0  0  0  0  0  0  0  0  0
  -21.0562  -10.2602   95.5218 C   0  0  0  0  0  0  0  0  0  0  0  0
  -19.7851   -9.9333   95.0649 C   0  0  0  0  0  0  0  0  0  0  0  0
  1 11  1  0  0  0  0
  1  4  1  0  0  0  0
  2  8  1  0  0  0  0
  3 10  1  0  0  0  0
  4  5  1  0  0  0  0
  5  6  1  0  0  0  0
  7  8  2  0  0  0  0
  7 12  1  0  0  0  0
  8  9  1  0  0  0  0
  9 10  2  0  0  0  0
 10 11  1  0  0  0  0
 11 12  2  0  0  0  0
M  END
>  <CHROM.1>
-153.83685579,-177.20398876,-177.94095583,-20.90853076,-10.16567325,95.46314901
1.63841325,-0.27453246,-3.13299452

>  <Name>
ligand

>  <RI>
0

>  <Rbt.Current_Directory>
/home/itssahil/PROJECTS/Mol_Feturizer/Test_systems_manuscript/rnas/4nya

>  <Rbt.Executable>
rbdock ($Id: //depot/dev/client3/rdock/2013.1/src/exe/rbdock.cxx#4 $)

>  <Rbt.Library>
libRbt.so (2013.1, Build901 2013/11/27)

>  <Rbt.Parameter_File>
/export/apps/rDock/src/rDock_2013.1_src/data/scripts/dock_solv.prm

>  <Rbt.Receptor>
prm/pocket_docking_6.prm

>  <SCORE>
-15.0646

>  <SCORE.INTER>
-13.8342

>  <SCORE.INTER.CONST>
1

>  <SCORE.INTER.POLAR>
0

>  <SCORE.INTER.ROT>
3

>  <SCORE.INTER.SOLV>
13.4789

>  <SCORE.INTER.VDW>
-19.3158

>  <SCORE.INTER.norm>
-1.15285

>  <SCORE.INTRA>
-1.23042

>  <SCORE.INTRA.DIHEDRAL>
-2.23417

>  <SCORE.INTRA.DIHEDRAL.0>
3.34563

>  <SCORE.INTRA.POLAR>
0

>  <SCORE.INTRA.POLAR.0>
0

>  <SCORE.INTRA.REPUL>
0

>  <SCORE.INTRA.REPUL.0>
0

>  <SCORE.INTRA.SOLV>
-1.27433

>  <SCORE.INTRA.SOLV.lig_0>
-59.746

>  <SCORE.INTRA.VDW>
0.523826

>  <SCORE.INTRA.VDW.0>
-0.691186

>  <SCORE.INTRA.norm>
-0.102535

>  <SCORE.RESTR>
0

>  <SCORE.RESTR.CAVITY>
0

>  <SCORE.RESTR.norm>
0

>  <SCORE.SYSTEM>
0

>  <SCORE.SYSTEM.CONST>
0

>  <SCORE.SYSTEM.DIHEDRAL>
0

>  <SCORE.SYSTEM.SOLV>
0

>  <SCORE.SYSTEM.norm>
0

>  <SCORE.heavy>
12

>  <SCORE.norm>
-1.25539

>  <RMSD>
2.805

$$$$
ligand
 OpenBabel02271912143D
libRbt.so/2013.1/901 2013/11/27
 12 12  0  0  0  0  0  0  0  0999 V2000
  -21.5143  -11.5308   95.2928 C   0  0  0  0  0  0  0  0  0  0  0  0
  -19.9264   -6.2625   95.2666 C   0  0  0  0  0  0  0  0  0  0  0  0
  -23.1564   -9.5479   96.0703 N   0  0  0  0  0  0  0  0  0  0  0  0
  -20.4552  -12.5014   95.6041 N   0  0  0  0  0  0  0  0  0  0  0  0
  -20.7192  -13.5784   95.4391 N   0  0  0  0  0  0  0  0  0  0  0  0
  -20.9833  -14.6542   95.2691 N   0  0  0  0  0  0  0  0  0  0  0  0
  -19.4333   -8.5440   94.9131 N   0  0  0  0  0  0  0  0  0  0  0  0
  -20.3033   -7.5998   95.2951 C   0  0  0  0  0  0  0  0  0  0  0  0
  -21.5133   -7.9317   95.7693 N   0  0  0  0  0  0  0  0  0  0  0  0
  -21.8870   -9.2163   95.8617 C   0  0  0  0  0  0  0  0  0  0  0  0
  -21.0318  -10.2402   95.4711 C   0  0  0  0  0  0  0  0  0  0  0  0
  -19.7709   -9.9001   94.9959 C   0  0  0  0  0  0  0  0  0  0  0  0
  1 11  1  0  0  0  0
  1  4  1  0  0  0  0
  2  8  1  0  0  0  0
  3 10  1  0  0  0  0
  4  5  1  0  0  0  0
  5  6  1  0  0  0  0
  7  8  2  0  0  0  0
  7 12  1  0  0  0  0
  8  9  1  0  0  0  0
  9 10  2  0  0  0  0
 10 11  1  0  0  0  0
 11 12  2  0  0  0  0
M  END
>  <CHROM.1>
-149.52903161,-176.77025505,68.06348133,-20.89219999,-10.14505823,95.43780405
1.64232656,-0.28865499,-3.12365586

>  <Name>
ligand

>  <RI>
0

>  <Rbt.Current_Directory>
/home/itssahil/PROJECTS/Mol_Feturizer/Test_systems_manuscript/rnas/4nya

>  <Rbt.Executable>
rbdock ($Id: //depot/dev/client3/rdock/2013.1/src/exe/rbdock.cxx#4 $)

>  <Rbt.Library>
libRbt.so (2013.1, Build901 2013/11/27)

>  <Rbt.Parameter_File>
/export/apps/rDock/src/rDock_2013.1_src/data/scripts/dock_solv.prm

>  <Rbt.Receptor>
prm/pocket_docking_6.prm

>  <SCORE>
-15.041

>  <SCORE.INTER>
-13.7862

>  <SCORE.INTER.CONST>
1

>  <SCORE.INTER.POLAR>
0

>  <SCORE.INTER.ROT>
3

>  <SCORE.INTER.SOLV>
13.4473

>  <SCORE.INTER.VDW>
-19.2732

>  <SCORE.INTER.norm>
-1.14885

>  <SCORE.INTRA>
-1.25482

>  <SCORE.INTRA.DIHEDRAL>
-2.1811

>  <SCORE.INTRA.DIHEDRAL.0>
3.34563

>  <SCORE.INTRA.POLAR>
0

>  <SCORE.INTRA.POLAR.0>
0

>  <SCORE.INTRA.REPUL>
0

>  <SCORE.INTRA.REPUL.0>
0

>  <SCORE.INTRA.SOLV>
-1.24547

>  <SCORE.INTRA.SOLV.lig_0>
-59.746

>  <SCORE.INTRA.VDW>
0.458465

>  <SCORE.INTRA.VDW.0>
-0.691186

>  <SCORE.INTRA.norm>
-0.104568

>  <SCORE.RESTR>
0

>  <SCORE.RESTR.CAVITY>
0

>  <SCORE.RESTR.norm>
0

>  <SCORE.SYSTEM>
0

>  <SCORE.SYSTEM.CONST>
0

>  <SCORE.SYSTEM.DIHEDRAL>
0

>  <SCORE.SYSTEM.SOLV>
0

>  <SCORE.SYSTEM.norm>
0

>  <SCORE.heavy>
12

>  <SCORE.norm>
-1.25342

>  <RMSD>
2.805

$$$$
ligand
 OpenBabel02271912143D
libRbt.so/2013.1/901 2013/11/27
 12 12  0  0  0  0  0  0  0  0999 V2000
  -21.5364  -11.5337   95.3264 C   0  0  0  0  0  0  0  0  0  0  0  0
  -19.9469   -6.2668   95.2244 C   0  0  0  0  0  0  0  0  0  0  0  0
  -23.1846   -9.5377   96.0560 N   0  0  0  0  0  0  0  0  0  0  0  0
  -20.4613  -12.4982   95.5995 N   0  0  0  0  0  0  0  0  0  0  0  0
  -20.7235  -13.5764   95.4399 N   0  0  0  0  0  0  0  0  0  0  0  0
  -20.9811  -14.6556   95.2820 N   0  0  0  0  0  0  0  0  0  0  0  0
  -19.4514   -8.5540   94.9140 N   0  0  0  0  0  0  0  0  0  0  0  0
  -20.3244   -7.6034   95.2723 C   0  0  0  0  0  0  0  0  0  0  0  0
  -21.5385   -7.9271   95.7417 N   0  0  0  0  0  0  0  0  0  0  0  0
  -21.9133   -9.2099   95.8527 C   0  0  0  0  0  0  0  0  0  0  0  0
  -21.0551  -10.2403   95.4869 C   0  0  0  0  0  0  0  0  0  0  0  0
  -19.7900   -9.9085   95.0169 C   0  0  0  0  0  0  0  0  0  0  0  0
  1 11  1  0  0  0  0
  1  4  1  0  0  0  0
  2  8  1  0  0  0  0
  3 10  1  0  0  0  0
  4  5  1  0  0  0  0
  5  6  1  0  0  0  0
  7  8  2  0  0  0  0
  7 12  1  0  0  0  0
  8  9  1  0  0  0  0
  9 10  2  0  0  0  0
 10 11  1  0  0  0  0
 11 12  2  0  0  0  0
M  END
>  <CHROM.1>
-152.28127667,-176.50777287,-177.95146585,-20.90965126,-10.14538880,95.43438457
1.63806986,-0.28466228,-3.13038662

>  <Name>
ligand

>  <RI>
0

>  <Rbt.Current_Directory>
/home/itssahil/PROJECTS/Mol_Feturizer/Test_systems_manuscript/rnas/4nya

>  <Rbt.Executable>
rbdock ($Id: //depot/dev/client3/rdock/2013.1/src/exe/rbdock.cxx#4 $)

>  <Rbt.Library>
libRbt.so (2013.1, Build901 2013/11/27)

>  <Rbt.Parameter_File>
/export/apps/rDock/src/rDock_2013.1_src/data/scripts/dock_solv.prm

>  <Rbt.Receptor>
prm/pocket_docking_8.prm

>  <SCORE>
-15.0213

>  <SCORE.INTER>
-13.7772

>  <SCORE.INTER.CONST>
1

>  <SCORE.INTER.POLAR>
0

>  <SCORE.INTER.ROT>
3

>  <SCORE.INTER.SOLV>
13.4357

>  <SCORE.INTER.VDW>
-19.2633

>  <SCORE.INTER.norm>
-1.1481

>  <SCORE.INTRA>
-1.24408

>  <SCORE.INTRA.DIHEDRAL>
-2.22143

>  <SCORE.INTRA.DIHEDRAL.0>
3.34563

>  <SCORE.INTRA.POLAR>
0

>  <SCORE.INTRA.POLAR.0>
0

>  <SCORE.INTRA.REPUL>
0

>  <SCORE.INTRA.REPUL.0>
0

>  <SCORE.INTRA.SOLV>
-1.26445

>  <SCORE.INTRA.SOLV.lig_0>
-59.746

>  <SCORE.INTRA.VDW>
0.498859

>  <SCORE.INTRA.VDW.0>
-0.691186

>  <SCORE.INTRA.norm>
-0.103673

>  <SCORE.RESTR>
0

>  <SCORE.RESTR.CAVITY>
0

>  <SCORE.RESTR.norm>
0

>  <SCORE.SYSTEM>
0

>  <SCORE.SYSTEM.CONST>
0

>  <SCORE.SYSTEM.DIHEDRAL>
0

>  <SCORE.SYSTEM.SOLV>
0

>  <SCORE.SYSTEM.norm>
0

>  <SCORE.heavy>
12

>  <SCORE.norm>
-1.25177

>  <RMSD>
2.805

$$$$
ligand
 OpenBabel02271912143D
libRbt.so/2013.1/901 2013/11/27
 12 12  0  0  0  0  0  0  0  0999 V2000
  -21.5037  -11.5236   95.2891 C   0  0  0  0  0  0  0  0  0  0  0  0
  -19.8931   -6.2624   95.2280 C   0  0  0  0  0  0  0  0  0  0  0  0
  -23.1364   -9.5287   96.0557 N   0  0  0  0  0  0  0  0  0  0  0  0
  -20.4443  -12.4966   95.5917 N   0  0  0  0  0  0  0  0  0  0  0  0
  -20.7136  -13.5732   95.4333 N   0  0  0  0  0  0  0  0  0  0  0  0
  -20.9867  -14.6490   95.2782 N   0  0  0  0  0  0  0  0  0  0  0  0
  -19.4102   -8.5483   94.8886 N   0  0  0  0  0  0  0  0  0  0  0  0
  -20.2757   -7.5979   95.2653 C   0  0  0  0  0  0  0  0  0  0  0  0
  -21.4866   -7.9216   95.7428 N   0  0  0  0  0  0  0  0  0  0  0  0
  -21.8658   -9.2039   95.8437 C   0  0  0  0  0  0  0  0  0  0  0  0
  -21.0155  -10.2339   95.4588 C   0  0  0  0  0  0  0  0  0  0  0  0
  -19.7535   -9.9024   94.9803 C   0  0  0  0  0  0  0  0  0  0  0  0
  1 11  1  0  0  0  0
  1  4  1  0  0  0  0
  2  8  1  0  0  0  0
  3 10  1  0  0  0  0
  4  5  1  0  0  0  0
  5  6  1  0  0  0  0
  7  8  2  0  0  0  0
  7 12  1  0  0  0  0
  8  9  1  0  0  0  0
  9 10  2  0  0  0  0
 10 11  1  0  0  0  0
 11 12  2  0  0  0  0
M  END
>  <CHROM.1>
-150.13068087,-176.82541998,-57.61975732,-20.87482675,-10.13956193,95.42174325
1.64643697,-0.29026642,-3.12714856

>  <Name>
ligand

>  <RI>
0

>  <Rbt.Current_Directory>
/home/itssahil/PROJECTS/Mol_Feturizer/Test_systems_manuscript/rnas/4nya

>  <Rbt.Executable>
rbdock ($Id: //depot/dev/client3/rdock/2013.1/src/exe/rbdock.cxx#4 $)

>  <Rbt.Library>
libRbt.so (2013.1, Build901 2013/11/27)

>  <Rbt.Parameter_File>
/export/apps/rDock/src/rDock_2013.1_src/data/scripts/dock_solv.prm

>  <Rbt.Receptor>
prm/blind_docking_100.prm

>  <SCORE>
-15.0174

>  <SCORE.INTER>
-13.7584

>  <SCORE.INTER.CONST>
1

>  <SCORE.INTER.POLAR>
0

>  <SCORE.INTER.ROT>
3

>  <SCORE.INTER.SOLV>
13.5626

>  <SCORE.INTER.VDW>
-19.2931

>  <SCORE.INTER.norm>
-1.14654

>  <SCORE.INTRA>
-1.25899

>  <SCORE.INTRA.DIHEDRAL>
-2.20392

>  <SCORE.INTRA.DIHEDRAL.0>
3.34563

>  <SCORE.INTRA.POLAR>
0

>  <SCORE.INTRA.POLAR.0>
0

>  <SCORE.INTRA.REPUL>
0

>  <SCORE.INTRA.REPUL.0>
0

>  <SCORE.INTRA.SOLV>
-1.24902

>  <SCORE.INTRA.SOLV.lig_0>
-59.746

>  <SCORE.INTRA.VDW>
0.46748

>  <SCORE.INTRA.VDW.0>
-0.691186

>  <SCORE.INTRA.norm>
-0.104916

>  <SCORE.RESTR>
0

>  <SCORE.RESTR.CAVITY>
0

>  <SCORE.RESTR.norm>
0

>  <SCORE.SYSTEM>
0

>  <SCORE.SYSTEM.CONST>
0

>  <SCORE.SYSTEM.DIHEDRAL>
0

>  <SCORE.SYSTEM.SOLV>
0

>  <SCORE.SYSTEM.norm>
0

>  <SCORE.heavy>
12

>  <SCORE.norm>
-1.25145

>  <RMSD>
2.806

$$$$
ligand
 OpenBabel02271912143D
libRbt.so/2013.1/901 2013/11/27
 12 12  0  0  0  0  0  0  0  0999 V2000
  -21.5170  -11.5238   95.3067 C   0  0  0  0  0  0  0  0  0  0  0  0
  -19.9286   -6.2561   95.2332 C   0  0  0  0  0  0  0  0  0  0  0  0
  -23.1613   -9.5332   96.0595 N   0  0  0  0  0  0  0  0  0  0  0  0
  -20.4451  -12.4905   95.5842 N   0  0  0  0  0  0  0  0  0  0  0  0
  -20.7158  -13.5695   95.4453 N   0  0  0  0  0  0  0  0  0  0  0  0
  -20.9875  -14.6472   95.3015 N   0  0  0  0  0  0  0  0  0  0  0  0
  -19.4346   -8.5411   94.9038 N   0  0  0  0  0  0  0  0  0  0  0  0
  -20.3056   -7.5931   95.2737 C   0  0  0  0  0  0  0  0  0  0  0  0
  -21.5171   -7.9202   95.7475 N   0  0  0  0  0  0  0  0  0  0  0  0
  -21.8912   -9.2038   95.8515 C   0  0  0  0  0  0  0  0  0  0  0  0
  -21.0350  -10.2315   95.4736 C   0  0  0  0  0  0  0  0  0  0  0  0
  -19.7725   -9.8963   94.9990 C   0  0  0  0  0  0  0  0  0  0  0  0
  1 11  1  0  0  0  0
  1  4  1  0  0  0  0
  2  8  1  0  0  0  0
  3 10  1  0  0  0  0
  4  5  1  0  0  0  0
  5  6  1  0  0  0  0
  7  8  2  0  0  0  0
  7 12  1  0  0  0  0
  8  9  1  0  0  0  0
  9 10  2  0  0  0  0
 10 11  1  0  0  0  0
 11 12  2  0  0  0  0
M  END
>  <CHROM.1>
-151.54417835,-178.00661096,59.45331752,-20.89356022,-10.13664419,95.43194056
1.64134120,-0.28754704,-3.12966747

>  <Name>
ligand

>  <RI>
0

>  <Rbt.Current_Directory>
/home/itssahil/PROJECTS/Mol_Feturizer/Test_systems_manuscript/rnas/4nya

>  <Rbt.Executable>
rbdock ($Id: //depot/dev/client3/rdock/2013.1/src/exe/rbdock.cxx#4 $)

>  <Rbt.Library>
libRbt.so (2013.1, Build901 2013/11/27)

>  <Rbt.Parameter_File>
/export/apps/rDock/src/rDock_2013.1_src/data/scripts/dock_solv.prm

>  <Rbt.Receptor>
prm/pocket_docking_4.prm

>  <SCORE>
-15.0267

>  <SCORE.INTER>
-13.7741

>  <SCORE.INTER.CONST>
1

>  <SCORE.INTER.POLAR>
0

>  <SCORE.INTER.ROT>
3

>  <SCORE.INTER.SOLV>
13.5204

>  <SCORE.INTER.VDW>
-19.2895

>  <SCORE.INTER.norm>
-1.14784

>  <SCORE.INTRA>
-1.25263

>  <SCORE.INTRA.DIHEDRAL>
-2.22358

>  <SCORE.INTRA.DIHEDRAL.0>
3.34563

>  <SCORE.INTRA.POLAR>
0

>  <SCORE.INTRA.POLAR.0>
0

>  <SCORE.INTRA.REPUL>
0

>  <SCORE.INTRA.REPUL.0>
0

>  <SCORE.INTRA.SOLV>
-1.25996

>  <SCORE.INTRA.SOLV.lig_0>
-59.746

>  <SCORE.INTRA.VDW>
0.48914

>  <SCORE.INTRA.VDW.0>
-0.691186

>  <SCORE.INTRA.norm>
-0.104386

>  <SCORE.RESTR>
0

>  <SCORE.RESTR.CAVITY>
0

>  <SCORE.RESTR.norm>
0

>  <SCORE.SYSTEM>
0

>  <SCORE.SYSTEM.CONST>
0

>  <SCORE.SYSTEM.DIHEDRAL>
0

>  <SCORE.SYSTEM.SOLV>
0

>  <SCORE.SYSTEM.norm>
0

>  <SCORE.heavy>
12

>  <SCORE.norm>
-1.25223

>  <RMSD>
2.806

$$$$
ligand
 OpenBabel02271912143D
libRbt.so/2013.1/901 2013/11/27
 12 12  0  0  0  0  0  0  0  0999 V2000
  -21.5196  -11.5227   95.3135 C   0  0  0  0  0  0  0  0  0  0  0  0
  -19.9283   -6.2559   95.2389 C   0  0  0  0  0  0  0  0  0  0  0  0
  -23.1664   -9.5301   96.0555 N   0  0  0  0  0  0  0  0  0  0  0  0
  -20.4498  -12.4895   95.5988 N   0  0  0  0  0  0  0  0  0  0  0  0
  -20.7147  -13.5676   95.4426 N   0  0  0  0  0  0  0  0  0  0  0  0
  -20.9802  -14.6444   95.2814 N   0  0  0  0  0  0  0  0  0  0  0  0
  -19.4339   -8.5416   94.9156 N   0  0  0  0  0  0  0  0  0  0  0  0
  -20.3062   -7.5926   95.2799 C   0  0  0  0  0  0  0  0  0  0  0  0
  -21.5200   -7.9184   95.7486 N   0  0  0  0  0  0  0  0  0  0  0  0
  -21.8952   -9.2016   95.8529 C   0  0  0  0  0  0  0  0  0  0  0  0
  -21.0377  -10.2303   95.4807 C   0  0  0  0  0  0  0  0  0  0  0  0
  -19.7729   -9.8965   95.0114 C   0  0  0  0  0  0  0  0  0  0  0  0
  1 11  1  0  0  0  0
  1  4  1  0  0  0  0
  2  8  1  0  0  0  0
  3 10  1  0  0  0  0
  4  5  1  0  0  0  0
  5  6  1  0  0  0  0
  7  8  2  0  0  0  0
  7 12  1  0  0  0  0
  8  9  1  0  0  0  0
  9 10  2  0  0  0  0
 10 11  1  0  0  0  0
 11 12  2  0  0  0  0
M  END
>  <CHROM.1>
-151.49128557,-176.93585302,62.39195316,-20.89464065,-10.13535699,95.43513213
1.64045356,-0.28388088,-3.12837574

>  <Name>
ligand

>  <RI>
0

>  <Rbt.Current_Directory>
/home/itssahil/PROJECTS/Mol_Feturizer/Test_systems_manuscript/rnas/4nya

>  <Rbt.Executable>
rbdock ($Id: //depot/dev/client3/rdock/2013.1/src/exe/rbdock.cxx#4 $)

>  <Rbt.Library>
libRbt.so (2013.1, Build901 2013/11/27)

>  <Rbt.Parameter_File>
/export/apps/rDock/src/rDock_2013.1_src/data/scripts/dock_solv.prm

>  <Rbt.Receptor>
prm/pocket_docking_4.prm

>  <SCORE>
-15.0216

>  <SCORE.INTER>
-13.7722

>  <SCORE.INTER.CONST>
1

>  <SCORE.INTER.POLAR>
0

>  <SCORE.INTER.ROT>
3

>  <SCORE.INTER.SOLV>
13.504

>  <SCORE.INTER.VDW>
-19.2828

>  <SCORE.INTER.norm>
-1.14768

>  <SCORE.INTRA>
-1.24943

>  <SCORE.INTRA.DIHEDRAL>
-2.21722

>  <SCORE.INTRA.DIHEDRAL.0>
3.34563

>  <SCORE.INTRA.POLAR>
0

>  <SCORE.INTRA.POLAR.0>
0

>  <SCORE.INTRA.REPUL>
0

>  <SCORE.INTRA.REPUL.0>
0

>  <SCORE.INTRA.SOLV>
-1.25762

>  <SCORE.INTRA.SOLV.lig_0>
-59.746

>  <SCORE.INTRA.VDW>
0.487983

>  <SCORE.INTRA.VDW.0>
-0.691186

>  <SCORE.INTRA.norm>
-0.104119

>  <SCORE.RESTR>
0

>  <SCORE.RESTR.CAVITY>
0

>  <SCORE.RESTR.norm>
0

>  <SCORE.SYSTEM>
0

>  <SCORE.SYSTEM.CONST>
0

>  <SCORE.SYSTEM.DIHEDRAL>
0

>  <SCORE.SYSTEM.SOLV>
0

>  <SCORE.SYSTEM.norm>
0

>  <SCORE.heavy>
12

>  <SCORE.norm>
-1.2518

>  <RMSD>
2.806

$$$$
ligand
 OpenBabel02271912143D
libRbt.so/2013.1/901 2013/11/27
 12 12  0  0  0  0  0  0  0  0999 V2000
  -21.5252  -11.5279   95.3166 C   0  0  0  0  0  0  0  0  0  0  0  0
  -19.9247   -6.2636   95.2621 C   0  0  0  0  0  0  0  0  0  0  0  0
  -23.1809   -9.5319   96.0289 N   0  0  0  0  0  0  0  0  0  0  0  0
  -20.4569  -12.4956   95.6043 N   0  0  0  0  0  0  0  0  0  0  0  0
  -20.7184  -13.5726   95.4359 N   0  0  0  0  0  0  0  0  0  0  0  0
  -20.9839  -14.6488   95.2706 N   0  0  0  0  0  0  0  0  0  0  0  0
  -19.4285   -8.5505   94.9497 N   0  0  0  0  0  0  0  0  0  0  0  0
  -20.3053   -7.5997   95.2984 C   0  0  0  0  0  0  0  0  0  0  0  0
  -21.5272   -7.9231   95.7473 N   0  0  0  0  0  0  0  0  0  0  0  0
  -21.9061   -9.2056   95.8469 C   0  0  0  0  0  0  0  0  0  0  0  0
  -21.0441  -10.2361   95.4902 C   0  0  0  0  0  0  0  0  0  0  0  0
  -19.7712   -9.9047   95.0415 C   0  0  0  0  0  0  0  0  0  0  0  0
  1 11  1  0  0  0  0
  1  4  1  0  0  0  0
  2  8  1  0  0  0  0
  3 10  1  0  0  0  0
  4  5  1  0  0  0  0
  5  6  1  0  0  0  0
  7  8  2  0  0  0  0
  7 12  1  0  0  0  0
  8  9  1  0  0  0  0
  9 10  2  0  0  0  0
 10 11  1  0  0  0  0
 11 12  2  0  0  0  0
M  END
>  <CHROM.1>
-152.19867887,-176.48697670,-54.59893439,-20.89855772,-10.14109967,95.44096982
1.64057808,-0.26878791,-3.12583570

>  <Name>
ligand

>  <RI>
0

>  <Rbt.Current_Directory>
/home/itssahil/PROJECTS/Mol_Feturizer/Test_systems_manuscript/rnas/4nya

>  <Rbt.Executable>
rbdock ($Id: //depot/dev/client3/rdock/2013.1/src/exe/rbdock.cxx#4 $)

>  <Rbt.Library>
libRbt.so (2013.1, Build901 2013/11/27)

>  <Rbt.Parameter_File>
/export/apps/rDock/src/rDock_2013.1_src/data/scripts/dock_solv.prm

>  <Rbt.Receptor>
prm/pocket_docking_4.prm

>  <SCORE>
-15.0486

>  <SCORE.INTER>
-13.8102

>  <SCORE.INTER.CONST>
1

>  <SCORE.INTER.POLAR>
0

>  <SCORE.INTER.ROT>
3

>  <SCORE.INTER.SOLV>
13.4393

>  <SCORE.INTER.VDW>
-19.2866

>  <SCORE.INTER.norm>
-1.15085

>  <SCORE.INTRA>
-1.23832

>  <SCORE.INTRA.DIHEDRAL>
-2.21393

>  <SCORE.INTRA.DIHEDRAL.0>
3.34563

>  <SCORE.INTRA.POLAR>
0

>  <SCORE.INTRA.POLAR.0>
0

>  <SCORE.INTRA.REPUL>
0

>  <SCORE.INTRA.REPUL.0>
0

>  <SCORE.INTRA.SOLV>
-1.26051

>  <SCORE.INTRA.SOLV.lig_0>
-59.746

>  <SCORE.INTRA.VDW>
0.4989

>  <SCORE.INTRA.VDW.0>
-0.691186

>  <SCORE.INTRA.norm>
-0.103193

>  <SCORE.RESTR>
0

>  <SCORE.RESTR.CAVITY>
0

>  <SCORE.RESTR.norm>
0

>  <SCORE.SYSTEM>
0

>  <SCORE.SYSTEM.CONST>
0

>  <SCORE.SYSTEM.DIHEDRAL>
0

>  <SCORE.SYSTEM.SOLV>
0

>  <SCORE.SYSTEM.norm>
0

>  <SCORE.heavy>
12

>  <SCORE.norm>
-1.25405

>  <RMSD>
2.806

$$$$
ligand
 OpenBabel02271912143D
libRbt.so/2013.1/901 2013/11/27
 12 12  0  0  0  0  0  0  0  0999 V2000
  -21.5151  -11.5310   95.2942 C   0  0  0  0  0  0  0  0  0  0  0  0
  -19.9232   -6.2639   95.2613 C   0  0  0  0  0  0  0  0  0  0  0  0
  -23.1685   -9.5423   96.0317 N   0  0  0  0  0  0  0  0  0  0  0  0
  -20.4522  -12.4997   95.5983 N   0  0  0  0  0  0  0  0  0  0  0  0
  -20.7168  -13.5774   95.4393 N   0  0  0  0  0  0  0  0  0  0  0  0
  -20.9854  -14.6541   95.2832 N   0  0  0  0  0  0  0  0  0  0  0  0
  -19.4259   -8.5479   94.9305 N   0  0  0  0  0  0  0  0  0  0  0  0
  -20.3015   -7.6007   95.2919 C   0  0  0  0  0  0  0  0  0  0  0  0
  -21.5194   -7.9290   95.7480 N   0  0  0  0  0  0  0  0  0  0  0  0
  -21.8956   -9.2127   95.8422 C   0  0  0  0  0  0  0  0  0  0  0  0
  -21.0347  -10.2395   95.4724 C   0  0  0  0  0  0  0  0  0  0  0  0
  -19.7658   -9.9032   95.0162 C   0  0  0  0  0  0  0  0  0  0  0  0
  1 11  1  0  0  0  0
  1  4  1  0  0  0  0
  2  8  1  0  0  0  0
  3 10  1  0  0  0  0
  4  5  1  0  0  0  0
  5  6  1  0  0  0  0
  7  8  2  0  0  0  0
  7 12  1  0  0  0  0
  8  9  1  0  0  0  0
  9 10  2  0  0  0  0
 10 11  1  0  0  0  0
 11 12  2  0  0  0  0
M  END
>  <CHROM.1>
-150.87054004,-177.16693780,-52.92915017,-20.89296223,-10.14456007,95.43438750
1.64174712,-0.27352503,-3.12654280

>  <Name>
ligand

>  <RI>
0

>  <Rbt.Current_Directory>
/home/itssahil/PROJECTS/Mol_Feturizer/Test_systems_manuscript/rnas/4nya

>  <Rbt.Executable>
rbdock ($Id: //depot/dev/client3/rdock/2013.1/src/exe/rbdock.cxx#4 $)

>  <Rbt.Library>
libRbt.so (2013.1, Build901 2013/11/27)

>  <Rbt.Parameter_File>
/export/apps/rDock/src/rDock_2013.1_src/data/scripts/dock_solv.prm

>  <Rbt.Receptor>
prm/pocket_docking_5.prm

>  <SCORE>
-15.0407

>  <SCORE.INTER>
-13.7919

>  <SCORE.INTER.CONST>
1

>  <SCORE.INTER.POLAR>
0

>  <SCORE.INTER.ROT>
3

>  <SCORE.INTER.SOLV>
13.4741

>  <SCORE.INTER.VDW>
-19.286

>  <SCORE.INTER.norm>
-1.14933

>  <SCORE.INTRA>
-1.24878

>  <SCORE.INTRA.DIHEDRAL>
-2.20088

>  <SCORE.INTRA.DIHEDRAL.0>
3.34563

>  <SCORE.INTRA.POLAR>
0

>  <SCORE.INTRA.POLAR.0>
0

>  <SCORE.INTRA.REPUL>
0

>  <SCORE.INTRA.REPUL.0>
0

>  <SCORE.INTRA.SOLV>
-1.25411

>  <SCORE.INTRA.SOLV.lig_0>
-59.746

>  <SCORE.INTRA.VDW>
0.47872

>  <SCORE.INTRA.VDW.0>
-0.691186

>  <SCORE.INTRA.norm>
-0.104065

>  <SCORE.RESTR>
0

>  <SCORE.RESTR.CAVITY>
0

>  <SCORE.RESTR.norm>
0

>  <SCORE.SYSTEM>
0

>  <SCORE.SYSTEM.CONST>
0

>  <SCORE.SYSTEM.DIHEDRAL>
0

>  <SCORE.SYSTEM.SOLV>
0

>  <SCORE.SYSTEM.norm>
0

>  <SCORE.heavy>
12

>  <SCORE.norm>
-1.25339

>  <RMSD>
2.806

$$$$
ligand
 OpenBabel02271912143D
libRbt.so/2013.1/901 2013/11/27
 12 12  0  0  0  0  0  0  0  0999 V2000
  -21.5384  -11.5521   95.3652 C   0  0  0  0  0  0  0  0  0  0  0  0
  -19.9523   -6.2852   95.2159 C   0  0  0  0  0  0  0  0  0  0  0  0
  -23.1751   -9.5535   96.1132 N   0  0  0  0  0  0  0  0  0  0  0  0
  -20.4467  -12.5139   95.5743 N   0  0  0  0  0  0  0  0  0  0  0  0
  -20.7141  -13.5924   95.4256 N   0  0  0  0  0  0  0  0  0  0  0  0
  -20.9766  -14.6719   95.2782 N   0  0  0  0  0  0  0  0  0  0  0  0
  -19.4612   -8.5736   94.9069 N   0  0  0  0  0  0  0  0  0  0  0  0
  -20.3286   -7.6217   95.2754 C   0  0  0  0  0  0  0  0  0  0  0  0
  -21.5348   -7.9437   95.7657 N   0  0  0  0  0  0  0  0  0  0  0  0
  -21.9075   -9.2261   95.8880 C   0  0  0  0  0  0  0  0  0  0  0  0
  -21.0549  -10.2579   95.5126 C   0  0  0  0  0  0  0  0  0  0  0  0
  -19.7977   -9.9277   95.0208 C   0  0  0  0  0  0  0  0  0  0  0  0
  1 11  1  0  0  0  0
  1  4  1  0  0  0  0
  2  8  1  0  0  0  0
  3 10  1  0  0  0  0
  4  5  1  0  0  0  0
  5  6  1  0  0  0  0
  7  8  2  0  0  0  0
  7 12  1  0  0  0  0
  8  9  1  0  0  0  0
  9 10  2  0  0  0  0
 10 11  1  0  0  0  0
 11 12  2  0  0  0  0
M  END
>  <CHROM.1>
-154.43415604,-176.91793173,-178.62140665,-20.90801736,-10.16270238,95.44471177
1.63610522,-0.30410980,-3.12762736

>  <Name>
ligand

>  <RI>
0

>  <Rbt.Current_Directory>
/home/itssahil/PROJECTS/Mol_Feturizer/Test_systems_manuscript/rnas/4nya

>  <Rbt.Executable>
rbdock ($Id: //depot/dev/client3/rdock/2013.1/src/exe/rbdock.cxx#4 $)

>  <Rbt.Library>
libRbt.so (2013.1, Build901 2013/11/27)

>  <Rbt.Parameter_File>
/export/apps/rDock/src/rDock_2013.1_src/data/scripts/dock_solv.prm

>  <Rbt.Receptor>
prm/pocket_docking_5.prm

>  <SCORE>
-15.0524

>  <SCORE.INTER>
-13.8295

>  <SCORE.INTER.CONST>
1

>  <SCORE.INTER.POLAR>
0

>  <SCORE.INTER.ROT>
3

>  <SCORE.INTER.SOLV>
13.446

>  <SCORE.INTER.VDW>
-19.3016

>  <SCORE.INTER.norm>
-1.15245

>  <SCORE.INTRA>
-1.22293

>  <SCORE.INTRA.DIHEDRAL>
-2.23593

>  <SCORE.INTRA.DIHEDRAL.0>
3.34563

>  <SCORE.INTRA.POLAR>
0

>  <SCORE.INTRA.POLAR.0>
0

>  <SCORE.INTRA.REPUL>
0

>  <SCORE.INTRA.REPUL.0>
0

>  <SCORE.INTRA.SOLV>
-1.27685

>  <SCORE.INTRA.SOLV.lig_0>
-59.746

>  <SCORE.INTRA.VDW>
0.533466

>  <SCORE.INTRA.VDW.0>
-0.691186

>  <SCORE.INTRA.norm>
-0.101911

>  <SCORE.RESTR>
0

>  <SCORE.RESTR.CAVITY>
0

>  <SCORE.RESTR.norm>
0

>  <SCORE.SYSTEM>
0

>  <SCORE.SYSTEM.CONST>
0

>  <SCORE.SYSTEM.DIHEDRAL>
0

>  <SCORE.SYSTEM.SOLV>
0

>  <SCORE.SYSTEM.norm>
0

>  <SCORE.heavy>
12

>  <SCORE.norm>
-1.25436

>  <RMSD>
2.806

$$$$
ligand
 OpenBabel02271912143D
libRbt.so/2013.1/901 2013/11/27
 12 12  0  0  0  0  0  0  0  0999 V2000
  -21.5261  -11.5449   95.3159 C   0  0  0  0  0  0  0  0  0  0  0  0
  -19.9346   -6.2779   95.2571 C   0  0  0  0  0  0  0  0  0  0  0  0
  -23.1733   -9.5544   96.0624 N   0  0  0  0  0  0  0  0  0  0  0  0
  -20.4617  -12.5129   95.6170 N   0  0  0  0  0  0  0  0  0  0  0  0
  -20.7216  -13.5899   95.4459 N   0  0  0  0  0  0  0  0  0  0  0  0
  -20.9769  -14.6679   95.2766 N   0  0  0  0  0  0  0  0  0  0  0  0
  -19.4400   -8.5627   94.9276 N   0  0  0  0  0  0  0  0  0  0  0  0
  -20.3126   -7.6147   95.2941 C   0  0  0  0  0  0  0  0  0  0  0  0
  -21.5267   -7.9418   95.7610 N   0  0  0  0  0  0  0  0  0  0  0  0
  -21.9020   -9.2253   95.8615 C   0  0  0  0  0  0  0  0  0  0  0  0
  -21.0442  -10.2530   95.4870 C   0  0  0  0  0  0  0  0  0  0  0  0
  -19.7791   -9.9178   95.0194 C   0  0  0  0  0  0  0  0  0  0  0  0
  1 11  1  0  0  0  0
  1  4  1  0  0  0  0
  2  8  1  0  0  0  0
  3 10  1  0  0  0  0
  4  5  1  0  0  0  0
  5  6  1  0  0  0  0
  7  8  2  0  0  0  0
  7 12  1  0  0  0  0
  8  9  1  0  0  0  0
  9 10  2  0  0  0  0
 10 11  1  0  0  0  0
 11 12  2  0  0  0  0
M  END
>  <CHROM.1>
-150.71931976,-176.12999005,-175.99659617,-20.90079717,-10.15801680,95.44398441
1.63994389,-0.28270579,-3.12671352

>  <Name>
ligand

>  <RI>
0

>  <Rbt.Current_Directory>
/home/itssahil/PROJECTS/Mol_Feturizer/Test_systems_manuscript/rnas/4nya

>  <Rbt.Executable>
rbdock ($Id: //depot/dev/client3/rdock/2013.1/src/exe/rbdock.cxx#4 $)

>  <Rbt.Library>
libRbt.so (2013.1, Build901 2013/11/27)

>  <Rbt.Parameter_File>
/export/apps/rDock/src/rDock_2013.1_src/data/scripts/dock_solv.prm

>  <Rbt.Receptor>
prm/pocket_docking_5.prm

>  <SCORE>
-14.9966

>  <SCORE.INTER>
-13.7426

>  <SCORE.INTER.CONST>
1

>  <SCORE.INTER.POLAR>
0

>  <SCORE.INTER.ROT>
3

>  <SCORE.INTER.SOLV>
13.4256

>  <SCORE.INTER.VDW>
-19.237

>  <SCORE.INTER.norm>
-1.14522

>  <SCORE.INTRA>
-1.25395

>  <SCORE.INTRA.DIHEDRAL>
-2.20295

>  <SCORE.INTRA.DIHEDRAL.0>
3.34563

>  <SCORE.INTRA.POLAR>
0

>  <SCORE.INTRA.POLAR.0>
0

>  <SCORE.INTRA.REPUL>
0

>  <SCORE.INTRA.REPUL.0>
0

>  <SCORE.INTRA.SOLV>
-1.25447

>  <SCORE.INTRA.SOLV.lig_0>
-59.746

>  <SCORE.INTRA.VDW>
0.474759

>  <SCORE.INTRA.VDW.0>
-0.691186

>  <SCORE.INTRA.norm>
-0.104496

>  <SCORE.RESTR>
0

>  <SCORE.RESTR.CAVITY>
0

>  <SCORE.RESTR.norm>
0

>  <SCORE.SYSTEM>
0

>  <SCORE.SYSTEM.CONST>
0

>  <SCORE.SYSTEM.DIHEDRAL>
0

>  <SCORE.SYSTEM.SOLV>
0

>  <SCORE.SYSTEM.norm>
0

>  <SCORE.heavy>
12

>  <SCORE.norm>
-1.24971

>  <RMSD>
2.806

$$$$
ligand
 OpenBabel02271912143D
libRbt.so/2013.1/901 2013/11/27
 12 12  0  0  0  0  0  0  0  0999 V2000
  -21.5141  -11.5281   95.2971 C   0  0  0  0  0  0  0  0  0  0  0  0
  -19.9205   -6.2615   95.2636 C   0  0  0  0  0  0  0  0  0  0  0  0
  -23.1608   -9.5404   96.0522 N   0  0  0  0  0  0  0  0  0  0  0  0
  -20.4512  -12.4980   95.5972 N   0  0  0  0  0  0  0  0  0  0  0  0
  -20.7168  -13.5752   95.4368 N   0  0  0  0  0  0  0  0  0  0  0  0
  -20.9831  -14.6512   95.2715 N   0  0  0  0  0  0  0  0  0  0  0  0
  -19.4267   -8.5450   94.9237 N   0  0  0  0  0  0  0  0  0  0  0  0
  -20.2990   -7.5983   95.2941 C   0  0  0  0  0  0  0  0  0  0  0  0
  -21.5134   -7.9271   95.7591 N   0  0  0  0  0  0  0  0  0  0  0  0
  -21.8893   -9.2109   95.8534 C   0  0  0  0  0  0  0  0  0  0  0  0
  -21.0318  -10.2372   95.4744 C   0  0  0  0  0  0  0  0  0  0  0  0
  -19.7664   -9.9004   95.0090 C   0  0  0  0  0  0  0  0  0  0  0  0
  1 11  1  0  0  0  0
  1  4  1  0  0  0  0
  2  8  1  0  0  0  0
  3 10  1  0  0  0  0
  4  5  1  0  0  0  0
  5  6  1  0  0  0  0
  7  8  2  0  0  0  0
  7 12  1  0  0  0  0
  8  9  1  0  0  0  0
  9 10  2  0  0  0  0
 10 11  1  0  0  0  0
 11 12  2  0  0  0  0
M  END
>  <CHROM.1>
-150.58627839,-177.06740005,62.97908453,-20.89039096,-10.14222446,95.43627714
1.64223995,-0.28121527,-3.12442783

>  <Name>
ligand

>  <RI>
0

>  <Rbt.Current_Directory>
/home/itssahil/PROJECTS/Mol_Feturizer/Test_systems_manuscript/rnas/4nya

>  <Rbt.Executable>
rbdock ($Id: //depot/dev/client3/rdock/2013.1/src/exe/rbdock.cxx#4 $)

>  <Rbt.Library>
libRbt.so (2013.1, Build901 2013/11/27)

>  <Rbt.Parameter_File>
/export/apps/rDock/src/rDock_2013.1_src/data/scripts/dock_solv.prm

>  <Rbt.Receptor>
prm/pocket_docking_6.prm

>  <SCORE>
-15.0468

>  <SCORE.INTER>
-13.7904

>  <SCORE.INTER.CONST>
1

>  <SCORE.INTER.POLAR>
0

>  <SCORE.INTER.ROT>
3

>  <SCORE.INTER.SOLV>
13.467

>  <SCORE.INTER.VDW>
-19.2826

>  <SCORE.INTER.norm>
-1.1492

>  <SCORE.INTRA>
-1.25639

>  <SCORE.INTRA.DIHEDRAL>
-2.20884

>  <SCORE.INTRA.DIHEDRAL.0>
3.34563

>  <SCORE.INTRA.POLAR>
0

>  <SCORE.INTRA.POLAR.0>
0

>  <SCORE.INTRA.REPUL>
0

>  <SCORE.INTRA.REPUL.0>
0

>  <SCORE.INTRA.SOLV>
-1.2525

>  <SCORE.INTRA.SOLV.lig_0>
-59.746

>  <SCORE.INTRA.VDW>
0.474276

>  <SCORE.INTRA.VDW.0>
-0.691186

>  <SCORE.INTRA.norm>
-0.1047

>  <SCORE.RESTR>
0

>  <SCORE.RESTR.CAVITY>
0

>  <SCORE.RESTR.norm>
0

>  <SCORE.SYSTEM>
0

>  <SCORE.SYSTEM.CONST>
0

>  <SCORE.SYSTEM.DIHEDRAL>
0

>  <SCORE.SYSTEM.SOLV>
0

>  <SCORE.SYSTEM.norm>
0

>  <SCORE.heavy>
12

>  <SCORE.norm>
-1.2539

>  <RMSD>
2.806

$$$$
ligand
 OpenBabel02271912143D
libRbt.so/2013.1/901 2013/11/27
 12 12  0  0  0  0  0  0  0  0999 V2000
  -21.5003  -11.5110   95.3005 C   0  0  0  0  0  0  0  0  0  0  0  0
  -19.8872   -6.2504   95.3417 C   0  0  0  0  0  0  0  0  0  0  0  0
  -23.1563   -9.5227   96.0333 N   0  0  0  0  0  0  0  0  0  0  0  0
  -20.4429  -12.4866   95.6014 N   0  0  0  0  0  0  0  0  0  0  0  0
  -20.7146  -13.5625   95.4422 N   0  0  0  0  0  0  0  0  0  0  0  0
  -20.9872  -14.6371   95.2781 N   0  0  0  0  0  0  0  0  0  0  0  0
  -19.3942   -8.5332   94.9959 N   0  0  0  0  0  0  0  0  0  0  0  0
  -20.2712   -7.5860   95.3539 C   0  0  0  0  0  0  0  0  0  0  0  0
  -21.4969   -7.9136   95.7891 N   0  0  0  0  0  0  0  0  0  0  0  0
  -21.8795   -9.1966   95.8654 C   0  0  0  0  0  0  0  0  0  0  0  0
  -21.0174  -10.2233   95.4981 C   0  0  0  0  0  0  0  0  0  0  0  0
  -19.7407   -9.8879   95.0636 C   0  0  0  0  0  0  0  0  0  0  0  0
  1 11  1  0  0  0  0
  1  4  1  0  0  0  0
  2  8  1  0  0  0  0
  3 10  1  0  0  0  0
  4  5  1  0  0  0  0
  5  6  1  0  0  0  0
  7  8  2  0  0  0  0
  7 12  1  0  0  0  0
  8  9  1  0  0  0  0
  9 10  2  0  0  0  0
 10 11  1  0  0  0  0
 11 12  2  0  0  0  0
M  END
>  <CHROM.1>
-151.26655809,-178.06586352,59.86664262,-20.87509780,-10.12868443,95.46372044
1.64601492,-0.25887761,-3.11644491

>  <Name>
ligand

>  <RI>
0

>  <Rbt.Current_Directory>
/home/itssahil/PROJECTS/Mol_Feturizer/Test_systems_manuscript/rnas/4nya

>  <Rbt.Executable>
rbdock ($Id: //depot/dev/client3/rdock/2013.1/src/exe/rbdock.cxx#4 $)

>  <Rbt.Library>
libRbt.so (2013.1, Build901 2013/11/27)

>  <Rbt.Parameter_File>
/export/apps/rDock/src/rDock_2013.1_src/data/scripts/dock_solv.prm

>  <Rbt.Receptor>
prm/pocket_docking_6.prm

>  <SCORE>
-14.9994

>  <SCORE.INTER>
-13.7444

>  <SCORE.INTER.CONST>
1

>  <SCORE.INTER.POLAR>
0

>  <SCORE.INTER.ROT>
3

>  <SCORE.INTER.SOLV>
13.4838

>  <SCORE.INTER.VDW>
-19.2575

>  <SCORE.INTER.norm>
-1.14536

>  <SCORE.INTRA>
-1.25508

>  <SCORE.INTRA.DIHEDRAL>
-2.2215

>  <SCORE.INTRA.DIHEDRAL.0>
3.34563

>  <SCORE.INTRA.POLAR>
0

>  <SCORE.INTRA.POLAR.0>
0

>  <SCORE.INTRA.REPUL>
0

>  <SCORE.INTRA.REPUL.0>
0

>  <SCORE.INTRA.SOLV>
-1.25846

>  <SCORE.INTRA.SOLV.lig_0>
-59.746

>  <SCORE.INTRA.VDW>
0.484898

>  <SCORE.INTRA.VDW.0>
-0.691186

>  <SCORE.INTRA.norm>
-0.10459

>  <SCORE.RESTR>
0

>  <SCORE.RESTR.CAVITY>
0

>  <SCORE.RESTR.norm>
0

>  <SCORE.SYSTEM>
0

>  <SCORE.SYSTEM.CONST>
0

>  <SCORE.SYSTEM.DIHEDRAL>
0

>  <SCORE.SYSTEM.SOLV>
0

>  <SCORE.SYSTEM.norm>
0

>  <SCORE.heavy>
12

>  <SCORE.norm>
-1.24995

>  <RMSD>
2.806

$$$$
ligand
 OpenBabel02271912143D
libRbt.so/2013.1/901 2013/11/27
 12 12  0  0  0  0  0  0  0  0999 V2000
  -21.5219  -11.5275   95.3109 C   0  0  0  0  0  0  0  0  0  0  0  0
  -19.9264   -6.2619   95.2394 C   0  0  0  0  0  0  0  0  0  0  0  0
  -23.1731   -9.5324   96.0364 N   0  0  0  0  0  0  0  0  0  0  0  0
  -20.4538  -12.4944   95.6019 N   0  0  0  0  0  0  0  0  0  0  0  0
  -20.7181  -13.5724   95.4447 N   0  0  0  0  0  0  0  0  0  0  0  0
  -20.9832  -14.6492   95.2826 N   0  0  0  0  0  0  0  0  0  0  0  0
  -19.4310   -8.5485   94.9240 N   0  0  0  0  0  0  0  0  0  0  0  0
  -20.3055   -7.5982   95.2798 C   0  0  0  0  0  0  0  0  0  0  0  0
  -21.5232   -7.9224   95.7395 N   0  0  0  0  0  0  0  0  0  0  0  0
  -21.9001   -9.2051   95.8432 C   0  0  0  0  0  0  0  0  0  0  0  0
  -21.0404  -10.2351   95.4795 C   0  0  0  0  0  0  0  0  0  0  0  0
  -19.7718   -9.9029   95.0196 C   0  0  0  0  0  0  0  0  0  0  0  0
  1 11  1  0  0  0  0
  1  4  1  0  0  0  0
  2  8  1  0  0  0  0
  3 10  1  0  0  0  0
  4  5  1  0  0  0  0
  5  6  1  0  0  0  0
  7  8  2  0  0  0  0
  7 12  1  0  0  0  0
  8  9  1  0  0  0  0
  9 10  2  0  0  0  0
 10 11  1  0  0  0  0
 11 12  2  0  0  0  0
M  END
>  <CHROM.1>
-151.67825437,-176.91334652,60.20727178,-20.89658733,-10.14025671,95.43358422
1.64080867,-0.27637102,-3.12923157

>  <Name>
ligand

>  <RI>
0

>  <Rbt.Current_Directory>
/home/itssahil/PROJECTS/Mol_Feturizer/Test_systems_manuscript/rnas/4nya

>  <Rbt.Executable>
rbdock ($Id: //depot/dev/client3/rdock/2013.1/src/exe/rbdock.cxx#4 $)

>  <Rbt.Library>
libRbt.so (2013.1, Build901 2013/11/27)

>  <Rbt.Parameter_File>
/export/apps/rDock/src/rDock_2013.1_src/data/scripts/dock_solv.prm

>  <Rbt.Receptor>
prm/pocket_docking_6.prm

>  <SCORE>
-15.0212

>  <SCORE.INTER>
-13.7727

>  <SCORE.INTER.CONST>
1

>  <SCORE.INTER.POLAR>
0

>  <SCORE.INTER.ROT>
3

>  <SCORE.INTER.SOLV>
13.4863

>  <SCORE.INTER.VDW>
-19.2773

>  <SCORE.INTER.norm>
-1.14773

>  <SCORE.INTRA>
-1.24851

>  <SCORE.INTRA.DIHEDRAL>
-2.22019

>  <SCORE.INTRA.DIHEDRAL.0>
3.34563

>  <SCORE.INTRA.POLAR>
0

>  <SCORE.INTRA.POLAR.0>
0

>  <SCORE.INTRA.REPUL>
0

>  <SCORE.INTRA.REPUL.0>
0

>  <SCORE.INTRA.SOLV>
-1.25859

>  <SCORE.INTRA.SOLV.lig_0>
-59.746

>  <SCORE.INTRA.VDW>
0.490881

>  <SCORE.INTRA.VDW.0>
-0.691186

>  <SCORE.INTRA.norm>
-0.104042

>  <SCORE.RESTR>
0

>  <SCORE.RESTR.CAVITY>
0

>  <SCORE.RESTR.norm>
0

>  <SCORE.SYSTEM>
0

>  <SCORE.SYSTEM.CONST>
0

>  <SCORE.SYSTEM.DIHEDRAL>
0

>  <SCORE.SYSTEM.SOLV>
0

>  <SCORE.SYSTEM.norm>
0

>  <SCORE.heavy>
12

>  <SCORE.norm>
-1.25177

>  <RMSD>
2.806

$$$$
ligand
 OpenBabel02271912143D
libRbt.so/2013.1/901 2013/11/27
 12 12  0  0  0  0  0  0  0  0999 V2000
  -21.5140  -11.5719   95.3543 C   0  0  0  0  0  0  0  0  0  0  0  0
  -19.8795   -6.3187   95.2584 C   0  0  0  0  0  0  0  0  0  0  0  0
  -23.1434   -9.5631   96.0909 N   0  0  0  0  0  0  0  0  0  0  0  0
  -20.4349  -12.5448   95.5770 N   0  0  0  0  0  0  0  0  0  0  0  0
  -20.7113  -13.6205   95.4249 N   0  0  0  0  0  0  0  0  0  0  0  0
  -20.9914  -14.6954   95.2764 N   0  0  0  0  0  0  0  0  0  0  0  0
  -19.4043   -8.6095   94.9428 N   0  0  0  0  0  0  0  0  0  0  0  0
  -20.2684   -7.6520   95.3047 C   0  0  0  0  0  0  0  0  0  0  0  0
  -21.4842   -7.9661   95.7761 N   0  0  0  0  0  0  0  0  0  0  0  0
  -21.8699   -9.2458   95.8856 C   0  0  0  0  0  0  0  0  0  0  0  0
  -21.0213  -10.2830   95.5161 C   0  0  0  0  0  0  0  0  0  0  0  0
  -19.7544   -9.9612   95.0440 C   0  0  0  0  0  0  0  0  0  0  0  0
  1 11  1  0  0  0  0
  1  4  1  0  0  0  0
  2  8  1  0  0  0  0
  3 10  1  0  0  0  0
  4  5  1  0  0  0  0
  5  6  1  0  0  0  0
  7  8  2  0  0  0  0
  7 12  1  0  0  0  0
  8  9  1  0  0  0  0
  9 10  2  0  0  0  0
 10 11  1  0  0  0  0
 11 12  2  0  0  0  0
M  END
>  <CHROM.1>
-154.26558622,-177.29503378,-57.26077248,-20.87399239,-10.18874274,95.45382364
1.64642697,-0.28911599,-3.12084386

>  <Name>
ligand

>  <RI>
0

>  <Rbt.Current_Directory>
/home/itssahil/PROJECTS/Mol_Feturizer/Test_systems_manuscript/rnas/4nya

>  <Rbt.Executable>
rbdock ($Id: //depot/dev/client3/rdock/2013.1/src/exe/rbdock.cxx#4 $)

>  <Rbt.Library>
libRbt.so (2013.1, Build901 2013/11/27)

>  <Rbt.Parameter_File>
/export/apps/rDock/src/rDock_2013.1_src/data/scripts/dock_solv.prm

>  <Rbt.Receptor>
prm/pocket_docking_6.prm

>  <SCORE>
-15.0007

>  <SCORE.INTER>
-13.7783

>  <SCORE.INTER.CONST>
1

>  <SCORE.INTER.POLAR>
0

>  <SCORE.INTER.ROT>
3

>  <SCORE.INTER.SOLV>
13.443

>  <SCORE.INTER.VDW>
-19.2666

>  <SCORE.INTER.norm>
-1.1482

>  <SCORE.INTRA>
-1.22234

>  <SCORE.INTRA.DIHEDRAL>
-2.23554

>  <SCORE.INTRA.DIHEDRAL.0>
3.34563

>  <SCORE.INTRA.POLAR>
0

>  <SCORE.INTRA.POLAR.0>
0

>  <SCORE.INTRA.REPUL>
0

>  <SCORE.INTRA.REPUL.0>
0

>  <SCORE.INTRA.SOLV>
-1.27339

>  <SCORE.INTRA.SOLV.lig_0>
-59.746

>  <SCORE.INTRA.VDW>
0.532125

>  <SCORE.INTRA.VDW.0>
-0.691186

>  <SCORE.INTRA.norm>
-0.101862

>  <SCORE.RESTR>
0

>  <SCORE.RESTR.CAVITY>
0

>  <SCORE.RESTR.norm>
0

>  <SCORE.SYSTEM>
0

>  <SCORE.SYSTEM.CONST>
0

>  <SCORE.SYSTEM.DIHEDRAL>
0

>  <SCORE.SYSTEM.SOLV>
0

>  <SCORE.SYSTEM.norm>
0

>  <SCORE.heavy>
12

>  <SCORE.norm>
-1.25006

>  <RMSD>
2.806

$$$$
ligand
 OpenBabel02271912143D
libRbt.so/2013.1/901 2013/11/27
 12 12  0  0  0  0  0  0  0  0999 V2000
  -21.5140  -11.5309   95.2953 C   0  0  0  0  0  0  0  0  0  0  0  0
  -19.9289   -6.2617   95.2720 C   0  0  0  0  0  0  0  0  0  0  0  0
  -23.1623   -9.5478   96.0590 N   0  0  0  0  0  0  0  0  0  0  0  0
  -20.4491  -12.4999   95.5911 N   0  0  0  0  0  0  0  0  0  0  0  0
  -20.7162  -13.5777   95.4371 N   0  0  0  0  0  0  0  0  0  0  0  0
  -20.9840  -14.6542   95.2781 N   0  0  0  0  0  0  0  0  0  0  0  0
  -19.4322   -8.5435   94.9251 N   0  0  0  0  0  0  0  0  0  0  0  0
  -20.3052   -7.5992   95.2999 C   0  0  0  0  0  0  0  0  0  0  0  0
  -21.5181   -7.9311   95.7666 N   0  0  0  0  0  0  0  0  0  0  0  0
  -21.8918   -9.2158   95.8584 C   0  0  0  0  0  0  0  0  0  0  0  0
  -21.0334  -10.2397   95.4749 C   0  0  0  0  0  0  0  0  0  0  0  0
  -19.7695   -9.8996   95.0077 C   0  0  0  0  0  0  0  0  0  0  0  0
  1 11  1  0  0  0  0
  1  4  1  0  0  0  0
  2  8  1  0  0  0  0
  3 10  1  0  0  0  0
  4  5  1  0  0  0  0
  5  6  1  0  0  0  0
  7  8  2  0  0  0  0
  7 12  1  0  0  0  0
  8  9  1  0  0  0  0
  9 10  2  0  0  0  0
 10 11  1  0  0  0  0
 11 12  2  0  0  0  0
M  END
>  <CHROM.1>
-150.56600291,-177.57698441,61.98705767,-20.89304012,-10.14452470,95.43910083
1.64133118,-0.28283096,-3.12378130

>  <Name>
ligand

>  <RI>
0

>  <Rbt.Current_Directory>
/home/itssahil/PROJECTS/Mol_Feturizer/Test_systems_manuscript/rnas/4nya

>  <Rbt.Executable>
rbdock ($Id: //depot/dev/client3/rdock/2013.1/src/exe/rbdock.cxx#4 $)

>  <Rbt.Library>
libRbt.so (2013.1, Build901 2013/11/27)

>  <Rbt.Parameter_File>
/export/apps/rDock/src/rDock_2013.1_src/data/scripts/dock_solv.prm

>  <Rbt.Receptor>
prm/pocket_docking_6.prm

>  <SCORE>
-15.052

>  <SCORE.INTER>
-13.7934

>  <SCORE.INTER.CONST>
1

>  <SCORE.INTER.POLAR>
0

>  <SCORE.INTER.ROT>
3

>  <SCORE.INTER.SOLV>
13.4546

>  <SCORE.INTER.VDW>
-19.2804

>  <SCORE.INTER.norm>
-1.14945

>  <SCORE.INTRA>
-1.25867

>  <SCORE.INTRA.DIHEDRAL>
-2.21222

>  <SCORE.INTRA.DIHEDRAL.0>
3.34563

>  <SCORE.INTRA.POLAR>
0

>  <SCORE.INTRA.POLAR.0>
0

>  <SCORE.INTRA.REPUL>
0

>  <SCORE.INTRA.REPUL.0>
0

>  <SCORE.INTRA.SOLV>
-1.25339

>  <SCORE.INTRA.SOLV.lig_0>
-59.746

>  <SCORE.INTRA.VDW>
0.474134

>  <SCORE.INTRA.VDW.0>
-0.691186

>  <SCORE.INTRA.norm>
-0.104889

>  <SCORE.RESTR>
0

>  <SCORE.RESTR.CAVITY>
0

>  <SCORE.RESTR.norm>
0

>  <SCORE.SYSTEM>
0

>  <SCORE.SYSTEM.CONST>
0

>  <SCORE.SYSTEM.DIHEDRAL>
0

>  <SCORE.SYSTEM.SOLV>
0

>  <SCORE.SYSTEM.norm>
0

>  <SCORE.heavy>
12

>  <SCORE.norm>
-1.25434

>  <RMSD>
2.806

$$$$
ligand
 OpenBabel02271912143D
libRbt.so/2013.1/901 2013/11/27
 12 12  0  0  0  0  0  0  0  0999 V2000
  -21.5162  -11.5289   95.3001 C   0  0  0  0  0  0  0  0  0  0  0  0
  -19.9246   -6.2618   95.2647 C   0  0  0  0  0  0  0  0  0  0  0  0
  -23.1662   -9.5409   96.0472 N   0  0  0  0  0  0  0  0  0  0  0  0
  -20.4518  -12.4979   95.5980 N   0  0  0  0  0  0  0  0  0  0  0  0
  -20.7151  -13.5750   95.4333 N   0  0  0  0  0  0  0  0  0  0  0  0
  -20.9824  -14.6513   95.2715 N   0  0  0  0  0  0  0  0  0  0  0  0
  -19.4288   -8.5455   94.9294 N   0  0  0  0  0  0  0  0  0  0  0  0
  -20.3027   -7.5987   95.2958 C   0  0  0  0  0  0  0  0  0  0  0  0
  -21.5185   -7.9273   95.7573 N   0  0  0  0  0  0  0  0  0  0  0  0
  -21.8941   -9.2112   95.8521 C   0  0  0  0  0  0  0  0  0  0  0  0
  -21.0350  -10.2376   95.4772 C   0  0  0  0  0  0  0  0  0  0  0  0
  -19.7682   -9.9009   95.0155 C   0  0  0  0  0  0  0  0  0  0  0  0
  1 11  1  0  0  0  0
  1  4  1  0  0  0  0
  2  8  1  0  0  0  0
  3 10  1  0  0  0  0
  4  5  1  0  0  0  0
  5  6  1  0  0  0  0
  7  8  2  0  0  0  0
  7 12  1  0  0  0  0
  8  9  1  0  0  0  0
  9 10  2  0  0  0  0
 10 11  1  0  0  0  0
 11 12  2  0  0  0  0
M  END
>  <CHROM.1>
-150.88730357,-176.81157287,-52.75200570,-20.89290041,-10.14252106,95.43704540
1.64130496,-0.27856874,-3.12456497

>  <Name>
ligand

>  <RI>
0

>  <Rbt.Current_Directory>
/home/itssahil/PROJECTS/Mol_Feturizer/Test_systems_manuscript/rnas/4nya

>  <Rbt.Executable>
rbdock ($Id: //depot/dev/client3/rdock/2013.1/src/exe/rbdock.cxx#4 $)

>  <Rbt.Library>
libRbt.so (2013.1, Build901 2013/11/27)

>  <Rbt.Parameter_File>
/export/apps/rDock/src/rDock_2013.1_src/data/scripts/dock_solv.prm

>  <Rbt.Receptor>
prm/pocket_docking_7.prm

>  <SCORE>
-15.0428

>  <SCORE.INTER>
-13.7956

>  <SCORE.INTER.CONST>
1

>  <SCORE.INTER.POLAR>
0

>  <SCORE.INTER.ROT>
3

>  <SCORE.INTER.SOLV>
13.4611

>  <SCORE.INTER.VDW>
-19.2841

>  <SCORE.INTER.norm>
-1.14963

>  <SCORE.INTRA>
-1.24717

>  <SCORE.INTRA.DIHEDRAL>
-2.19861

>  <SCORE.INTRA.DIHEDRAL.0>
3.34563

>  <SCORE.INTRA.POLAR>
0

>  <SCORE.INTRA.POLAR.0>
0

>  <SCORE.INTRA.REPUL>
0

>  <SCORE.INTRA.REPUL.0>
0

>  <SCORE.INTRA.SOLV>
-1.25347

>  <SCORE.INTRA.SOLV.lig_0>
-59.746

>  <SCORE.INTRA.VDW>
0.478869

>  <SCORE.INTRA.VDW.0>
-0.691186

>  <SCORE.INTRA.norm>
-0.103931

>  <SCORE.RESTR>
0

>  <SCORE.RESTR.CAVITY>
0

>  <SCORE.RESTR.norm>
0

>  <SCORE.SYSTEM>
0

>  <SCORE.SYSTEM.CONST>
0

>  <SCORE.SYSTEM.DIHEDRAL>
0

>  <SCORE.SYSTEM.SOLV>
0

>  <SCORE.SYSTEM.norm>
0

>  <SCORE.heavy>
12

>  <SCORE.norm>
-1.25356

>  <RMSD>
2.806

$$$$
ligand
 OpenBabel02271912143D
libRbt.so/2013.1/901 2013/11/27
 12 12  0  0  0  0  0  0  0  0999 V2000
  -21.5214  -11.5254   95.3119 C   0  0  0  0  0  0  0  0  0  0  0  0
  -19.9232   -6.2605   95.2473 C   0  0  0  0  0  0  0  0  0  0  0  0
  -23.1683   -9.5314   96.0499 N   0  0  0  0  0  0  0  0  0  0  0  0
  -20.4510  -12.4936   95.5901 N   0  0  0  0  0  0  0  0  0  0  0  0
  -20.7192  -13.5715   95.4386 N   0  0  0  0  0  0  0  0  0  0  0  0
  -20.9827  -14.6504   95.2888 N   0  0  0  0  0  0  0  0  0  0  0  0
  -19.4306   -8.5466   94.9237 N   0  0  0  0  0  0  0  0  0  0  0  0
  -20.3030   -7.5968   95.2858 C   0  0  0  0  0  0  0  0  0  0  0  0
  -21.5188   -7.9215   95.7501 N   0  0  0  0  0  0  0  0  0  0  0  0
  -21.8960   -9.2043   95.8520 C   0  0  0  0  0  0  0  0  0  0  0  0
  -21.0385  -10.2338   95.4818 C   0  0  0  0  0  0  0  0  0  0  0  0
  -19.7717   -9.9011   95.0172 C   0  0  0  0  0  0  0  0  0  0  0  0
  1 11  1  0  0  0  0
  1  4  1  0  0  0  0
  2  8  1  0  0  0  0
  3 10  1  0  0  0  0
  4  5  1  0  0  0  0
  5  6  1  0  0  0  0
  7  8  2  0  0  0  0
  7 12  1  0  0  0  0
  8  9  1  0  0  0  0
  9 10  2  0  0  0  0
 10 11  1  0  0  0  0
 11 12  2  0  0  0  0
M  END
>  <CHROM.1>
-151.91669245,-177.38312128,-176.75108794,-20.89458031,-10.13918714,95.43655447
1.64131228,-0.28058126,-3.12737955

>  <Name>
ligand

>  <RI>
0

>  <Rbt.Current_Directory>
/home/itssahil/PROJECTS/Mol_Feturizer/Test_systems_manuscript/rnas/4nya

>  <Rbt.Executable>
rbdock ($Id: //depot/dev/client3/rdock/2013.1/src/exe/rbdock.cxx#4 $)

>  <Rbt.Library>
libRbt.so (2013.1, Build901 2013/11/27)

>  <Rbt.Parameter_File>
/export/apps/rDock/src/rDock_2013.1_src/data/scripts/dock_solv.prm

>  <Rbt.Receptor>
prm/pocket_docking_8.prm

>  <SCORE>
-15.0201

>  <SCORE.INTER>
-13.7708

>  <SCORE.INTER.CONST>
1

>  <SCORE.INTER.POLAR>
0

>  <SCORE.INTER.ROT>
3

>  <SCORE.INTER.SOLV>
13.4869

>  <SCORE.INTER.VDW>
-19.2761

>  <SCORE.INTER.norm>
-1.14756

>  <SCORE.INTRA>
-1.24932

>  <SCORE.INTRA.DIHEDRAL>
-2.22138

>  <SCORE.INTRA.DIHEDRAL.0>
3.34563

>  <SCORE.INTRA.POLAR>
0

>  <SCORE.INTRA.POLAR.0>
0

>  <SCORE.INTRA.REPUL>
0

>  <SCORE.INTRA.REPUL.0>
0

>  <SCORE.INTRA.SOLV>
-1.26415

>  <SCORE.INTRA.SOLV.lig_0>
-59.746

>  <SCORE.INTRA.VDW>
0.493445

>  <SCORE.INTRA.VDW.0>
-0.691186

>  <SCORE.INTRA.norm>
-0.10411

>  <SCORE.RESTR>
0

>  <SCORE.RESTR.CAVITY>
0

>  <SCORE.RESTR.norm>
0

>  <SCORE.SYSTEM>
0

>  <SCORE.SYSTEM.CONST>
0

>  <SCORE.SYSTEM.DIHEDRAL>
0

>  <SCORE.SYSTEM.SOLV>
0

>  <SCORE.SYSTEM.norm>
0

>  <SCORE.heavy>
12

>  <SCORE.norm>
-1.25167

>  <RMSD>
2.806

$$$$
ligand
 OpenBabel02271912143D
libRbt.so/2013.1/901 2013/11/27
 12 12  0  0  0  0  0  0  0  0999 V2000
  -21.5296  -11.5823   95.3430 C   0  0  0  0  0  0  0  0  0  0  0  0
  -19.9292   -6.3192   95.2145 C   0  0  0  0  0  0  0  0  0  0  0  0
  -23.1670   -9.5808   96.0819 N   0  0  0  0  0  0  0  0  0  0  0  0
  -20.4544  -12.5485   95.6091 N   0  0  0  0  0  0  0  0  0  0  0  0
  -20.7205  -13.6265   95.4547 N   0  0  0  0  0  0  0  0  0  0  0  0
  -20.9870  -14.7033   95.2954 N   0  0  0  0  0  0  0  0  0  0  0  0
  -19.4415   -8.6083   94.9055 N   0  0  0  0  0  0  0  0  0  0  0  0
  -20.3093   -7.6548   95.2690 C   0  0  0  0  0  0  0  0  0  0  0  0
  -21.5200   -7.9746   95.7496 N   0  0  0  0  0  0  0  0  0  0  0  0
  -21.8968   -9.2563   95.8669 C   0  0  0  0  0  0  0  0  0  0  0  0
  -21.0440  -10.2895   95.4962 C   0  0  0  0  0  0  0  0  0  0  0  0
  -19.7823   -9.9618   95.0146 C   0  0  0  0  0  0  0  0  0  0  0  0
  1 11  1  0  0  0  0
  1  4  1  0  0  0  0
  2  8  1  0  0  0  0
  3 10  1  0  0  0  0
  4  5  1  0  0  0  0
  5  6  1  0  0  0  0
  7  8  2  0  0  0  0
  7 12  1  0  0  0  0
  8  9  1  0  0  0  0
  9 10  2  0  0  0  0
 10 11  1  0  0  0  0
 11 12  2  0  0  0  0
M  END
>  <CHROM.1>
-152.28924151,-176.52603751,67.66025366,-20.89930992,-10.19491059,95.44172227
1.64094681,-0.29331294,-3.13161233

>  <Name>
ligand

>  <RI>
0

>  <Rbt.Current_Directory>
/home/itssahil/PROJECTS/Mol_Feturizer/Test_systems_manuscript/rnas/4nya

>  <Rbt.Executable>
rbdock ($Id: //depot/dev/client3/rdock/2013.1/src/exe/rbdock.cxx#4 $)

>  <Rbt.Library>
libRbt.so (2013.1, Build901 2013/11/27)

>  <Rbt.Parameter_File>
/export/apps/rDock/src/rDock_2013.1_src/data/scripts/dock_solv.prm

>  <Rbt.Receptor>
prm/pocket_docking_8.prm

>  <SCORE>
-15.0127

>  <SCORE.INTER>
-13.7787

>  <SCORE.INTER.CONST>
1

>  <SCORE.INTER.POLAR>
0

>  <SCORE.INTER.ROT>
3

>  <SCORE.INTER.SOLV>
13.4345

>  <SCORE.INTER.VDW>
-19.2639

>  <SCORE.INTER.norm>
-1.14822

>  <SCORE.INTRA>
-1.23405

>  <SCORE.INTRA.DIHEDRAL>
-2.20687

>  <SCORE.INTRA.DIHEDRAL.0>
3.34563

>  <SCORE.INTRA.POLAR>
0

>  <SCORE.INTRA.POLAR.0>
0

>  <SCORE.INTRA.REPUL>
0

>  <SCORE.INTRA.REPUL.0>
0

>  <SCORE.INTRA.SOLV>
-1.26154

>  <SCORE.INTRA.SOLV.lig_0>
-59.746

>  <SCORE.INTRA.VDW>
0.500151

>  <SCORE.INTRA.VDW.0>
-0.691186

>  <SCORE.INTRA.norm>
-0.102838

>  <SCORE.RESTR>
0

>  <SCORE.RESTR.CAVITY>
0

>  <SCORE.RESTR.norm>
0

>  <SCORE.SYSTEM>
0

>  <SCORE.SYSTEM.CONST>
0

>  <SCORE.SYSTEM.DIHEDRAL>
0

>  <SCORE.SYSTEM.SOLV>
0

>  <SCORE.SYSTEM.norm>
0

>  <SCORE.heavy>
12

>  <SCORE.norm>
-1.25106

>  <RMSD>
2.806

$$$$
ligand
 OpenBabel02271912143D
libRbt.so/2013.1/901 2013/11/27
 12 12  0  0  0  0  0  0  0  0999 V2000
  -21.5196  -11.5253   95.3094 C   0  0  0  0  0  0  0  0  0  0  0  0
  -19.9275   -6.2587   95.2352 C   0  0  0  0  0  0  0  0  0  0  0  0
  -23.1667   -9.5324   96.0500 N   0  0  0  0  0  0  0  0  0  0  0  0
  -20.4465  -12.4919   95.5827 N   0  0  0  0  0  0  0  0  0  0  0  0
  -20.7148  -13.5703   95.4355 N   0  0  0  0  0  0  0  0  0  0  0  0
  -20.9839  -14.6476   95.2834 N   0  0  0  0  0  0  0  0  0  0  0  0
  -19.4332   -8.5445   94.9125 N   0  0  0  0  0  0  0  0  0  0  0  0
  -20.3056   -7.5953   95.2761 C   0  0  0  0  0  0  0  0  0  0  0  0
  -21.5198   -7.9209   95.7440 N   0  0  0  0  0  0  0  0  0  0  0  0
  -21.8953   -9.2041   95.8482 C   0  0  0  0  0  0  0  0  0  0  0  0
  -21.0377  -10.2330   95.4767 C   0  0  0  0  0  0  0  0  0  0  0  0
  -19.7725   -9.8993   95.0083 C   0  0  0  0  0  0  0  0  0  0  0  0
  1 11  1  0  0  0  0
  1  4  1  0  0  0  0
  2  8  1  0  0  0  0
  3 10  1  0  0  0  0
  4  5  1  0  0  0  0
  5  6  1  0  0  0  0
  7  8  2  0  0  0  0
  7 12  1  0  0  0  0
  8  9  1  0  0  0  0
  9 10  2  0  0  0  0
 10 11  1  0  0  0  0
 11 12  2  0  0  0  0
M  END
>  <CHROM.1>
-152.04492736,-177.54804512,61.04104549,-20.89448154,-10.13803001,95.43028140
1.64066995,-0.28347579,-3.12815256

>  <Name>
ligand

>  <RI>
0

>  <Rbt.Current_Directory>
/home/itssahil/PROJECTS/Mol_Feturizer/Test_systems_manuscript/rnas/4nya

>  <Rbt.Executable>
rbdock ($Id: //depot/dev/client3/rdock/2013.1/src/exe/rbdock.cxx#4 $)

>  <Rbt.Library>
libRbt.so (2013.1, Build901 2013/11/27)

>  <Rbt.Parameter_File>
/export/apps/rDock/src/rDock_2013.1_src/data/scripts/dock_solv.prm

>  <Rbt.Receptor>
prm/pocket_docking_8.prm

>  <SCORE>
-15.0282

>  <SCORE.INTER>
-13.7811

>  <SCORE.INTER.CONST>
1

>  <SCORE.INTER.POLAR>
0

>  <SCORE.INTER.ROT>
3

>  <SCORE.INTER.SOLV>
13.4971

>  <SCORE.INTER.VDW>
-19.2865

>  <SCORE.INTER.norm>
-1.14843

>  <SCORE.INTRA>
-1.24708

>  <SCORE.INTRA.DIHEDRAL>
-2.22563

>  <SCORE.INTRA.DIHEDRAL.0>
3.34563

>  <SCORE.INTRA.POLAR>
0

>  <SCORE.INTRA.POLAR.0>
0

>  <SCORE.INTRA.REPUL>
0

>  <SCORE.INTRA.REPUL.0>
0

>  <SCORE.INTRA.SOLV>
-1.262

>  <SCORE.INTRA.SOLV.lig_0>
-59.746

>  <SCORE.INTRA.VDW>
0.496735

>  <SCORE.INTRA.VDW.0>
-0.691186

>  <SCORE.INTRA.norm>
-0.103923

>  <SCORE.RESTR>
0

>  <SCORE.RESTR.CAVITY>
0

>  <SCORE.RESTR.norm>
0

>  <SCORE.SYSTEM>
0

>  <SCORE.SYSTEM.CONST>
0

>  <SCORE.SYSTEM.DIHEDRAL>
0

>  <SCORE.SYSTEM.SOLV>
0

>  <SCORE.SYSTEM.norm>
0

>  <SCORE.heavy>
12

>  <SCORE.norm>
-1.25235

>  <RMSD>
2.806

$$$$
ligand
 OpenBabel02271912143D
libRbt.so/2013.1/901 2013/11/27
 12 12  0  0  0  0  0  0  0  0999 V2000
  -21.5292  -11.5815   95.3434 C   0  0  0  0  0  0  0  0  0  0  0  0
  -19.9281   -6.3180   95.2430 C   0  0  0  0  0  0  0  0  0  0  0  0
  -23.1698   -9.5828   96.0828 N   0  0  0  0  0  0  0  0  0  0  0  0
  -20.4495  -12.5482   95.5886 N   0  0  0  0  0  0  0  0  0  0  0  0
  -20.7155  -13.6252   95.4269 N   0  0  0  0  0  0  0  0  0  0  0  0
  -20.9850  -14.7015   95.2688 N   0  0  0  0  0  0  0  0  0  0  0  0
  -19.4391   -8.6059   94.9270 N   0  0  0  0  0  0  0  0  0  0  0  0
  -20.3085   -7.6538   95.2904 C   0  0  0  0  0  0  0  0  0  0  0  0
  -21.5214   -7.9755   95.7643 N   0  0  0  0  0  0  0  0  0  0  0  0
  -21.8987   -9.2576   95.8748 C   0  0  0  0  0  0  0  0  0  0  0  0
  -21.0443  -10.2894   95.5039 C   0  0  0  0  0  0  0  0  0  0  0  0
  -19.7804   -9.9598   95.0292 C   0  0  0  0  0  0  0  0  0  0  0  0
  1 11  1  0  0  0  0
  1  4  1  0  0  0  0
  2  8  1  0  0  0  0
  3 10  1  0  0  0  0
  4  5  1  0  0  0  0
  5  6  1  0  0  0  0
  7  8  2  0  0  0  0
  7 12  1  0  0  0  0
  8  9  1  0  0  0  0
  9 10  2  0  0  0  0
 10 11  1  0  0  0  0
 11 12  2  0  0  0  0
M  END
>  <CHROM.1>
-153.22348394,-176.53921694,-59.57450897,-20.89826260,-10.19433752,95.44497115
1.64014122,-0.29021542,-3.12472220

>  <Name>
ligand

>  <RI>
0

>  <Rbt.Current_Directory>
/home/itssahil/PROJECTS/Mol_Feturizer/Test_systems_manuscript/rnas/4nya

>  <Rbt.Executable>
rbdock ($Id: //depot/dev/client3/rdock/2013.1/src/exe/rbdock.cxx#4 $)

>  <Rbt.Library>
libRbt.so (2013.1, Build901 2013/11/27)

>  <Rbt.Parameter_File>
/export/apps/rDock/src/rDock_2013.1_src/data/scripts/dock_solv.prm

>  <Rbt.Receptor>
prm/pocket_docking_8.prm

>  <SCORE>
-15.0289

>  <SCORE.INTER>
-13.7963

>  <SCORE.INTER.CONST>
1

>  <SCORE.INTER.POLAR>
0

>  <SCORE.INTER.ROT>
3

>  <SCORE.INTER.SOLV>
13.3773

>  <SCORE.INTER.VDW>
-19.2567

>  <SCORE.INTER.norm>
-1.1497

>  <SCORE.INTRA>
-1.23255

>  <SCORE.INTRA.DIHEDRAL>
-2.22871

>  <SCORE.INTRA.DIHEDRAL.0>
3.34563

>  <SCORE.INTRA.POLAR>
0

>  <SCORE.INTRA.POLAR.0>
0

>  <SCORE.INTRA.REPUL>
0

>  <SCORE.INTRA.REPUL.0>
0

>  <SCORE.INTRA.SOLV>
-1.26647

>  <SCORE.INTRA.SOLV.lig_0>
-59.746

>  <SCORE.INTRA.VDW>
0.515039

>  <SCORE.INTRA.VDW.0>
-0.691186

>  <SCORE.INTRA.norm>
-0.102713

>  <SCORE.RESTR>
0

>  <SCORE.RESTR.CAVITY>
0

>  <SCORE.RESTR.norm>
0

>  <SCORE.SYSTEM>
0

>  <SCORE.SYSTEM.CONST>
0

>  <SCORE.SYSTEM.DIHEDRAL>
0

>  <SCORE.SYSTEM.SOLV>
0

>  <SCORE.SYSTEM.norm>
0

>  <SCORE.heavy>
12

>  <SCORE.norm>
-1.25241

>  <RMSD>
2.806

$$$$
ligand
 OpenBabel02271912143D
libRbt.so/2013.1/901 2013/11/27
 12 12  0  0  0  0  0  0  0  0999 V2000
  -21.5357  -11.5434   95.3718 C   0  0  0  0  0  0  0  0  0  0  0  0
  -19.9456   -6.2783   95.2046 C   0  0  0  0  0  0  0  0  0  0  0  0
  -23.1859   -9.5379   96.0699 N   0  0  0  0  0  0  0  0  0  0  0  0
  -20.4483  -12.5034   95.6099 N   0  0  0  0  0  0  0  0  0  0  0  0
  -20.7140  -13.5833   95.4690 N   0  0  0  0  0  0  0  0  0  0  0  0
  -20.9806  -14.6621   95.3233 N   0  0  0  0  0  0  0  0  0  0  0  0
  -19.4493   -8.5695   94.9261 N   0  0  0  0  0  0  0  0  0  0  0  0
  -20.3233   -7.6141   95.2691 C   0  0  0  0  0  0  0  0  0  0  0  0
  -21.5388   -7.9316   95.7392 N   0  0  0  0  0  0  0  0  0  0  0  0
  -21.9141   -9.2127   95.8661 C   0  0  0  0  0  0  0  0  0  0  0  0
  -21.0548  -10.2480   95.5165 C   0  0  0  0  0  0  0  0  0  0  0  0
  -19.7883   -9.9225   95.0460 C   0  0  0  0  0  0  0  0  0  0  0  0
  1 11  1  0  0  0  0
  1  4  1  0  0  0  0
  2  8  1  0  0  0  0
  3 10  1  0  0  0  0
  4  5  1  0  0  0  0
  5  6  1  0  0  0  0
  7  8  2  0  0  0  0
  7 12  1  0  0  0  0
  8  9  1  0  0  0  0
  9 10  2  0  0  0  0
 10 11  1  0  0  0  0
 11 12  2  0  0  0  0
M  END
>  <CHROM.1>
-154.46478915,-177.10018533,61.72759215,-20.90725233,-10.15330898,95.45067908
1.63675534,-0.28490192,-3.13669336

>  <Name>
ligand

>  <RI>
0

>  <Rbt.Current_Directory>
/home/itssahil/PROJECTS/Mol_Feturizer/Test_systems_manuscript/rnas/4nya

>  <Rbt.Executable>
rbdock ($Id: //depot/dev/client3/rdock/2013.1/src/exe/rbdock.cxx#4 $)

>  <Rbt.Library>
libRbt.so (2013.1, Build901 2013/11/27)

>  <Rbt.Parameter_File>
/export/apps/rDock/src/rDock_2013.1_src/data/scripts/dock_solv.prm

>  <Rbt.Receptor>
prm/pocket_docking_8.prm

>  <SCORE>
-15.0875

>  <SCORE.INTER>
-13.8673

>  <SCORE.INTER.CONST>
1

>  <SCORE.INTER.POLAR>
0

>  <SCORE.INTER.ROT>
3

>  <SCORE.INTER.SOLV>
13.5371

>  <SCORE.INTER.VDW>
-19.3573

>  <SCORE.INTER.norm>
-1.15561

>  <SCORE.INTRA>
-1.22014

>  <SCORE.INTRA.DIHEDRAL>
-2.23664

>  <SCORE.INTRA.DIHEDRAL.0>
3.34563

>  <SCORE.INTRA.POLAR>
0

>  <SCORE.INTRA.POLAR.0>
0

>  <SCORE.INTRA.REPUL>
0

>  <SCORE.INTRA.REPUL.0>
0

>  <SCORE.INTRA.SOLV>
-1.27417

>  <SCORE.INTRA.SOLV.lig_0>
-59.746

>  <SCORE.INTRA.VDW>
0.535264

>  <SCORE.INTRA.VDW.0>
-0.691186

>  <SCORE.INTRA.norm>
-0.101679

>  <SCORE.RESTR>
0

>  <SCORE.RESTR.CAVITY>
0

>  <SCORE.RESTR.norm>
0

>  <SCORE.SYSTEM>
0

>  <SCORE.SYSTEM.CONST>
0

>  <SCORE.SYSTEM.DIHEDRAL>
0

>  <SCORE.SYSTEM.SOLV>
0

>  <SCORE.SYSTEM.norm>
0

>  <SCORE.heavy>
12

>  <SCORE.norm>
-1.25729

>  <RMSD>
2.806

$$$$
ligand
 OpenBabel02271912143D
libRbt.so/2013.1/901 2013/11/27
 12 12  0  0  0  0  0  0  0  0999 V2000
  -21.5190  -11.6100   95.2721 C   0  0  0  0  0  0  0  0  0  0  0  0
  -19.9528   -6.3353   95.3149 C   0  0  0  0  0  0  0  0  0  0  0  0
  -23.1884   -9.6381   96.0187 N   0  0  0  0  0  0  0  0  0  0  0  0
  -20.5020  -12.5794   95.7039 N   0  0  0  0  0  0  0  0  0  0  0  0
  -20.7370  -13.6556   95.4957 N   0  0  0  0  0  0  0  0  0  0  0  0
  -20.9720  -14.7304   95.2826 N   0  0  0  0  0  0  0  0  0  0  0  0
  -19.4414   -8.6128   94.9615 N   0  0  0  0  0  0  0  0  0  0  0  0
  -20.3247   -7.6742   95.3265 C   0  0  0  0  0  0  0  0  0  0  0  0
  -21.5449   -8.0136   95.7682 N   0  0  0  0  0  0  0  0  0  0  0  0
  -21.9155   -9.3002   95.8441 C   0  0  0  0  0  0  0  0  0  0  0  0
  -21.0465  -10.3184   95.4696 C   0  0  0  0  0  0  0  0  0  0  0  0
  -19.7754   -9.9707   95.0283 C   0  0  0  0  0  0  0  0  0  0  0  0
  1 11  1  0  0  0  0
  1  4  1  0  0  0  0
  2  8  1  0  0  0  0
  3 10  1  0  0  0  0
  4  5  1  0  0  0  0
  5  6  1  0  0  0  0
  7  8  2  0  0  0  0
  7 12  1  0  0  0  0
  8  9  1  0  0  0  0
  9 10  2  0  0  0  0
 10 11  1  0  0  0  0
 11 12  2  0  0  0  0
M  END
>  <CHROM.1>
-145.13339864,-174.20507275,61.00121760,-20.91110329,-10.22267549,95.45822584
1.64032092,-0.25957321,-3.12830134

>  <Name>
ligand

>  <RI>
0

>  <Rbt.Current_Directory>
/home/itssahil/PROJECTS/Mol_Feturizer/Test_systems_manuscript/rnas/4nya

>  <Rbt.Executable>
rbdock ($Id: //depot/dev/client3/rdock/2013.1/src/exe/rbdock.cxx#4 $)

>  <Rbt.Library>
libRbt.so (2013.1, Build901 2013/11/27)

>  <Rbt.Parameter_File>
/export/apps/rDock/src/rDock_2013.1_src/data/scripts/dock_solv.prm

>  <Rbt.Receptor>
prm/pocket_docking_4.prm

>  <SCORE>
-14.959

>  <SCORE.INTER>
-13.6941

>  <SCORE.INTER.CONST>
1

>  <SCORE.INTER.POLAR>
0

>  <SCORE.INTER.ROT>
3

>  <SCORE.INTER.SOLV>
13.33

>  <SCORE.INTER.VDW>
-19.1728

>  <SCORE.INTER.norm>
-1.14118

>  <SCORE.INTRA>
-1.26488

>  <SCORE.INTRA.DIHEDRAL>
-2.11605

>  <SCORE.INTRA.DIHEDRAL.0>
3.34563

>  <SCORE.INTRA.POLAR>
0

>  <SCORE.INTRA.POLAR.0>
0

>  <SCORE.INTRA.REPUL>
0

>  <SCORE.INTRA.REPUL.0>
0

>  <SCORE.INTRA.SOLV>
-1.20848

>  <SCORE.INTRA.SOLV.lig_0>
-59.746

>  <SCORE.INTRA.VDW>
0.397383

>  <SCORE.INTRA.VDW.0>
-0.691186

>  <SCORE.INTRA.norm>
-0.105407

>  <SCORE.RESTR>
0

>  <SCORE.RESTR.CAVITY>
0

>  <SCORE.RESTR.norm>
0

>  <SCORE.SYSTEM>
0

>  <SCORE.SYSTEM.CONST>
0

>  <SCORE.SYSTEM.DIHEDRAL>
0

>  <SCORE.SYSTEM.SOLV>
0

>  <SCORE.SYSTEM.norm>
0

>  <SCORE.heavy>
12

>  <SCORE.norm>
-1.24659

>  <RMSD>
2.807

$$$$
ligand
 OpenBabel02271912143D
libRbt.so/2013.1/901 2013/11/27
 12 12  0  0  0  0  0  0  0  0999 V2000
  -21.5141  -11.5288   95.3071 C   0  0  0  0  0  0  0  0  0  0  0  0
  -19.9296   -6.2598   95.2408 C   0  0  0  0  0  0  0  0  0  0  0  0
  -23.1610   -9.5402   96.0593 N   0  0  0  0  0  0  0  0  0  0  0  0
  -20.4419  -12.4950   95.5854 N   0  0  0  0  0  0  0  0  0  0  0  0
  -20.7115  -13.5740   95.4450 N   0  0  0  0  0  0  0  0  0  0  0  0
  -20.9820  -14.6518   95.2998 N   0  0  0  0  0  0  0  0  0  0  0  0
  -19.4334   -8.5441   94.9101 N   0  0  0  0  0  0  0  0  0  0  0  0
  -20.3057   -7.5971   95.2796 C   0  0  0  0  0  0  0  0  0  0  0  0
  -21.5176   -7.9256   95.7513 N   0  0  0  0  0  0  0  0  0  0  0  0
  -21.8909   -9.2096   95.8535 C   0  0  0  0  0  0  0  0  0  0  0  0
  -21.0333  -10.2363   95.4760 C   0  0  0  0  0  0  0  0  0  0  0  0
  -19.7704   -9.8996   95.0035 C   0  0  0  0  0  0  0  0  0  0  0  0
  1 11  1  0  0  0  0
  1  4  1  0  0  0  0
  2  8  1  0  0  0  0
  3 10  1  0  0  0  0
  4  5  1  0  0  0  0
  5  6  1  0  0  0  0
  7  8  2  0  0  0  0
  7 12  1  0  0  0  0
  8  9  1  0  0  0  0
  9 10  2  0  0  0  0
 10 11  1  0  0  0  0
 11 12  2  0  0  0  0
M  END
>  <CHROM.1>
-151.53724343,-178.00146253,60.84737631,-20.89187455,-10.14127457,95.43456650
1.64050574,-0.28608206,-3.12897908

>  <Name>
ligand

>  <RI>
0

>  <Rbt.Current_Directory>
/home/itssahil/PROJECTS/Mol_Feturizer/Test_systems_manuscript/rnas/4nya

>  <Rbt.Executable>
rbdock ($Id: //depot/dev/client3/rdock/2013.1/src/exe/rbdock.cxx#4 $)

>  <Rbt.Library>
libRbt.so (2013.1, Build901 2013/11/27)

>  <Rbt.Parameter_File>
/export/apps/rDock/src/rDock_2013.1_src/data/scripts/dock_solv.prm

>  <Rbt.Receptor>
prm/pocket_docking_5.prm

>  <SCORE>
-15.0211

>  <SCORE.INTER>
-13.7684

>  <SCORE.INTER.CONST>
1

>  <SCORE.INTER.POLAR>
0

>  <SCORE.INTER.ROT>
3

>  <SCORE.INTER.SOLV>
13.5297

>  <SCORE.INTER.VDW>
-19.2888

>  <SCORE.INTER.norm>
-1.14737

>  <SCORE.INTRA>
-1.25266

>  <SCORE.INTRA.DIHEDRAL>
-2.22339

>  <SCORE.INTRA.DIHEDRAL.0>
3.34563

>  <SCORE.INTRA.POLAR>
0

>  <SCORE.INTRA.POLAR.0>
0

>  <SCORE.INTRA.REPUL>
0

>  <SCORE.INTRA.REPUL.0>
0

>  <SCORE.INTRA.SOLV>
-1.25995

>  <SCORE.INTRA.SOLV.lig_0>
-59.746

>  <SCORE.INTRA.VDW>
0.489014

>  <SCORE.INTRA.VDW.0>
-0.691186

>  <SCORE.INTRA.norm>
-0.104388

>  <SCORE.RESTR>
0

>  <SCORE.RESTR.CAVITY>
0

>  <SCORE.RESTR.norm>
0

>  <SCORE.SYSTEM>
0

>  <SCORE.SYSTEM.CONST>
0

>  <SCORE.SYSTEM.DIHEDRAL>
0

>  <SCORE.SYSTEM.SOLV>
0

>  <SCORE.SYSTEM.norm>
0

>  <SCORE.heavy>
12

>  <SCORE.norm>
-1.25176

>  <RMSD>
2.807

$$$$
ligand
 OpenBabel02271912143D
libRbt.so/2013.1/901 2013/11/27
 12 12  0  0  0  0  0  0  0  0999 V2000
  -21.5317  -11.5745   95.3490 C   0  0  0  0  0  0  0  0  0  0  0  0
  -19.9473   -6.3062   95.2415 C   0  0  0  0  0  0  0  0  0  0  0  0
  -23.1814   -9.5795   96.0778 N   0  0  0  0  0  0  0  0  0  0  0  0
  -20.4412  -12.5361   95.5654 N   0  0  0  0  0  0  0  0  0  0  0  0
  -20.7118  -13.6158   95.4324 N   0  0  0  0  0  0  0  0  0  0  0  0
  -20.9833  -14.6943   95.2944 N   0  0  0  0  0  0  0  0  0  0  0  0
  -19.4498   -8.5932   94.9328 N   0  0  0  0  0  0  0  0  0  0  0  0
  -20.3235   -7.6431   95.2908 C   0  0  0  0  0  0  0  0  0  0  0  0
  -21.5370   -7.9675   95.7612 N   0  0  0  0  0  0  0  0  0  0  0  0
  -21.9106   -9.2506   95.8735 C   0  0  0  0  0  0  0  0  0  0  0  0
  -21.0516  -10.2805   95.5081 C   0  0  0  0  0  0  0  0  0  0  0  0
  -19.7871   -9.9479   95.0371 C   0  0  0  0  0  0  0  0  0  0  0  0
  1 11  1  0  0  0  0
  1  4  1  0  0  0  0
  2  8  1  0  0  0  0
  3 10  1  0  0  0  0
  4  5  1  0  0  0  0
  5  6  1  0  0  0  0
  7  8  2  0  0  0  0
  7 12  1  0  0  0  0
  8  9  1  0  0  0  0
  9 10  2  0  0  0  0
 10 11  1  0  0  0  0
 11 12  2  0  0  0  0
M  END
>  <CHROM.1>
-154.71294436,-178.32229234,63.43566285,-20.90541818,-10.18518306,95.44665997
1.63683282,-0.28764592,-3.12713211

>  <Name>
ligand

>  <RI>
0

>  <Rbt.Current_Directory>
/home/itssahil/PROJECTS/Mol_Feturizer/Test_systems_manuscript/rnas/4nya

>  <Rbt.Executable>
rbdock ($Id: //depot/dev/client3/rdock/2013.1/src/exe/rbdock.cxx#4 $)

>  <Rbt.Library>
libRbt.so (2013.1, Build901 2013/11/27)

>  <Rbt.Parameter_File>
/export/apps/rDock/src/rDock_2013.1_src/data/scripts/dock_solv.prm

>  <Rbt.Receptor>
prm/pocket_docking_5.prm

>  <SCORE>
-15.075

>  <SCORE.INTER>
-13.8559

>  <SCORE.INTER.CONST>
1

>  <SCORE.INTER.POLAR>
0

>  <SCORE.INTER.ROT>
3

>  <SCORE.INTER.SOLV>
13.4088

>  <SCORE.INTER.VDW>
-19.3069

>  <SCORE.INTER.norm>
-1.15466

>  <SCORE.INTRA>
-1.21906

>  <SCORE.INTRA.DIHEDRAL>
-2.23969

>  <SCORE.INTRA.DIHEDRAL.0>
3.34563

>  <SCORE.INTRA.POLAR>
0

>  <SCORE.INTRA.POLAR.0>
0

>  <SCORE.INTRA.REPUL>
0

>  <SCORE.INTRA.REPUL.0>
0

>  <SCORE.INTRA.SOLV>
-1.27775

>  <SCORE.INTRA.SOLV.lig_0>
-59.746

>  <SCORE.INTRA.VDW>
0.539654

>  <SCORE.INTRA.VDW.0>
-0.691186

>  <SCORE.INTRA.norm>
-0.101589

>  <SCORE.RESTR>
0

>  <SCORE.RESTR.CAVITY>
0

>  <SCORE.RESTR.norm>
0

>  <SCORE.SYSTEM>
0

>  <SCORE.SYSTEM.CONST>
0

>  <SCORE.SYSTEM.DIHEDRAL>
0

>  <SCORE.SYSTEM.SOLV>
0

>  <SCORE.SYSTEM.norm>
0

>  <SCORE.heavy>
12

>  <SCORE.norm>
-1.25625

>  <RMSD>
2.807

$$$$
ligand
 OpenBabel02271912143D
libRbt.so/2013.1/901 2013/11/27
 12 12  0  0  0  0  0  0  0  0999 V2000
  -21.5127  -11.5295   95.3069 C   0  0  0  0  0  0  0  0  0  0  0  0
  -19.9186   -6.2632   95.2545 C   0  0  0  0  0  0  0  0  0  0  0  0
  -23.1597   -9.5388   96.0535 N   0  0  0  0  0  0  0  0  0  0  0  0
  -20.4528  -12.4985   95.6203 N   0  0  0  0  0  0  0  0  0  0  0  0
  -20.7135  -13.5756   95.4508 N   0  0  0  0  0  0  0  0  0  0  0  0
  -20.9744  -14.6515   95.2762 N   0  0  0  0  0  0  0  0  0  0  0  0
  -19.4248   -8.5480   94.9235 N   0  0  0  0  0  0  0  0  0  0  0  0
  -20.2972   -7.5999   95.2899 C   0  0  0  0  0  0  0  0  0  0  0  0
  -21.5120   -7.9268   95.7553 N   0  0  0  0  0  0  0  0  0  0  0  0
  -21.8880   -9.2102   95.8542 C   0  0  0  0  0  0  0  0  0  0  0  0
  -21.0304  -10.2380   95.4796 C   0  0  0  0  0  0  0  0  0  0  0  0
  -19.7647   -9.9030   95.0137 C   0  0  0  0  0  0  0  0  0  0  0  0
  1 11  1  0  0  0  0
  1  4  1  0  0  0  0
  2  8  1  0  0  0  0
  3 10  1  0  0  0  0
  4  5  1  0  0  0  0
  5  6  1  0  0  0  0
  7  8  2  0  0  0  0
  7 12  1  0  0  0  0
  8  9  1  0  0  0  0
  9 10  2  0  0  0  0
 10 11  1  0  0  0  0
 11 12  2  0  0  0  0
M  END
>  <CHROM.1>
-150.19662724,-176.22782858,65.42621318,-20.88834781,-10.14303102,95.44017636
1.64166452,-0.28084765,-3.12730123

>  <Name>
ligand

>  <RI>
0

>  <Rbt.Current_Directory>
/home/itssahil/PROJECTS/Mol_Feturizer/Test_systems_manuscript/rnas/4nya

>  <Rbt.Executable>
rbdock ($Id: //depot/dev/client3/rdock/2013.1/src/exe/rbdock.cxx#4 $)

>  <Rbt.Library>
libRbt.so (2013.1, Build901 2013/11/27)

>  <Rbt.Parameter_File>
/export/apps/rDock/src/rDock_2013.1_src/data/scripts/dock_solv.prm

>  <Rbt.Receptor>
prm/pocket_docking_5.prm

>  <SCORE>
-15.0309

>  <SCORE.INTER>
-13.7775

>  <SCORE.INTER.CONST>
1

>  <SCORE.INTER.POLAR>
0

>  <SCORE.INTER.ROT>
3

>  <SCORE.INTER.SOLV>
13.5144

>  <SCORE.INTER.VDW>
-19.2898

>  <SCORE.INTER.norm>
-1.14812

>  <SCORE.INTRA>
-1.25341

>  <SCORE.INTRA.DIHEDRAL>
-2.19475

>  <SCORE.INTRA.DIHEDRAL.0>
3.34563

>  <SCORE.INTRA.POLAR>
0

>  <SCORE.INTRA.POLAR.0>
0

>  <SCORE.INTRA.REPUL>
0

>  <SCORE.INTRA.REPUL.0>
0

>  <SCORE.INTRA.SOLV>
-1.2484

>  <SCORE.INTRA.SOLV.lig_0>
-59.746

>  <SCORE.INTRA.VDW>
0.468162

>  <SCORE.INTRA.VDW.0>
-0.691186

>  <SCORE.INTRA.norm>
-0.104451

>  <SCORE.RESTR>
0

>  <SCORE.RESTR.CAVITY>
0

>  <SCORE.RESTR.norm>
0

>  <SCORE.SYSTEM>
0

>  <SCORE.SYSTEM.CONST>
0

>  <SCORE.SYSTEM.DIHEDRAL>
0

>  <SCORE.SYSTEM.SOLV>
0

>  <SCORE.SYSTEM.norm>
0

>  <SCORE.heavy>
12

>  <SCORE.norm>
-1.25257

>  <RMSD>
2.807

$$$$
ligand
 OpenBabel02271912143D
libRbt.so/2013.1/901 2013/11/27
 12 12  0  0  0  0  0  0  0  0999 V2000
  -21.5185  -11.5302   95.3004 C   0  0  0  0  0  0  0  0  0  0  0  0
  -19.9265   -6.2632   95.2660 C   0  0  0  0  0  0  0  0  0  0  0  0
  -23.1792   -9.5391   96.0149 N   0  0  0  0  0  0  0  0  0  0  0  0
  -20.4549  -12.4975   95.6061 N   0  0  0  0  0  0  0  0  0  0  0  0
  -20.7170  -13.5754   95.4441 N   0  0  0  0  0  0  0  0  0  0  0  0
  -20.9796  -14.6520   95.2771 N   0  0  0  0  0  0  0  0  0  0  0  0
  -19.4258   -8.5482   94.9477 N   0  0  0  0  0  0  0  0  0  0  0  0
  -20.3050   -7.5999   95.2972 C   0  0  0  0  0  0  0  0  0  0  0  0
  -21.5274   -7.9267   95.7422 N   0  0  0  0  0  0  0  0  0  0  0  0
  -21.9045   -9.2101   95.8370 C   0  0  0  0  0  0  0  0  0  0  0  0
  -21.0400  -10.2381   95.4791 C   0  0  0  0  0  0  0  0  0  0  0  0
  -19.7665   -9.9033   95.0345 C   0  0  0  0  0  0  0  0  0  0  0  0
  1 11  1  0  0  0  0
  1  4  1  0  0  0  0
  2  8  1  0  0  0  0
  3 10  1  0  0  0  0
  4  5  1  0  0  0  0
  5  6  1  0  0  0  0
  7  8  2  0  0  0  0
  7 12  1  0  0  0  0
  8  9  1  0  0  0  0
  9 10  2  0  0  0  0
 10 11  1  0  0  0  0
 11 12  2  0  0  0  0
M  END
>  <CHROM.1>
-151.40354112,-177.00186314,63.77709552,-20.89630828,-10.14308273,95.43732876
1.64030483,-0.26474467,-3.12705989

>  <Name>
ligand

>  <RI>
0

>  <Rbt.Current_Directory>
/home/itssahil/PROJECTS/Mol_Feturizer/Test_systems_manuscript/rnas/4nya

>  <Rbt.Executable>
rbdock ($Id: //depot/dev/client3/rdock/2013.1/src/exe/rbdock.cxx#4 $)

>  <Rbt.Library>
libRbt.so (2013.1, Build901 2013/11/27)

>  <Rbt.Parameter_File>
/export/apps/rDock/src/rDock_2013.1_src/data/scripts/dock_solv.prm

>  <Rbt.Receptor>
prm/pocket_docking_5.prm

>  <SCORE>
-15.0439

>  <SCORE.INTER>
-13.7947

>  <SCORE.INTER.CONST>
1

>  <SCORE.INTER.POLAR>
0

>  <SCORE.INTER.ROT>
3

>  <SCORE.INTER.SOLV>
13.4694

>  <SCORE.INTER.VDW>
-19.2863

>  <SCORE.INTER.norm>
-1.14956

>  <SCORE.INTRA>
-1.24924

>  <SCORE.INTRA.DIHEDRAL>
-2.21448

>  <SCORE.INTRA.DIHEDRAL.0>
3.34563

>  <SCORE.INTRA.POLAR>
0

>  <SCORE.INTRA.POLAR.0>
0

>  <SCORE.INTRA.REPUL>
0

>  <SCORE.INTRA.REPUL.0>
0

>  <SCORE.INTRA.SOLV>
-1.25728

>  <SCORE.INTRA.SOLV.lig_0>
-59.746

>  <SCORE.INTRA.VDW>
0.486639

>  <SCORE.INTRA.VDW.0>
-0.691186

>  <SCORE.INTRA.norm>
-0.104103

>  <SCORE.RESTR>
0

>  <SCORE.RESTR.CAVITY>
0

>  <SCORE.RESTR.norm>
0

>  <SCORE.SYSTEM>
0

>  <SCORE.SYSTEM.CONST>
0

>  <SCORE.SYSTEM.DIHEDRAL>
0

>  <SCORE.SYSTEM.SOLV>
0

>  <SCORE.SYSTEM.norm>
0

>  <SCORE.heavy>
12

>  <SCORE.norm>
-1.25366

>  <RMSD>
2.807

$$$$
ligand
 OpenBabel02271912143D
libRbt.so/2013.1/901 2013/11/27
 12 12  0  0  0  0  0  0  0  0999 V2000
  -21.5186  -11.5272   95.3095 C   0  0  0  0  0  0  0  0  0  0  0  0
  -19.9270   -6.2604   95.2390 C   0  0  0  0  0  0  0  0  0  0  0  0
  -23.1677   -9.5345   96.0458 N   0  0  0  0  0  0  0  0  0  0  0  0
  -20.4470  -12.4938   95.5888 N   0  0  0  0  0  0  0  0  0  0  0  0
  -20.7122  -13.5718   95.4334 N   0  0  0  0  0  0  0  0  0  0  0  0
  -20.9809  -14.6492   95.2818 N   0  0  0  0  0  0  0  0  0  0  0  0
  -19.4315   -8.5462   94.9176 N   0  0  0  0  0  0  0  0  0  0  0  0
  -20.3050   -7.5971   95.2790 C   0  0  0  0  0  0  0  0  0  0  0  0
  -21.5203   -7.9228   95.7438 N   0  0  0  0  0  0  0  0  0  0  0  0
  -21.8959   -9.2060   95.8472 C   0  0  0  0  0  0  0  0  0  0  0  0
  -21.0372  -10.2348   95.4779 C   0  0  0  0  0  0  0  0  0  0  0  0
  -19.7709   -9.9011   95.0126 C   0  0  0  0  0  0  0  0  0  0  0  0
  1 11  1  0  0  0  0
  1  4  1  0  0  0  0
  2  8  1  0  0  0  0
  3 10  1  0  0  0  0
  4  5  1  0  0  0  0
  5  6  1  0  0  0  0
  7  8  2  0  0  0  0
  7 12  1  0  0  0  0
  8  9  1  0  0  0  0
  9 10  2  0  0  0  0
 10 11  1  0  0  0  0
 11 12  2  0  0  0  0
M  END
>  <CHROM.1>
-151.90117829,-177.08258888,-62.84378663,-20.89373371,-10.13985661,95.43146726
1.64031989,-0.28103279,-3.12798764

>  <Name>
ligand

>  <RI>
0

>  <Rbt.Current_Directory>
/home/itssahil/PROJECTS/Mol_Feturizer/Test_systems_manuscript/rnas/4nya

>  <Rbt.Executable>
rbdock ($Id: //depot/dev/client3/rdock/2013.1/src/exe/rbdock.cxx#4 $)

>  <Rbt.Library>
libRbt.so (2013.1, Build901 2013/11/27)

>  <Rbt.Parameter_File>
/export/apps/rDock/src/rDock_2013.1_src/data/scripts/dock_solv.prm

>  <Rbt.Receptor>
prm/pocket_docking_6.prm

>  <SCORE>
-15.0206

>  <SCORE.INTER>
-13.7745

>  <SCORE.INTER.CONST>
1

>  <SCORE.INTER.POLAR>
0

>  <SCORE.INTER.ROT>
3

>  <SCORE.INTER.SOLV>
13.5032

>  <SCORE.INTER.VDW>
-19.2841

>  <SCORE.INTER.norm>
-1.14788

>  <SCORE.INTRA>
-1.24609

>  <SCORE.INTRA.DIHEDRAL>
-2.22057

>  <SCORE.INTRA.DIHEDRAL.0>
3.34563

>  <SCORE.INTRA.POLAR>
0

>  <SCORE.INTRA.POLAR.0>
0

>  <SCORE.INTRA.REPUL>
0

>  <SCORE.INTRA.REPUL.0>
0

>  <SCORE.INTRA.SOLV>
-1.26031

>  <SCORE.INTRA.SOLV.lig_0>
-59.746

>  <SCORE.INTRA.VDW>
0.494349

>  <SCORE.INTRA.VDW.0>
-0.691186

>  <SCORE.INTRA.norm>
-0.103841

>  <SCORE.RESTR>
0

>  <SCORE.RESTR.CAVITY>
0

>  <SCORE.RESTR.norm>
0

>  <SCORE.SYSTEM>
0

>  <SCORE.SYSTEM.CONST>
0

>  <SCORE.SYSTEM.DIHEDRAL>
0

>  <SCORE.SYSTEM.SOLV>
0

>  <SCORE.SYSTEM.norm>
0

>  <SCORE.heavy>
12

>  <SCORE.norm>
-1.25172

>  <RMSD>
2.807

$$$$
ligand
 OpenBabel02271912143D
libRbt.so/2013.1/901 2013/11/27
 12 12  0  0  0  0  0  0  0  0999 V2000
  -21.5295  -11.5629   95.3579 C   0  0  0  0  0  0  0  0  0  0  0  0
  -19.9390   -6.2966   95.2405 C   0  0  0  0  0  0  0  0  0  0  0  0
  -23.1812   -9.5635   96.0701 N   0  0  0  0  0  0  0  0  0  0  0  0
  -20.4533  -12.5260   95.6315 N   0  0  0  0  0  0  0  0  0  0  0  0
  -20.7124  -13.6041   95.4663 N   0  0  0  0  0  0  0  0  0  0  0  0
  -20.9720  -14.6810   95.2962 N   0  0  0  0  0  0  0  0  0  0  0  0
  -19.4421   -8.5852   94.9429 N   0  0  0  0  0  0  0  0  0  0  0  0
  -20.3169   -7.6329   95.2925 C   0  0  0  0  0  0  0  0  0  0  0  0
  -21.5334   -7.9544   95.7571 N   0  0  0  0  0  0  0  0  0  0  0  0
  -21.9089   -9.2367   95.8719 C   0  0  0  0  0  0  0  0  0  0  0  0
  -21.0489  -10.2688   95.5151 C   0  0  0  0  0  0  0  0  0  0  0  0
  -19.7814   -9.9392   95.0502 C   0  0  0  0  0  0  0  0  0  0  0  0
  1 11  1  0  0  0  0
  1  4  1  0  0  0  0
  2  8  1  0  0  0  0
  3 10  1  0  0  0  0
  4  5  1  0  0  0  0
  5  6  1  0  0  0  0
  7  8  2  0  0  0  0
  7 12  1  0  0  0  0
  8  9  1  0  0  0  0
  9 10  2  0  0  0  0
 10 11  1  0  0  0  0
 11 12  2  0  0  0  0
M  END
>  <CHROM.1>
-152.68549324,-176.01629367,64.33301658,-20.90232765,-10.17367812,95.45753832
1.63740178,-0.28080907,-3.13147171

>  <Name>
ligand

>  <RI>
0

>  <Rbt.Current_Directory>
/home/itssahil/PROJECTS/Mol_Feturizer/Test_systems_manuscript/rnas/4nya

>  <Rbt.Executable>
rbdock ($Id: //depot/dev/client3/rdock/2013.1/src/exe/rbdock.cxx#4 $)

>  <Rbt.Library>
libRbt.so (2013.1, Build901 2013/11/27)

>  <Rbt.Parameter_File>
/export/apps/rDock/src/rDock_2013.1_src/data/scripts/dock_solv.prm

>  <Rbt.Receptor>
prm/pocket_docking_7.prm

>  <SCORE>
-15.0814

>  <SCORE.INTER>
-13.8478

>  <SCORE.INTER.CONST>
1

>  <SCORE.INTER.POLAR>
0

>  <SCORE.INTER.ROT>
3

>  <SCORE.INTER.SOLV>
13.4732

>  <SCORE.INTER.VDW>
-19.3229

>  <SCORE.INTER.norm>
-1.15398

>  <SCORE.INTRA>
-1.23363

>  <SCORE.INTRA.DIHEDRAL>
-2.2172

>  <SCORE.INTRA.DIHEDRAL.0>
3.34563

>  <SCORE.INTRA.POLAR>
0

>  <SCORE.INTRA.POLAR.0>
0

>  <SCORE.INTRA.REPUL>
0

>  <SCORE.INTRA.REPUL.0>
0

>  <SCORE.INTRA.SOLV>
-1.26257

>  <SCORE.INTRA.SOLV.lig_0>
-59.746

>  <SCORE.INTRA.VDW>
0.506259

>  <SCORE.INTRA.VDW.0>
-0.691186

>  <SCORE.INTRA.norm>
-0.102802

>  <SCORE.RESTR>
0

>  <SCORE.RESTR.CAVITY>
0

>  <SCORE.RESTR.norm>
0

>  <SCORE.SYSTEM>
0

>  <SCORE.SYSTEM.CONST>
0

>  <SCORE.SYSTEM.DIHEDRAL>
0

>  <SCORE.SYSTEM.SOLV>
0

>  <SCORE.SYSTEM.norm>
0

>  <SCORE.heavy>
12

>  <SCORE.norm>
-1.25679

>  <RMSD>
2.807

$$$$
ligand
 OpenBabel02271912143D
libRbt.so/2013.1/901 2013/11/27
 12 12  0  0  0  0  0  0  0  0999 V2000
  -21.5207  -11.5239   95.3129 C   0  0  0  0  0  0  0  0  0  0  0  0
  -19.9321   -6.2562   95.2393 C   0  0  0  0  0  0  0  0  0  0  0  0
  -23.1756   -9.5305   96.0343 N   0  0  0  0  0  0  0  0  0  0  0  0
  -20.4471  -12.4888   95.5904 N   0  0  0  0  0  0  0  0  0  0  0  0
  -20.7146  -13.5680   95.4472 N   0  0  0  0  0  0  0  0  0  0  0  0
  -20.9830  -14.6459   95.2991 N   0  0  0  0  0  0  0  0  0  0  0  0
  -19.4332   -8.5425   94.9266 N   0  0  0  0  0  0  0  0  0  0  0  0
  -20.3095   -7.5930   95.2802 C   0  0  0  0  0  0  0  0  0  0  0  0
  -21.5274   -7.9184   95.7385 N   0  0  0  0  0  0  0  0  0  0  0  0
  -21.9028   -9.2016   95.8426 C   0  0  0  0  0  0  0  0  0  0  0  0
  -21.0412  -10.2308   95.4812 C   0  0  0  0  0  0  0  0  0  0  0  0
  -19.7723   -9.8973   95.0228 C   0  0  0  0  0  0  0  0  0  0  0  0
  1 11  1  0  0  0  0
  1  4  1  0  0  0  0
  2  8  1  0  0  0  0
  3 10  1  0  0  0  0
  4  5  1  0  0  0  0
  5  6  1  0  0  0  0
  7  8  2  0  0  0  0
  7 12  1  0  0  0  0
  8  9  1  0  0  0  0
  9 10  2  0  0  0  0
 10 11  1  0  0  0  0
 11 12  2  0  0  0  0
M  END
>  <CHROM.1>
-152.36544567,-177.80658298,60.93920212,-20.89749059,-10.13584073,95.43471460
1.63964720,-0.27512733,-3.13045640

>  <Name>
ligand

>  <RI>
0

>  <Rbt.Current_Directory>
/home/itssahil/PROJECTS/Mol_Feturizer/Test_systems_manuscript/rnas/4nya

>  <Rbt.Executable>
rbdock ($Id: //depot/dev/client3/rdock/2013.1/src/exe/rbdock.cxx#4 $)

>  <Rbt.Library>
libRbt.so (2013.1, Build901 2013/11/27)

>  <Rbt.Parameter_File>
/export/apps/rDock/src/rDock_2013.1_src/data/scripts/dock_solv.prm

>  <Rbt.Receptor>
prm/pocket_docking_7.prm

>  <SCORE>
-15.0226

>  <SCORE.INTER>
-13.7778

>  <SCORE.INTER.CONST>
1

>  <SCORE.INTER.POLAR>
0

>  <SCORE.INTER.ROT>
3

>  <SCORE.INTER.SOLV>
13.5173

>  <SCORE.INTER.VDW>
-19.291

>  <SCORE.INTER.norm>
-1.14815

>  <SCORE.INTRA>
-1.24483

>  <SCORE.INTRA.DIHEDRAL>
-2.22898

>  <SCORE.INTRA.DIHEDRAL.0>
3.34563

>  <SCORE.INTRA.POLAR>
0

>  <SCORE.INTRA.POLAR.0>
0

>  <SCORE.INTRA.REPUL>
0

>  <SCORE.INTRA.REPUL.0>
0

>  <SCORE.INTRA.SOLV>
-1.26431

>  <SCORE.INTRA.SOLV.lig_0>
-59.746

>  <SCORE.INTRA.VDW>
0.501812

>  <SCORE.INTRA.VDW.0>
-0.691186

>  <SCORE.INTRA.norm>
-0.103736

>  <SCORE.RESTR>
0

>  <SCORE.RESTR.CAVITY>
0

>  <SCORE.RESTR.norm>
0

>  <SCORE.SYSTEM>
0

>  <SCORE.SYSTEM.CONST>
0

>  <SCORE.SYSTEM.DIHEDRAL>
0

>  <SCORE.SYSTEM.SOLV>
0

>  <SCORE.SYSTEM.norm>
0

>  <SCORE.heavy>
12

>  <SCORE.norm>
-1.25188

>  <RMSD>
2.807

$$$$
ligand
 OpenBabel02271912143D
libRbt.so/2013.1/901 2013/11/27
 12 12  0  0  0  0  0  0  0  0999 V2000
  -21.5296  -11.5369   95.3221 C   0  0  0  0  0  0  0  0  0  0  0  0
  -19.9471   -6.2677   95.2275 C   0  0  0  0  0  0  0  0  0  0  0  0
  -23.1871   -9.5424   96.0345 N   0  0  0  0  0  0  0  0  0  0  0  0
  -20.4524  -12.4991   95.5947 N   0  0  0  0  0  0  0  0  0  0  0  0
  -20.7193  -13.5793   95.4574 N   0  0  0  0  0  0  0  0  0  0  0  0
  -20.9815  -14.6604   95.3216 N   0  0  0  0  0  0  0  0  0  0  0  0
  -19.4454   -8.5546   94.9244 N   0  0  0  0  0  0  0  0  0  0  0  0
  -20.3230   -7.6048   95.2738 C   0  0  0  0  0  0  0  0  0  0  0  0
  -21.5407   -7.9297   95.7328 N   0  0  0  0  0  0  0  0  0  0  0  0
  -21.9146   -9.2129   95.8421 C   0  0  0  0  0  0  0  0  0  0  0  0
  -21.0516  -10.2425   95.4852 C   0  0  0  0  0  0  0  0  0  0  0  0
  -19.7829   -9.9095   95.0260 C   0  0  0  0  0  0  0  0  0  0  0  0
  1 11  1  0  0  0  0
  1  4  1  0  0  0  0
  2  8  1  0  0  0  0
  3 10  1  0  0  0  0
  4  5  1  0  0  0  0
  5  6  1  0  0  0  0
  7  8  2  0  0  0  0
  7 12  1  0  0  0  0
  8  9  1  0  0  0  0
  9 10  2  0  0  0  0
 10 11  1  0  0  0  0
 11 12  2  0  0  0  0
M  END
>  <CHROM.1>
-152.76530745,-177.95419655,-179.40064951,-20.90707173,-10.14776264,95.43697871
1.63764496,-0.27514708,-3.13435856

>  <Name>
ligand

>  <RI>
0

>  <Rbt.Current_Directory>
/home/itssahil/PROJECTS/Mol_Feturizer/Test_systems_manuscript/rnas/4nya

>  <Rbt.Executable>
rbdock ($Id: //depot/dev/client3/rdock/2013.1/src/exe/rbdock.cxx#4 $)

>  <Rbt.Library>
libRbt.so (2013.1, Build901 2013/11/27)

>  <Rbt.Parameter_File>
/export/apps/rDock/src/rDock_2013.1_src/data/scripts/dock_solv.prm

>  <Rbt.Receptor>
prm/pocket_docking_8.prm

>  <SCORE>
-15.029

>  <SCORE.INTER>
-13.7847

>  <SCORE.INTER.CONST>
1

>  <SCORE.INTER.POLAR>
0

>  <SCORE.INTER.ROT>
3

>  <SCORE.INTER.SOLV>
13.5184

>  <SCORE.INTER.VDW>
-19.2959

>  <SCORE.INTER.norm>
-1.14873

>  <SCORE.INTRA>
-1.24427

>  <SCORE.INTRA.DIHEDRAL>
-2.2323

>  <SCORE.INTRA.DIHEDRAL.0>
3.34563

>  <SCORE.INTRA.POLAR>
0

>  <SCORE.INTRA.POLAR.0>
0

>  <SCORE.INTRA.REPUL>
0

>  <SCORE.INTRA.REPUL.0>
0

>  <SCORE.INTRA.SOLV>
-1.27002

>  <SCORE.INTRA.SOLV.lig_0>
-59.746

>  <SCORE.INTRA.VDW>
0.506892

>  <SCORE.INTRA.VDW.0>
-0.691186

>  <SCORE.INTRA.norm>
-0.103689

>  <SCORE.RESTR>
0

>  <SCORE.RESTR.CAVITY>
0

>  <SCORE.RESTR.norm>
0

>  <SCORE.SYSTEM>
0

>  <SCORE.SYSTEM.CONST>
0

>  <SCORE.SYSTEM.DIHEDRAL>
0

>  <SCORE.SYSTEM.SOLV>
0

>  <SCORE.SYSTEM.norm>
0

>  <SCORE.heavy>
12

>  <SCORE.norm>
-1.25242

>  <RMSD>
2.807

$$$$
ligand
 OpenBabel02271912143D
libRbt.so/2013.1/901 2013/11/27
 12 12  0  0  0  0  0  0  0  0999 V2000
  -21.5162  -11.5221   95.3087 C   0  0  0  0  0  0  0  0  0  0  0  0
  -19.9347   -6.2523   95.2306 C   0  0  0  0  0  0  0  0  0  0  0  0
  -23.1662   -9.5322   96.0510 N   0  0  0  0  0  0  0  0  0  0  0  0
  -20.4424  -12.4866   95.5865 N   0  0  0  0  0  0  0  0  0  0  0  0
  -20.7072  -13.5654   95.4358 N   0  0  0  0  0  0  0  0  0  0  0  0
  -20.9757  -14.6435   95.2884 N   0  0  0  0  0  0  0  0  0  0  0  0
  -19.4363   -8.5373   94.9079 N   0  0  0  0  0  0  0  0  0  0  0  0
  -20.3101   -7.5897   95.2724 C   0  0  0  0  0  0  0  0  0  0  0  0
  -21.5230   -7.9176   95.7421 N   0  0  0  0  0  0  0  0  0  0  0  0
  -21.8958   -9.2014   95.8473 C   0  0  0  0  0  0  0  0  0  0  0  0
  -21.0366  -10.2287   95.4749 C   0  0  0  0  0  0  0  0  0  0  0  0
  -19.7728   -9.8927   95.0046 C   0  0  0  0  0  0  0  0  0  0  0  0
  1 11  1  0  0  0  0
  1  4  1  0  0  0  0
  2  8  1  0  0  0  0
  3 10  1  0  0  0  0
  4  5  1  0  0  0  0
  5  6  1  0  0  0  0
  7  8  2  0  0  0  0
  7 12  1  0  0  0  0
  8  9  1  0  0  0  0
  9 10  2  0  0  0  0
 10 11  1  0  0  0  0
 11 12  2  0  0  0  0
M  END
>  <CHROM.1>
-151.79773683,-177.26609379,-57.32106441,-20.89396086,-10.13355544,95.42935437
1.63882176,-0.28464060,-3.12964877

>  <Name>
ligand

>  <RI>
0

>  <Rbt.Current_Directory>
/home/itssahil/PROJECTS/Mol_Feturizer/Test_systems_manuscript/rnas/4nya

>  <Rbt.Executable>
rbdock ($Id: //depot/dev/client3/rdock/2013.1/src/exe/rbdock.cxx#4 $)

>  <Rbt.Library>
libRbt.so (2013.1, Build901 2013/11/27)

>  <Rbt.Parameter_File>
/export/apps/rDock/src/rDock_2013.1_src/data/scripts/dock_solv.prm

>  <Rbt.Receptor>
prm/pocket_docking_4.prm

>  <SCORE>
-15.0205

>  <SCORE.INTER>
-13.773

>  <SCORE.INTER.CONST>
1

>  <SCORE.INTER.POLAR>
0

>  <SCORE.INTER.ROT>
3

>  <SCORE.INTER.SOLV>
13.5499

>  <SCORE.INTER.VDW>
-19.2986

>  <SCORE.INTER.norm>
-1.14775

>  <SCORE.INTRA>
-1.24751

>  <SCORE.INTRA.DIHEDRAL>
-2.22087

>  <SCORE.INTRA.DIHEDRAL.0>
3.34563

>  <SCORE.INTRA.POLAR>
0

>  <SCORE.INTRA.POLAR.0>
0

>  <SCORE.INTRA.REPUL>
0

>  <SCORE.INTRA.REPUL.0>
0

>  <SCORE.INTRA.SOLV>
-1.2599

>  <SCORE.INTRA.SOLV.lig_0>
-59.746

>  <SCORE.INTRA.VDW>
0.492872

>  <SCORE.INTRA.VDW.0>
-0.691186

>  <SCORE.INTRA.norm>
-0.103959

>  <SCORE.RESTR>
0

>  <SCORE.RESTR.CAVITY>
0

>  <SCORE.RESTR.norm>
0

>  <SCORE.SYSTEM>
0

>  <SCORE.SYSTEM.CONST>
0

>  <SCORE.SYSTEM.DIHEDRAL>
0

>  <SCORE.SYSTEM.SOLV>
0

>  <SCORE.SYSTEM.norm>
0

>  <SCORE.heavy>
12

>  <SCORE.norm>
-1.25171

>  <RMSD>
2.808

$$$$
ligand
 OpenBabel02271912143D
libRbt.so/2013.1/901 2013/11/27
 12 12  0  0  0  0  0  0  0  0999 V2000
  -21.5097  -11.5350   95.2799 C   0  0  0  0  0  0  0  0  0  0  0  0
  -19.9292   -6.2645   95.2447 C   0  0  0  0  0  0  0  0  0  0  0  0
  -23.1565   -9.5525   96.0487 N   0  0  0  0  0  0  0  0  0  0  0  0
  -20.4505  -12.5033   95.5976 N   0  0  0  0  0  0  0  0  0  0  0  0
  -20.7125  -13.5811   95.4347 N   0  0  0  0  0  0  0  0  0  0  0  0
  -20.9783  -14.6580   95.2751 N   0  0  0  0  0  0  0  0  0  0  0  0
  -19.4320   -8.5461   94.8980 N   0  0  0  0  0  0  0  0  0  0  0  0
  -20.3042   -7.6022   95.2755 C   0  0  0  0  0  0  0  0  0  0  0  0
  -21.5149   -7.9347   95.7477 N   0  0  0  0  0  0  0  0  0  0  0  0
  -21.8870   -9.2196   95.8423 C   0  0  0  0  0  0  0  0  0  0  0  0
  -21.0295  -10.2432   95.4562 C   0  0  0  0  0  0  0  0  0  0  0  0
  -19.7678   -9.9025   94.9833 C   0  0  0  0  0  0  0  0  0  0  0  0
  1 11  1  0  0  0  0
  1  4  1  0  0  0  0
  2  8  1  0  0  0  0
  3 10  1  0  0  0  0
  4  5  1  0  0  0  0
  5  6  1  0  0  0  0
  7  8  2  0  0  0  0
  7 12  1  0  0  0  0
  8  9  1  0  0  0  0
  9 10  2  0  0  0  0
 10 11  1  0  0  0  0
 11 12  2  0  0  0  0
M  END
>  <CHROM.1>
-149.46419619,-176.76733269,-59.28278401,-20.89034326,-10.14801958,95.42417682
1.64121516,-0.28600586,-3.12722691

>  <Name>
ligand

>  <RI>
0

>  <Rbt.Current_Directory>
/home/itssahil/PROJECTS/Mol_Feturizer/Test_systems_manuscript/rnas/4nya

>  <Rbt.Executable>
rbdock ($Id: //depot/dev/client3/rdock/2013.1/src/exe/rbdock.cxx#4 $)

>  <Rbt.Library>
libRbt.so (2013.1, Build901 2013/11/27)

>  <Rbt.Parameter_File>
/export/apps/rDock/src/rDock_2013.1_src/data/scripts/dock_solv.prm

>  <Rbt.Receptor>
prm/pocket_docking_4.prm

>  <SCORE>
-15.0093

>  <SCORE.INTER>
-13.7457

>  <SCORE.INTER.CONST>
1

>  <SCORE.INTER.POLAR>
0

>  <SCORE.INTER.ROT>
3

>  <SCORE.INTER.SOLV>
13.5019

>  <SCORE.INTER.VDW>
-19.2644

>  <SCORE.INTER.norm>
-1.14547

>  <SCORE.INTRA>
-1.26362

>  <SCORE.INTRA.DIHEDRAL>
-2.19777

>  <SCORE.INTRA.DIHEDRAL.0>
3.34563

>  <SCORE.INTRA.POLAR>
0

>  <SCORE.INTRA.POLAR.0>
0

>  <SCORE.INTRA.REPUL>
0

>  <SCORE.INTRA.REPUL.0>
0

>  <SCORE.INTRA.SOLV>
-1.24475

>  <SCORE.INTRA.SOLV.lig_0>
-59.746

>  <SCORE.INTRA.VDW>
0.457641

>  <SCORE.INTRA.VDW.0>
-0.691186

>  <SCORE.INTRA.norm>
-0.105302

>  <SCORE.RESTR>
0

>  <SCORE.RESTR.CAVITY>
0

>  <SCORE.RESTR.norm>
0

>  <SCORE.SYSTEM>
0

>  <SCORE.SYSTEM.CONST>
0

>  <SCORE.SYSTEM.DIHEDRAL>
0

>  <SCORE.SYSTEM.SOLV>
0

>  <SCORE.SYSTEM.norm>
0

>  <SCORE.heavy>
12

>  <SCORE.norm>
-1.25077

>  <RMSD>
2.808

$$$$
ligand
 OpenBabel02271912143D
libRbt.so/2013.1/901 2013/11/27
 12 12  0  0  0  0  0  0  0  0999 V2000
  -21.5192  -11.5255   95.3077 C   0  0  0  0  0  0  0  0  0  0  0  0
  -19.9293   -6.2582   95.2411 C   0  0  0  0  0  0  0  0  0  0  0  0
  -23.1708   -9.5334   96.0401 N   0  0  0  0  0  0  0  0  0  0  0  0
  -20.4459  -12.4915   95.5826 N   0  0  0  0  0  0  0  0  0  0  0  0
  -20.7117  -13.5698   95.4299 N   0  0  0  0  0  0  0  0  0  0  0  0
  -20.9786  -14.6468   95.2724 N   0  0  0  0  0  0  0  0  0  0  0  0
  -19.4323   -8.5438   94.9210 N   0  0  0  0  0  0  0  0  0  0  0  0
  -20.3070   -7.5950   95.2802 C   0  0  0  0  0  0  0  0  0  0  0  0
  -21.5233   -7.9211   95.7422 N   0  0  0  0  0  0  0  0  0  0  0  0
  -21.8986   -9.2045   95.8446 C   0  0  0  0  0  0  0  0  0  0  0  0
  -21.0387  -10.2330   95.4774 C   0  0  0  0  0  0  0  0  0  0  0  0
  -19.7714   -9.8987   95.0151 C   0  0  0  0  0  0  0  0  0  0  0  0
  1 11  1  0  0  0  0
  1  4  1  0  0  0  0
  2  8  1  0  0  0  0
  3 10  1  0  0  0  0
  4  5  1  0  0  0  0
  5  6  1  0  0  0  0
  7  8  2  0  0  0  0
  7 12  1  0  0  0  0
  8  9  1  0  0  0  0
  9 10  2  0  0  0  0
 10 11  1  0  0  0  0
 11 12  2  0  0  0  0
M  END
>  <CHROM.1>
-152.20442088,-177.32166570,59.47751110,-20.89474136,-10.13786341,95.42956806
1.63961163,-0.27905747,-3.12712911

>  <Name>
ligand

>  <RI>
0

>  <Rbt.Current_Directory>
/home/itssahil/PROJECTS/Mol_Feturizer/Test_systems_manuscript/rnas/4nya

>  <Rbt.Executable>
rbdock ($Id: //depot/dev/client3/rdock/2013.1/src/exe/rbdock.cxx#4 $)

>  <Rbt.Library>
libRbt.so (2013.1, Build901 2013/11/27)

>  <Rbt.Parameter_File>
/export/apps/rDock/src/rDock_2013.1_src/data/scripts/dock_solv.prm

>  <Rbt.Receptor>
prm/pocket_docking_4.prm

>  <SCORE>
-15.0246

>  <SCORE.INTER>
-13.7795

>  <SCORE.INTER.CONST>
1

>  <SCORE.INTER.POLAR>
0

>  <SCORE.INTER.ROT>
3

>  <SCORE.INTER.SOLV>
13.4961

>  <SCORE.INTER.VDW>
-19.285

>  <SCORE.INTER.norm>
-1.14829

>  <SCORE.INTRA>
-1.24506

>  <SCORE.INTRA.DIHEDRAL>
-2.22607

>  <SCORE.INTRA.DIHEDRAL.0>
3.34563

>  <SCORE.INTRA.POLAR>
0

>  <SCORE.INTRA.POLAR.0>
0

>  <SCORE.INTRA.REPUL>
0

>  <SCORE.INTRA.REPUL.0>
0

>  <SCORE.INTRA.SOLV>
-1.2624

>  <SCORE.INTRA.SOLV.lig_0>
-59.746

>  <SCORE.INTRA.VDW>
0.499175

>  <SCORE.INTRA.VDW.0>
-0.691186

>  <SCORE.INTRA.norm>
-0.103755

>  <SCORE.RESTR>
0

>  <SCORE.RESTR.CAVITY>
0

>  <SCORE.RESTR.norm>
0

>  <SCORE.SYSTEM>
0

>  <SCORE.SYSTEM.CONST>
0

>  <SCORE.SYSTEM.DIHEDRAL>
0

>  <SCORE.SYSTEM.SOLV>
0

>  <SCORE.SYSTEM.norm>
0

>  <SCORE.heavy>
12

>  <SCORE.norm>
-1.25205

>  <RMSD>
2.808

$$$$
ligand
 OpenBabel02271912143D
libRbt.so/2013.1/901 2013/11/27
 12 12  0  0  0  0  0  0  0  0999 V2000
  -21.5112  -11.5439   95.3801 C   0  0  0  0  0  0  0  0  0  0  0  0
  -19.9512   -6.2710   95.1783 C   0  0  0  0  0  0  0  0  0  0  0  0
  -23.1136   -9.5548   96.2219 N   0  0  0  0  0  0  0  0  0  0  0  0
  -20.4270  -12.5055   95.6256 N   0  0  0  0  0  0  0  0  0  0  0  0
  -20.6932  -13.5851   95.4824 N   0  0  0  0  0  0  0  0  0  0  0  0
  -20.9547  -14.6656   95.3409 N   0  0  0  0  0  0  0  0  0  0  0  0
  -19.4695   -8.5561   94.8320 N   0  0  0  0  0  0  0  0  0  0  0  0
  -20.3198   -7.6091   95.2498 C   0  0  0  0  0  0  0  0  0  0  0  0
  -21.4983   -7.9378   95.7995 N   0  0  0  0  0  0  0  0  0  0  0  0
  -21.8602   -9.2220   95.9338 C   0  0  0  0  0  0  0  0  0  0  0  0
  -21.0249  -10.2489   95.5095 C   0  0  0  0  0  0  0  0  0  0  0  0
  -19.7956   -9.9119   94.9557 C   0  0  0  0  0  0  0  0  0  0  0  0
  1 11  1  0  0  0  0
  1  4  1  0  0  0  0
  2  8  1  0  0  0  0
  3 10  1  0  0  0  0
  4  5  1  0  0  0  0
  5  6  1  0  0  0  0
  7  8  2  0  0  0  0
  7 12  1  0  0  0  0
  8  9  1  0  0  0  0
  9 10  2  0  0  0  0
 10 11  1  0  0  0  0
 11 12  2  0  0  0  0
M  END
>  <CHROM.1>
-150.29848469,-176.23754749,-177.00462489,-20.88574009,-10.15375496,95.45965591
1.63676063,-0.34921625,-3.13676886

>  <Name>
ligand

>  <RI>
0

>  <Rbt.Current_Directory>
/home/itssahil/PROJECTS/Mol_Feturizer/Test_systems_manuscript/rnas/4nya

>  <Rbt.Executable>
rbdock ($Id: //depot/dev/client3/rdock/2013.1/src/exe/rbdock.cxx#4 $)

>  <Rbt.Library>
libRbt.so (2013.1, Build901 2013/11/27)

>  <Rbt.Parameter_File>
/export/apps/rDock/src/rDock_2013.1_src/data/scripts/dock_solv.prm

>  <Rbt.Receptor>
prm/pocket_docking_5.prm

>  <SCORE>
-14.9669

>  <SCORE.INTER>
-13.7087

>  <SCORE.INTER.CONST>
1

>  <SCORE.INTER.POLAR>
0

>  <SCORE.INTER.ROT>
3

>  <SCORE.INTER.SOLV>
13.91

>  <SCORE.INTER.VDW>
-19.3758

>  <SCORE.INTER.norm>
-1.14239

>  <SCORE.INTRA>
-1.25828

>  <SCORE.INTRA.DIHEDRAL>
-2.20141

>  <SCORE.INTRA.DIHEDRAL.0>
3.34563

>  <SCORE.INTRA.POLAR>
0

>  <SCORE.INTRA.POLAR.0>
0

>  <SCORE.INTRA.REPUL>
0

>  <SCORE.INTRA.REPUL.0>
0

>  <SCORE.INTRA.SOLV>
-1.25212

>  <SCORE.INTRA.SOLV.lig_0>
-59.746

>  <SCORE.INTRA.VDW>
0.468489

>  <SCORE.INTRA.VDW.0>
-0.691186

>  <SCORE.INTRA.norm>
-0.104856

>  <SCORE.RESTR>
0

>  <SCORE.RESTR.CAVITY>
0

>  <SCORE.RESTR.norm>
0

>  <SCORE.SYSTEM>
0

>  <SCORE.SYSTEM.CONST>
0

>  <SCORE.SYSTEM.DIHEDRAL>
0

>  <SCORE.SYSTEM.SOLV>
0

>  <SCORE.SYSTEM.norm>
0

>  <SCORE.heavy>
12

>  <SCORE.norm>
-1.24724

>  <RMSD>
2.808

$$$$
ligand
 OpenBabel02271912143D
libRbt.so/2013.1/901 2013/11/27
 12 12  0  0  0  0  0  0  0  0999 V2000
  -21.5117  -11.5276   95.2952 C   0  0  0  0  0  0  0  0  0  0  0  0
  -19.9238   -6.2592   95.2718 C   0  0  0  0  0  0  0  0  0  0  0  0
  -23.1719   -9.5399   96.0203 N   0  0  0  0  0  0  0  0  0  0  0  0
  -20.4420  -12.4946   95.5802 N   0  0  0  0  0  0  0  0  0  0  0  0
  -20.7132  -13.5737   95.4433 N   0  0  0  0  0  0  0  0  0  0  0  0
  -20.9853  -14.6516   95.3014 N   0  0  0  0  0  0  0  0  0  0  0  0
  -19.4224   -8.5430   94.9453 N   0  0  0  0  0  0  0  0  0  0  0  0
  -20.3012   -7.5964   95.3002 C   0  0  0  0  0  0  0  0  0  0  0  0
  -21.5221   -7.9254   95.7478 N   0  0  0  0  0  0  0  0  0  0  0  0
  -21.8979   -9.2094   95.8398 C   0  0  0  0  0  0  0  0  0  0  0  0
  -21.0337  -10.2357   95.4764 C   0  0  0  0  0  0  0  0  0  0  0  0
  -19.7618   -9.8985   95.0291 C   0  0  0  0  0  0  0  0  0  0  0  0
  1 11  1  0  0  0  0
  1  4  1  0  0  0  0
  2  8  1  0  0  0  0
  3 10  1  0  0  0  0
  4  5  1  0  0  0  0
  5  6  1  0  0  0  0
  7  8  2  0  0  0  0
  7 12  1  0  0  0  0
  8  9  1  0  0  0  0
  9 10  2  0  0  0  0
 10 11  1  0  0  0  0
 11 12  2  0  0  0  0
M  END
>  <CHROM.1>
-152.04227666,-178.72928626,61.33132034,-20.89153304,-10.14068997,95.43778813
1.64095236,-0.26695299,-3.12678739

>  <Name>
ligand

>  <RI>
0

>  <Rbt.Current_Directory>
/home/itssahil/PROJECTS/Mol_Feturizer/Test_systems_manuscript/rnas/4nya

>  <Rbt.Executable>
rbdock ($Id: //depot/dev/client3/rdock/2013.1/src/exe/rbdock.cxx#4 $)

>  <Rbt.Library>
libRbt.so (2013.1, Build901 2013/11/27)

>  <Rbt.Parameter_File>
/export/apps/rDock/src/rDock_2013.1_src/data/scripts/dock_solv.prm

>  <Rbt.Receptor>
prm/pocket_docking_5.prm

>  <SCORE>
-15.0398

>  <SCORE.INTER>
-13.7901

>  <SCORE.INTER.CONST>
1

>  <SCORE.INTER.POLAR>
0

>  <SCORE.INTER.ROT>
3

>  <SCORE.INTER.SOLV>
13.507

>  <SCORE.INTER.VDW>
-19.2957

>  <SCORE.INTER.norm>
-1.14918

>  <SCORE.INTRA>
-1.24962

>  <SCORE.INTRA.DIHEDRAL>
-2.22903

>  <SCORE.INTRA.DIHEDRAL.0>
3.34563

>  <SCORE.INTRA.POLAR>
0

>  <SCORE.INTRA.POLAR.0>
0

>  <SCORE.INTRA.REPUL>
0

>  <SCORE.INTRA.REPUL.0>
0

>  <SCORE.INTRA.SOLV>
-1.26422

>  <SCORE.INTRA.SOLV.lig_0>
-59.746

>  <SCORE.INTRA.VDW>
0.497002

>  <SCORE.INTRA.VDW.0>
-0.691186

>  <SCORE.INTRA.norm>
-0.104135

>  <SCORE.RESTR>
0

>  <SCORE.RESTR.CAVITY>
0

>  <SCORE.RESTR.norm>
0

>  <SCORE.SYSTEM>
0

>  <SCORE.SYSTEM.CONST>
0

>  <SCORE.SYSTEM.DIHEDRAL>
0

>  <SCORE.SYSTEM.SOLV>
0

>  <SCORE.SYSTEM.norm>
0

>  <SCORE.heavy>
12

>  <SCORE.norm>
-1.25331

>  <RMSD>
2.808

$$$$
ligand
 OpenBabel02271912143D
libRbt.so/2013.1/901 2013/11/27
 12 12  0  0  0  0  0  0  0  0999 V2000
  -21.5274  -11.5874   95.3378 C   0  0  0  0  0  0  0  0  0  0  0  0
  -19.9563   -6.3150   95.2367 C   0  0  0  0  0  0  0  0  0  0  0  0
  -23.1823   -9.5973   96.0685 N   0  0  0  0  0  0  0  0  0  0  0  0
  -20.4483  -12.5481   95.6079 N   0  0  0  0  0  0  0  0  0  0  0  0
  -20.7144  -13.6287   95.4725 N   0  0  0  0  0  0  0  0  0  0  0  0
  -20.9807  -14.7082   95.3321 N   0  0  0  0  0  0  0  0  0  0  0  0
  -19.4529   -8.6004   94.9255 N   0  0  0  0  0  0  0  0  0  0  0  0
  -20.3291   -7.6528   95.2844 C   0  0  0  0  0  0  0  0  0  0  0  0
  -21.5419   -7.9809   95.7541 N   0  0  0  0  0  0  0  0  0  0  0  0
  -21.9123   -9.2650   95.8649 C   0  0  0  0  0  0  0  0  0  0  0  0
  -21.0506  -10.2923   95.4985 C   0  0  0  0  0  0  0  0  0  0  0  0
  -19.7868   -9.9561   95.0282 C   0  0  0  0  0  0  0  0  0  0  0  0
  1 11  1  0  0  0  0
  1  4  1  0  0  0  0
  2  8  1  0  0  0  0
  3 10  1  0  0  0  0
  4  5  1  0  0  0  0
  5  6  1  0  0  0  0
  7  8  2  0  0  0  0
  7 12  1  0  0  0  0
  8  9  1  0  0  0  0
  9 10  2  0  0  0  0
 10 11  1  0  0  0  0
 11 12  2  0  0  0  0
M  END
>  <CHROM.1>
-152.38712738,-177.96754959,69.70360011,-20.90773858,-10.19712911,95.45112636
1.63654024,-0.28378306,-3.13432144

>  <Name>
ligand

>  <RI>
0

>  <Rbt.Current_Directory>
/home/itssahil/PROJECTS/Mol_Feturizer/Test_systems_manuscript/rnas/4nya

>  <Rbt.Executable>
rbdock ($Id: //depot/dev/client3/rdock/2013.1/src/exe/rbdock.cxx#4 $)

>  <Rbt.Library>
libRbt.so (2013.1, Build901 2013/11/27)

>  <Rbt.Parameter_File>
/export/apps/rDock/src/rDock_2013.1_src/data/scripts/dock_solv.prm

>  <Rbt.Receptor>
prm/pocket_docking_5.prm

>  <SCORE>
-15.0632

>  <SCORE.INTER>
-13.8304

>  <SCORE.INTER.CONST>
1

>  <SCORE.INTER.POLAR>
0

>  <SCORE.INTER.ROT>
3

>  <SCORE.INTER.SOLV>
13.4977

>  <SCORE.INTER.VDW>
-19.3195

>  <SCORE.INTER.norm>
-1.15253

>  <SCORE.INTRA>
-1.23278

>  <SCORE.INTRA.DIHEDRAL>
-2.20467

>  <SCORE.INTRA.DIHEDRAL.0>
3.34563

>  <SCORE.INTRA.POLAR>
0

>  <SCORE.INTRA.POLAR.0>
0

>  <SCORE.INTRA.REPUL>
0

>  <SCORE.INTRA.REPUL.0>
0

>  <SCORE.INTRA.SOLV>
-1.26504

>  <SCORE.INTRA.SOLV.lig_0>
-59.746

>  <SCORE.INTRA.VDW>
0.502077

>  <SCORE.INTRA.VDW.0>
-0.691186

>  <SCORE.INTRA.norm>
-0.102731

>  <SCORE.RESTR>
0

>  <SCORE.RESTR.CAVITY>
0

>  <SCORE.RESTR.norm>
0

>  <SCORE.SYSTEM>
0

>  <SCORE.SYSTEM.CONST>
0

>  <SCORE.SYSTEM.DIHEDRAL>
0

>  <SCORE.SYSTEM.SOLV>
0

>  <SCORE.SYSTEM.norm>
0

>  <SCORE.heavy>
12

>  <SCORE.norm>
-1.25526

>  <RMSD>
2.808

$$$$
ligand
 OpenBabel02271912143D
libRbt.so/2013.1/901 2013/11/27
 12 12  0  0  0  0  0  0  0  0999 V2000
  -21.5129  -11.5362   95.2943 C   0  0  0  0  0  0  0  0  0  0  0  0
  -19.9329   -6.2657   95.2421 C   0  0  0  0  0  0  0  0  0  0  0  0
  -23.1731   -9.5479   96.0174 N   0  0  0  0  0  0  0  0  0  0  0  0
  -20.4472  -12.5009   95.6012 N   0  0  0  0  0  0  0  0  0  0  0  0
  -20.7150  -13.5809   95.4641 N   0  0  0  0  0  0  0  0  0  0  0  0
  -20.9829  -14.6598   95.3221 N   0  0  0  0  0  0  0  0  0  0  0  0
  -19.4293   -8.5501   94.9234 N   0  0  0  0  0  0  0  0  0  0  0  0
  -20.3082   -7.6033   95.2777 C   0  0  0  0  0  0  0  0  0  0  0  0
  -21.5268   -7.9322   95.7314 N   0  0  0  0  0  0  0  0  0  0  0  0
  -21.9004   -9.2163   95.8304 C   0  0  0  0  0  0  0  0  0  0  0  0
  -21.0360  -10.2429   95.4680 C   0  0  0  0  0  0  0  0  0  0  0  0
  -19.7664   -9.9058   95.0143 C   0  0  0  0  0  0  0  0  0  0  0  0
  1 11  1  0  0  0  0
  1  4  1  0  0  0  0
  2  8  1  0  0  0  0
  3 10  1  0  0  0  0
  4  5  1  0  0  0  0
  5  6  1  0  0  0  0
  7  8  2  0  0  0  0
  7 12  1  0  0  0  0
  8  9  1  0  0  0  0
  9 10  2  0  0  0  0
 10 11  1  0  0  0  0
 11 12  2  0  0  0  0
M  END
>  <CHROM.1>
-151.08952734,-178.26196688,69.61341869,-20.89521594,-10.14794497,95.43267839
1.64017015,-0.26979481,-3.13359329

>  <Name>
ligand

>  <RI>
0

>  <Rbt.Current_Directory>
/home/itssahil/PROJECTS/Mol_Feturizer/Test_systems_manuscript/rnas/4nya

>  <Rbt.Executable>
rbdock ($Id: //depot/dev/client3/rdock/2013.1/src/exe/rbdock.cxx#4 $)

>  <Rbt.Library>
libRbt.so (2013.1, Build901 2013/11/27)

>  <Rbt.Parameter_File>
/export/apps/rDock/src/rDock_2013.1_src/data/scripts/dock_solv.prm

>  <Rbt.Receptor>
prm/pocket_docking_6.prm

>  <SCORE>
-15.0164

>  <SCORE.INTER>
-13.7716

>  <SCORE.INTER.CONST>
1

>  <SCORE.INTER.POLAR>
0

>  <SCORE.INTER.ROT>
3

>  <SCORE.INTER.SOLV>
13.5631

>  <SCORE.INTER.VDW>
-19.3021

>  <SCORE.INTER.norm>
-1.14763

>  <SCORE.INTRA>
-1.2448

>  <SCORE.INTRA.DIHEDRAL>
-2.19573

>  <SCORE.INTRA.DIHEDRAL.0>
3.34563

>  <SCORE.INTRA.POLAR>
0

>  <SCORE.INTRA.POLAR.0>
0

>  <SCORE.INTRA.REPUL>
0

>  <SCORE.INTRA.REPUL.0>
0

>  <SCORE.INTRA.SOLV>
-1.25812

>  <SCORE.INTRA.SOLV.lig_0>
-59.746

>  <SCORE.INTRA.VDW>
0.482122

>  <SCORE.INTRA.VDW.0>
-0.691186

>  <SCORE.INTRA.norm>
-0.103734

>  <SCORE.RESTR>
0

>  <SCORE.RESTR.CAVITY>
0

>  <SCORE.RESTR.norm>
0

>  <SCORE.SYSTEM>
0

>  <SCORE.SYSTEM.CONST>
0

>  <SCORE.SYSTEM.DIHEDRAL>
0

>  <SCORE.SYSTEM.SOLV>
0

>  <SCORE.SYSTEM.norm>
0

>  <SCORE.heavy>
12

>  <SCORE.norm>
-1.25137

>  <RMSD>
2.808

$$$$
ligand
 OpenBabel02271912143D
libRbt.so/2013.1/901 2013/11/27
 12 12  0  0  0  0  0  0  0  0999 V2000
  -21.5078  -11.5323   95.2814 C   0  0  0  0  0  0  0  0  0  0  0  0
  -19.9286   -6.2613   95.2704 C   0  0  0  0  0  0  0  0  0  0  0  0
  -23.1564   -9.5534   96.0555 N   0  0  0  0  0  0  0  0  0  0  0  0
  -20.4433  -12.5013   95.5788 N   0  0  0  0  0  0  0  0  0  0  0  0
  -20.7122  -13.5794   95.4306 N   0  0  0  0  0  0  0  0  0  0  0  0
  -20.9764  -14.6586   95.2840 N   0  0  0  0  0  0  0  0  0  0  0  0
  -19.4302   -8.5415   94.9152 N   0  0  0  0  0  0  0  0  0  0  0  0
  -20.3034   -7.5993   95.2951 C   0  0  0  0  0  0  0  0  0  0  0  0
  -21.5147   -7.9340   95.7639 N   0  0  0  0  0  0  0  0  0  0  0  0
  -21.8867   -9.2194   95.8526 C   0  0  0  0  0  0  0  0  0  0  0  0
  -21.0282  -10.2412   95.4638 C   0  0  0  0  0  0  0  0  0  0  0  0
  -19.7659   -9.8982   94.9944 C   0  0  0  0  0  0  0  0  0  0  0  0
  1 11  1  0  0  0  0
  1  4  1  0  0  0  0
  2  8  1  0  0  0  0
  3 10  1  0  0  0  0
  4  5  1  0  0  0  0
  5  6  1  0  0  0  0
  7  8  2  0  0  0  0
  7 12  1  0  0  0  0
  8  9  1  0  0  0  0
  9 10  2  0  0  0  0
 10 11  1  0  0  0  0
 11 12  2  0  0  0  0
M  END
>  <CHROM.1>
-150.24841009,-178.04531468,-179.43679498,-20.88879470,-10.14613359,95.43260703
1.64087261,-0.28437464,-3.12394455

>  <Name>
ligand

>  <RI>
0

>  <Rbt.Current_Directory>
/home/itssahil/PROJECTS/Mol_Feturizer/Test_systems_manuscript/rnas/4nya

>  <Rbt.Executable>
rbdock ($Id: //depot/dev/client3/rdock/2013.1/src/exe/rbdock.cxx#4 $)

>  <Rbt.Library>
libRbt.so (2013.1, Build901 2013/11/27)

>  <Rbt.Parameter_File>
/export/apps/rDock/src/rDock_2013.1_src/data/scripts/dock_solv.prm

>  <Rbt.Receptor>
prm/pocket_docking_6.prm

>  <SCORE>
-15.0099

>  <SCORE.INTER>
-13.7445

>  <SCORE.INTER.CONST>
1

>  <SCORE.INTER.POLAR>
0

>  <SCORE.INTER.ROT>
3

>  <SCORE.INTER.SOLV>
13.4976

>  <SCORE.INTER.VDW>
-19.2622

>  <SCORE.INTER.norm>
-1.14537

>  <SCORE.INTRA>
-1.26537

>  <SCORE.INTRA.DIHEDRAL>
-2.21173

>  <SCORE.INTRA.DIHEDRAL.0>
3.34563

>  <SCORE.INTRA.POLAR>
0

>  <SCORE.INTRA.POLAR.0>
0

>  <SCORE.INTRA.REPUL>
0

>  <SCORE.INTRA.REPUL.0>
0

>  <SCORE.INTRA.SOLV>
-1.25556

>  <SCORE.INTRA.SOLV.lig_0>
-59.746

>  <SCORE.INTRA.VDW>
0.468278

>  <SCORE.INTRA.VDW.0>
-0.691186

>  <SCORE.INTRA.norm>
-0.105447

>  <SCORE.RESTR>
0

>  <SCORE.RESTR.CAVITY>
0

>  <SCORE.RESTR.norm>
0

>  <SCORE.SYSTEM>
0

>  <SCORE.SYSTEM.CONST>
0

>  <SCORE.SYSTEM.DIHEDRAL>
0

>  <SCORE.SYSTEM.SOLV>
0

>  <SCORE.SYSTEM.norm>
0

>  <SCORE.heavy>
12

>  <SCORE.norm>
-1.25082

>  <RMSD>
2.808

$$$$
ligand
 OpenBabel02271912143D
libRbt.so/2013.1/901 2013/11/27
 12 12  0  0  0  0  0  0  0  0999 V2000
  -21.5120  -11.5304   95.2994 C   0  0  0  0  0  0  0  0  0  0  0  0
  -19.9222   -6.2627   95.2614 C   0  0  0  0  0  0  0  0  0  0  0  0
  -23.1685   -9.5409   96.0282 N   0  0  0  0  0  0  0  0  0  0  0  0
  -20.4439  -12.4976   95.5898 N   0  0  0  0  0  0  0  0  0  0  0  0
  -20.7095  -13.5757   95.4354 N   0  0  0  0  0  0  0  0  0  0  0  0
  -20.9791  -14.6529   95.2839 N   0  0  0  0  0  0  0  0  0  0  0  0
  -19.4230   -8.5471   94.9364 N   0  0  0  0  0  0  0  0  0  0  0  0
  -20.3000   -7.5996   95.2934 C   0  0  0  0  0  0  0  0  0  0  0  0
  -21.5192   -7.9275   95.7464 N   0  0  0  0  0  0  0  0  0  0  0  0
  -21.8951   -9.2112   95.8420 C   0  0  0  0  0  0  0  0  0  0  0  0
  -21.0327  -10.2384   95.4766 C   0  0  0  0  0  0  0  0  0  0  0  0
  -19.7625   -9.9024   95.0237 C   0  0  0  0  0  0  0  0  0  0  0  0
  1 11  1  0  0  0  0
  1  4  1  0  0  0  0
  2  8  1  0  0  0  0
  3 10  1  0  0  0  0
  4  5  1  0  0  0  0
  5  6  1  0  0  0  0
  7  8  2  0  0  0  0
  7 12  1  0  0  0  0
  8  9  1  0  0  0  0
  9 10  2  0  0  0  0
 10 11  1  0  0  0  0
 11 12  2  0  0  0  0
M  END
>  <CHROM.1>
-151.68364919,-177.47929298,-50.86516749,-20.88988536,-10.14330152,95.43488704
1.64057834,-0.27150839,-3.12646297

>  <Name>
ligand

>  <RI>
0

>  <Rbt.Current_Directory>
/home/itssahil/PROJECTS/Mol_Feturizer/Test_systems_manuscript/rnas/4nya

>  <Rbt.Executable>
rbdock ($Id: //depot/dev/client3/rdock/2013.1/src/exe/rbdock.cxx#4 $)

>  <Rbt.Library>
libRbt.so (2013.1, Build901 2013/11/27)

>  <Rbt.Parameter_File>
/export/apps/rDock/src/rDock_2013.1_src/data/scripts/dock_solv.prm

>  <Rbt.Receptor>
prm/pocket_docking_7.prm

>  <SCORE>
-15.0311

>  <SCORE.INTER>
-13.7924

>  <SCORE.INTER.CONST>
1

>  <SCORE.INTER.POLAR>
0

>  <SCORE.INTER.ROT>
3

>  <SCORE.INTER.SOLV>
13.5099

>  <SCORE.INTER.VDW>
-19.2982

>  <SCORE.INTER.norm>
-1.14936

>  <SCORE.INTRA>
-1.23868

>  <SCORE.INTRA.DIHEDRAL>
-2.2004

>  <SCORE.INTRA.DIHEDRAL.0>
3.34563

>  <SCORE.INTRA.POLAR>
0

>  <SCORE.INTRA.POLAR.0>
0

>  <SCORE.INTRA.REPUL>
0

>  <SCORE.INTRA.REPUL.0>
0

>  <SCORE.INTRA.SOLV>
-1.25947

>  <SCORE.INTRA.SOLV.lig_0>
-59.746

>  <SCORE.INTRA.VDW>
0.49125

>  <SCORE.INTRA.VDW.0>
-0.691186

>  <SCORE.INTRA.norm>
-0.103224

>  <SCORE.RESTR>
0

>  <SCORE.RESTR.CAVITY>
0

>  <SCORE.RESTR.norm>
0

>  <SCORE.SYSTEM>
0

>  <SCORE.SYSTEM.CONST>
0

>  <SCORE.SYSTEM.DIHEDRAL>
0

>  <SCORE.SYSTEM.SOLV>
0

>  <SCORE.SYSTEM.norm>
0

>  <SCORE.heavy>
12

>  <SCORE.norm>
-1.25259

>  <RMSD>
2.808

$$$$
ligand
 OpenBabel02271912143D
libRbt.so/2013.1/901 2013/11/27
 12 12  0  0  0  0  0  0  0  0999 V2000
  -21.5204  -11.5249   95.3114 C   0  0  0  0  0  0  0  0  0  0  0  0
  -19.9321   -6.2574   95.2201 C   0  0  0  0  0  0  0  0  0  0  0  0
  -23.1761   -9.5289   96.0242 N   0  0  0  0  0  0  0  0  0  0  0  0
  -20.4467  -12.4886   95.5922 N   0  0  0  0  0  0  0  0  0  0  0  0
  -20.7125  -13.5681   95.4475 N   0  0  0  0  0  0  0  0  0  0  0  0
  -20.9791  -14.6463   95.2980 N   0  0  0  0  0  0  0  0  0  0  0  0
  -19.4329   -8.5447   94.9160 N   0  0  0  0  0  0  0  0  0  0  0  0
  -20.3095   -7.5941   95.2656 C   0  0  0  0  0  0  0  0  0  0  0  0
  -21.5278   -7.9179   95.7239 N   0  0  0  0  0  0  0  0  0  0  0  0
  -21.9031   -9.2007   95.8324 C   0  0  0  0  0  0  0  0  0  0  0  0
  -21.0412  -10.2311   95.4753 C   0  0  0  0  0  0  0  0  0  0  0  0
  -19.7719   -9.8992   95.0168 C   0  0  0  0  0  0  0  0  0  0  0  0
  1 11  1  0  0  0  0
  1  4  1  0  0  0  0
  2  8  1  0  0  0  0
  3 10  1  0  0  0  0
  4  5  1  0  0  0  0
  5  6  1  0  0  0  0
  7  8  2  0  0  0  0
  7 12  1  0  0  0  0
  8  9  1  0  0  0  0
  9 10  2  0  0  0  0
 10 11  1  0  0  0  0
 11 12  2  0  0  0  0
M  END
>  <CHROM.1>
-152.40862034,-177.50987152,61.43612439,-20.89696145,-10.13624303,95.42707308
1.63914219,-0.27469044,-3.13306789

>  <Name>
ligand

>  <RI>
0

>  <Rbt.Current_Directory>
/home/itssahil/PROJECTS/Mol_Feturizer/Test_systems_manuscript/rnas/4nya

>  <Rbt.Executable>
rbdock ($Id: //depot/dev/client3/rdock/2013.1/src/exe/rbdock.cxx#4 $)

>  <Rbt.Library>
libRbt.so (2013.1, Build901 2013/11/27)

>  <Rbt.Parameter_File>
/export/apps/rDock/src/rDock_2013.1_src/data/scripts/dock_solv.prm

>  <Rbt.Receptor>
prm/pocket_docking_8.prm

>  <SCORE>
-15.0215

>  <SCORE.INTER>
-13.778

>  <SCORE.INTER.CONST>
1

>  <SCORE.INTER.POLAR>
0

>  <SCORE.INTER.ROT>
3

>  <SCORE.INTER.SOLV>
13.5493

>  <SCORE.INTER.VDW>
-19.3018

>  <SCORE.INTER.norm>
-1.14817

>  <SCORE.INTRA>
-1.2435

>  <SCORE.INTRA.DIHEDRAL>
-2.22782

>  <SCORE.INTRA.DIHEDRAL.0>
3.34563

>  <SCORE.INTRA.POLAR>
0

>  <SCORE.INTRA.POLAR.0>
0

>  <SCORE.INTRA.REPUL>
0

>  <SCORE.INTRA.REPUL.0>
0

>  <SCORE.INTRA.SOLV>
-1.26399

>  <SCORE.INTRA.SOLV.lig_0>
-59.746

>  <SCORE.INTRA.VDW>
0.502399

>  <SCORE.INTRA.VDW.0>
-0.691186

>  <SCORE.INTRA.norm>
-0.103625

>  <SCORE.RESTR>
0

>  <SCORE.RESTR.CAVITY>
0

>  <SCORE.RESTR.norm>
0

>  <SCORE.SYSTEM>
0

>  <SCORE.SYSTEM.CONST>
0

>  <SCORE.SYSTEM.DIHEDRAL>
0

>  <SCORE.SYSTEM.SOLV>
0

>  <SCORE.SYSTEM.norm>
0

>  <SCORE.heavy>
12

>  <SCORE.norm>
-1.25179

>  <RMSD>
2.808

$$$$
ligand
 OpenBabel02271912143D
libRbt.so/2013.1/901 2013/11/27
 12 12  0  0  0  0  0  0  0  0999 V2000
  -21.5101  -11.5293   95.2931 C   0  0  0  0  0  0  0  0  0  0  0  0
  -19.9366   -6.2567   95.2481 C   0  0  0  0  0  0  0  0  0  0  0  0
  -23.1615   -9.5471   96.0525 N   0  0  0  0  0  0  0  0  0  0  0  0
  -20.4413  -12.4948   95.5864 N   0  0  0  0  0  0  0  0  0  0  0  0
  -20.7118  -13.5745   95.4532 N   0  0  0  0  0  0  0  0  0  0  0  0
  -20.9775  -14.6553   95.3218 N   0  0  0  0  0  0  0  0  0  0  0  0
  -19.4355   -8.5387   94.9087 N   0  0  0  0  0  0  0  0  0  0  0  0
  -20.3100   -7.5949   95.2815 C   0  0  0  0  0  0  0  0  0  0  0  0
  -21.5213   -7.9279   95.7515 N   0  0  0  0  0  0  0  0  0  0  0  0
  -21.8920   -9.2130   95.8485 C   0  0  0  0  0  0  0  0  0  0  0  0
  -21.0321  -10.2364   95.4673 C   0  0  0  0  0  0  0  0  0  0  0  0
  -19.7697   -9.8952   94.9966 C   0  0  0  0  0  0  0  0  0  0  0  0
  1 11  1  0  0  0  0
  1  4  1  0  0  0  0
  2  8  1  0  0  0  0
  3 10  1  0  0  0  0
  4  5  1  0  0  0  0
  5  6  1  0  0  0  0
  7  8  2  0  0  0  0
  7 12  1  0  0  0  0
  8  9  1  0  0  0  0
  9 10  2  0  0  0  0
 10 11  1  0  0  0  0
 11 12  2  0  0  0  0
M  END
>  <CHROM.1>
-150.74798263,-178.58939342,-176.61444219,-20.89256914,-10.14144761,95.43466743
1.63971104,-0.28376529,-3.13069989

>  <Name>
ligand

>  <RI>
0

>  <Rbt.Current_Directory>
/home/itssahil/PROJECTS/Mol_Feturizer/Test_systems_manuscript/rnas/4nya

>  <Rbt.Executable>
rbdock ($Id: //depot/dev/client3/rdock/2013.1/src/exe/rbdock.cxx#4 $)

>  <Rbt.Library>
libRbt.so (2013.1, Build901 2013/11/27)

>  <Rbt.Parameter_File>
/export/apps/rDock/src/rDock_2013.1_src/data/scripts/dock_solv.prm

>  <Rbt.Receptor>
prm/pocket_docking_8.prm

>  <SCORE>
-15.0327

>  <SCORE.INTER>
-13.7712

>  <SCORE.INTER.CONST>
1

>  <SCORE.INTER.POLAR>
0

>  <SCORE.INTER.ROT>
3

>  <SCORE.INTER.SOLV>
13.5755

>  <SCORE.INTER.VDW>
-19.306

>  <SCORE.INTER.norm>
-1.1476

>  <SCORE.INTRA>
-1.26146

>  <SCORE.INTRA.DIHEDRAL>
-2.21511

>  <SCORE.INTRA.DIHEDRAL.0>
3.34563

>  <SCORE.INTRA.POLAR>
0

>  <SCORE.INTRA.POLAR.0>
0

>  <SCORE.INTRA.REPUL>
0

>  <SCORE.INTRA.REPUL.0>
0

>  <SCORE.INTRA.SOLV>
-1.25962

>  <SCORE.INTRA.SOLV.lig_0>
-59.746

>  <SCORE.INTRA.VDW>
0.475901

>  <SCORE.INTRA.VDW.0>
-0.691186

>  <SCORE.INTRA.norm>
-0.105122

>  <SCORE.RESTR>
0

>  <SCORE.RESTR.CAVITY>
0

>  <SCORE.RESTR.norm>
0

>  <SCORE.SYSTEM>
0

>  <SCORE.SYSTEM.CONST>
0

>  <SCORE.SYSTEM.DIHEDRAL>
0

>  <SCORE.SYSTEM.SOLV>
0

>  <SCORE.SYSTEM.norm>
0

>  <SCORE.heavy>
12

>  <SCORE.norm>
-1.25272

>  <RMSD>
2.808

$$$$
ligand
 OpenBabel02271912143D
libRbt.so/2013.1/901 2013/11/27
 12 12  0  0  0  0  0  0  0  0999 V2000
  -21.5368  -11.5416   95.3771 C   0  0  0  0  0  0  0  0  0  0  0  0
  -19.9457   -6.2762   95.2290 C   0  0  0  0  0  0  0  0  0  0  0  0
  -23.2000   -9.5353   96.0416 N   0  0  0  0  0  0  0  0  0  0  0  0
  -20.4410  -12.4992   95.5840 N   0  0  0  0  0  0  0  0  0  0  0  0
  -20.7031  -13.5782   95.4302 N   0  0  0  0  0  0  0  0  0  0  0  0
  -20.9686  -14.6566   95.2800 N   0  0  0  0  0  0  0  0  0  0  0  0
  -19.4436   -8.5677   94.9637 N   0  0  0  0  0  0  0  0  0  0  0  0
  -20.3241   -7.6120   95.2892 C   0  0  0  0  0  0  0  0  0  0  0  0
  -21.5477   -7.9290   95.7377 N   0  0  0  0  0  0  0  0  0  0  0  0
  -21.9248   -9.2101   95.8602 C   0  0  0  0  0  0  0  0  0  0  0  0
  -21.0590  -10.2457   95.5282 C   0  0  0  0  0  0  0  0  0  0  0  0
  -19.7843   -9.9206   95.0800 C   0  0  0  0  0  0  0  0  0  0  0  0
  1 11  1  0  0  0  0
  1  4  1  0  0  0  0
  2  8  1  0  0  0  0
  3 10  1  0  0  0  0
  4  5  1  0  0  0  0
  5  6  1  0  0  0  0
  7  8  2  0  0  0  0
  7 12  1  0  0  0  0
  8  9  1  0  0  0  0
  9 10  2  0  0  0  0
 10 11  1  0  0  0  0
 11 12  2  0  0  0  0
M  END
>  <CHROM.1>
-156.70162663,-176.78983268,-59.27278647,-20.90712625,-10.15040408,95.44918356
1.63378582,-0.27103037,-3.12987732

>  <Name>
ligand

>  <RI>
0

>  <Rbt.Current_Directory>
/home/itssahil/PROJECTS/Mol_Feturizer/Test_systems_manuscript/rnas/4nya

>  <Rbt.Executable>
rbdock ($Id: //depot/dev/client3/rdock/2013.1/src/exe/rbdock.cxx#4 $)

>  <Rbt.Library>
libRbt.so (2013.1, Build901 2013/11/27)

>  <Rbt.Parameter_File>
/export/apps/rDock/src/rDock_2013.1_src/data/scripts/dock_solv.prm

>  <Rbt.Receptor>
prm/pocket_docking_4.prm

>  <SCORE>
-15.0444

>  <SCORE.INTER>
-13.8549

>  <SCORE.INTER.CONST>
1

>  <SCORE.INTER.POLAR>
0

>  <SCORE.INTER.ROT>
3

>  <SCORE.INTER.SOLV>
13.4836

>  <SCORE.INTER.VDW>
-19.3312

>  <SCORE.INTER.norm>
-1.15458

>  <SCORE.INTRA>
-1.18945

>  <SCORE.INTRA.DIHEDRAL>
-2.23999

>  <SCORE.INTRA.DIHEDRAL.0>
3.34563

>  <SCORE.INTRA.POLAR>
0

>  <SCORE.INTRA.POLAR.0>
0

>  <SCORE.INTRA.REPUL>
0

>  <SCORE.INTRA.REPUL.0>
0

>  <SCORE.INTRA.SOLV>
-1.2842

>  <SCORE.INTRA.SOLV.lig_0>
-59.746

>  <SCORE.INTRA.VDW>
0.572644

>  <SCORE.INTRA.VDW.0>
-0.691186

>  <SCORE.INTRA.norm>
-0.099121

>  <SCORE.RESTR>
0

>  <SCORE.RESTR.CAVITY>
0

>  <SCORE.RESTR.norm>
0

>  <SCORE.SYSTEM>
0

>  <SCORE.SYSTEM.CONST>
0

>  <SCORE.SYSTEM.DIHEDRAL>
0

>  <SCORE.SYSTEM.SOLV>
0

>  <SCORE.SYSTEM.norm>
0

>  <SCORE.heavy>
12

>  <SCORE.norm>
-1.2537

>  <RMSD>
2.809

$$$$
ligand
 OpenBabel02271912143D
libRbt.so/2013.1/901 2013/11/27
 12 12  0  0  0  0  0  0  0  0999 V2000
  -21.5187  -11.5265   95.3080 C   0  0  0  0  0  0  0  0  0  0  0  0
  -19.9321   -6.2583   95.2288 C   0  0  0  0  0  0  0  0  0  0  0  0
  -23.1732   -9.5332   96.0309 N   0  0  0  0  0  0  0  0  0  0  0  0
  -20.4476  -12.4911   95.5958 N   0  0  0  0  0  0  0  0  0  0  0  0
  -20.7091  -13.5695   95.4367 N   0  0  0  0  0  0  0  0  0  0  0  0
  -20.9744  -14.6472   95.2810 N   0  0  0  0  0  0  0  0  0  0  0  0
  -19.4329   -8.5445   94.9166 N   0  0  0  0  0  0  0  0  0  0  0  0
  -20.3090   -7.5952   95.2711 C   0  0  0  0  0  0  0  0  0  0  0  0
  -21.5260   -7.9208   95.7315 N   0  0  0  0  0  0  0  0  0  0  0  0
  -21.9008   -9.2041   95.8370 C   0  0  0  0  0  0  0  0  0  0  0  0
  -21.0394  -10.2331   95.4747 C   0  0  0  0  0  0  0  0  0  0  0  0
  -19.7713   -9.8994   95.0141 C   0  0  0  0  0  0  0  0  0  0  0  0
  1 11  1  0  0  0  0
  1  4  1  0  0  0  0
  2  8  1  0  0  0  0
  3 10  1  0  0  0  0
  4  5  1  0  0  0  0
  5  6  1  0  0  0  0
  7  8  2  0  0  0  0
  7 12  1  0  0  0  0
  8  9  1  0  0  0  0
  9 10  2  0  0  0  0
 10 11  1  0  0  0  0
 11 12  2  0  0  0  0
M  END
>  <CHROM.1>
-151.87194885,-176.73523774,-58.15939746,-20.89538882,-10.13800218,95.42729641
1.63880106,-0.27686356,-3.13042320

>  <Name>
ligand

>  <RI>
0

>  <Rbt.Current_Directory>
/home/itssahil/PROJECTS/Mol_Feturizer/Test_systems_manuscript/rnas/4nya

>  <Rbt.Executable>
rbdock ($Id: //depot/dev/client3/rdock/2013.1/src/exe/rbdock.cxx#4 $)

>  <Rbt.Library>
libRbt.so (2013.1, Build901 2013/11/27)

>  <Rbt.Parameter_File>
/export/apps/rDock/src/rDock_2013.1_src/data/scripts/dock_solv.prm

>  <Rbt.Receptor>
prm/pocket_docking_4.prm

>  <SCORE>
-15.0183

>  <SCORE.INTER>
-13.7726

>  <SCORE.INTER.CONST>
1

>  <SCORE.INTER.POLAR>
0

>  <SCORE.INTER.ROT>
3

>  <SCORE.INTER.SOLV>
13.5346

>  <SCORE.INTER.VDW>
-19.2932

>  <SCORE.INTER.norm>
-1.14771

>  <SCORE.INTRA>
-1.24572

>  <SCORE.INTRA.DIHEDRAL>
-2.21987

>  <SCORE.INTRA.DIHEDRAL.0>
3.34563

>  <SCORE.INTRA.POLAR>
0

>  <SCORE.INTRA.POLAR.0>
0

>  <SCORE.INTRA.REPUL>
0

>  <SCORE.INTRA.REPUL.0>
0

>  <SCORE.INTRA.SOLV>
-1.25927

>  <SCORE.INTRA.SOLV.lig_0>
-59.746

>  <SCORE.INTRA.VDW>
0.493852

>  <SCORE.INTRA.VDW.0>
-0.691186

>  <SCORE.INTRA.norm>
-0.10381

>  <SCORE.RESTR>
0

>  <SCORE.RESTR.CAVITY>
0

>  <SCORE.RESTR.norm>
0

>  <SCORE.SYSTEM>
0

>  <SCORE.SYSTEM.CONST>
0

>  <SCORE.SYSTEM.DIHEDRAL>
0

>  <SCORE.SYSTEM.SOLV>
0

>  <SCORE.SYSTEM.norm>
0

>  <SCORE.heavy>
12

>  <SCORE.norm>
-1.25152

>  <RMSD>
2.809

$$$$
ligand
 OpenBabel02271912143D
libRbt.so/2013.1/901 2013/11/27
 12 12  0  0  0  0  0  0  0  0999 V2000
  -21.5136  -11.5274   95.2991 C   0  0  0  0  0  0  0  0  0  0  0  0
  -19.9294   -6.2583   95.2331 C   0  0  0  0  0  0  0  0  0  0  0  0
  -23.1602   -9.5390   96.0525 N   0  0  0  0  0  0  0  0  0  0  0  0
  -20.4447  -12.4939   95.5889 N   0  0  0  0  0  0  0  0  0  0  0  0
  -20.7112  -13.5725   95.4395 N   0  0  0  0  0  0  0  0  0  0  0  0
  -20.9728  -14.6521   95.2917 N   0  0  0  0  0  0  0  0  0  0  0  0
  -19.4332   -8.5425   94.9017 N   0  0  0  0  0  0  0  0  0  0  0  0
  -20.3054   -7.5956   95.2718 C   0  0  0  0  0  0  0  0  0  0  0  0
  -21.5170   -7.9243   95.7440 N   0  0  0  0  0  0  0  0  0  0  0  0
  -21.8902   -9.2083   95.8462 C   0  0  0  0  0  0  0  0  0  0  0  0
  -21.0328  -10.2349   95.4680 C   0  0  0  0  0  0  0  0  0  0  0  0
  -19.7701   -9.8981   94.9950 C   0  0  0  0  0  0  0  0  0  0  0  0
  1 11  1  0  0  0  0
  1  4  1  0  0  0  0
  2  8  1  0  0  0  0
  3 10  1  0  0  0  0
  4  5  1  0  0  0  0
  5  6  1  0  0  0  0
  7  8  2  0  0  0  0
  7 12  1  0  0  0  0
  8  9  1  0  0  0  0
  9 10  2  0  0  0  0
 10 11  1  0  0  0  0
 11 12  2  0  0  0  0
M  END
>  <CHROM.1>
-151.01090680,-177.40236482,-179.32521706,-20.89095908,-10.14002816,95.42798155
1.63995651,-0.28621500,-3.12955309

>  <Name>
ligand

>  <RI>
0

>  <Rbt.Current_Directory>
/home/itssahil/PROJECTS/Mol_Feturizer/Test_systems_manuscript/rnas/4nya

>  <Rbt.Executable>
rbdock ($Id: //depot/dev/client3/rdock/2013.1/src/exe/rbdock.cxx#4 $)

>  <Rbt.Library>
libRbt.so (2013.1, Build901 2013/11/27)

>  <Rbt.Parameter_File>
/export/apps/rDock/src/rDock_2013.1_src/data/scripts/dock_solv.prm

>  <Rbt.Receptor>
prm/pocket_docking_4.prm

>  <SCORE>
-15.0185

>  <SCORE.INTER>
-13.7603

>  <SCORE.INTER.CONST>
1

>  <SCORE.INTER.POLAR>
0

>  <SCORE.INTER.ROT>
3

>  <SCORE.INTER.SOLV>
13.5508

>  <SCORE.INTER.VDW>
-19.2905

>  <SCORE.INTER.norm>
-1.14669

>  <SCORE.INTRA>
-1.25822

>  <SCORE.INTRA.DIHEDRAL>
-2.21665

>  <SCORE.INTRA.DIHEDRAL.0>
3.34563

>  <SCORE.INTRA.POLAR>
0

>  <SCORE.INTRA.POLAR.0>
0

>  <SCORE.INTRA.REPUL>
0

>  <SCORE.INTRA.REPUL.0>
0

>  <SCORE.INTRA.SOLV>
-1.2589

>  <SCORE.INTRA.SOLV.lig_0>
-59.746

>  <SCORE.INTRA.VDW>
0.479556

>  <SCORE.INTRA.VDW.0>
-0.691186

>  <SCORE.INTRA.norm>
-0.104851

>  <SCORE.RESTR>
0

>  <SCORE.RESTR.CAVITY>
0

>  <SCORE.RESTR.norm>
0

>  <SCORE.SYSTEM>
0

>  <SCORE.SYSTEM.CONST>
0

>  <SCORE.SYSTEM.DIHEDRAL>
0

>  <SCORE.SYSTEM.SOLV>
0

>  <SCORE.SYSTEM.norm>
0

>  <SCORE.heavy>
12

>  <SCORE.norm>
-1.25154

>  <RMSD>
2.809

$$$$
ligand
 OpenBabel02271912143D
libRbt.so/2013.1/901 2013/11/27
 12 12  0  0  0  0  0  0  0  0999 V2000
  -21.5234  -11.5913   95.3411 C   0  0  0  0  0  0  0  0  0  0  0  0
  -19.9291   -6.3249   95.3111 C   0  0  0  0  0  0  0  0  0  0  0  0
  -23.1816   -9.6005   96.0622 N   0  0  0  0  0  0  0  0  0  0  0  0
  -20.4551  -12.5591   95.6285 N   0  0  0  0  0  0  0  0  0  0  0  0
  -20.7128  -13.6352   95.4481 N   0  0  0  0  0  0  0  0  0  0  0  0
  -20.9749  -14.7101   95.2700 N   0  0  0  0  0  0  0  0  0  0  0  0
  -19.4302   -8.6097   94.9883 N   0  0  0  0  0  0  0  0  0  0  0  0
  -20.3081   -7.6615   95.3412 C   0  0  0  0  0  0  0  0  0  0  0  0
  -21.5297   -7.9884   95.7884 N   0  0  0  0  0  0  0  0  0  0  0  0
  -21.9071   -9.2719   95.8820 C   0  0  0  0  0  0  0  0  0  0  0  0
  -21.0439  -10.2997   95.5207 C   0  0  0  0  0  0  0  0  0  0  0  0
  -19.7713   -9.9648   95.0738 C   0  0  0  0  0  0  0  0  0  0  0  0
  1 11  1  0  0  0  0
  1  4  1  0  0  0  0
  2  8  1  0  0  0  0
  3 10  1  0  0  0  0
  4  5  1  0  0  0  0
  5  6  1  0  0  0  0
  7  8  2  0  0  0  0
  7 12  1  0  0  0  0
  8  9  1  0  0  0  0
  9 10  2  0  0  0  0
 10 11  1  0  0  0  0
 11 12  2  0  0  0  0
M  END
>  <CHROM.1>
-152.03030703,-176.04412847,-43.48208938,-20.89808134,-10.20417091,95.47108262
1.63900577,-0.26879267,-3.12090273

>  <Name>
ligand

>  <RI>
0

>  <Rbt.Current_Directory>
/home/itssahil/PROJECTS/Mol_Feturizer/Test_systems_manuscript/rnas/4nya

>  <Rbt.Executable>
rbdock ($Id: //depot/dev/client3/rdock/2013.1/src/exe/rbdock.cxx#4 $)

>  <Rbt.Library>
libRbt.so (2013.1, Build901 2013/11/27)

>  <Rbt.Parameter_File>
/export/apps/rDock/src/rDock_2013.1_src/data/scripts/dock_solv.prm

>  <Rbt.Receptor>
prm/pocket_docking_4.prm

>  <SCORE>
-14.9816

>  <SCORE.INTER>
-13.7749

>  <SCORE.INTER.CONST>
1

>  <SCORE.INTER.POLAR>
0

>  <SCORE.INTER.ROT>
3

>  <SCORE.INTER.SOLV>
13.3498

>  <SCORE.INTER.VDW>
-19.2332

>  <SCORE.INTER.norm>
-1.14791

>  <SCORE.INTRA>
-1.20672

>  <SCORE.INTRA.DIHEDRAL>
-2.14767

>  <SCORE.INTRA.DIHEDRAL.0>
3.34563

>  <SCORE.INTRA.POLAR>
0

>  <SCORE.INTRA.POLAR.0>
0

>  <SCORE.INTRA.REPUL>
0

>  <SCORE.INTRA.REPUL.0>
0

>  <SCORE.INTRA.SOLV>
-1.25829

>  <SCORE.INTRA.SOLV.lig_0>
-59.746

>  <SCORE.INTRA.VDW>
0.496259

>  <SCORE.INTRA.VDW.0>
-0.691186

>  <SCORE.INTRA.norm>
-0.10056

>  <SCORE.RESTR>
0

>  <SCORE.RESTR.CAVITY>
0

>  <SCORE.RESTR.norm>
0

>  <SCORE.SYSTEM>
0

>  <SCORE.SYSTEM.CONST>
0

>  <SCORE.SYSTEM.DIHEDRAL>
0

>  <SCORE.SYSTEM.SOLV>
0

>  <SCORE.SYSTEM.norm>
0

>  <SCORE.heavy>
12

>  <SCORE.norm>
-1.24847

>  <RMSD>
2.809

$$$$
ligand
 OpenBabel02271912143D
libRbt.so/2013.1/901 2013/11/27
 12 12  0  0  0  0  0  0  0  0999 V2000
  -21.5142  -11.5632   95.3610 C   0  0  0  0  0  0  0  0  0  0  0  0
  -19.8924   -6.3062   95.2539 C   0  0  0  0  0  0  0  0  0  0  0  0
  -23.1549   -9.5552   96.0744 N   0  0  0  0  0  0  0  0  0  0  0  0
  -20.4432  -12.5330   95.6308 N   0  0  0  0  0  0  0  0  0  0  0  0
  -20.7055  -13.6085   95.4539 N   0  0  0  0  0  0  0  0  0  0  0  0
  -20.9685  -14.6826   95.2721 N   0  0  0  0  0  0  0  0  0  0  0  0
  -19.4087   -8.5973   94.9532 N   0  0  0  0  0  0  0  0  0  0  0  0
  -20.2782   -7.6403   95.3033 C   0  0  0  0  0  0  0  0  0  0  0  0
  -21.4972   -7.9554   95.7659 N   0  0  0  0  0  0  0  0  0  0  0  0
  -21.8804   -9.2355   95.8782 C   0  0  0  0  0  0  0  0  0  0  0  0
  -21.0261  -10.2722   95.5208 C   0  0  0  0  0  0  0  0  0  0  0  0
  -19.7561   -9.9494   95.0579 C   0  0  0  0  0  0  0  0  0  0  0  0
  1 11  1  0  0  0  0
  1  4  1  0  0  0  0
  2  8  1  0  0  0  0
  3 10  1  0  0  0  0
  4  5  1  0  0  0  0
  5  6  1  0  0  0  0
  7  8  2  0  0  0  0
  7 12  1  0  0  0  0
  8  9  1  0  0  0  0
  9 10  2  0  0  0  0
 10 11  1  0  0  0  0
 11 12  2  0  0  0  0
M  END
>  <CHROM.1>
-152.83357118,-175.46070715,62.68103648,-20.87794046,-10.17761271,95.46013004
1.64268795,-0.28040459,-3.12605989

>  <Name>
ligand

>  <RI>
0

>  <Rbt.Current_Directory>
/home/itssahil/PROJECTS/Mol_Feturizer/Test_systems_manuscript/rnas/4nya

>  <Rbt.Executable>
rbdock ($Id: //depot/dev/client3/rdock/2013.1/src/exe/rbdock.cxx#4 $)

>  <Rbt.Library>
libRbt.so (2013.1, Build901 2013/11/27)

>  <Rbt.Parameter_File>
/export/apps/rDock/src/rDock_2013.1_src/data/scripts/dock_solv.prm

>  <Rbt.Receptor>
prm/pocket_docking_5.prm

>  <SCORE>
-15.0112

>  <SCORE.INTER>
-13.7799

>  <SCORE.INTER.CONST>
1

>  <SCORE.INTER.POLAR>
0

>  <SCORE.INTER.ROT>
3

>  <SCORE.INTER.SOLV>
13.5221

>  <SCORE.INTER.VDW>
-19.294

>  <SCORE.INTER.norm>
-1.14832

>  <SCORE.INTRA>
-1.23135

>  <SCORE.INTRA.DIHEDRAL>
-2.21744

>  <SCORE.INTRA.DIHEDRAL.0>
3.34563

>  <SCORE.INTRA.POLAR>
0

>  <SCORE.INTRA.POLAR.0>
0

>  <SCORE.INTRA.REPUL>
0

>  <SCORE.INTRA.REPUL.0>
0

>  <SCORE.INTRA.SOLV>
-1.26213

>  <SCORE.INTRA.SOLV.lig_0>
-59.746

>  <SCORE.INTRA.VDW>
0.508434

>  <SCORE.INTRA.VDW.0>
-0.691186

>  <SCORE.INTRA.norm>
-0.102612

>  <SCORE.RESTR>
0

>  <SCORE.RESTR.CAVITY>
0

>  <SCORE.RESTR.norm>
0

>  <SCORE.SYSTEM>
0

>  <SCORE.SYSTEM.CONST>
0

>  <SCORE.SYSTEM.DIHEDRAL>
0

>  <SCORE.SYSTEM.SOLV>
0

>  <SCORE.SYSTEM.norm>
0

>  <SCORE.heavy>
12

>  <SCORE.norm>
-1.25094

>  <RMSD>
2.809

$$$$
ligand
 OpenBabel02271912143D
libRbt.so/2013.1/901 2013/11/27
 12 12  0  0  0  0  0  0  0  0999 V2000
  -21.5013  -11.5384   95.3022 C   0  0  0  0  0  0  0  0  0  0  0  0
  -19.9245   -6.2667   95.2707 C   0  0  0  0  0  0  0  0  0  0  0  0
  -23.1521   -9.5569   96.0649 N   0  0  0  0  0  0  0  0  0  0  0  0
  -20.4330  -12.5052   95.5928 N   0  0  0  0  0  0  0  0  0  0  0  0
  -20.7051  -13.5846   95.4605 N   0  0  0  0  0  0  0  0  0  0  0  0
  -20.9781  -14.6629   95.3232 N   0  0  0  0  0  0  0  0  0  0  0  0
  -19.4245   -8.5482   94.9263 N   0  0  0  0  0  0  0  0  0  0  0  0
  -20.2987   -7.6048   95.3007 C   0  0  0  0  0  0  0  0  0  0  0  0
  -21.5107   -7.9380   95.7689 N   0  0  0  0  0  0  0  0  0  0  0  0
  -21.8822   -9.2231   95.8627 C   0  0  0  0  0  0  0  0  0  0  0  0
  -21.0226  -10.2462   95.4797 C   0  0  0  0  0  0  0  0  0  0  0  0
  -19.7597   -9.9048   95.0109 C   0  0  0  0  0  0  0  0  0  0  0  0
  1 11  1  0  0  0  0
  1  4  1  0  0  0  0
  2  8  1  0  0  0  0
  3 10  1  0  0  0  0
  4  5  1  0  0  0  0
  5  6  1  0  0  0  0
  7  8  2  0  0  0  0
  7 12  1  0  0  0  0
  8  9  1  0  0  0  0
  9 10  2  0  0  0  0
 10 11  1  0  0  0  0
 11 12  2  0  0  0  0
M  END
>  <CHROM.1>
-150.80061076,-178.80706745,62.30444238,-20.88369054,-10.15111299,95.44747119
1.64099004,-0.28294416,-3.12806588

>  <Name>
ligand

>  <RI>
0

>  <Rbt.Current_Directory>
/home/itssahil/PROJECTS/Mol_Feturizer/Test_systems_manuscript/rnas/4nya

>  <Rbt.Executable>
rbdock ($Id: //depot/dev/client3/rdock/2013.1/src/exe/rbdock.cxx#4 $)

>  <Rbt.Library>
libRbt.so (2013.1, Build901 2013/11/27)

>  <Rbt.Parameter_File>
/export/apps/rDock/src/rDock_2013.1_src/data/scripts/dock_solv.prm

>  <Rbt.Receptor>
prm/pocket_docking_5.prm

>  <SCORE>
-15.0066

>  <SCORE.INTER>
-13.7472

>  <SCORE.INTER.CONST>
1

>  <SCORE.INTER.POLAR>
0

>  <SCORE.INTER.ROT>
3

>  <SCORE.INTER.SOLV>
13.5859

>  <SCORE.INTER.VDW>
-19.2934

>  <SCORE.INTER.norm>
-1.1456

>  <SCORE.INTRA>
-1.25947

>  <SCORE.INTRA.DIHEDRAL>
-2.21775

>  <SCORE.INTRA.DIHEDRAL.0>
3.34563

>  <SCORE.INTRA.POLAR>
0

>  <SCORE.INTRA.POLAR.0>
0

>  <SCORE.INTRA.REPUL>
0

>  <SCORE.INTRA.REPUL.0>
0

>  <SCORE.INTRA.SOLV>
-1.25717

>  <SCORE.INTRA.SOLV.lig_0>
-59.746

>  <SCORE.INTRA.VDW>
0.477984

>  <SCORE.INTRA.VDW.0>
-0.691186

>  <SCORE.INTRA.norm>
-0.104956

>  <SCORE.RESTR>
0

>  <SCORE.RESTR.CAVITY>
0

>  <SCORE.RESTR.norm>
0

>  <SCORE.SYSTEM>
0

>  <SCORE.SYSTEM.CONST>
0

>  <SCORE.SYSTEM.DIHEDRAL>
0

>  <SCORE.SYSTEM.SOLV>
0

>  <SCORE.SYSTEM.norm>
0

>  <SCORE.heavy>
12

>  <SCORE.norm>
-1.25055

>  <RMSD>
2.809

$$$$
ligand
 OpenBabel02271912143D
libRbt.so/2013.1/901 2013/11/27
 12 12  0  0  0  0  0  0  0  0999 V2000
  -21.5229  -11.5480   95.3721 C   0  0  0  0  0  0  0  0  0  0  0  0
  -19.9379   -6.2799   95.2610 C   0  0  0  0  0  0  0  0  0  0  0  0
  -23.1740   -9.5519   96.0948 N   0  0  0  0  0  0  0  0  0  0  0  0
  -20.4328  -12.5093   95.5915 N   0  0  0  0  0  0  0  0  0  0  0  0
  -20.7030  -13.5892   95.4584 N   0  0  0  0  0  0  0  0  0  0  0  0
  -20.9683  -14.6700   95.3267 N   0  0  0  0  0  0  0  0  0  0  0  0
  -19.4399   -8.5675   94.9563 N   0  0  0  0  0  0  0  0  0  0  0  0
  -20.3143   -7.6167   95.3113 C   0  0  0  0  0  0  0  0  0  0  0  0
  -21.5288   -7.9405   95.7795 N   0  0  0  0  0  0  0  0  0  0  0  0
  -21.9027   -9.2233   95.8927 C   0  0  0  0  0  0  0  0  0  0  0  0
  -21.0430  -10.2538   95.5305 C   0  0  0  0  0  0  0  0  0  0  0  0
  -19.7775   -9.9220   95.0617 C   0  0  0  0  0  0  0  0  0  0  0  0
  1 11  1  0  0  0  0
  1  4  1  0  0  0  0
  2  8  1  0  0  0  0
  3 10  1  0  0  0  0
  4  5  1  0  0  0  0
  5  6  1  0  0  0  0
  7  8  2  0  0  0  0
  7 12  1  0  0  0  0
  8  9  1  0  0  0  0
  9 10  2  0  0  0  0
 10 11  1  0  0  0  0
 11 12  2  0  0  0  0
M  END
>  <CHROM.1>
-154.73666880,-178.27100561,-177.52791054,-20.89613134,-10.15877607,95.46939084
1.63634494,-0.28552715,-3.12872171

>  <Name>
ligand

>  <RI>
0

>  <Rbt.Current_Directory>
/home/itssahil/PROJECTS/Mol_Feturizer/Test_systems_manuscript/rnas/4nya

>  <Rbt.Executable>
rbdock ($Id: //depot/dev/client3/rdock/2013.1/src/exe/rbdock.cxx#4 $)

>  <Rbt.Library>
libRbt.so (2013.1, Build901 2013/11/27)

>  <Rbt.Parameter_File>
/export/apps/rDock/src/rDock_2013.1_src/data/scripts/dock_solv.prm

>  <Rbt.Receptor>
prm/pocket_docking_6.prm

>  <SCORE>
-15.057

>  <SCORE.INTER>
-13.8348

>  <SCORE.INTER.CONST>
1

>  <SCORE.INTER.POLAR>
0

>  <SCORE.INTER.ROT>
3

>  <SCORE.INTER.SOLV>
13.5663

>  <SCORE.INTER.VDW>
-19.3453

>  <SCORE.INTER.norm>
-1.1529

>  <SCORE.INTRA>
-1.22223

>  <SCORE.INTRA.DIHEDRAL>
-2.24117

>  <SCORE.INTRA.DIHEDRAL.0>
3.34563

>  <SCORE.INTRA.POLAR>
0

>  <SCORE.INTRA.POLAR.0>
0

>  <SCORE.INTRA.REPUL>
0

>  <SCORE.INTRA.REPUL.0>
0

>  <SCORE.INTRA.SOLV>
-1.28091

>  <SCORE.INTRA.SOLV.lig_0>
-59.746

>  <SCORE.INTRA.VDW>
0.538811

>  <SCORE.INTRA.VDW.0>
-0.691186

>  <SCORE.INTRA.norm>
-0.101853

>  <SCORE.RESTR>
0

>  <SCORE.RESTR.CAVITY>
0

>  <SCORE.RESTR.norm>
0

>  <SCORE.SYSTEM>
0

>  <SCORE.SYSTEM.CONST>
0

>  <SCORE.SYSTEM.DIHEDRAL>
0

>  <SCORE.SYSTEM.SOLV>
0

>  <SCORE.SYSTEM.norm>
0

>  <SCORE.heavy>
12

>  <SCORE.norm>
-1.25475

>  <RMSD>
2.809

$$$$
ligand
 OpenBabel02271912143D
libRbt.so/2013.1/901 2013/11/27
 12 12  0  0  0  0  0  0  0  0999 V2000
  -21.5106  -11.5303   95.3109 C   0  0  0  0  0  0  0  0  0  0  0  0
  -19.9323   -6.2597   95.2271 C   0  0  0  0  0  0  0  0  0  0  0  0
  -23.1599   -9.5411   96.0567 N   0  0  0  0  0  0  0  0  0  0  0  0
  -20.4351  -12.4941   95.5848 N   0  0  0  0  0  0  0  0  0  0  0  0
  -20.7047  -13.5740   95.4514 N   0  0  0  0  0  0  0  0  0  0  0  0
  -20.9776  -14.6532   95.3218 N   0  0  0  0  0  0  0  0  0  0  0  0
  -19.4334   -8.5444   94.9039 N   0  0  0  0  0  0  0  0  0  0  0  0
  -20.3069   -7.5972   95.2703 C   0  0  0  0  0  0  0  0  0  0  0  0
  -21.5184   -7.9256   95.7432 N   0  0  0  0  0  0  0  0  0  0  0  0
  -21.8901   -9.2097   95.8497 C   0  0  0  0  0  0  0  0  0  0  0  0
  -21.0313  -10.2366   95.4755 C   0  0  0  0  0  0  0  0  0  0  0  0
  -19.7689   -9.9001   95.0019 C   0  0  0  0  0  0  0  0  0  0  0  0
  1 11  1  0  0  0  0
  1  4  1  0  0  0  0
  2  8  1  0  0  0  0
  3 10  1  0  0  0  0
  4  5  1  0  0  0  0
  5  6  1  0  0  0  0
  7  8  2  0  0  0  0
  7 12  1  0  0  0  0
  8  9  1  0  0  0  0
  9 10  2  0  0  0  0
 10 11  1  0  0  0  0
 11 12  2  0  0  0  0
M  END
>  <CHROM.1>
-151.86475830,-178.24268964,-64.13979302,-20.89000546,-10.14161727,95.43343962
1.63935818,-0.28627501,-3.13266588

>  <Name>
ligand

>  <RI>
0

>  <Rbt.Current_Directory>
/home/itssahil/PROJECTS/Mol_Feturizer/Test_systems_manuscript/rnas/4nya

>  <Rbt.Executable>
rbdock ($Id: //depot/dev/client3/rdock/2013.1/src/exe/rbdock.cxx#4 $)

>  <Rbt.Library>
libRbt.so (2013.1, Build901 2013/11/27)

>  <Rbt.Parameter_File>
/export/apps/rDock/src/rDock_2013.1_src/data/scripts/dock_solv.prm

>  <Rbt.Receptor>
prm/pocket_docking_7.prm

>  <SCORE>
-15.0325

>  <SCORE.INTER>
-13.7842

>  <SCORE.INTER.CONST>
1

>  <SCORE.INTER.POLAR>
0

>  <SCORE.INTER.ROT>
3

>  <SCORE.INTER.SOLV>
13.6088

>  <SCORE.INTER.VDW>
-19.3257

>  <SCORE.INTER.norm>
-1.14868

>  <SCORE.INTRA>
-1.24825

>  <SCORE.INTRA.DIHEDRAL>
-2.22227

>  <SCORE.INTRA.DIHEDRAL.0>
3.34563

>  <SCORE.INTRA.POLAR>
0

>  <SCORE.INTRA.POLAR.0>
0

>  <SCORE.INTRA.REPUL>
0

>  <SCORE.INTRA.REPUL.0>
0

>  <SCORE.INTRA.SOLV>
-1.26241

>  <SCORE.INTRA.SOLV.lig_0>
-59.746

>  <SCORE.INTRA.VDW>
0.494089

>  <SCORE.INTRA.VDW.0>
-0.691186

>  <SCORE.INTRA.norm>
-0.104021

>  <SCORE.RESTR>
0

>  <SCORE.RESTR.CAVITY>
0

>  <SCORE.RESTR.norm>
0

>  <SCORE.SYSTEM>
0

>  <SCORE.SYSTEM.CONST>
0

>  <SCORE.SYSTEM.DIHEDRAL>
0

>  <SCORE.SYSTEM.SOLV>
0

>  <SCORE.SYSTEM.norm>
0

>  <SCORE.heavy>
12

>  <SCORE.norm>
-1.2527

>  <RMSD>
2.809

$$$$
ligand
 OpenBabel02271912143D
libRbt.so/2013.1/901 2013/11/27
 12 12  0  0  0  0  0  0  0  0999 V2000
  -21.5129  -11.5274   95.3047 C   0  0  0  0  0  0  0  0  0  0  0  0
  -19.9344   -6.2566   95.2415 C   0  0  0  0  0  0  0  0  0  0  0  0
  -23.1670   -9.5398   96.0439 N   0  0  0  0  0  0  0  0  0  0  0  0
  -20.4370  -12.4915   95.5760 N   0  0  0  0  0  0  0  0  0  0  0  0
  -20.7088  -13.5716   95.4485 N   0  0  0  0  0  0  0  0  0  0  0  0
  -20.9758  -14.6527   95.3226 N   0  0  0  0  0  0  0  0  0  0  0  0
  -19.4333   -8.5407   94.9170 N   0  0  0  0  0  0  0  0  0  0  0  0
  -20.3091   -7.5942   95.2797 C   0  0  0  0  0  0  0  0  0  0  0  0
  -21.5236   -7.9236   95.7441 N   0  0  0  0  0  0  0  0  0  0  0  0
  -21.8960   -9.2079   95.8457 C   0  0  0  0  0  0  0  0  0  0  0  0
  -21.0347  -10.2341   95.4750 C   0  0  0  0  0  0  0  0  0  0  0  0
  -19.7693   -9.8965   95.0101 C   0  0  0  0  0  0  0  0  0  0  0  0
  1 11  1  0  0  0  0
  1  4  1  0  0  0  0
  2  8  1  0  0  0  0
  3 10  1  0  0  0  0
  4  5  1  0  0  0  0
  5  6  1  0  0  0  0
  7  8  2  0  0  0  0
  7 12  1  0  0  0  0
  8  9  1  0  0  0  0
  9 10  2  0  0  0  0
 10 11  1  0  0  0  0
 11 12  2  0  0  0  0
M  END
>  <CHROM.1>
-152.18892948,-178.86298435,-176.71177646,-20.89271447,-10.13916940,95.43438320
1.63890102,-0.27988400,-3.13126651

>  <Name>
ligand

>  <RI>
0

>  <Rbt.Current_Directory>
/home/itssahil/PROJECTS/Mol_Feturizer/Test_systems_manuscript/rnas/4nya

>  <Rbt.Executable>
rbdock ($Id: //depot/dev/client3/rdock/2013.1/src/exe/rbdock.cxx#4 $)

>  <Rbt.Library>
libRbt.so (2013.1, Build901 2013/11/27)

>  <Rbt.Parameter_File>
/export/apps/rDock/src/rDock_2013.1_src/data/scripts/dock_solv.prm

>  <Rbt.Receptor>
prm/pocket_docking_8.prm

>  <SCORE>
-15.0353

>  <SCORE.INTER>
-13.7852

>  <SCORE.INTER.CONST>
1

>  <SCORE.INTER.POLAR>
0

>  <SCORE.INTER.ROT>
3

>  <SCORE.INTER.SOLV>
13.5889

>  <SCORE.INTER.VDW>
-19.3198

>  <SCORE.INTER.norm>
-1.14877

>  <SCORE.INTRA>
-1.25012

>  <SCORE.INTRA.DIHEDRAL>
-2.2279

>  <SCORE.INTRA.DIHEDRAL.0>
3.34563

>  <SCORE.INTRA.POLAR>
0

>  <SCORE.INTRA.POLAR.0>
0

>  <SCORE.INTRA.REPUL>
0

>  <SCORE.INTRA.REPUL.0>
0

>  <SCORE.INTRA.SOLV>
-1.26849

>  <SCORE.INTRA.SOLV.lig_0>
-59.746

>  <SCORE.INTRA.VDW>
0.498071

>  <SCORE.INTRA.VDW.0>
-0.691186

>  <SCORE.INTRA.norm>
-0.104177

>  <SCORE.RESTR>
0

>  <SCORE.RESTR.CAVITY>
0

>  <SCORE.RESTR.norm>
0

>  <SCORE.SYSTEM>
0

>  <SCORE.SYSTEM.CONST>
0

>  <SCORE.SYSTEM.DIHEDRAL>
0

>  <SCORE.SYSTEM.SOLV>
0

>  <SCORE.SYSTEM.norm>
0

>  <SCORE.heavy>
12

>  <SCORE.norm>
-1.25294

>  <RMSD>
2.809

$$$$
ligand
 OpenBabel02271912143D
libRbt.so/2013.1/901 2013/11/27
 12 12  0  0  0  0  0  0  0  0999 V2000
  -21.5066  -11.5256   95.3081 C   0  0  0  0  0  0  0  0  0  0  0  0
  -19.9219   -6.2564   95.2690 C   0  0  0  0  0  0  0  0  0  0  0  0
  -23.1576   -9.5396   96.0586 N   0  0  0  0  0  0  0  0  0  0  0  0
  -20.4363  -12.4927   95.5899 N   0  0  0  0  0  0  0  0  0  0  0  0
  -20.7083  -13.5718   95.4547 N   0  0  0  0  0  0  0  0  0  0  0  0
  -20.9758  -14.6520   95.3213 N   0  0  0  0  0  0  0  0  0  0  0  0
  -19.4238   -8.5394   94.9328 N   0  0  0  0  0  0  0  0  0  0  0  0
  -20.2982   -7.5938   95.3010 C   0  0  0  0  0  0  0  0  0  0  0  0
  -21.5125   -7.9240   95.7651 N   0  0  0  0  0  0  0  0  0  0  0  0
  -21.8864   -9.2083   95.8608 C   0  0  0  0  0  0  0  0  0  0  0  0
  -21.0267  -10.2336   95.4841 C   0  0  0  0  0  0  0  0  0  0  0  0
  -19.7614   -9.8953   95.0196 C   0  0  0  0  0  0  0  0  0  0  0  0
  1 11  1  0  0  0  0
  1  4  1  0  0  0  0
  2  8  1  0  0  0  0
  3 10  1  0  0  0  0
  4  5  1  0  0  0  0
  5  6  1  0  0  0  0
  7  8  2  0  0  0  0
  7 12  1  0  0  0  0
  8  9  1  0  0  0  0
  9 10  2  0  0  0  0
 10 11  1  0  0  0  0
 11 12  2  0  0  0  0
M  END
>  <CHROM.1>
-151.48465631,-178.61700696,-175.15673117,-20.88556194,-10.13883247,95.44746345
1.64083402,-0.27997202,-3.12789454

>  <Name>
ligand

>  <RI>
0

>  <Rbt.Current_Directory>
/home/itssahil/PROJECTS/Mol_Feturizer/Test_systems_manuscript/rnas/4nya

>  <Rbt.Executable>
rbdock ($Id: //depot/dev/client3/rdock/2013.1/src/exe/rbdock.cxx#4 $)

>  <Rbt.Library>
libRbt.so (2013.1, Build901 2013/11/27)

>  <Rbt.Parameter_File>
/export/apps/rDock/src/rDock_2013.1_src/data/scripts/dock_solv.prm

>  <Rbt.Receptor>
prm/pocket_docking_8.prm

>  <SCORE>
-15.0469

>  <SCORE.INTER>
-13.7928

>  <SCORE.INTER.CONST>
1

>  <SCORE.INTER.POLAR>
0

>  <SCORE.INTER.ROT>
3

>  <SCORE.INTER.SOLV>
13.5876

>  <SCORE.INTER.VDW>
-19.3244

>  <SCORE.INTER.norm>
-1.1494

>  <SCORE.INTRA>
-1.25413

>  <SCORE.INTRA.DIHEDRAL>
-2.21846

>  <SCORE.INTRA.DIHEDRAL.0>
3.34563

>  <SCORE.INTRA.POLAR>
0

>  <SCORE.INTRA.POLAR.0>
0

>  <SCORE.INTRA.REPUL>
0

>  <SCORE.INTRA.REPUL.0>
0

>  <SCORE.INTRA.SOLV>
-1.26402

>  <SCORE.INTRA.SOLV.lig_0>
-59.746

>  <SCORE.INTRA.VDW>
0.487113

>  <SCORE.INTRA.VDW.0>
-0.691186

>  <SCORE.INTRA.norm>
-0.104511

>  <SCORE.RESTR>
0

>  <SCORE.RESTR.CAVITY>
0

>  <SCORE.RESTR.norm>
0

>  <SCORE.SYSTEM>
0

>  <SCORE.SYSTEM.CONST>
0

>  <SCORE.SYSTEM.DIHEDRAL>
0

>  <SCORE.SYSTEM.SOLV>
0

>  <SCORE.SYSTEM.norm>
0

>  <SCORE.heavy>
12

>  <SCORE.norm>
-1.25391

>  <RMSD>
2.809

$$$$
ligand
 OpenBabel02271912143D
libRbt.so/2013.1/901 2013/11/27
 12 12  0  0  0  0  0  0  0  0999 V2000
  -21.5164  -11.5278   95.3002 C   0  0  0  0  0  0  0  0  0  0  0  0
  -19.9304   -6.2594   95.2225 C   0  0  0  0  0  0  0  0  0  0  0  0
  -23.1664   -9.5361   96.0375 N   0  0  0  0  0  0  0  0  0  0  0  0
  -20.4467  -12.4932   95.5904 N   0  0  0  0  0  0  0  0  0  0  0  0
  -20.7122  -13.5721   95.4414 N   0  0  0  0  0  0  0  0  0  0  0  0
  -20.9730  -14.6520   95.2939 N   0  0  0  0  0  0  0  0  0  0  0  0
  -19.4331   -8.5450   94.9024 N   0  0  0  0  0  0  0  0  0  0  0  0
  -20.3070   -7.5964   95.2643 C   0  0  0  0  0  0  0  0  0  0  0  0
  -21.5212   -7.9230   95.7314 N   0  0  0  0  0  0  0  0  0  0  0  0
  -21.8953   -9.2065   95.8365 C   0  0  0  0  0  0  0  0  0  0  0  0
  -21.0361  -10.2347   95.4667 C   0  0  0  0  0  0  0  0  0  0  0  0
  -19.7709   -9.9001   94.9991 C   0  0  0  0  0  0  0  0  0  0  0  0
  1 11  1  0  0  0  0
  1  4  1  0  0  0  0
  2  8  1  0  0  0  0
  3 10  1  0  0  0  0
  4  5  1  0  0  0  0
  5  6  1  0  0  0  0
  7  8  2  0  0  0  0
  7 12  1  0  0  0  0
  8  9  1  0  0  0  0
  9 10  2  0  0  0  0
 10 11  1  0  0  0  0
 11 12  2  0  0  0  0
M  END
>  <CHROM.1>
-151.39678395,-177.31381436,-179.64109234,-20.89326445,-10.13997174,95.42414324
1.63954723,-0.28168716,-3.13164801

>  <Name>
ligand

>  <RI>
0

>  <Rbt.Current_Directory>
/home/itssahil/PROJECTS/Mol_Feturizer/Test_systems_manuscript/rnas/4nya

>  <Rbt.Executable>
rbdock ($Id: //depot/dev/client3/rdock/2013.1/src/exe/rbdock.cxx#4 $)

>  <Rbt.Library>
libRbt.so (2013.1, Build901 2013/11/27)

>  <Rbt.Parameter_File>
/export/apps/rDock/src/rDock_2013.1_src/data/scripts/dock_solv.prm

>  <Rbt.Receptor>
prm/pocket_docking_8.prm

>  <SCORE>
-15.0197

>  <SCORE.INTER>
-13.7647

>  <SCORE.INTER.CONST>
1

>  <SCORE.INTER.POLAR>
0

>  <SCORE.INTER.ROT>
3

>  <SCORE.INTER.SOLV>
13.5581

>  <SCORE.INTER.VDW>
-19.2958

>  <SCORE.INTER.norm>
-1.14706

>  <SCORE.INTRA>
-1.25496

>  <SCORE.INTRA.DIHEDRAL>
-2.21973

>  <SCORE.INTRA.DIHEDRAL.0>
3.34563

>  <SCORE.INTRA.POLAR>
0

>  <SCORE.INTRA.POLAR.0>
0

>  <SCORE.INTRA.REPUL>
0

>  <SCORE.INTRA.REPUL.0>
0

>  <SCORE.INTRA.SOLV>
-1.261

>  <SCORE.INTRA.SOLV.lig_0>
-59.746

>  <SCORE.INTRA.VDW>
0.485412

>  <SCORE.INTRA.VDW.0>
-0.691186

>  <SCORE.INTRA.norm>
-0.10458

>  <SCORE.RESTR>
0

>  <SCORE.RESTR.CAVITY>
0

>  <SCORE.RESTR.norm>
0

>  <SCORE.SYSTEM>
0

>  <SCORE.SYSTEM.CONST>
0

>  <SCORE.SYSTEM.DIHEDRAL>
0

>  <SCORE.SYSTEM.SOLV>
0

>  <SCORE.SYSTEM.norm>
0

>  <SCORE.heavy>
12

>  <SCORE.norm>
-1.25164

>  <RMSD>
2.809

$$$$
ligand
 OpenBabel02271912143D
libRbt.so/2013.1/901 2013/11/27
 12 12  0  0  0  0  0  0  0  0999 V2000
  -21.5124  -11.5281   95.3099 C   0  0  0  0  0  0  0  0  0  0  0  0
  -19.9375   -6.2566   95.2220 C   0  0  0  0  0  0  0  0  0  0  0  0
  -23.1729   -9.5370   96.0247 N   0  0  0  0  0  0  0  0  0  0  0  0
  -20.4386  -12.4896   95.5980 N   0  0  0  0  0  0  0  0  0  0  0  0
  -20.7031  -13.5699   95.4581 N   0  0  0  0  0  0  0  0  0  0  0  0
  -20.9714  -14.6495   95.3215 N   0  0  0  0  0  0  0  0  0  0  0  0
  -19.4325   -8.5424   94.9161 N   0  0  0  0  0  0  0  0  0  0  0  0
  -20.3115   -7.5943   95.2666 C   0  0  0  0  0  0  0  0  0  0  0  0
  -21.5288   -7.9215   95.7251 N   0  0  0  0  0  0  0  0  0  0  0  0
  -21.9009   -9.2054   95.8328 C   0  0  0  0  0  0  0  0  0  0  0  0
  -21.0364  -10.2333   95.4747 C   0  0  0  0  0  0  0  0  0  0  0  0
  -19.7681   -9.8978   95.0160 C   0  0  0  0  0  0  0  0  0  0  0  0
  1 11  1  0  0  0  0
  1  4  1  0  0  0  0
  2  8  1  0  0  0  0
  3 10  1  0  0  0  0
  4  5  1  0  0  0  0
  5  6  1  0  0  0  0
  7  8  2  0  0  0  0
  7 12  1  0  0  0  0
  8  9  1  0  0  0  0
  9 10  2  0  0  0  0
 10 11  1  0  0  0  0
 11 12  2  0  0  0  0
M  END
>  <CHROM.1>
-152.05301961,-177.78592503,-56.77310285,-20.89369037,-10.13821246,95.43075046
1.63758010,-0.27397854,-3.13562263

>  <Name>
ligand

>  <RI>
0

>  <Rbt.Current_Directory>
/home/itssahil/PROJECTS/Mol_Feturizer/Test_systems_manuscript/rnas/4nya

>  <Rbt.Executable>
rbdock ($Id: //depot/dev/client3/rdock/2013.1/src/exe/rbdock.cxx#4 $)

>  <Rbt.Library>
libRbt.so (2013.1, Build901 2013/11/27)

>  <Rbt.Parameter_File>
/export/apps/rDock/src/rDock_2013.1_src/data/scripts/dock_solv.prm

>  <Rbt.Receptor>
prm/pocket_docking_4.prm

>  <SCORE>
-15.028

>  <SCORE.INTER>
-13.7817

>  <SCORE.INTER.CONST>
1

>  <SCORE.INTER.POLAR>
0

>  <SCORE.INTER.ROT>
3

>  <SCORE.INTER.SOLV>
13.6311

>  <SCORE.INTER.VDW>
-19.3315

>  <SCORE.INTER.norm>
-1.14848

>  <SCORE.INTRA>
-1.24622

>  <SCORE.INTRA.DIHEDRAL>
-2.22405

>  <SCORE.INTRA.DIHEDRAL.0>
3.34563

>  <SCORE.INTRA.POLAR>
0

>  <SCORE.INTRA.POLAR.0>
0

>  <SCORE.INTRA.REPUL>
0

>  <SCORE.INTRA.REPUL.0>
0

>  <SCORE.INTRA.SOLV>
-1.26237

>  <SCORE.INTRA.SOLV.lig_0>
-59.746

>  <SCORE.INTRA.VDW>
0.496985

>  <SCORE.INTRA.VDW.0>
-0.691186

>  <SCORE.INTRA.norm>
-0.103852

>  <SCORE.RESTR>
0

>  <SCORE.RESTR.CAVITY>
0

>  <SCORE.RESTR.norm>
0

>  <SCORE.SYSTEM>
0

>  <SCORE.SYSTEM.CONST>
0

>  <SCORE.SYSTEM.DIHEDRAL>
0

>  <SCORE.SYSTEM.SOLV>
0

>  <SCORE.SYSTEM.norm>
0

>  <SCORE.heavy>
12

>  <SCORE.norm>
-1.25233

>  <RMSD>
2.810

$$$$
ligand
 OpenBabel02271912143D
libRbt.so/2013.1/901 2013/11/27
 12 12  0  0  0  0  0  0  0  0999 V2000
  -21.5052  -11.5724   95.3562 C   0  0  0  0  0  0  0  0  0  0  0  0
  -19.8957   -6.3117   95.2498 C   0  0  0  0  0  0  0  0  0  0  0  0
  -23.1476   -9.5691   96.0787 N   0  0  0  0  0  0  0  0  0  0  0  0
  -20.4227  -12.5393   95.5884 N   0  0  0  0  0  0  0  0  0  0  0  0
  -20.6983  -13.6180   95.4574 N   0  0  0  0  0  0  0  0  0  0  0  0
  -20.9772  -14.6960   95.3300 N   0  0  0  0  0  0  0  0  0  0  0  0
  -19.4080   -8.6013   94.9442 N   0  0  0  0  0  0  0  0  0  0  0  0
  -20.2783   -7.6467   95.2989 C   0  0  0  0  0  0  0  0  0  0  0  0
  -21.4947   -7.9651   95.7659 N   0  0  0  0  0  0  0  0  0  0  0  0
  -21.8747   -9.2463   95.8780 C   0  0  0  0  0  0  0  0  0  0  0  0
  -21.0194  -10.2805   95.5159 C   0  0  0  0  0  0  0  0  0  0  0  0
  -19.7520   -9.9543   95.0484 C   0  0  0  0  0  0  0  0  0  0  0  0
  1 11  1  0  0  0  0
  1  4  1  0  0  0  0
  2  8  1  0  0  0  0
  3 10  1  0  0  0  0
  4  5  1  0  0  0  0
  5  6  1  0  0  0  0
  7  8  2  0  0  0  0
  7 12  1  0  0  0  0
  8  9  1  0  0  0  0
  9 10  2  0  0  0  0
 10 11  1  0  0  0  0
 11 12  2  0  0  0  0
M  END
>  <CHROM.1>
-154.20730045,-178.37884400,-60.06710279,-20.87368264,-10.18614170,95.45915754
1.64257237,-0.28346782,-3.12901982

>  <Name>
ligand

>  <RI>
0

>  <Rbt.Current_Directory>
/home/itssahil/PROJECTS/Mol_Feturizer/Test_systems_manuscript/rnas/4nya

>  <Rbt.Executable>
rbdock ($Id: //depot/dev/client3/rdock/2013.1/src/exe/rbdock.cxx#4 $)

>  <Rbt.Library>
libRbt.so (2013.1, Build901 2013/11/27)

>  <Rbt.Parameter_File>
/export/apps/rDock/src/rDock_2013.1_src/data/scripts/dock_solv.prm

>  <Rbt.Receptor>
prm/pocket_docking_4.prm

>  <SCORE>
-15.0265

>  <SCORE.INTER>
-13.7998

>  <SCORE.INTER.CONST>
1

>  <SCORE.INTER.POLAR>
0

>  <SCORE.INTER.ROT>
3

>  <SCORE.INTER.SOLV>
13.6213

>  <SCORE.INTER.VDW>
-19.3403

>  <SCORE.INTER.norm>
-1.14998

>  <SCORE.INTRA>
-1.22677

>  <SCORE.INTRA.DIHEDRAL>
-2.2412

>  <SCORE.INTRA.DIHEDRAL.0>
3.34563

>  <SCORE.INTRA.POLAR>
0

>  <SCORE.INTRA.POLAR.0>
0

>  <SCORE.INTRA.REPUL>
0

>  <SCORE.INTRA.REPUL.0>
0

>  <SCORE.INTRA.SOLV>
-1.27519

>  <SCORE.INTRA.SOLV.lig_0>
-59.746

>  <SCORE.INTRA.VDW>
0.53143

>  <SCORE.INTRA.VDW.0>
-0.691186

>  <SCORE.INTRA.norm>
-0.102231

>  <SCORE.RESTR>
0

>  <SCORE.RESTR.CAVITY>
0

>  <SCORE.RESTR.norm>
0

>  <SCORE.SYSTEM>
0

>  <SCORE.SYSTEM.CONST>
0

>  <SCORE.SYSTEM.DIHEDRAL>
0

>  <SCORE.SYSTEM.SOLV>
0

>  <SCORE.SYSTEM.norm>
0

>  <SCORE.heavy>
12

>  <SCORE.norm>
-1.25221

>  <RMSD>
2.810

$$$$
ligand
 OpenBabel02271912143D
libRbt.so/2013.1/901 2013/11/27
 12 12  0  0  0  0  0  0  0  0999 V2000
  -21.5112  -11.5680   95.3580 C   0  0  0  0  0  0  0  0  0  0  0  0
  -19.8895   -6.3118   95.2161 C   0  0  0  0  0  0  0  0  0  0  0  0
  -23.1487   -9.5561   96.0679 N   0  0  0  0  0  0  0  0  0  0  0  0
  -20.4292  -12.5356   95.5889 N   0  0  0  0  0  0  0  0  0  0  0  0
  -20.7020  -13.6134   95.4447 N   0  0  0  0  0  0  0  0  0  0  0  0
  -20.9760  -14.6898   95.2957 N   0  0  0  0  0  0  0  0  0  0  0  0
  -19.4073   -8.6045   94.9254 N   0  0  0  0  0  0  0  0  0  0  0  0
  -20.2752   -7.6456   95.2742 C   0  0  0  0  0  0  0  0  0  0  0  0
  -21.4922   -7.9581   95.7438 N   0  0  0  0  0  0  0  0  0  0  0  0
  -21.8750   -9.2376   95.8645 C   0  0  0  0  0  0  0  0  0  0  0  0
  -21.0224  -10.2762   95.5088 C   0  0  0  0  0  0  0  0  0  0  0  0
  -19.7544   -9.9560   95.0387 C   0  0  0  0  0  0  0  0  0  0  0  0
  1 11  1  0  0  0  0
  1  4  1  0  0  0  0
  2  8  1  0  0  0  0
  3 10  1  0  0  0  0
  4  5  1  0  0  0  0
  5  6  1  0  0  0  0
  7  8  2  0  0  0  0
  7 12  1  0  0  0  0
  8  9  1  0  0  0  0
  9 10  2  0  0  0  0
 10 11  1  0  0  0  0
 11 12  2  0  0  0  0
M  END
>  <CHROM.1>
-154.51266557,-177.21855268,59.80409569,-20.87441872,-10.18210717,95.44353302
1.64314136,-0.28575871,-3.12996371

>  <Name>
ligand

>  <RI>
0

>  <Rbt.Current_Directory>
/home/itssahil/PROJECTS/Mol_Feturizer/Test_systems_manuscript/rnas/4nya

>  <Rbt.Executable>
rbdock ($Id: //depot/dev/client3/rdock/2013.1/src/exe/rbdock.cxx#4 $)

>  <Rbt.Library>
libRbt.so (2013.1, Build901 2013/11/27)

>  <Rbt.Parameter_File>
/export/apps/rDock/src/rDock_2013.1_src/data/scripts/dock_solv.prm

>  <Rbt.Receptor>
prm/pocket_docking_5.prm

>  <SCORE>
-15.0203

>  <SCORE.INTER>
-13.8

>  <SCORE.INTER.CONST>
1

>  <SCORE.INTER.POLAR>
0

>  <SCORE.INTER.ROT>
3

>  <SCORE.INTER.SOLV>
13.578

>  <SCORE.INTER.VDW>
-19.326

>  <SCORE.INTER.norm>
-1.15

>  <SCORE.INTRA>
-1.22027

>  <SCORE.INTRA.DIHEDRAL>
-2.23818

>  <SCORE.INTRA.DIHEDRAL.0>
3.34563

>  <SCORE.INTRA.POLAR>
0

>  <SCORE.INTRA.POLAR.0>
0

>  <SCORE.INTRA.REPUL>
0

>  <SCORE.INTRA.REPUL.0>
0

>  <SCORE.INTRA.SOLV>
-1.27458

>  <SCORE.INTRA.SOLV.lig_0>
-59.746

>  <SCORE.INTRA.VDW>
0.536109

>  <SCORE.INTRA.VDW.0>
-0.691186

>  <SCORE.INTRA.norm>
-0.101689

>  <SCORE.RESTR>
0

>  <SCORE.RESTR.CAVITY>
0

>  <SCORE.RESTR.norm>
0

>  <SCORE.SYSTEM>
0

>  <SCORE.SYSTEM.CONST>
0

>  <SCORE.SYSTEM.DIHEDRAL>
0

>  <SCORE.SYSTEM.SOLV>
0

>  <SCORE.SYSTEM.norm>
0

>  <SCORE.heavy>
12

>  <SCORE.norm>
-1.25169

>  <RMSD>
2.810

$$$$
ligand
 OpenBabel02271912143D
libRbt.so/2013.1/901 2013/11/27
 12 12  0  0  0  0  0  0  0  0999 V2000
  -21.4929  -11.5273   95.2720 C   0  0  0  0  0  0  0  0  0  0  0  0
  -19.9135   -6.2563   95.2633 C   0  0  0  0  0  0  0  0  0  0  0  0
  -23.1400   -9.5491   96.0512 N   0  0  0  0  0  0  0  0  0  0  0  0
  -20.4325  -12.4969   95.5814 N   0  0  0  0  0  0  0  0  0  0  0  0
  -20.7015  -13.5751   95.4333 N   0  0  0  0  0  0  0  0  0  0  0  0
  -20.9744  -14.6524   95.2884 N   0  0  0  0  0  0  0  0  0  0  0  0
  -19.4159   -8.5361   94.9048 N   0  0  0  0  0  0  0  0  0  0  0  0
  -20.2883   -7.5943   95.2874 C   0  0  0  0  0  0  0  0  0  0  0  0
  -21.4988   -7.9295   95.7581 N   0  0  0  0  0  0  0  0  0  0  0  0
  -21.8706   -9.2149   95.8462 C   0  0  0  0  0  0  0  0  0  0  0  0
  -21.0129  -10.2363   95.4548 C   0  0  0  0  0  0  0  0  0  0  0  0
  -19.7515   -9.8930   94.9833 C   0  0  0  0  0  0  0  0  0  0  0  0
  1 11  1  0  0  0  0
  1  4  1  0  0  0  0
  2  8  1  0  0  0  0
  3 10  1  0  0  0  0
  4  5  1  0  0  0  0
  5  6  1  0  0  0  0
  7  8  2  0  0  0  0
  7 12  1  0  0  0  0
  8  9  1  0  0  0  0
  9 10  2  0  0  0  0
 10 11  1  0  0  0  0
 11 12  2  0  0  0  0
M  END
>  <CHROM.1>
-149.60018087,-178.00272774,-56.73264803,-20.87547319,-10.14124043,95.42762867
1.64252524,-0.28522384,-3.12507953

>  <Name>
ligand

>  <RI>
0

>  <Rbt.Current_Directory>
/home/itssahil/PROJECTS/Mol_Feturizer/Test_systems_manuscript/rnas/4nya

>  <Rbt.Executable>
rbdock ($Id: //depot/dev/client3/rdock/2013.1/src/exe/rbdock.cxx#4 $)

>  <Rbt.Library>
libRbt.so (2013.1, Build901 2013/11/27)

>  <Rbt.Parameter_File>
/export/apps/rDock/src/rDock_2013.1_src/data/scripts/dock_solv.prm

>  <Rbt.Receptor>
prm/pocket_docking_5.prm

>  <SCORE>
-15.0455

>  <SCORE.INTER>
-13.7805

>  <SCORE.INTER.CONST>
1

>  <SCORE.INTER.POLAR>
0

>  <SCORE.INTER.ROT>
3

>  <SCORE.INTER.SOLV>
13.5929

>  <SCORE.INTER.VDW>
-19.318

>  <SCORE.INTER.norm>
-1.14838

>  <SCORE.INTRA>
-1.26493

>  <SCORE.INTRA.DIHEDRAL>
-2.20182

>  <SCORE.INTRA.DIHEDRAL.0>
3.34563

>  <SCORE.INTRA.POLAR>
0

>  <SCORE.INTRA.POLAR.0>
0

>  <SCORE.INTRA.REPUL>
0

>  <SCORE.INTRA.REPUL.0>
0

>  <SCORE.INTRA.SOLV>
-1.24807

>  <SCORE.INTRA.SOLV.lig_0>
-59.746

>  <SCORE.INTRA.VDW>
0.460015

>  <SCORE.INTRA.VDW.0>
-0.691186

>  <SCORE.INTRA.norm>
-0.105411

>  <SCORE.RESTR>
0

>  <SCORE.RESTR.CAVITY>
0

>  <SCORE.RESTR.norm>
0

>  <SCORE.SYSTEM>
0

>  <SCORE.SYSTEM.CONST>
0

>  <SCORE.SYSTEM.DIHEDRAL>
0

>  <SCORE.SYSTEM.SOLV>
0

>  <SCORE.SYSTEM.norm>
0

>  <SCORE.heavy>
12

>  <SCORE.norm>
-1.25379

>  <RMSD>
2.810

$$$$
ligand
 OpenBabel02271912143D
libRbt.so/2013.1/901 2013/11/27
 12 12  0  0  0  0  0  0  0  0999 V2000
  -21.5077  -11.5304   95.2938 C   0  0  0  0  0  0  0  0  0  0  0  0
  -19.9378   -6.2572   95.2138 C   0  0  0  0  0  0  0  0  0  0  0  0
  -23.1598   -9.5445   96.0418 N   0  0  0  0  0  0  0  0  0  0  0  0
  -20.4338  -12.4930   95.5780 N   0  0  0  0  0  0  0  0  0  0  0  0
  -20.7042  -13.5737   95.4528 N   0  0  0  0  0  0  0  0  0  0  0  0
  -20.9754  -14.6533   95.3227 N   0  0  0  0  0  0  0  0  0  0  0  0
  -19.4353   -8.5409   94.8885 N   0  0  0  0  0  0  0  0  0  0  0  0
  -20.3102   -7.5954   95.2560 C   0  0  0  0  0  0  0  0  0  0  0  0
  -21.5209   -7.9261   95.7290 N   0  0  0  0  0  0  0  0  0  0  0  0
  -21.8906   -9.2109   95.8346 C   0  0  0  0  0  0  0  0  0  0  0  0
  -21.0303  -10.2361   95.4592 C   0  0  0  0  0  0  0  0  0  0  0  0
  -19.7686   -9.8972   94.9854 C   0  0  0  0  0  0  0  0  0  0  0  0
  1 11  1  0  0  0  0
  1  4  1  0  0  0  0
  2  8  1  0  0  0  0
  3 10  1  0  0  0  0
  4  5  1  0  0  0  0
  5  6  1  0  0  0  0
  7  8  2  0  0  0  0
  7 12  1  0  0  0  0
  8  9  1  0  0  0  0
  9 10  2  0  0  0  0
 10 11  1  0  0  0  0
 11 12  2  0  0  0  0
M  END
>  <CHROM.1>
-151.36523673,-178.71472484,61.61126785,-20.89046762,-10.14101694,95.42182293
1.63875127,-0.28555506,-3.13488628

>  <Name>
ligand

>  <RI>
0

>  <Rbt.Current_Directory>
/home/itssahil/PROJECTS/Mol_Feturizer/Test_systems_manuscript/rnas/4nya

>  <Rbt.Executable>
rbdock ($Id: //depot/dev/client3/rdock/2013.1/src/exe/rbdock.cxx#4 $)

>  <Rbt.Library>
libRbt.so (2013.1, Build901 2013/11/27)

>  <Rbt.Parameter_File>
/export/apps/rDock/src/rDock_2013.1_src/data/scripts/dock_solv.prm

>  <Rbt.Receptor>
prm/pocket_docking_5.prm

>  <SCORE>
-15.0343

>  <SCORE.INTER>
-13.7791

>  <SCORE.INTER.CONST>
1

>  <SCORE.INTER.POLAR>
0

>  <SCORE.INTER.ROT>
3

>  <SCORE.INTER.SOLV>
13.6347

>  <SCORE.INTER.VDW>
-19.3309

>  <SCORE.INTER.norm>
-1.14826

>  <SCORE.INTRA>
-1.25528

>  <SCORE.INTRA.DIHEDRAL>
-2.22336

>  <SCORE.INTRA.DIHEDRAL.0>
3.34563

>  <SCORE.INTRA.POLAR>
0

>  <SCORE.INTRA.POLAR.0>
0

>  <SCORE.INTRA.REPUL>
0

>  <SCORE.INTRA.REPUL.0>
0

>  <SCORE.INTRA.SOLV>
-1.26031

>  <SCORE.INTRA.SOLV.lig_0>
-59.746

>  <SCORE.INTRA.VDW>
0.48655

>  <SCORE.INTRA.VDW.0>
-0.691186

>  <SCORE.INTRA.norm>
-0.104607

>  <SCORE.RESTR>
0

>  <SCORE.RESTR.CAVITY>
0

>  <SCORE.RESTR.norm>
0

>  <SCORE.SYSTEM>
0

>  <SCORE.SYSTEM.CONST>
0

>  <SCORE.SYSTEM.DIHEDRAL>
0

>  <SCORE.SYSTEM.SOLV>
0

>  <SCORE.SYSTEM.norm>
0

>  <SCORE.heavy>
12

>  <SCORE.norm>
-1.25286

>  <RMSD>
2.810

$$$$
ligand
 OpenBabel02271912143D
libRbt.so/2013.1/901 2013/11/27
 12 12  0  0  0  0  0  0  0  0999 V2000
  -21.5288  -11.5845   95.3418 C   0  0  0  0  0  0  0  0  0  0  0  0
  -19.9351   -6.3179   95.3197 C   0  0  0  0  0  0  0  0  0  0  0  0
  -23.1936   -9.5932   96.0462 N   0  0  0  0  0  0  0  0  0  0  0  0
  -20.4541  -12.5508   95.6092 N   0  0  0  0  0  0  0  0  0  0  0  0
  -20.7131  -13.6271   95.4321 N   0  0  0  0  0  0  0  0  0  0  0  0
  -20.9686  -14.7044   95.2586 N   0  0  0  0  0  0  0  0  0  0  0  0
  -19.4331   -8.6030   95.0038 N   0  0  0  0  0  0  0  0  0  0  0  0
  -20.3142   -7.6545   95.3480 C   0  0  0  0  0  0  0  0  0  0  0  0
  -21.5396   -7.9811   95.7850 N   0  0  0  0  0  0  0  0  0  0  0  0
  -21.9176   -9.2645   95.8768 C   0  0  0  0  0  0  0  0  0  0  0  0
  -21.0511  -10.2926   95.5241 C   0  0  0  0  0  0  0  0  0  0  0  0
  -19.7747   -9.9580   95.0879 C   0  0  0  0  0  0  0  0  0  0  0  0
  1 11  1  0  0  0  0
  1  4  1  0  0  0  0
  2  8  1  0  0  0  0
  3 10  1  0  0  0  0
  4  5  1  0  0  0  0
  5  6  1  0  0  0  0
  7  8  2  0  0  0  0
  7 12  1  0  0  0  0
  8  9  1  0  0  0  0
  9 10  2  0  0  0  0
 10 11  1  0  0  0  0
 11 12  2  0  0  0  0
M  END
>  <CHROM.1>
-153.34178017,-176.48479691,-151.68202371,-20.90269285,-10.19703406,95.46896380
1.63696264,-0.26190222,-3.11871885

>  <Name>
ligand

>  <RI>
0

>  <Rbt.Current_Directory>
/home/itssahil/PROJECTS/Mol_Feturizer/Test_systems_manuscript/rnas/4nya

>  <Rbt.Executable>
rbdock ($Id: //depot/dev/client3/rdock/2013.1/src/exe/rbdock.cxx#4 $)

>  <Rbt.Library>
libRbt.so (2013.1, Build901 2013/11/27)

>  <Rbt.Parameter_File>
/export/apps/rDock/src/rDock_2013.1_src/data/scripts/dock_solv.prm

>  <Rbt.Receptor>
prm/pocket_docking_5.prm

>  <SCORE>
-14.9205

>  <SCORE.INTER>
-13.7779

>  <SCORE.INTER.CONST>
1

>  <SCORE.INTER.POLAR>
0

>  <SCORE.INTER.ROT>
3

>  <SCORE.INTER.SOLV>
13.3539

>  <SCORE.INTER.VDW>
-19.2365

>  <SCORE.INTER.norm>
-1.14815

>  <SCORE.INTRA>
-1.14261

>  <SCORE.INTRA.DIHEDRAL>
-2.0467

>  <SCORE.INTRA.DIHEDRAL.0>
3.34563

>  <SCORE.INTRA.POLAR>
0

>  <SCORE.INTRA.POLAR.0>
0

>  <SCORE.INTRA.REPUL>
0

>  <SCORE.INTRA.REPUL.0>
0

>  <SCORE.INTRA.SOLV>
-1.27

>  <SCORE.INTRA.SOLV.lig_0>
-59.746

>  <SCORE.INTRA.VDW>
0.515739

>  <SCORE.INTRA.VDW.0>
-0.691186

>  <SCORE.INTRA.norm>
-0.0952175

>  <SCORE.RESTR>
0

>  <SCORE.RESTR.CAVITY>
0

>  <SCORE.RESTR.norm>
0

>  <SCORE.SYSTEM>
0

>  <SCORE.SYSTEM.CONST>
0

>  <SCORE.SYSTEM.DIHEDRAL>
0

>  <SCORE.SYSTEM.SOLV>
0

>  <SCORE.SYSTEM.norm>
0

>  <SCORE.heavy>
12

>  <SCORE.norm>
-1.24337

>  <RMSD>
2.810

$$$$
ligand
 OpenBabel02271912143D
libRbt.so/2013.1/901 2013/11/27
 12 12  0  0  0  0  0  0  0  0999 V2000
  -21.5142  -11.5267   95.3029 C   0  0  0  0  0  0  0  0  0  0  0  0
  -19.9373   -6.2555   95.2314 C   0  0  0  0  0  0  0  0  0  0  0  0
  -23.1737   -9.5372   96.0247 N   0  0  0  0  0  0  0  0  0  0  0  0
  -20.4460  -12.4899   95.6057 N   0  0  0  0  0  0  0  0  0  0  0  0
  -20.7106  -13.5699   95.4631 N   0  0  0  0  0  0  0  0  0  0  0  0
  -20.9705  -14.6509   95.3222 N   0  0  0  0  0  0  0  0  0  0  0  0
  -19.4333   -8.5405   94.9179 N   0  0  0  0  0  0  0  0  0  0  0  0
  -20.3118   -7.5932   95.2718 C   0  0  0  0  0  0  0  0  0  0  0  0
  -21.5290   -7.9214   95.7297 N   0  0  0  0  0  0  0  0  0  0  0  0
  -21.9016   -9.2055   95.8334 C   0  0  0  0  0  0  0  0  0  0  0  0
  -21.0376  -10.2326   95.4717 C   0  0  0  0  0  0  0  0  0  0  0  0
  -19.7694   -9.8961   95.0136 C   0  0  0  0  0  0  0  0  0  0  0  0
  1 11  1  0  0  0  0
  1  4  1  0  0  0  0
  2  8  1  0  0  0  0
  3 10  1  0  0  0  0
  4  5  1  0  0  0  0
  5  6  1  0  0  0  0
  7  8  2  0  0  0  0
  7 12  1  0  0  0  0
  8  9  1  0  0  0  0
  9 10  2  0  0  0  0
 10 11  1  0  0  0  0
 11 12  2  0  0  0  0
M  END
>  <CHROM.1>
-151.26717754,-177.73047482,-179.02354203,-20.89545882,-10.13773506,95.43276793
1.63828732,-0.27316374,-3.13501375

>  <Name>
ligand

>  <RI>
0

>  <Rbt.Current_Directory>
/home/itssahil/PROJECTS/Mol_Feturizer/Test_systems_manuscript/rnas/4nya

>  <Rbt.Executable>
rbdock ($Id: //depot/dev/client3/rdock/2013.1/src/exe/rbdock.cxx#4 $)

>  <Rbt.Library>
libRbt.so (2013.1, Build901 2013/11/27)

>  <Rbt.Parameter_File>
/export/apps/rDock/src/rDock_2013.1_src/data/scripts/dock_solv.prm

>  <Rbt.Receptor>
prm/pocket_docking_6.prm

>  <SCORE>
-15.0301

>  <SCORE.INTER>
-13.773

>  <SCORE.INTER.CONST>
1

>  <SCORE.INTER.POLAR>
0

>  <SCORE.INTER.ROT>
3

>  <SCORE.INTER.SOLV>
13.6105

>  <SCORE.INTER.VDW>
-19.3188

>  <SCORE.INTER.norm>
-1.14775

>  <SCORE.INTRA>
-1.25703

>  <SCORE.INTRA.DIHEDRAL>
-2.22009

>  <SCORE.INTRA.DIHEDRAL.0>
3.34563

>  <SCORE.INTRA.POLAR>
0

>  <SCORE.INTRA.POLAR.0>
0

>  <SCORE.INTRA.REPUL>
0

>  <SCORE.INTRA.REPUL.0>
0

>  <SCORE.INTRA.SOLV>
-1.26107

>  <SCORE.INTRA.SOLV.lig_0>
-59.746

>  <SCORE.INTRA.VDW>
0.483548

>  <SCORE.INTRA.VDW.0>
-0.691186

>  <SCORE.INTRA.norm>
-0.104753

>  <SCORE.RESTR>
0

>  <SCORE.RESTR.CAVITY>
0

>  <SCORE.RESTR.norm>
0

>  <SCORE.SYSTEM>
0

>  <SCORE.SYSTEM.CONST>
0

>  <SCORE.SYSTEM.DIHEDRAL>
0

>  <SCORE.SYSTEM.SOLV>
0

>  <SCORE.SYSTEM.norm>
0

>  <SCORE.heavy>
12

>  <SCORE.norm>
-1.2525

>  <RMSD>
2.810

$$$$
ligand
 OpenBabel02271912143D
libRbt.so/2013.1/901 2013/11/27
 12 12  0  0  0  0  0  0  0  0999 V2000
  -21.5276  -11.5880   95.3375 C   0  0  0  0  0  0  0  0  0  0  0  0
  -19.9543   -6.3160   95.2468 C   0  0  0  0  0  0  0  0  0  0  0  0
  -23.1769   -9.5999   96.0859 N   0  0  0  0  0  0  0  0  0  0  0  0
  -20.4430  -12.5498   95.5806 N   0  0  0  0  0  0  0  0  0  0  0  0
  -20.7090  -13.6291   95.4356 N   0  0  0  0  0  0  0  0  0  0  0  0
  -20.9702  -14.7095   95.2918 N   0  0  0  0  0  0  0  0  0  0  0  0
  -19.4540   -8.6005   94.9239 N   0  0  0  0  0  0  0  0  0  0  0  0
  -20.3275   -7.6539   95.2918 C   0  0  0  0  0  0  0  0  0  0  0  0
  -21.5376   -7.9831   95.7676 N   0  0  0  0  0  0  0  0  0  0  0  0
  -21.9079   -9.2674   95.8758 C   0  0  0  0  0  0  0  0  0  0  0  0
  -21.0491  -10.2938   95.5002 C   0  0  0  0  0  0  0  0  0  0  0  0
  -19.7880   -9.9564   95.0234 C   0  0  0  0  0  0  0  0  0  0  0  0
  1 11  1  0  0  0  0
  1  4  1  0  0  0  0
  2  8  1  0  0  0  0
  3 10  1  0  0  0  0
  4  5  1  0  0  0  0
  5  6  1  0  0  0  0
  7  8  2  0  0  0  0
  7 12  1  0  0  0  0
  8  9  1  0  0  0  0
  9 10  2  0  0  0  0
 10 11  1  0  0  0  0
 11 12  2  0  0  0  0
M  END
>  <CHROM.1>
-153.10309793,-177.63971250,178.81571952,-20.90450634,-10.19838006,95.44663701
1.63549500,-0.29137159,-3.12726561

>  <Name>
ligand

>  <RI>
0

>  <Rbt.Current_Directory>
/home/itssahil/PROJECTS/Mol_Feturizer/Test_systems_manuscript/rnas/4nya

>  <Rbt.Executable>
rbdock ($Id: //depot/dev/client3/rdock/2013.1/src/exe/rbdock.cxx#4 $)

>  <Rbt.Library>
libRbt.so (2013.1, Build901 2013/11/27)

>  <Rbt.Parameter_File>
/export/apps/rDock/src/rDock_2013.1_src/data/scripts/dock_solv.prm

>  <Rbt.Receptor>
prm/pocket_docking_6.prm

>  <SCORE>
-15.0732

>  <SCORE.INTER>
-13.8333

>  <SCORE.INTER.CONST>
1

>  <SCORE.INTER.POLAR>
0

>  <SCORE.INTER.ROT>
3

>  <SCORE.INTER.SOLV>
13.4316

>  <SCORE.INTER.VDW>
-19.2994

>  <SCORE.INTER.norm>
-1.15277

>  <SCORE.INTRA>
-1.23994

>  <SCORE.INTRA.DIHEDRAL>
-2.23294

>  <SCORE.INTRA.DIHEDRAL.0>
3.34563

>  <SCORE.INTRA.POLAR>
0

>  <SCORE.INTRA.POLAR.0>
0

>  <SCORE.INTRA.REPUL>
0

>  <SCORE.INTRA.REPUL.0>
0

>  <SCORE.INTRA.SOLV>
-1.27127

>  <SCORE.INTRA.SOLV.lig_0>
-59.746

>  <SCORE.INTRA.VDW>
0.512167

>  <SCORE.INTRA.VDW.0>
-0.691186

>  <SCORE.INTRA.norm>
-0.103328

>  <SCORE.RESTR>
0

>  <SCORE.RESTR.CAVITY>
0

>  <SCORE.RESTR.norm>
0

>  <SCORE.SYSTEM>
0

>  <SCORE.SYSTEM.CONST>
0

>  <SCORE.SYSTEM.DIHEDRAL>
0

>  <SCORE.SYSTEM.SOLV>
0

>  <SCORE.SYSTEM.norm>
0

>  <SCORE.heavy>
12

>  <SCORE.norm>
-1.2561

>  <RMSD>
2.810

$$$$
ligand
 OpenBabel02271912143D
libRbt.so/2013.1/901 2013/11/27
 12 12  0  0  0  0  0  0  0  0999 V2000
  -21.5047  -11.5227   95.2942 C   0  0  0  0  0  0  0  0  0  0  0  0
  -19.8949   -6.2613   95.2310 C   0  0  0  0  0  0  0  0  0  0  0  0
  -23.1484   -9.5249   96.0290 N   0  0  0  0  0  0  0  0  0  0  0  0
  -20.4416  -12.4935   95.5908 N   0  0  0  0  0  0  0  0  0  0  0  0
  -20.7091  -13.5706   95.4327 N   0  0  0  0  0  0  0  0  0  0  0  0
  -20.9720  -14.6488   95.2765 N   0  0  0  0  0  0  0  0  0  0  0  0
  -19.4067   -8.5485   94.9087 N   0  0  0  0  0  0  0  0  0  0  0  0
  -20.2776   -7.5967   95.2692 C   0  0  0  0  0  0  0  0  0  0  0  0
  -21.4949   -7.9187   95.7315 N   0  0  0  0  0  0  0  0  0  0  0  0
  -21.8750   -9.2007   95.8331 C   0  0  0  0  0  0  0  0  0  0  0  0
  -21.0192  -10.2321   95.4646 C   0  0  0  0  0  0  0  0  0  0  0  0
  -19.7509   -9.9023   95.0019 C   0  0  0  0  0  0  0  0  0  0  0  0
  1 11  1  0  0  0  0
  1  4  1  0  0  0  0
  2  8  1  0  0  0  0
  3 10  1  0  0  0  0
  4  5  1  0  0  0  0
  5  6  1  0  0  0  0
  7  8  2  0  0  0  0
  7 12  1  0  0  0  0
  8  9  1  0  0  0  0
  9 10  2  0  0  0  0
 10 11  1  0  0  0  0
 11 12  2  0  0  0  0
M  END
>  <CHROM.1>
-151.20970082,-176.91189366,-176.08566424,-20.87553774,-10.13784504,95.42218185
1.64386950,-0.27822749,-3.12826166

>  <Name>
ligand

>  <RI>
0

>  <Rbt.Current_Directory>
/home/itssahil/PROJECTS/Mol_Feturizer/Test_systems_manuscript/rnas/4nya

>  <Rbt.Executable>
rbdock ($Id: //depot/dev/client3/rdock/2013.1/src/exe/rbdock.cxx#4 $)

>  <Rbt.Library>
libRbt.so (2013.1, Build901 2013/11/27)

>  <Rbt.Parameter_File>
/export/apps/rDock/src/rDock_2013.1_src/data/scripts/dock_solv.prm

>  <Rbt.Receptor>
prm/pocket_docking_6.prm

>  <SCORE>
-15.0119

>  <SCORE.INTER>
-13.7587

>  <SCORE.INTER.CONST>
1

>  <SCORE.INTER.POLAR>
0

>  <SCORE.INTER.ROT>
3

>  <SCORE.INTER.SOLV>
13.6005

>  <SCORE.INTER.VDW>
-19.306

>  <SCORE.INTER.norm>
-1.14656

>  <SCORE.INTRA>
-1.25314

>  <SCORE.INTRA.DIHEDRAL>
-2.21207

>  <SCORE.INTRA.DIHEDRAL.0>
3.34563

>  <SCORE.INTRA.POLAR>
0

>  <SCORE.INTRA.POLAR.0>
0

>  <SCORE.INTRA.REPUL>
0

>  <SCORE.INTRA.REPUL.0>
0

>  <SCORE.INTRA.SOLV>
-1.25908

>  <SCORE.INTRA.SOLV.lig_0>
-59.746

>  <SCORE.INTRA.VDW>
0.482436

>  <SCORE.INTRA.VDW.0>
-0.691186

>  <SCORE.INTRA.norm>
-0.104428

>  <SCORE.RESTR>
0

>  <SCORE.RESTR.CAVITY>
0

>  <SCORE.RESTR.norm>
0

>  <SCORE.SYSTEM>
0

>  <SCORE.SYSTEM.CONST>
0

>  <SCORE.SYSTEM.DIHEDRAL>
0

>  <SCORE.SYSTEM.SOLV>
0

>  <SCORE.SYSTEM.norm>
0

>  <SCORE.heavy>
12

>  <SCORE.norm>
-1.25099

>  <RMSD>
2.810

$$$$
ligand
 OpenBabel02271912143D
libRbt.so/2013.1/901 2013/11/27
 12 12  0  0  0  0  0  0  0  0999 V2000
  -21.5273  -11.5704   95.3563 C   0  0  0  0  0  0  0  0  0  0  0  0
  -19.9453   -6.3015   95.2397 C   0  0  0  0  0  0  0  0  0  0  0  0
  -23.1803   -9.5743   96.0744 N   0  0  0  0  0  0  0  0  0  0  0  0
  -20.4507  -12.5323   95.6329 N   0  0  0  0  0  0  0  0  0  0  0  0
  -20.7084  -13.6108   95.4679 N   0  0  0  0  0  0  0  0  0  0  0  0
  -20.9614  -14.6903   95.3049 N   0  0  0  0  0  0  0  0  0  0  0  0
  -19.4456   -8.5892   94.9388 N   0  0  0  0  0  0  0  0  0  0  0  0
  -20.3209   -7.6385   95.2915 C   0  0  0  0  0  0  0  0  0  0  0  0
  -21.5358   -7.9623   95.7588 N   0  0  0  0  0  0  0  0  0  0  0  0
  -21.9090   -9.2452   95.8734 C   0  0  0  0  0  0  0  0  0  0  0  0
  -21.0483  -10.2757   95.5135 C   0  0  0  0  0  0  0  0  0  0  0  0
  -19.7825   -9.9437   95.0457 C   0  0  0  0  0  0  0  0  0  0  0  0
  1 11  1  0  0  0  0
  1  4  1  0  0  0  0
  2  8  1  0  0  0  0
  3 10  1  0  0  0  0
  4  5  1  0  0  0  0
  5  6  1  0  0  0  0
  7  8  2  0  0  0  0
  7 12  1  0  0  0  0
  8  9  1  0  0  0  0
  9 10  2  0  0  0  0
 10 11  1  0  0  0  0
 11 12  2  0  0  0  0
M  END
>  <CHROM.1>
-152.40422181,-176.01292840,-174.10539463,-20.90201095,-10.18060359,95.45808522
1.63574224,-0.28276186,-3.13258024

>  <Name>
ligand

>  <RI>
0

>  <Rbt.Current_Directory>
/home/itssahil/PROJECTS/Mol_Feturizer/Test_systems_manuscript/rnas/4nya

>  <Rbt.Executable>
rbdock ($Id: //depot/dev/client3/rdock/2013.1/src/exe/rbdock.cxx#4 $)

>  <Rbt.Library>
libRbt.so (2013.1, Build901 2013/11/27)

>  <Rbt.Parameter_File>
/export/apps/rDock/src/rDock_2013.1_src/data/scripts/dock_solv.prm

>  <Rbt.Receptor>
prm/pocket_docking_8.prm

>  <SCORE>
-15.0726

>  <SCORE.INTER>
-13.8357

>  <SCORE.INTER.CONST>
1

>  <SCORE.INTER.POLAR>
0

>  <SCORE.INTER.ROT>
3

>  <SCORE.INTER.SOLV>
13.514

>  <SCORE.INTER.VDW>
-19.3285

>  <SCORE.INTER.norm>
-1.15297

>  <SCORE.INTRA>
-1.2369

>  <SCORE.INTRA.DIHEDRAL>
-2.21097

>  <SCORE.INTRA.DIHEDRAL.0>
3.34563

>  <SCORE.INTRA.POLAR>
0

>  <SCORE.INTRA.POLAR.0>
0

>  <SCORE.INTRA.REPUL>
0

>  <SCORE.INTRA.REPUL.0>
0

>  <SCORE.INTRA.SOLV>
-1.26408

>  <SCORE.INTRA.SOLV.lig_0>
-59.746

>  <SCORE.INTRA.VDW>
0.500629

>  <SCORE.INTRA.VDW.0>
-0.691186

>  <SCORE.INTRA.norm>
-0.103075

>  <SCORE.RESTR>
0

>  <SCORE.RESTR.CAVITY>
0

>  <SCORE.RESTR.norm>
0

>  <SCORE.SYSTEM>
0

>  <SCORE.SYSTEM.CONST>
0

>  <SCORE.SYSTEM.DIHEDRAL>
0

>  <SCORE.SYSTEM.SOLV>
0

>  <SCORE.SYSTEM.norm>
0

>  <SCORE.heavy>
12

>  <SCORE.norm>
-1.25605

>  <RMSD>
2.810

$$$$
ligand
 OpenBabel02271912143D
libRbt.so/2013.1/901 2013/11/27
 12 12  0  0  0  0  0  0  0  0999 V2000
  -21.5125  -11.5245   95.3062 C   0  0  0  0  0  0  0  0  0  0  0  0
  -19.9333   -6.2540   95.2291 C   0  0  0  0  0  0  0  0  0  0  0  0
  -23.1587   -9.5367   96.0623 N   0  0  0  0  0  0  0  0  0  0  0  0
  -20.4391  -12.4894   95.5842 N   0  0  0  0  0  0  0  0  0  0  0  0
  -20.7050  -13.5683   95.4359 N   0  0  0  0  0  0  0  0  0  0  0  0
  -20.9663  -14.6482   95.2892 N   0  0  0  0  0  0  0  0  0  0  0  0
  -19.4360   -8.5382   94.8989 N   0  0  0  0  0  0  0  0  0  0  0  0
  -20.3080   -7.5916   95.2705 C   0  0  0  0  0  0  0  0  0  0  0  0
  -21.5179   -7.9208   95.7468 N   0  0  0  0  0  0  0  0  0  0  0  0
  -21.8896   -9.2050   95.8517 C   0  0  0  0  0  0  0  0  0  0  0  0
  -21.0323  -10.2313   95.4721 C   0  0  0  0  0  0  0  0  0  0  0  0
  -19.7714   -9.8939   94.9949 C   0  0  0  0  0  0  0  0  0  0  0  0
  1 11  1  0  0  0  0
  1  4  1  0  0  0  0
  2  8  1  0  0  0  0
  3 10  1  0  0  0  0
  4  5  1  0  0  0  0
  5  6  1  0  0  0  0
  7  8  2  0  0  0  0
  7 12  1  0  0  0  0
  8  9  1  0  0  0  0
  9 10  2  0  0  0  0
 10 11  1  0  0  0  0
 11 12  2  0  0  0  0
M  END
>  <CHROM.1>
-151.42882761,-177.39215135,-177.11897224,-20.89002917,-10.13626971,95.42874854
1.63849025,-0.28994738,-3.12947395

>  <Name>
ligand

>  <RI>
0

>  <Rbt.Current_Directory>
/home/itssahil/PROJECTS/Mol_Feturizer/Test_systems_manuscript/rnas/4nya

>  <Rbt.Executable>
rbdock ($Id: //depot/dev/client3/rdock/2013.1/src/exe/rbdock.cxx#4 $)

>  <Rbt.Library>
libRbt.so (2013.1, Build901 2013/11/27)

>  <Rbt.Parameter_File>
/export/apps/rDock/src/rDock_2013.1_src/data/scripts/dock_solv.prm

>  <Rbt.Receptor>
prm/pocket_docking_8.prm

>  <SCORE>
-15.0174

>  <SCORE.INTER>
-13.7636

>  <SCORE.INTER.CONST>
1

>  <SCORE.INTER.POLAR>
0

>  <SCORE.INTER.ROT>
3

>  <SCORE.INTER.SOLV>
13.5815

>  <SCORE.INTER.VDW>
-19.3029

>  <SCORE.INTER.norm>
-1.14697

>  <SCORE.INTRA>
-1.2538

>  <SCORE.INTRA.DIHEDRAL>
-2.21811

>  <SCORE.INTRA.DIHEDRAL.0>
3.34563

>  <SCORE.INTRA.POLAR>
0

>  <SCORE.INTRA.POLAR.0>
0

>  <SCORE.INTRA.REPUL>
0

>  <SCORE.INTRA.REPUL.0>
0

>  <SCORE.INTRA.SOLV>
-1.26135

>  <SCORE.INTRA.SOLV.lig_0>
-59.746

>  <SCORE.INTRA.VDW>
0.485926

>  <SCORE.INTRA.VDW.0>
-0.691186

>  <SCORE.INTRA.norm>
-0.104483

>  <SCORE.RESTR>
0

>  <SCORE.RESTR.CAVITY>
0

>  <SCORE.RESTR.norm>
0

>  <SCORE.SYSTEM>
0

>  <SCORE.SYSTEM.CONST>
0

>  <SCORE.SYSTEM.DIHEDRAL>
0

>  <SCORE.SYSTEM.SOLV>
0

>  <SCORE.SYSTEM.norm>
0

>  <SCORE.heavy>
12

>  <SCORE.norm>
-1.25145

>  <RMSD>
2.810

$$$$
ligand
 OpenBabel02271912143D
libRbt.so/2013.1/901 2013/11/27
 12 12  0  0  0  0  0  0  0  0999 V2000
  -21.5220  -11.5805   95.3464 C   0  0  0  0  0  0  0  0  0  0  0  0
  -19.9577   -6.3060   95.2489 C   0  0  0  0  0  0  0  0  0  0  0  0
  -23.1806   -9.5928   96.0751 N   0  0  0  0  0  0  0  0  0  0  0  0
  -20.4310  -12.5386   95.5751 N   0  0  0  0  0  0  0  0  0  0  0  0
  -20.6998  -13.6199   95.4513 N   0  0  0  0  0  0  0  0  0  0  0  0
  -20.9721  -14.7003   95.3310 N   0  0  0  0  0  0  0  0  0  0  0  0
  -19.4508   -8.5907   94.9379 N   0  0  0  0  0  0  0  0  0  0  0  0
  -20.3288   -7.6444   95.2957 C   0  0  0  0  0  0  0  0  0  0  0  0
  -21.5418   -7.9741   95.7636 N   0  0  0  0  0  0  0  0  0  0  0  0
  -21.9107   -9.2587   95.8735 C   0  0  0  0  0  0  0  0  0  0  0  0
  -21.0471  -10.2849   95.5081 C   0  0  0  0  0  0  0  0  0  0  0  0
  -19.7831   -9.9468   95.0397 C   0  0  0  0  0  0  0  0  0  0  0  0
  1 11  1  0  0  0  0
  1  4  1  0  0  0  0
  2  8  1  0  0  0  0
  3 10  1  0  0  0  0
  4  5  1  0  0  0  0
  5  6  1  0  0  0  0
  7  8  2  0  0  0  0
  7 12  1  0  0  0  0
  8  9  1  0  0  0  0
  9 10  2  0  0  0  0
 10 11  1  0  0  0  0
 11 12  2  0  0  0  0
M  END
>  <CHROM.1>
-154.21009661,-178.91447885,-57.11669197,-20.90284336,-10.18922871,95.45376033
1.63426326,-0.28433463,-3.13094518

>  <Name>
ligand

>  <RI>
0

>  <Rbt.Current_Directory>
/home/itssahil/PROJECTS/Mol_Feturizer/Test_systems_manuscript/rnas/4nya

>  <Rbt.Executable>
rbdock ($Id: //depot/dev/client3/rdock/2013.1/src/exe/rbdock.cxx#4 $)

>  <Rbt.Library>
libRbt.so (2013.1, Build901 2013/11/27)

>  <Rbt.Parameter_File>
/export/apps/rDock/src/rDock_2013.1_src/data/scripts/dock_solv.prm

>  <Rbt.Receptor>
prm/blind_docking_100.prm

>  <SCORE>
-15.0715

>  <SCORE.INTER>
-13.845

>  <SCORE.INTER.CONST>
1

>  <SCORE.INTER.POLAR>
0

>  <SCORE.INTER.ROT>
3

>  <SCORE.INTER.SOLV>
13.531

>  <SCORE.INTER.VDW>
-19.3404

>  <SCORE.INTER.norm>
-1.15375

>  <SCORE.INTRA>
-1.22645

>  <SCORE.INTRA.DIHEDRAL>
-2.24013

>  <SCORE.INTRA.DIHEDRAL.0>
3.34563

>  <SCORE.INTRA.POLAR>
0

>  <SCORE.INTRA.POLAR.0>
0

>  <SCORE.INTRA.REPUL>
0

>  <SCORE.INTRA.REPUL.0>
0

>  <SCORE.INTRA.SOLV>
-1.27605

>  <SCORE.INTRA.SOLV.lig_0>
-59.746

>  <SCORE.INTRA.VDW>
0.531644

>  <SCORE.INTRA.VDW.0>
-0.691186

>  <SCORE.INTRA.norm>
-0.102204

>  <SCORE.RESTR>
0

>  <SCORE.RESTR.CAVITY>
0

>  <SCORE.RESTR.norm>
0

>  <SCORE.SYSTEM>
0

>  <SCORE.SYSTEM.CONST>
0

>  <SCORE.SYSTEM.DIHEDRAL>
0

>  <SCORE.SYSTEM.SOLV>
0

>  <SCORE.SYSTEM.norm>
0

>  <SCORE.heavy>
12

>  <SCORE.norm>
-1.25596

>  <RMSD>
2.811

$$$$
ligand
 OpenBabel02271912143D
libRbt.so/2013.1/901 2013/11/27
 12 12  0  0  0  0  0  0  0  0999 V2000
  -21.5061  -11.5307   95.3225 C   0  0  0  0  0  0  0  0  0  0  0  0
  -19.9280   -6.2602   95.2295 C   0  0  0  0  0  0  0  0  0  0  0  0
  -23.1578   -9.5397   96.0578 N   0  0  0  0  0  0  0  0  0  0  0  0
  -20.4285  -12.4934   95.5918 N   0  0  0  0  0  0  0  0  0  0  0  0
  -20.6977  -13.5737   95.4602 N   0  0  0  0  0  0  0  0  0  0  0  0
  -20.9677  -14.6528   95.3238 N   0  0  0  0  0  0  0  0  0  0  0  0
  -19.4279   -8.5458   94.9139 N   0  0  0  0  0  0  0  0  0  0  0  0
  -20.3025   -7.5977   95.2751 C   0  0  0  0  0  0  0  0  0  0  0  0
  -21.5154   -7.9249   95.7451 N   0  0  0  0  0  0  0  0  0  0  0  0
  -21.8874   -9.2087   95.8539 C   0  0  0  0  0  0  0  0  0  0  0  0
  -21.0274  -10.2366   95.4851 C   0  0  0  0  0  0  0  0  0  0  0  0
  -19.7635   -9.9012   95.0145 C   0  0  0  0  0  0  0  0  0  0  0  0
  1 11  1  0  0  0  0
  1  4  1  0  0  0  0
  2  8  1  0  0  0  0
  3 10  1  0  0  0  0
  4  5  1  0  0  0  0
  5  6  1  0  0  0  0
  7  8  2  0  0  0  0
  7 12  1  0  0  0  0
  8  9  1  0  0  0  0
  9 10  2  0  0  0  0
 10 11  1  0  0  0  0
 11 12  2  0  0  0  0
M  END
>  <CHROM.1>
-152.31297788,-178.28630115,63.67544690,-20.88501651,-10.14155539,95.43968238
1.63847469,-0.28405383,-3.13332619

>  <Name>
ligand

>  <RI>
0

>  <Rbt.Current_Directory>
/home/itssahil/PROJECTS/Mol_Feturizer/Test_systems_manuscript/rnas/4nya

>  <Rbt.Executable>
rbdock ($Id: //depot/dev/client3/rdock/2013.1/src/exe/rbdock.cxx#4 $)

>  <Rbt.Library>
libRbt.so (2013.1, Build901 2013/11/27)

>  <Rbt.Parameter_File>
/export/apps/rDock/src/rDock_2013.1_src/data/scripts/dock_solv.prm

>  <Rbt.Receptor>
prm/pocket_docking_4.prm

>  <SCORE>
-15.0189

>  <SCORE.INTER>
-13.7741

>  <SCORE.INTER.CONST>
1

>  <SCORE.INTER.POLAR>
0

>  <SCORE.INTER.ROT>
3

>  <SCORE.INTER.SOLV>
13.6581

>  <SCORE.INTER.VDW>
-19.3354

>  <SCORE.INTER.norm>
-1.14784

>  <SCORE.INTRA>
-1.24477

>  <SCORE.INTRA.DIHEDRAL>
-2.2267

>  <SCORE.INTRA.DIHEDRAL.0>
3.34563

>  <SCORE.INTRA.POLAR>
0

>  <SCORE.INTRA.POLAR.0>
0

>  <SCORE.INTRA.REPUL>
0

>  <SCORE.INTRA.REPUL.0>
0

>  <SCORE.INTRA.SOLV>
-1.26501

>  <SCORE.INTRA.SOLV.lig_0>
-59.746

>  <SCORE.INTRA.VDW>
0.501082

>  <SCORE.INTRA.VDW.0>
-0.691186

>  <SCORE.INTRA.norm>
-0.103731

>  <SCORE.RESTR>
0

>  <SCORE.RESTR.CAVITY>
0

>  <SCORE.RESTR.norm>
0

>  <SCORE.SYSTEM>
0

>  <SCORE.SYSTEM.CONST>
0

>  <SCORE.SYSTEM.DIHEDRAL>
0

>  <SCORE.SYSTEM.SOLV>
0

>  <SCORE.SYSTEM.norm>
0

>  <SCORE.heavy>
12

>  <SCORE.norm>
-1.25157

>  <RMSD>
2.811

$$$$
ligand
 OpenBabel02271912143D
libRbt.so/2013.1/901 2013/11/27
 12 12  0  0  0  0  0  0  0  0999 V2000
  -21.5177  -11.5248   95.3253 C   0  0  0  0  0  0  0  0  0  0  0  0
  -19.9330   -6.2564   95.2240 C   0  0  0  0  0  0  0  0  0  0  0  0
  -23.1727   -9.5291   96.0403 N   0  0  0  0  0  0  0  0  0  0  0  0
  -20.4346  -12.4868   95.5744 N   0  0  0  0  0  0  0  0  0  0  0  0
  -20.7027  -13.5666   95.4375 N   0  0  0  0  0  0  0  0  0  0  0  0
  -20.9660  -14.6475   95.3018 N   0  0  0  0  0  0  0  0  0  0  0  0
  -19.4331   -8.5437   94.9211 N   0  0  0  0  0  0  0  0  0  0  0  0
  -20.3094   -7.5932   95.2719 C   0  0  0  0  0  0  0  0  0  0  0  0
  -21.5263   -7.9173   95.7339 N   0  0  0  0  0  0  0  0  0  0  0  0
  -21.9005   -9.2003   95.8448 C   0  0  0  0  0  0  0  0  0  0  0  0
  -21.0388  -10.2305   95.4866 C   0  0  0  0  0  0  0  0  0  0  0  0
  -19.7710   -9.8983   95.0244 C   0  0  0  0  0  0  0  0  0  0  0  0
  1 11  1  0  0  0  0
  1  4  1  0  0  0  0
  2  8  1  0  0  0  0
  3 10  1  0  0  0  0
  4  5  1  0  0  0  0
  5  6  1  0  0  0  0
  7  8  2  0  0  0  0
  7 12  1  0  0  0  0
  8  9  1  0  0  0  0
  9 10  2  0  0  0  0
 10 11  1  0  0  0  0
 11 12  2  0  0  0  0
M  END
>  <CHROM.1>
-153.69541338,-178.01825492,-179.95908774,-20.89293460,-10.13564406,95.43208245
1.63704877,-0.27890907,-3.13158395

>  <Name>
ligand

>  <RI>
0

>  <Rbt.Current_Directory>
/home/itssahil/PROJECTS/Mol_Feturizer/Test_systems_manuscript/rnas/4nya

>  <Rbt.Executable>
rbdock ($Id: //depot/dev/client3/rdock/2013.1/src/exe/rbdock.cxx#4 $)

>  <Rbt.Library>
libRbt.so (2013.1, Build901 2013/11/27)

>  <Rbt.Parameter_File>
/export/apps/rDock/src/rDock_2013.1_src/data/scripts/dock_solv.prm

>  <Rbt.Receptor>
prm/pocket_docking_5.prm

>  <SCORE>
-15.015

>  <SCORE.INTER>
-13.7803

>  <SCORE.INTER.CONST>
1

>  <SCORE.INTER.POLAR>
0

>  <SCORE.INTER.ROT>
3

>  <SCORE.INTER.SOLV>
13.5989

>  <SCORE.INTER.VDW>
-19.3198

>  <SCORE.INTER.norm>
-1.14836

>  <SCORE.INTRA>
-1.23472

>  <SCORE.INTRA.DIHEDRAL>
-2.23784

>  <SCORE.INTRA.DIHEDRAL.0>
3.34563

>  <SCORE.INTRA.POLAR>
0

>  <SCORE.INTRA.POLAR.0>
0

>  <SCORE.INTRA.REPUL>
0

>  <SCORE.INTRA.REPUL.0>
0

>  <SCORE.INTRA.SOLV>
-1.27514

>  <SCORE.INTRA.SOLV.lig_0>
-59.746

>  <SCORE.INTRA.VDW>
0.521766

>  <SCORE.INTRA.VDW.0>
-0.691186

>  <SCORE.INTRA.norm>
-0.102894

>  <SCORE.RESTR>
0

>  <SCORE.RESTR.CAVITY>
0

>  <SCORE.RESTR.norm>
0

>  <SCORE.SYSTEM>
0

>  <SCORE.SYSTEM.CONST>
0

>  <SCORE.SYSTEM.DIHEDRAL>
0

>  <SCORE.SYSTEM.SOLV>
0

>  <SCORE.SYSTEM.norm>
0

>  <SCORE.heavy>
12

>  <SCORE.norm>
-1.25125

>  <RMSD>
2.811

$$$$
ligand
 OpenBabel02271912143D
libRbt.so/2013.1/901 2013/11/27
 12 12  0  0  0  0  0  0  0  0999 V2000
  -21.5084  -11.5281   95.3114 C   0  0  0  0  0  0  0  0  0  0  0  0
  -19.9386   -6.2547   95.2450 C   0  0  0  0  0  0  0  0  0  0  0  0
  -23.1650   -9.5430   96.0515 N   0  0  0  0  0  0  0  0  0  0  0  0
  -20.4369  -12.4909   95.6034 N   0  0  0  0  0  0  0  0  0  0  0  0
  -20.7021  -13.5709   95.4623 N   0  0  0  0  0  0  0  0  0  0  0  0
  -20.9629  -14.6520   95.3233 N   0  0  0  0  0  0  0  0  0  0  0  0
  -19.4341   -8.5381   94.9207 N   0  0  0  0  0  0  0  0  0  0  0  0
  -20.3111   -7.5930   95.2839 C   0  0  0  0  0  0  0  0  0  0  0  0
  -21.5246   -7.9242   95.7497 N   0  0  0  0  0  0  0  0  0  0  0  0
  -21.8948   -9.2091   95.8520 C   0  0  0  0  0  0  0  0  0  0  0  0
  -21.0322  -10.2339   95.4807 C   0  0  0  0  0  0  0  0  0  0  0  0
  -19.7678   -9.8945   95.0145 C   0  0  0  0  0  0  0  0  0  0  0  0
  1 11  1  0  0  0  0
  1  4  1  0  0  0  0
  2  8  1  0  0  0  0
  3 10  1  0  0  0  0
  4  5  1  0  0  0  0
  5  6  1  0  0  0  0
  7  8  2  0  0  0  0
  7 12  1  0  0  0  0
  8  9  1  0  0  0  0
  9 10  2  0  0  0  0
 10 11  1  0  0  0  0
 11 12  2  0  0  0  0
M  END
>  <CHROM.1>
-151.26237378,-177.90183995,-172.41072478,-20.89073377,-10.13882299,95.44192614
1.63730358,-0.28027912,-3.13273132

>  <Name>
ligand

>  <RI>
0

>  <Rbt.Current_Directory>
/home/itssahil/PROJECTS/Mol_Feturizer/Test_systems_manuscript/rnas/4nya

>  <Rbt.Executable>
rbdock ($Id: //depot/dev/client3/rdock/2013.1/src/exe/rbdock.cxx#4 $)

>  <Rbt.Library>
libRbt.so (2013.1, Build901 2013/11/27)

>  <Rbt.Parameter_File>
/export/apps/rDock/src/rDock_2013.1_src/data/scripts/dock_solv.prm

>  <Rbt.Receptor>
prm/pocket_docking_6.prm

>  <SCORE>
-15.0164

>  <SCORE.INTER>
-13.7665

>  <SCORE.INTER.CONST>
1

>  <SCORE.INTER.POLAR>
0

>  <SCORE.INTER.ROT>
3

>  <SCORE.INTER.SOLV>
13.6335

>  <SCORE.INTER.VDW>
-19.3222

>  <SCORE.INTER.norm>
-1.14721

>  <SCORE.INTRA>
-1.24982

>  <SCORE.INTRA.DIHEDRAL>
-2.20534

>  <SCORE.INTRA.DIHEDRAL.0>
3.34563

>  <SCORE.INTRA.POLAR>
0

>  <SCORE.INTRA.POLAR.0>
0

>  <SCORE.INTRA.REPUL>
0

>  <SCORE.INTRA.REPUL.0>
0

>  <SCORE.INTRA.SOLV>
-1.26136

>  <SCORE.INTRA.SOLV.lig_0>
-59.746

>  <SCORE.INTRA.VDW>
0.483529

>  <SCORE.INTRA.VDW.0>
-0.691186

>  <SCORE.INTRA.norm>
-0.104152

>  <SCORE.RESTR>
0

>  <SCORE.RESTR.CAVITY>
0

>  <SCORE.RESTR.norm>
0

>  <SCORE.SYSTEM>
0

>  <SCORE.SYSTEM.CONST>
0

>  <SCORE.SYSTEM.DIHEDRAL>
0

>  <SCORE.SYSTEM.SOLV>
0

>  <SCORE.SYSTEM.norm>
0

>  <SCORE.heavy>
12

>  <SCORE.norm>
-1.25136

>  <RMSD>
2.811

$$$$
ligand
 OpenBabel02271912143D
libRbt.so/2013.1/901 2013/11/27
 12 12  0  0  0  0  0  0  0  0999 V2000
  -21.4929  -11.5308   95.2675 C   0  0  0  0  0  0  0  0  0  0  0  0
  -19.9173   -6.2587   95.2623 C   0  0  0  0  0  0  0  0  0  0  0  0
  -23.1422   -9.5541   96.0454 N   0  0  0  0  0  0  0  0  0  0  0  0
  -20.4334  -12.4999   95.5820 N   0  0  0  0  0  0  0  0  0  0  0  0
  -20.7022  -13.5783   95.4356 N   0  0  0  0  0  0  0  0  0  0  0  0
  -20.9717  -14.6556   95.2844 N   0  0  0  0  0  0  0  0  0  0  0  0
  -19.4176   -8.5380   94.9037 N   0  0  0  0  0  0  0  0  0  0  0  0
  -20.2911   -7.5969   95.2856 C   0  0  0  0  0  0  0  0  0  0  0  0
  -21.5019   -7.9331   95.7548 N   0  0  0  0  0  0  0  0  0  0  0  0
  -21.8729   -9.2189   95.8421 C   0  0  0  0  0  0  0  0  0  0  0  0
  -21.0140  -10.2395   95.4513 C   0  0  0  0  0  0  0  0  0  0  0  0
  -19.7523   -9.8951   94.9814 C   0  0  0  0  0  0  0  0  0  0  0  0
  1 11  1  0  0  0  0
  1  4  1  0  0  0  0
  2  8  1  0  0  0  0
  3 10  1  0  0  0  0
  4  5  1  0  0  0  0
  5  6  1  0  0  0  0
  7  8  2  0  0  0  0
  7 12  1  0  0  0  0
  8  9  1  0  0  0  0
  9 10  2  0  0  0  0
 10 11  1  0  0  0  0
 11 12  2  0  0  0  0
M  END
>  <CHROM.1>
-149.41997621,-178.12509717,60.85500578,-20.87684378,-10.14437715,95.42533198
1.64190772,-0.28383784,-3.12546758

>  <Name>
ligand

>  <RI>
0

>  <Rbt.Current_Directory>
/home/itssahil/PROJECTS/Mol_Feturizer/Test_systems_manuscript/rnas/4nya

>  <Rbt.Executable>
rbdock ($Id: //depot/dev/client3/rdock/2013.1/src/exe/rbdock.cxx#4 $)

>  <Rbt.Library>
libRbt.so (2013.1, Build901 2013/11/27)

>  <Rbt.Parameter_File>
/export/apps/rDock/src/rDock_2013.1_src/data/scripts/dock_solv.prm

>  <Rbt.Receptor>
prm/pocket_docking_6.prm

>  <SCORE>
-15.0509

>  <SCORE.INTER>
-13.7831

>  <SCORE.INTER.CONST>
1

>  <SCORE.INTER.POLAR>
0

>  <SCORE.INTER.ROT>
3

>  <SCORE.INTER.SOLV>
13.5858

>  <SCORE.INTER.VDW>
-19.3174

>  <SCORE.INTER.norm>
-1.14859

>  <SCORE.INTRA>
-1.26774

>  <SCORE.INTRA.DIHEDRAL>
-2.20289

>  <SCORE.INTRA.DIHEDRAL.0>
3.34563

>  <SCORE.INTRA.POLAR>
0

>  <SCORE.INTRA.POLAR.0>
0

>  <SCORE.INTRA.REPUL>
0

>  <SCORE.INTRA.REPUL.0>
0

>  <SCORE.INTRA.SOLV>
-1.24731

>  <SCORE.INTRA.SOLV.lig_0>
-59.746

>  <SCORE.INTRA.VDW>
0.457363

>  <SCORE.INTRA.VDW.0>
-0.691186

>  <SCORE.INTRA.norm>
-0.105645

>  <SCORE.RESTR>
0

>  <SCORE.RESTR.CAVITY>
0

>  <SCORE.RESTR.norm>
0

>  <SCORE.SYSTEM>
0

>  <SCORE.SYSTEM.CONST>
0

>  <SCORE.SYSTEM.DIHEDRAL>
0

>  <SCORE.SYSTEM.SOLV>
0

>  <SCORE.SYSTEM.norm>
0

>  <SCORE.heavy>
12

>  <SCORE.norm>
-1.25424

>  <RMSD>
2.811

$$$$
ligand
 OpenBabel02271912143D
libRbt.so/2013.1/901 2013/11/27
 12 12  0  0  0  0  0  0  0  0999 V2000
  -21.4926  -11.5303   95.2726 C   0  0  0  0  0  0  0  0  0  0  0  0
  -19.9165   -6.2584   95.2617 C   0  0  0  0  0  0  0  0  0  0  0  0
  -23.1414   -9.5526   96.0493 N   0  0  0  0  0  0  0  0  0  0  0  0
  -20.4330  -12.4992   95.5870 N   0  0  0  0  0  0  0  0  0  0  0  0
  -20.6990  -13.5773   95.4332 N   0  0  0  0  0  0  0  0  0  0  0  0
  -20.9688  -14.6545   95.2825 N   0  0  0  0  0  0  0  0  0  0  0  0
  -19.4172   -8.5381   94.9051 N   0  0  0  0  0  0  0  0  0  0  0  0
  -20.2904   -7.5966   95.2864 C   0  0  0  0  0  0  0  0  0  0  0  0
  -21.5010   -7.9322   95.7564 N   0  0  0  0  0  0  0  0  0  0  0  0
  -21.8722   -9.2178   95.8451 C   0  0  0  0  0  0  0  0  0  0  0  0
  -21.0136  -10.2389   95.4549 C   0  0  0  0  0  0  0  0  0  0  0  0
  -19.7520   -9.8951   94.9841 C   0  0  0  0  0  0  0  0  0  0  0  0
  1 11  1  0  0  0  0
  1  4  1  0  0  0  0
  2  8  1  0  0  0  0
  3 10  1  0  0  0  0
  4  5  1  0  0  0  0
  5  6  1  0  0  0  0
  7  8  2  0  0  0  0
  7 12  1  0  0  0  0
  8  9  1  0  0  0  0
  9 10  2  0  0  0  0
 10 11  1  0  0  0  0
 11 12  2  0  0  0  0
M  END
>  <CHROM.1>
-149.44219711,-177.60959744,-56.76871325,-20.87584491,-10.14370072,95.42712518
1.64156506,-0.28463122,-3.12536862

>  <Name>
ligand

>  <RI>
0

>  <Rbt.Current_Directory>
/home/itssahil/PROJECTS/Mol_Feturizer/Test_systems_manuscript/rnas/4nya

>  <Rbt.Executable>
rbdock ($Id: //depot/dev/client3/rdock/2013.1/src/exe/rbdock.cxx#4 $)

>  <Rbt.Library>
libRbt.so (2013.1, Build901 2013/11/27)

>  <Rbt.Parameter_File>
/export/apps/rDock/src/rDock_2013.1_src/data/scripts/dock_solv.prm

>  <Rbt.Receptor>
prm/pocket_docking_6.prm

>  <SCORE>
-15.0455

>  <SCORE.INTER>
-13.7806

>  <SCORE.INTER.CONST>
1

>  <SCORE.INTER.POLAR>
0

>  <SCORE.INTER.ROT>
3

>  <SCORE.INTER.SOLV>
13.5989

>  <SCORE.INTER.VDW>
-19.32

>  <SCORE.INTER.norm>
-1.14838

>  <SCORE.INTRA>
-1.26489

>  <SCORE.INTRA.DIHEDRAL>
-2.19868

>  <SCORE.INTRA.DIHEDRAL.0>
3.34563

>  <SCORE.INTRA.POLAR>
0

>  <SCORE.INTRA.POLAR.0>
0

>  <SCORE.INTRA.REPUL>
0

>  <SCORE.INTRA.REPUL.0>
0

>  <SCORE.INTRA.SOLV>
-1.24629

>  <SCORE.INTRA.SOLV.lig_0>
-59.746

>  <SCORE.INTRA.VDW>
0.4576

>  <SCORE.INTRA.VDW.0>
-0.691186

>  <SCORE.INTRA.norm>
-0.105407

>  <SCORE.RESTR>
0

>  <SCORE.RESTR.CAVITY>
0

>  <SCORE.RESTR.norm>
0

>  <SCORE.SYSTEM>
0

>  <SCORE.SYSTEM.CONST>
0

>  <SCORE.SYSTEM.DIHEDRAL>
0

>  <SCORE.SYSTEM.SOLV>
0

>  <SCORE.SYSTEM.norm>
0

>  <SCORE.heavy>
12

>  <SCORE.norm>
-1.25379

>  <RMSD>
2.811

$$$$
ligand
 OpenBabel02271912143D
libRbt.so/2013.1/901 2013/11/27
 12 12  0  0  0  0  0  0  0  0999 V2000
  -21.4921  -11.5313   95.2768 C   0  0  0  0  0  0  0  0  0  0  0  0
  -19.9165   -6.2592   95.2577 C   0  0  0  0  0  0  0  0  0  0  0  0
  -23.1405   -9.5528   96.0523 N   0  0  0  0  0  0  0  0  0  0  0  0
  -20.4310  -12.4996   95.5880 N   0  0  0  0  0  0  0  0  0  0  0  0
  -20.7014  -13.5785   95.4484 N   0  0  0  0  0  0  0  0  0  0  0  0
  -20.9724  -14.6564   95.3039 N   0  0  0  0  0  0  0  0  0  0  0  0
  -19.4173   -8.5394   94.9036 N   0  0  0  0  0  0  0  0  0  0  0  0
  -20.2903   -7.5974   95.2845 C   0  0  0  0  0  0  0  0  0  0  0  0
  -21.5005   -7.9326   95.7559 N   0  0  0  0  0  0  0  0  0  0  0  0
  -21.8714   -9.2181   95.8466 C   0  0  0  0  0  0  0  0  0  0  0  0
  -21.0130  -10.2396   95.4570 C   0  0  0  0  0  0  0  0  0  0  0  0
  -19.7519   -9.8963   94.9848 C   0  0  0  0  0  0  0  0  0  0  0  0
  1 11  1  0  0  0  0
  1  4  1  0  0  0  0
  2  8  1  0  0  0  0
  3 10  1  0  0  0  0
  4  5  1  0  0  0  0
  5  6  1  0  0  0  0
  7  8  2  0  0  0  0
  7 12  1  0  0  0  0
  8  9  1  0  0  0  0
  9 10  2  0  0  0  0
 10 11  1  0  0  0  0
 11 12  2  0  0  0  0
M  END
>  <CHROM.1>
-149.59800210,-178.38696065,64.24179444,-20.87591950,-10.14457193,95.43067939
1.64202225,-0.28513097,-3.12780267

>  <Name>
ligand

>  <RI>
0

>  <Rbt.Current_Directory>
/home/itssahil/PROJECTS/Mol_Feturizer/Test_systems_manuscript/rnas/4nya

>  <Rbt.Executable>
rbdock ($Id: //depot/dev/client3/rdock/2013.1/src/exe/rbdock.cxx#4 $)

>  <Rbt.Library>
libRbt.so (2013.1, Build901 2013/11/27)

>  <Rbt.Parameter_File>
/export/apps/rDock/src/rDock_2013.1_src/data/scripts/dock_solv.prm

>  <Rbt.Receptor>
prm/pocket_docking_7.prm

>  <SCORE>
-15.048

>  <SCORE.INTER>
-13.783

>  <SCORE.INTER.CONST>
1

>  <SCORE.INTER.POLAR>
0

>  <SCORE.INTER.ROT>
3

>  <SCORE.INTER.SOLV>
13.6173

>  <SCORE.INTER.VDW>
-19.3278

>  <SCORE.INTER.norm>
-1.14858

>  <SCORE.INTRA>
-1.26502

>  <SCORE.INTRA.DIHEDRAL>
-2.20094

>  <SCORE.INTRA.DIHEDRAL.0>
3.34563

>  <SCORE.INTRA.POLAR>
0

>  <SCORE.INTRA.POLAR.0>
0

>  <SCORE.INTRA.REPUL>
0

>  <SCORE.INTRA.REPUL.0>
0

>  <SCORE.INTRA.SOLV>
-1.24906

>  <SCORE.INTRA.SOLV.lig_0>
-59.746

>  <SCORE.INTRA.VDW>
0.459984

>  <SCORE.INTRA.VDW.0>
-0.691186

>  <SCORE.INTRA.norm>
-0.105418

>  <SCORE.RESTR>
0

>  <SCORE.RESTR.CAVITY>
0

>  <SCORE.RESTR.norm>
0

>  <SCORE.SYSTEM>
0

>  <SCORE.SYSTEM.CONST>
0

>  <SCORE.SYSTEM.DIHEDRAL>
0

>  <SCORE.SYSTEM.SOLV>
0

>  <SCORE.SYSTEM.norm>
0

>  <SCORE.heavy>
12

>  <SCORE.norm>
-1.254

>  <RMSD>
2.811

$$$$
ligand
 OpenBabel02271912143D
libRbt.so/2013.1/901 2013/11/27
 12 12  0  0  0  0  0  0  0  0999 V2000
  -21.5254  -11.5616   95.3600 C   0  0  0  0  0  0  0  0  0  0  0  0
  -19.9411   -6.2931   95.2614 C   0  0  0  0  0  0  0  0  0  0  0  0
  -23.1854   -9.5653   96.0614 N   0  0  0  0  0  0  0  0  0  0  0  0
  -20.4431  -12.5230   95.6149 N   0  0  0  0  0  0  0  0  0  0  0  0
  -20.7028  -13.6014   95.4528 N   0  0  0  0  0  0  0  0  0  0  0  0
  -20.9577  -14.6808   95.2920 N   0  0  0  0  0  0  0  0  0  0  0  0
  -19.4388   -8.5807   94.9650 N   0  0  0  0  0  0  0  0  0  0  0  0
  -20.3175   -7.6299   95.3088 C   0  0  0  0  0  0  0  0  0  0  0  0
  -21.5372   -7.9536   95.7634 N   0  0  0  0  0  0  0  0  0  0  0  0
  -21.9120   -9.2365   95.8737 C   0  0  0  0  0  0  0  0  0  0  0  0
  -21.0478  -10.2671   95.5225 C   0  0  0  0  0  0  0  0  0  0  0  0
  -19.7771   -9.9352   95.0680 C   0  0  0  0  0  0  0  0  0  0  0  0
  1 11  1  0  0  0  0
  1  4  1  0  0  0  0
  2  8  1  0  0  0  0
  3 10  1  0  0  0  0
  4  5  1  0  0  0  0
  5  6  1  0  0  0  0
  7  8  2  0  0  0  0
  7 12  1  0  0  0  0
  8  9  1  0  0  0  0
  9 10  2  0  0  0  0
 10 11  1  0  0  0  0
 11 12  2  0  0  0  0
M  END
>  <CHROM.1>
-153.79968879,-176.54873935,-179.60103077,-20.89948679,-10.17176567,95.46162910
1.63488869,-0.27417902,-3.12853172

>  <Name>
ligand

>  <RI>
0

>  <Rbt.Current_Directory>
/home/itssahil/PROJECTS/Mol_Feturizer/Test_systems_manuscript/rnas/4nya

>  <Rbt.Executable>
rbdock ($Id: //depot/dev/client3/rdock/2013.1/src/exe/rbdock.cxx#4 $)

>  <Rbt.Library>
libRbt.so (2013.1, Build901 2013/11/27)

>  <Rbt.Parameter_File>
/export/apps/rDock/src/rDock_2013.1_src/data/scripts/dock_solv.prm

>  <Rbt.Receptor>
prm/pocket_docking_7.prm

>  <SCORE>
-15.0325

>  <SCORE.INTER>
-13.8032

>  <SCORE.INTER.CONST>
1

>  <SCORE.INTER.POLAR>
0

>  <SCORE.INTER.ROT>
3

>  <SCORE.INTER.SOLV>
13.5065

>  <SCORE.INTER.VDW>
-19.3043

>  <SCORE.INTER.norm>
-1.15027

>  <SCORE.INTRA>
-1.22927

>  <SCORE.INTRA.DIHEDRAL>
-2.23176

>  <SCORE.INTRA.DIHEDRAL.0>
3.34563

>  <SCORE.INTRA.POLAR>
0

>  <SCORE.INTRA.POLAR.0>
0

>  <SCORE.INTRA.REPUL>
0

>  <SCORE.INTRA.REPUL.0>
0

>  <SCORE.INTRA.SOLV>
-1.27283

>  <SCORE.INTRA.SOLV.lig_0>
-59.746

>  <SCORE.INTRA.VDW>
0.523027

>  <SCORE.INTRA.VDW.0>
-0.691186

>  <SCORE.INTRA.norm>
-0.102439

>  <SCORE.RESTR>
0

>  <SCORE.RESTR.CAVITY>
0

>  <SCORE.RESTR.norm>
0

>  <SCORE.SYSTEM>
0

>  <SCORE.SYSTEM.CONST>
0

>  <SCORE.SYSTEM.DIHEDRAL>
0

>  <SCORE.SYSTEM.SOLV>
0

>  <SCORE.SYSTEM.norm>
0

>  <SCORE.heavy>
12

>  <SCORE.norm>
-1.25271

>  <RMSD>
2.811

$$$$
ligand
 OpenBabel02271912143D
libRbt.so/2013.1/901 2013/11/27
 12 12  0  0  0  0  0  0  0  0999 V2000
  -21.5107  -11.5195   95.3138 C   0  0  0  0  0  0  0  0  0  0  0  0
  -19.9389   -6.2472   95.2133 C   0  0  0  0  0  0  0  0  0  0  0  0
  -23.1666   -9.5290   96.0409 N   0  0  0  0  0  0  0  0  0  0  0  0
  -20.4338  -12.4804   95.5923 N   0  0  0  0  0  0  0  0  0  0  0  0
  -20.6995  -13.5610   95.4565 N   0  0  0  0  0  0  0  0  0  0  0  0
  -20.9606  -14.6426   95.3225 N   0  0  0  0  0  0  0  0  0  0  0  0
  -19.4352   -8.5329   94.9038 N   0  0  0  0  0  0  0  0  0  0  0  0
  -20.3119   -7.5851   95.2609 C   0  0  0  0  0  0  0  0  0  0  0  0
  -21.5255   -7.9128   95.7287 N   0  0  0  0  0  0  0  0  0  0  0  0
  -21.8962   -9.1969   95.8393 C   0  0  0  0  0  0  0  0  0  0  0  0
  -21.0340  -10.2244   95.4747 C   0  0  0  0  0  0  0  0  0  0  0  0
  -19.7694   -9.8884   95.0064 C   0  0  0  0  0  0  0  0  0  0  0  0
  1 11  1  0  0  0  0
  1  4  1  0  0  0  0
  2  8  1  0  0  0  0
  3 10  1  0  0  0  0
  4  5  1  0  0  0  0
  5  6  1  0  0  0  0
  7  8  2  0  0  0  0
  7 12  1  0  0  0  0
  8  9  1  0  0  0  0
  9 10  2  0  0  0  0
 10 11  1  0  0  0  0
 11 12  2  0  0  0  0
M  END
>  <CHROM.1>
-152.11456872,-177.91137476,-174.33560817,-20.89100919,-10.12946008,95.42970973
1.63654177,-0.28163049,-3.13602680

>  <Name>
ligand

>  <RI>
0

>  <Rbt.Current_Directory>
/home/itssahil/PROJECTS/Mol_Feturizer/Test_systems_manuscript/rnas/4nya

>  <Rbt.Executable>
rbdock ($Id: //depot/dev/client3/rdock/2013.1/src/exe/rbdock.cxx#4 $)

>  <Rbt.Library>
libRbt.so (2013.1, Build901 2013/11/27)

>  <Rbt.Parameter_File>
/export/apps/rDock/src/rDock_2013.1_src/data/scripts/dock_solv.prm

>  <Rbt.Receptor>
prm/pocket_docking_4.prm

>  <SCORE>
-15.0245

>  <SCORE.INTER>
-13.7785

>  <SCORE.INTER.CONST>
1

>  <SCORE.INTER.POLAR>
0

>  <SCORE.INTER.ROT>
3

>  <SCORE.INTER.SOLV>
13.6832

>  <SCORE.INTER.VDW>
-19.3467

>  <SCORE.INTER.norm>
-1.14821

>  <SCORE.INTRA>
-1.24601

>  <SCORE.INTRA.DIHEDRAL>
-2.21906

>  <SCORE.INTRA.DIHEDRAL.0>
3.34563

>  <SCORE.INTRA.POLAR>
0

>  <SCORE.INTRA.POLAR.0>
0

>  <SCORE.INTRA.REPUL>
0

>  <SCORE.INTRA.REPUL.0>
0

>  <SCORE.INTRA.SOLV>
-1.2663

>  <SCORE.INTRA.SOLV.lig_0>
-59.746

>  <SCORE.INTRA.VDW>
0.496671

>  <SCORE.INTRA.VDW.0>
-0.691186

>  <SCORE.INTRA.norm>
-0.103834

>  <SCORE.RESTR>
0

>  <SCORE.RESTR.CAVITY>
0

>  <SCORE.RESTR.norm>
0

>  <SCORE.SYSTEM>
0

>  <SCORE.SYSTEM.CONST>
0

>  <SCORE.SYSTEM.DIHEDRAL>
0

>  <SCORE.SYSTEM.SOLV>
0

>  <SCORE.SYSTEM.norm>
0

>  <SCORE.heavy>
12

>  <SCORE.norm>
-1.25204

>  <RMSD>
2.812

$$$$
ligand
 OpenBabel02271912143D
libRbt.so/2013.1/901 2013/11/27
 12 12  0  0  0  0  0  0  0  0999 V2000
  -21.5089  -11.5683   95.3581 C   0  0  0  0  0  0  0  0  0  0  0  0
  -19.8900   -6.3108   95.2352 C   0  0  0  0  0  0  0  0  0  0  0  0
  -23.1477   -9.5598   96.0745 N   0  0  0  0  0  0  0  0  0  0  0  0
  -20.4388  -12.5374   95.6341 N   0  0  0  0  0  0  0  0  0  0  0  0
  -20.7014  -13.6135   95.4620 N   0  0  0  0  0  0  0  0  0  0  0  0
  -20.9593  -14.6908   95.2918 N   0  0  0  0  0  0  0  0  0  0  0  0
  -19.4065   -8.6022   94.9366 N   0  0  0  0  0  0  0  0  0  0  0  0
  -20.2750   -7.6450   95.2885 C   0  0  0  0  0  0  0  0  0  0  0  0
  -21.4919   -7.9598   95.7566 N   0  0  0  0  0  0  0  0  0  0  0  0
  -21.8742   -9.2399   95.8727 C   0  0  0  0  0  0  0  0  0  0  0  0
  -21.0208  -10.2768   95.5136 C   0  0  0  0  0  0  0  0  0  0  0  0
  -19.7529   -9.9543   95.0450 C   0  0  0  0  0  0  0  0  0  0  0  0
  1 11  1  0  0  0  0
  1  4  1  0  0  0  0
  2  8  1  0  0  0  0
  3 10  1  0  0  0  0
  4  5  1  0  0  0  0
  5  6  1  0  0  0  0
  7  8  2  0  0  0  0
  7 12  1  0  0  0  0
  8  9  1  0  0  0  0
  9 10  2  0  0  0  0
 10 11  1  0  0  0  0
 11 12  2  0  0  0  0
M  END
>  <CHROM.1>
-152.45448037,-175.51624613,-175.67995916,-20.87311072,-10.18261671,95.45557151
1.64235504,-0.28364927,-3.13006133

>  <Name>
ligand

>  <RI>
0

>  <Rbt.Current_Directory>
/home/itssahil/PROJECTS/Mol_Feturizer/Test_systems_manuscript/rnas/4nya

>  <Rbt.Executable>
rbdock ($Id: //depot/dev/client3/rdock/2013.1/src/exe/rbdock.cxx#4 $)

>  <Rbt.Library>
libRbt.so (2013.1, Build901 2013/11/27)

>  <Rbt.Parameter_File>
/export/apps/rDock/src/rDock_2013.1_src/data/scripts/dock_solv.prm

>  <Rbt.Receptor>
prm/pocket_docking_4.prm

>  <SCORE>
-15.0311

>  <SCORE.INTER>
-13.7946

>  <SCORE.INTER.CONST>
1

>  <SCORE.INTER.POLAR>
0

>  <SCORE.INTER.ROT>
3

>  <SCORE.INTER.SOLV>
13.6084

>  <SCORE.INTER.VDW>
-19.3325

>  <SCORE.INTER.norm>
-1.14955

>  <SCORE.INTRA>
-1.23651

>  <SCORE.INTRA.DIHEDRAL>
-2.21224

>  <SCORE.INTRA.DIHEDRAL.0>
3.34563

>  <SCORE.INTRA.POLAR>
0

>  <SCORE.INTRA.POLAR.0>
0

>  <SCORE.INTRA.REPUL>
0

>  <SCORE.INTRA.REPUL.0>
0

>  <SCORE.INTRA.SOLV>
-1.26328

>  <SCORE.INTRA.SOLV.lig_0>
-59.746

>  <SCORE.INTRA.VDW>
0.501249

>  <SCORE.INTRA.VDW.0>
-0.691186

>  <SCORE.INTRA.norm>
-0.103043

>  <SCORE.RESTR>
0

>  <SCORE.RESTR.CAVITY>
0

>  <SCORE.RESTR.norm>
0

>  <SCORE.SYSTEM>
0

>  <SCORE.SYSTEM.CONST>
0

>  <SCORE.SYSTEM.DIHEDRAL>
0

>  <SCORE.SYSTEM.SOLV>
0

>  <SCORE.SYSTEM.norm>
0

>  <SCORE.heavy>
12

>  <SCORE.norm>
-1.25259

>  <RMSD>
2.812

$$$$
ligand
 OpenBabel02271912143D
libRbt.so/2013.1/901 2013/11/27
 12 12  0  0  0  0  0  0  0  0999 V2000
  -21.5056  -11.5318   95.2840 C   0  0  0  0  0  0  0  0  0  0  0  0
  -19.9463   -6.2551   95.2413 C   0  0  0  0  0  0  0  0  0  0  0  0
  -23.1679   -9.5529   96.0280 N   0  0  0  0  0  0  0  0  0  0  0  0
  -20.4383  -12.4940   95.5931 N   0  0  0  0  0  0  0  0  0  0  0  0
  -20.7041  -13.5747   95.4581 N   0  0  0  0  0  0  0  0  0  0  0  0
  -20.9652  -14.6564   95.3248 N   0  0  0  0  0  0  0  0  0  0  0  0
  -19.4365   -8.5362   94.9094 N   0  0  0  0  0  0  0  0  0  0  0  0
  -20.3162   -7.5942   95.2743 C   0  0  0  0  0  0  0  0  0  0  0  0
  -21.5300   -7.9297   95.7360 N   0  0  0  0  0  0  0  0  0  0  0  0
  -21.8978   -9.2157   95.8326 C   0  0  0  0  0  0  0  0  0  0  0  0
  -21.0324  -10.2373   95.4593 C   0  0  0  0  0  0  0  0  0  0  0  0
  -19.7676   -9.8935   94.9973 C   0  0  0  0  0  0  0  0  0  0  0  0
  1 11  1  0  0  0  0
  1  4  1  0  0  0  0
  2  8  1  0  0  0  0
  3 10  1  0  0  0  0
  4  5  1  0  0  0  0
  5  6  1  0  0  0  0
  7  8  2  0  0  0  0
  7 12  1  0  0  0  0
  8  9  1  0  0  0  0
  9 10  2  0  0  0  0
 10 11  1  0  0  0  0
 11 12  2  0  0  0  0
M  END
>  <CHROM.1>
-150.46831650,-178.45364574,-179.22518934,-20.89324251,-10.14208885,95.42880521
1.63700133,-0.27624436,-3.13383447

>  <Name>
ligand

>  <RI>
0

>  <Rbt.Current_Directory>
/home/itssahil/PROJECTS/Mol_Feturizer/Test_systems_manuscript/rnas/4nya

>  <Rbt.Executable>
rbdock ($Id: //depot/dev/client3/rdock/2013.1/src/exe/rbdock.cxx#4 $)

>  <Rbt.Library>
libRbt.so (2013.1, Build901 2013/11/27)

>  <Rbt.Parameter_File>
/export/apps/rDock/src/rDock_2013.1_src/data/scripts/dock_solv.prm

>  <Rbt.Receptor>
prm/pocket_docking_6.prm

>  <SCORE>
-15.027

>  <SCORE.INTER>
-13.7623

>  <SCORE.INTER.CONST>
1

>  <SCORE.INTER.POLAR>
0

>  <SCORE.INTER.ROT>
3

>  <SCORE.INTER.SOLV>
13.6297

>  <SCORE.INTER.VDW>
-19.3181

>  <SCORE.INTER.norm>
-1.14686

>  <SCORE.INTRA>
-1.2647

>  <SCORE.INTRA.DIHEDRAL>
-2.21504

>  <SCORE.INTRA.DIHEDRAL.0>
3.34563

>  <SCORE.INTRA.POLAR>
0

>  <SCORE.INTRA.POLAR.0>
0

>  <SCORE.INTRA.REPUL>
0

>  <SCORE.INTRA.REPUL.0>
0

>  <SCORE.INTRA.SOLV>
-1.25768

>  <SCORE.INTRA.SOLV.lig_0>
-59.746

>  <SCORE.INTRA.VDW>
0.471666

>  <SCORE.INTRA.VDW.0>
-0.691186

>  <SCORE.INTRA.norm>
-0.105391

>  <SCORE.RESTR>
0

>  <SCORE.RESTR.CAVITY>
0

>  <SCORE.RESTR.norm>
0

>  <SCORE.SYSTEM>
0

>  <SCORE.SYSTEM.CONST>
0

>  <SCORE.SYSTEM.DIHEDRAL>
0

>  <SCORE.SYSTEM.SOLV>
0

>  <SCORE.SYSTEM.norm>
0

>  <SCORE.heavy>
12

>  <SCORE.norm>
-1.25225

>  <RMSD>
2.812

$$$$
ligand
 OpenBabel02271912143D
libRbt.so/2013.1/901 2013/11/27
 12 12  0  0  0  0  0  0  0  0999 V2000
  -21.4889  -11.5326   95.2670 C   0  0  0  0  0  0  0  0  0  0  0  0
  -19.9245   -6.2572   95.2488 C   0  0  0  0  0  0  0  0  0  0  0  0
  -23.1402   -9.5581   96.0466 N   0  0  0  0  0  0  0  0  0  0  0  0
  -20.4254  -12.4988   95.5764 N   0  0  0  0  0  0  0  0  0  0  0  0
  -20.6990  -13.5789   95.4526 N   0  0  0  0  0  0  0  0  0  0  0  0
  -20.9732  -14.6579   95.3238 N   0  0  0  0  0  0  0  0  0  0  0  0
  -19.4211   -8.5360   94.8924 N   0  0  0  0  0  0  0  0  0  0  0  0
  -20.2955   -7.5962   95.2753 C   0  0  0  0  0  0  0  0  0  0  0  0
  -21.5041   -7.9342   95.7485 N   0  0  0  0  0  0  0  0  0  0  0  0
  -21.8722   -9.2205   95.8390 C   0  0  0  0  0  0  0  0  0  0  0  0
  -21.0123  -10.2400   95.4473 C   0  0  0  0  0  0  0  0  0  0  0  0
  -19.7526   -9.8937   94.9732 C   0  0  0  0  0  0  0  0  0  0  0  0
  1 11  1  0  0  0  0
  1  4  1  0  0  0  0
  2  8  1  0  0  0  0
  3 10  1  0  0  0  0
  4  5  1  0  0  0  0
  5  6  1  0  0  0  0
  7  8  2  0  0  0  0
  7 12  1  0  0  0  0
  8  9  1  0  0  0  0
  9 10  2  0  0  0  0
 10 11  1  0  0  0  0
 11 12  2  0  0  0  0
M  END
>  <CHROM.1>
-149.57443676,-179.34019506,63.53086107,-20.87682695,-10.14481090,95.42509257
1.64113730,-0.28587992,-3.13048186

>  <Name>
ligand

>  <RI>
0

>  <Rbt.Current_Directory>
/home/itssahil/PROJECTS/Mol_Feturizer/Test_systems_manuscript/rnas/4nya

>  <Rbt.Executable>
rbdock ($Id: //depot/dev/client3/rdock/2013.1/src/exe/rbdock.cxx#4 $)

>  <Rbt.Library>
libRbt.so (2013.1, Build901 2013/11/27)

>  <Rbt.Parameter_File>
/export/apps/rDock/src/rDock_2013.1_src/data/scripts/dock_solv.prm

>  <Rbt.Receptor>
prm/pocket_docking_6.prm

>  <SCORE>
-15.0308

>  <SCORE.INTER>
-13.7634

>  <SCORE.INTER.CONST>
1

>  <SCORE.INTER.POLAR>
0

>  <SCORE.INTER.ROT>
3

>  <SCORE.INTER.SOLV>
13.6658

>  <SCORE.INTER.VDW>
-19.3309

>  <SCORE.INTER.norm>
-1.14695

>  <SCORE.INTRA>
-1.26743

>  <SCORE.INTRA.DIHEDRAL>
-2.20397

>  <SCORE.INTRA.DIHEDRAL.0>
3.34563

>  <SCORE.INTRA.POLAR>
0

>  <SCORE.INTRA.POLAR.0>
0

>  <SCORE.INTRA.REPUL>
0

>  <SCORE.INTRA.REPUL.0>
0

>  <SCORE.INTRA.SOLV>
-1.25065

>  <SCORE.INTRA.SOLV.lig_0>
-59.746

>  <SCORE.INTRA.VDW>
0.459881

>  <SCORE.INTRA.VDW.0>
-0.691186

>  <SCORE.INTRA.norm>
-0.105619

>  <SCORE.RESTR>
0

>  <SCORE.RESTR.CAVITY>
0

>  <SCORE.RESTR.norm>
0

>  <SCORE.SYSTEM>
0

>  <SCORE.SYSTEM.CONST>
0

>  <SCORE.SYSTEM.DIHEDRAL>
0

>  <SCORE.SYSTEM.SOLV>
0

>  <SCORE.SYSTEM.norm>
0

>  <SCORE.heavy>
12

>  <SCORE.norm>
-1.25257

>  <RMSD>
2.812

$$$$
ligand
 OpenBabel02271912143D
libRbt.so/2013.1/901 2013/11/27
 12 12  0  0  0  0  0  0  0  0999 V2000
  -21.5340  -11.5627   95.3567 C   0  0  0  0  0  0  0  0  0  0  0  0
  -19.9543   -6.2925   95.2744 C   0  0  0  0  0  0  0  0  0  0  0  0
  -23.2186   -9.5643   95.9902 N   0  0  0  0  0  0  0  0  0  0  0  0
  -20.4502  -12.5198   95.6210 N   0  0  0  0  0  0  0  0  0  0  0  0
  -20.7058  -13.5996   95.4618 N   0  0  0  0  0  0  0  0  0  0  0  0
  -20.9622  -14.6782   95.2977 N   0  0  0  0  0  0  0  0  0  0  0  0
  -19.4395   -8.5813   95.0099 N   0  0  0  0  0  0  0  0  0  0  0  0
  -20.3303   -7.6296   95.3185 C   0  0  0  0  0  0  0  0  0  0  0  0
  -21.5638   -7.9521   95.7352 N   0  0  0  0  0  0  0  0  0  0  0  0
  -21.9402   -9.2348   95.8419 C   0  0  0  0  0  0  0  0  0  0  0  0
  -21.0637  -10.2664   95.5260 C   0  0  0  0  0  0  0  0  0  0  0  0
  -19.7793   -9.9356   95.1109 C   0  0  0  0  0  0  0  0  0  0  0  0
  1 11  1  0  0  0  0
  1  4  1  0  0  0  0
  2  8  1  0  0  0  0
  3 10  1  0  0  0  0
  4  5  1  0  0  0  0
  5  6  1  0  0  0  0
  7  8  2  0  0  0  0
  7 12  1  0  0  0  0
  8  9  1  0  0  0  0
  9 10  2  0  0  0  0
 10 11  1  0  0  0  0
 11 12  2  0  0  0  0
M  END
>  <CHROM.1>
-155.18567125,-176.97593312,63.65962339,-20.91239814,-10.17081269,95.46142669
1.63235763,-0.24368335,-3.13125557

>  <Name>
ligand

>  <RI>
0

>  <Rbt.Current_Directory>
/home/itssahil/PROJECTS/Mol_Feturizer/Test_systems_manuscript/rnas/4nya

>  <Rbt.Executable>
rbdock ($Id: //depot/dev/client3/rdock/2013.1/src/exe/rbdock.cxx#4 $)

>  <Rbt.Library>
libRbt.so (2013.1, Build901 2013/11/27)

>  <Rbt.Parameter_File>
/export/apps/rDock/src/rDock_2013.1_src/data/scripts/dock_solv.prm

>  <Rbt.Receptor>
prm/pocket_docking_7.prm

>  <SCORE>
-15.0229

>  <SCORE.INTER>
-13.8134

>  <SCORE.INTER.CONST>
1

>  <SCORE.INTER.POLAR>
0

>  <SCORE.INTER.ROT>
3

>  <SCORE.INTER.SOLV>
13.4701

>  <SCORE.INTER.VDW>
-19.299

>  <SCORE.INTER.norm>
-1.15112

>  <SCORE.INTRA>
-1.20941

>  <SCORE.INTRA.DIHEDRAL>
-2.23543

>  <SCORE.INTRA.DIHEDRAL.0>
3.34563

>  <SCORE.INTRA.POLAR>
0

>  <SCORE.INTRA.POLAR.0>
0

>  <SCORE.INTRA.REPUL>
0

>  <SCORE.INTRA.REPUL.0>
0

>  <SCORE.INTRA.SOLV>
-1.27759

>  <SCORE.INTRA.SOLV.lig_0>
-59.746

>  <SCORE.INTRA.VDW>
0.5471

>  <SCORE.INTRA.VDW.0>
-0.691186

>  <SCORE.INTRA.norm>
-0.100784

>  <SCORE.RESTR>
0

>  <SCORE.RESTR.CAVITY>
0

>  <SCORE.RESTR.norm>
0

>  <SCORE.SYSTEM>
0

>  <SCORE.SYSTEM.CONST>
0

>  <SCORE.SYSTEM.DIHEDRAL>
0

>  <SCORE.SYSTEM.SOLV>
0

>  <SCORE.SYSTEM.norm>
0

>  <SCORE.heavy>
12

>  <SCORE.norm>
-1.2519

>  <RMSD>
2.812

$$$$
ligand
 OpenBabel02271912143D
libRbt.so/2013.1/901 2013/11/27
 12 12  0  0  0  0  0  0  0  0999 V2000
  -21.4895  -11.5423   95.2778 C   0  0  0  0  0  0  0  0  0  0  0  0
  -19.9223   -6.2677   95.2612 C   0  0  0  0  0  0  0  0  0  0  0  0
  -23.1349   -9.5686   96.0715 N   0  0  0  0  0  0  0  0  0  0  0  0
  -20.4288  -12.5101   95.5920 N   0  0  0  0  0  0  0  0  0  0  0  0
  -20.6957  -13.5888   95.4438 N   0  0  0  0  0  0  0  0  0  0  0  0
  -20.9634  -14.6662   95.2908 N   0  0  0  0  0  0  0  0  0  0  0  0
  -19.4223   -8.5461   94.8970 N   0  0  0  0  0  0  0  0  0  0  0  0
  -20.2938   -7.6066   95.2871 C   0  0  0  0  0  0  0  0  0  0  0  0
  -21.4998   -7.9449   95.7670 N   0  0  0  0  0  0  0  0  0  0  0  0
  -21.8680   -9.2313   95.8569 C   0  0  0  0  0  0  0  0  0  0  0  0
  -21.0110  -10.2504   95.4579 C   0  0  0  0  0  0  0  0  0  0  0  0
  -19.7541   -9.9038   94.9769 C   0  0  0  0  0  0  0  0  0  0  0  0
  1 11  1  0  0  0  0
  1  4  1  0  0  0  0
  2  8  1  0  0  0  0
  3 10  1  0  0  0  0
  4  5  1  0  0  0  0
  5  6  1  0  0  0  0
  7  8  2  0  0  0  0
  7 12  1  0  0  0  0
  8  9  1  0  0  0  0
  9 10  2  0  0  0  0
 10 11  1  0  0  0  0
 11 12  2  0  0  0  0
M  END
>  <CHROM.1>
-148.99531959,-177.85089257,59.56402028,-20.87466367,-10.15503532,95.43237310
1.64069323,-0.29245437,-3.12612559

>  <Name>
ligand

>  <RI>
0

>  <Rbt.Current_Directory>
/home/itssahil/PROJECTS/Mol_Feturizer/Test_systems_manuscript/rnas/4nya

>  <Rbt.Executable>
rbdock ($Id: //depot/dev/client3/rdock/2013.1/src/exe/rbdock.cxx#4 $)

>  <Rbt.Library>
libRbt.so (2013.1, Build901 2013/11/27)

>  <Rbt.Parameter_File>
/export/apps/rDock/src/rDock_2013.1_src/data/scripts/dock_solv.prm

>  <Rbt.Receptor>
prm/pocket_docking_7.prm

>  <SCORE>
-15.0098

>  <SCORE.INTER>
-13.7404

>  <SCORE.INTER.CONST>
1

>  <SCORE.INTER.POLAR>
0

>  <SCORE.INTER.ROT>
3

>  <SCORE.INTER.SOLV>
13.6136

>  <SCORE.INTER.VDW>
-19.2981

>  <SCORE.INTER.norm>
-1.14503

>  <SCORE.INTRA>
-1.2694

>  <SCORE.INTRA.DIHEDRAL>
-2.19713

>  <SCORE.INTRA.DIHEDRAL.0>
3.34563

>  <SCORE.INTRA.POLAR>
0

>  <SCORE.INTRA.POLAR.0>
0

>  <SCORE.INTRA.REPUL>
0

>  <SCORE.INTRA.REPUL.0>
0

>  <SCORE.INTRA.SOLV>
-1.24399

>  <SCORE.INTRA.SOLV.lig_0>
-59.746

>  <SCORE.INTRA.VDW>
0.451159

>  <SCORE.INTRA.VDW.0>
-0.691186

>  <SCORE.INTRA.norm>
-0.105784

>  <SCORE.RESTR>
0

>  <SCORE.RESTR.CAVITY>
0

>  <SCORE.RESTR.norm>
0

>  <SCORE.SYSTEM>
0

>  <SCORE.SYSTEM.CONST>
0

>  <SCORE.SYSTEM.DIHEDRAL>
0

>  <SCORE.SYSTEM.SOLV>
0

>  <SCORE.SYSTEM.norm>
0

>  <SCORE.heavy>
12

>  <SCORE.norm>
-1.25082

>  <RMSD>
2.812

$$$$
ligand
 OpenBabel02271912143D
libRbt.so/2013.1/901 2013/11/27
 12 12  0  0  0  0  0  0  0  0999 V2000
  -21.4908  -11.5379   95.2754 C   0  0  0  0  0  0  0  0  0  0  0  0
  -19.9259   -6.2627   95.2541 C   0  0  0  0  0  0  0  0  0  0  0  0
  -23.1490   -9.5608   96.0334 N   0  0  0  0  0  0  0  0  0  0  0  0
  -20.4295  -12.5031   95.5952 N   0  0  0  0  0  0  0  0  0  0  0  0
  -20.6990  -13.5833   95.4633 N   0  0  0  0  0  0  0  0  0  0  0  0
  -20.9692  -14.6623   95.3264 N   0  0  0  0  0  0  0  0  0  0  0  0
  -19.4194   -8.5427   94.9098 N   0  0  0  0  0  0  0  0  0  0  0  0
  -20.2972   -7.6016   95.2816 C   0  0  0  0  0  0  0  0  0  0  0  0
  -21.5101   -7.9379   95.7449 N   0  0  0  0  0  0  0  0  0  0  0  0
  -21.8791   -9.2240   95.8362 C   0  0  0  0  0  0  0  0  0  0  0  0
  -21.0157  -10.2448   95.4558 C   0  0  0  0  0  0  0  0  0  0  0  0
  -19.7518   -9.9001   94.9920 C   0  0  0  0  0  0  0  0  0  0  0  0
  1 11  1  0  0  0  0
  1  4  1  0  0  0  0
  2  8  1  0  0  0  0
  3 10  1  0  0  0  0
  4  5  1  0  0  0  0
  5  6  1  0  0  0  0
  7  8  2  0  0  0  0
  7 12  1  0  0  0  0
  8  9  1  0  0  0  0
  9 10  2  0  0  0  0
 10 11  1  0  0  0  0
 11 12  2  0  0  0  0
M  END
>  <CHROM.1>
-149.67686246,-178.80430264,61.95058371,-20.87910599,-10.14956379,95.43147702
1.64024861,-0.27742931,-3.13192662

>  <Name>
ligand

>  <RI>
0

>  <Rbt.Current_Directory>
/home/itssahil/PROJECTS/Mol_Feturizer/Test_systems_manuscript/rnas/4nya

>  <Rbt.Executable>
rbdock ($Id: //depot/dev/client3/rdock/2013.1/src/exe/rbdock.cxx#4 $)

>  <Rbt.Library>
libRbt.so (2013.1, Build901 2013/11/27)

>  <Rbt.Parameter_File>
/export/apps/rDock/src/rDock_2013.1_src/data/scripts/dock_solv.prm

>  <Rbt.Receptor>
prm/pocket_docking_8.prm

>  <SCORE>
-15.0291

>  <SCORE.INTER>
-13.7619

>  <SCORE.INTER.CONST>
1

>  <SCORE.INTER.POLAR>
0

>  <SCORE.INTER.ROT>
3

>  <SCORE.INTER.SOLV>
13.6646

>  <SCORE.INTER.VDW>
-19.3295

>  <SCORE.INTER.norm>
-1.14683

>  <SCORE.INTRA>
-1.26719

>  <SCORE.INTRA.DIHEDRAL>
-2.20666

>  <SCORE.INTRA.DIHEDRAL.0>
3.34563

>  <SCORE.INTRA.POLAR>
0

>  <SCORE.INTRA.POLAR.0>
0

>  <SCORE.INTRA.REPUL>
0

>  <SCORE.INTRA.REPUL.0>
0

>  <SCORE.INTRA.SOLV>
-1.25026

>  <SCORE.INTRA.SOLV.lig_0>
-59.746

>  <SCORE.INTRA.VDW>
0.461274

>  <SCORE.INTRA.VDW.0>
-0.691186

>  <SCORE.INTRA.norm>
-0.105599

>  <SCORE.RESTR>
0

>  <SCORE.RESTR.CAVITY>
0

>  <SCORE.RESTR.norm>
0

>  <SCORE.SYSTEM>
0

>  <SCORE.SYSTEM.CONST>
0

>  <SCORE.SYSTEM.DIHEDRAL>
0

>  <SCORE.SYSTEM.SOLV>
0

>  <SCORE.SYSTEM.norm>
0

>  <SCORE.heavy>
12

>  <SCORE.norm>
-1.25243

>  <RMSD>
2.812

$$$$
ligand
 OpenBabel02271912143D
libRbt.so/2013.1/901 2013/11/27
 12 12  0  0  0  0  0  0  0  0999 V2000
  -21.4932  -11.5391   95.2843 C   0  0  0  0  0  0  0  0  0  0  0  0
  -19.9187   -6.2667   95.2675 C   0  0  0  0  0  0  0  0  0  0  0  0
  -23.1482   -9.5595   96.0426 N   0  0  0  0  0  0  0  0  0  0  0  0
  -20.4301  -12.5062   95.5923 N   0  0  0  0  0  0  0  0  0  0  0  0
  -20.6960  -13.5849   95.4426 N   0  0  0  0  0  0  0  0  0  0  0  0
  -20.9629  -14.6624   95.2881 N   0  0  0  0  0  0  0  0  0  0  0  0
  -19.4161   -8.5474   94.9220 N   0  0  0  0  0  0  0  0  0  0  0  0
  -20.2924   -7.6049   95.2939 C   0  0  0  0  0  0  0  0  0  0  0  0
  -21.5063   -7.9394   95.7562 N   0  0  0  0  0  0  0  0  0  0  0  0
  -21.8776   -9.2248   95.8465 C   0  0  0  0  0  0  0  0  0  0  0  0
  -21.0159  -10.2470   95.4658 C   0  0  0  0  0  0  0  0  0  0  0  0
  -19.7511   -9.9043   95.0031 C   0  0  0  0  0  0  0  0  0  0  0  0
  1 11  1  0  0  0  0
  1  4  1  0  0  0  0
  2  8  1  0  0  0  0
  3 10  1  0  0  0  0
  4  5  1  0  0  0  0
  5  6  1  0  0  0  0
  7  8  2  0  0  0  0
  7 12  1  0  0  0  0
  8  9  1  0  0  0  0
  9 10  2  0  0  0  0
 10 11  1  0  0  0  0
 11 12  2  0  0  0  0
M  END
>  <CHROM.1>
-150.19327776,-177.85860599,59.95312450,-20.87668819,-10.15167268,95.43421747
1.64009671,-0.27848390,-3.12631351

>  <Name>
ligand

>  <RI>
0

>  <Rbt.Current_Directory>
/home/itssahil/PROJECTS/Mol_Feturizer/Test_systems_manuscript/rnas/4nya

>  <Rbt.Executable>
rbdock ($Id: //depot/dev/client3/rdock/2013.1/src/exe/rbdock.cxx#4 $)

>  <Rbt.Library>
libRbt.so (2013.1, Build901 2013/11/27)

>  <Rbt.Parameter_File>
/export/apps/rDock/src/rDock_2013.1_src/data/scripts/dock_solv.prm

>  <Rbt.Receptor>
prm/blind_docking_100.prm

>  <SCORE>
-15.0089

>  <SCORE.INTER>
-13.7465

>  <SCORE.INTER.CONST>
1

>  <SCORE.INTER.POLAR>
0

>  <SCORE.INTER.ROT>
3

>  <SCORE.INTER.SOLV>
13.6042

>  <SCORE.INTER.VDW>
-19.2991

>  <SCORE.INTER.norm>
-1.14554

>  <SCORE.INTRA>
-1.26244

>  <SCORE.INTRA.DIHEDRAL>
-2.21063

>  <SCORE.INTRA.DIHEDRAL.0>
3.34563

>  <SCORE.INTRA.POLAR>
0

>  <SCORE.INTRA.POLAR.0>
0

>  <SCORE.INTRA.REPUL>
0

>  <SCORE.INTRA.REPUL.0>
0

>  <SCORE.INTRA.SOLV>
-1.2516

>  <SCORE.INTRA.SOLV.lig_0>
-59.746

>  <SCORE.INTRA.VDW>
0.468675

>  <SCORE.INTRA.VDW.0>
-0.691186

>  <SCORE.INTRA.norm>
-0.105203

>  <SCORE.RESTR>
0

>  <SCORE.RESTR.CAVITY>
0

>  <SCORE.RESTR.norm>
0

>  <SCORE.SYSTEM>
0

>  <SCORE.SYSTEM.CONST>
0

>  <SCORE.SYSTEM.DIHEDRAL>
0

>  <SCORE.SYSTEM.SOLV>
0

>  <SCORE.SYSTEM.norm>
0

>  <SCORE.heavy>
12

>  <SCORE.norm>
-1.25075

>  <RMSD>
2.813

$$$$
ligand
 OpenBabel02271912143D
libRbt.so/2013.1/901 2013/11/27
 12 12  0  0  0  0  0  0  0  0999 V2000
  -21.4906  -11.5311   95.2819 C   0  0  0  0  0  0  0  0  0  0  0  0
  -19.9225   -6.2568   95.2638 C   0  0  0  0  0  0  0  0  0  0  0  0
  -23.1515   -9.5523   96.0294 N   0  0  0  0  0  0  0  0  0  0  0  0
  -20.4262  -12.4962   95.5921 N   0  0  0  0  0  0  0  0  0  0  0  0
  -20.6961  -13.5763   95.4601 N   0  0  0  0  0  0  0  0  0  0  0  0
  -20.9666  -14.6552   95.3232 N   0  0  0  0  0  0  0  0  0  0  0  0
  -19.4155   -8.5374   94.9243 N   0  0  0  0  0  0  0  0  0  0  0  0
  -20.2947   -7.5954   95.2906 C   0  0  0  0  0  0  0  0  0  0  0  0
  -21.5102   -7.9307   95.7479 N   0  0  0  0  0  0  0  0  0  0  0  0
  -21.8804   -9.2164   95.8385 C   0  0  0  0  0  0  0  0  0  0  0  0
  -21.0157  -10.2380   95.4635 C   0  0  0  0  0  0  0  0  0  0  0  0
  -19.7491   -9.8945   95.0060 C   0  0  0  0  0  0  0  0  0  0  0  0
  1 11  1  0  0  0  0
  1  4  1  0  0  0  0
  2  8  1  0  0  0  0
  3 10  1  0  0  0  0
  4  5  1  0  0  0  0
  5  6  1  0  0  0  0
  7  8  2  0  0  0  0
  7 12  1  0  0  0  0
  8  9  1  0  0  0  0
  9 10  2  0  0  0  0
 10 11  1  0  0  0  0
 11 12  2  0  0  0  0
M  END
>  <CHROM.1>
-150.37891862,-178.91127272,62.55061800,-20.87758388,-10.14282058,95.43575435
1.63985939,-0.27319716,-3.13054854

>  <Name>
ligand

>  <RI>
0

>  <Rbt.Current_Directory>
/home/itssahil/PROJECTS/Mol_Feturizer/Test_systems_manuscript/rnas/4nya

>  <Rbt.Executable>
rbdock ($Id: //depot/dev/client3/rdock/2013.1/src/exe/rbdock.cxx#4 $)

>  <Rbt.Library>
libRbt.so (2013.1, Build901 2013/11/27)

>  <Rbt.Parameter_File>
/export/apps/rDock/src/rDock_2013.1_src/data/scripts/dock_solv.prm

>  <Rbt.Receptor>
prm/pocket_docking_4.prm

>  <SCORE>
-15.0237

>  <SCORE.INTER>
-13.7612

>  <SCORE.INTER.CONST>
1

>  <SCORE.INTER.POLAR>
0

>  <SCORE.INTER.ROT>
3

>  <SCORE.INTER.SOLV>
13.6711

>  <SCORE.INTER.VDW>
-19.3312

>  <SCORE.INTER.norm>
-1.14677

>  <SCORE.INTRA>
-1.2625

>  <SCORE.INTRA.DIHEDRAL>
-2.21352

>  <SCORE.INTRA.DIHEDRAL.0>
3.34563

>  <SCORE.INTRA.POLAR>
0

>  <SCORE.INTRA.POLAR.0>
0

>  <SCORE.INTRA.REPUL>
0

>  <SCORE.INTRA.REPUL.0>
0

>  <SCORE.INTRA.SOLV>
-1.25482

>  <SCORE.INTRA.SOLV.lig_0>
-59.746

>  <SCORE.INTRA.VDW>
0.471677

>  <SCORE.INTRA.VDW.0>
-0.691186

>  <SCORE.INTRA.norm>
-0.105208

>  <SCORE.RESTR>
0

>  <SCORE.RESTR.CAVITY>
0

>  <SCORE.RESTR.norm>
0

>  <SCORE.SYSTEM>
0

>  <SCORE.SYSTEM.CONST>
0

>  <SCORE.SYSTEM.DIHEDRAL>
0

>  <SCORE.SYSTEM.SOLV>
0

>  <SCORE.SYSTEM.norm>
0

>  <SCORE.heavy>
12

>  <SCORE.norm>
-1.25197

>  <RMSD>
2.813

$$$$
ligand
 OpenBabel02271912143D
libRbt.so/2013.1/901 2013/11/27
 12 12  0  0  0  0  0  0  0  0999 V2000
  -21.4914  -11.5334   95.2779 C   0  0  0  0  0  0  0  0  0  0  0  0
  -19.9204   -6.2600   95.2619 C   0  0  0  0  0  0  0  0  0  0  0  0
  -23.1464   -9.5554   96.0404 N   0  0  0  0  0  0  0  0  0  0  0  0
  -20.4345  -12.5005   95.6066 N   0  0  0  0  0  0  0  0  0  0  0  0
  -20.6944  -13.5787   95.4431 N   0  0  0  0  0  0  0  0  0  0  0  0
  -20.9583  -14.6560   95.2824 N   0  0  0  0  0  0  0  0  0  0  0  0
  -19.4169   -8.5401   94.9140 N   0  0  0  0  0  0  0  0  0  0  0  0
  -20.2931   -7.5985   95.2880 C   0  0  0  0  0  0  0  0  0  0  0  0
  -21.5060   -7.9340   95.7523 N   0  0  0  0  0  0  0  0  0  0  0  0
  -21.8763   -9.2198   95.8423 C   0  0  0  0  0  0  0  0  0  0  0  0
  -21.0146  -10.2411   95.4595 C   0  0  0  0  0  0  0  0  0  0  0  0
  -19.7508   -9.8972   94.9947 C   0  0  0  0  0  0  0  0  0  0  0  0
  1 11  1  0  0  0  0
  1  4  1  0  0  0  0
  2  8  1  0  0  0  0
  3 10  1  0  0  0  0
  4  5  1  0  0  0  0
  5  6  1  0  0  0  0
  7  8  2  0  0  0  0
  7 12  1  0  0  0  0
  8  9  1  0  0  0  0
  9 10  2  0  0  0  0
 10 11  1  0  0  0  0
 11 12  2  0  0  0  0
M  END
>  <CHROM.1>
-149.18273526,-176.90698471,-53.35571949,-20.87625087,-10.14567778,95.43086638
1.63985778,-0.27946984,-3.12728466

>  <Name>
ligand

>  <RI>
0

>  <Rbt.Current_Directory>
/home/itssahil/PROJECTS/Mol_Feturizer/Test_systems_manuscript/rnas/4nya

>  <Rbt.Executable>
rbdock ($Id: //depot/dev/client3/rdock/2013.1/src/exe/rbdock.cxx#4 $)

>  <Rbt.Library>
libRbt.so (2013.1, Build901 2013/11/27)

>  <Rbt.Parameter_File>
/export/apps/rDock/src/rDock_2013.1_src/data/scripts/dock_solv.prm

>  <Rbt.Receptor>
prm/pocket_docking_5.prm

>  <SCORE>
-15.0318

>  <SCORE.INTER>
-13.7723

>  <SCORE.INTER.CONST>
1

>  <SCORE.INTER.POLAR>
0

>  <SCORE.INTER.ROT>
3

>  <SCORE.INTER.SOLV>
13.6294

>  <SCORE.INTER.VDW>
-19.3246

>  <SCORE.INTER.norm>
-1.14769

>  <SCORE.INTRA>
-1.25955

>  <SCORE.INTRA.DIHEDRAL>
-2.18339

>  <SCORE.INTRA.DIHEDRAL.0>
3.34563

>  <SCORE.INTRA.POLAR>
0

>  <SCORE.INTRA.POLAR.0>
0

>  <SCORE.INTRA.REPUL>
0

>  <SCORE.INTRA.REPUL.0>
0

>  <SCORE.INTRA.SOLV>
-1.24306

>  <SCORE.INTRA.SOLV.lig_0>
-59.746

>  <SCORE.INTRA.VDW>
0.453671

>  <SCORE.INTRA.VDW.0>
-0.691186

>  <SCORE.INTRA.norm>
-0.104963

>  <SCORE.RESTR>
0

>  <SCORE.RESTR.CAVITY>
0

>  <SCORE.RESTR.norm>
0

>  <SCORE.SYSTEM>
0

>  <SCORE.SYSTEM.CONST>
0

>  <SCORE.SYSTEM.DIHEDRAL>
0

>  <SCORE.SYSTEM.SOLV>
0

>  <SCORE.SYSTEM.norm>
0

>  <SCORE.heavy>
12

>  <SCORE.norm>
-1.25265

>  <RMSD>
2.813

$$$$
ligand
 OpenBabel02271912143D
libRbt.so/2013.1/901 2013/11/27
 12 12  0  0  0  0  0  0  0  0999 V2000
  -21.5233  -11.5890   95.3394 C   0  0  0  0  0  0  0  0  0  0  0  0
  -19.9700   -6.3109   95.2595 C   0  0  0  0  0  0  0  0  0  0  0  0
  -23.1837   -9.6078   96.0817 N   0  0  0  0  0  0  0  0  0  0  0  0
  -20.4309  -12.5460   95.5659 N   0  0  0  0  0  0  0  0  0  0  0  0
  -20.6955  -13.6268   95.4291 N   0  0  0  0  0  0  0  0  0  0  0  0
  -20.9612  -14.7062   95.2875 N   0  0  0  0  0  0  0  0  0  0  0  0
  -19.4595   -8.5932   94.9373 N   0  0  0  0  0  0  0  0  0  0  0  0
  -20.3383   -7.6502   95.3018 C   0  0  0  0  0  0  0  0  0  0  0  0
  -21.5492   -7.9844   95.7720 N   0  0  0  0  0  0  0  0  0  0  0  0
  -21.9151   -9.2703   95.8776 C   0  0  0  0  0  0  0  0  0  0  0  0
  -21.0506  -10.2931   95.5052 C   0  0  0  0  0  0  0  0  0  0  0  0
  -19.7887   -9.9504   95.0344 C   0  0  0  0  0  0  0  0  0  0  0  0
  1 11  1  0  0  0  0
  1  4  1  0  0  0  0
  2  8  1  0  0  0  0
  3 10  1  0  0  0  0
  4  5  1  0  0  0  0
  5  6  1  0  0  0  0
  7  8  2  0  0  0  0
  7 12  1  0  0  0  0
  8  9  1  0  0  0  0
  9 10  2  0  0  0  0
 10 11  1  0  0  0  0
 11 12  2  0  0  0  0
M  END
>  <CHROM.1>
-153.99171405,-178.34786034,59.29750223,-20.90616538,-10.19677767,95.44901275
1.63161978,-0.28778285,-3.12596738

>  <Name>
ligand

>  <RI>
0

>  <Rbt.Current_Directory>
/home/itssahil/PROJECTS/Mol_Feturizer/Test_systems_manuscript/rnas/4nya

>  <Rbt.Executable>
rbdock ($Id: //depot/dev/client3/rdock/2013.1/src/exe/rbdock.cxx#4 $)

>  <Rbt.Library>
libRbt.so (2013.1, Build901 2013/11/27)

>  <Rbt.Parameter_File>
/export/apps/rDock/src/rDock_2013.1_src/data/scripts/dock_solv.prm

>  <Rbt.Receptor>
prm/pocket_docking_5.prm

>  <SCORE>
-15.0716

>  <SCORE.INTER>
-13.8425

>  <SCORE.INTER.CONST>
1

>  <SCORE.INTER.POLAR>
0

>  <SCORE.INTER.ROT>
3

>  <SCORE.INTER.SOLV>
13.4486

>  <SCORE.INTER.VDW>
-19.3112

>  <SCORE.INTER.norm>
-1.15354

>  <SCORE.INTRA>
-1.22911

>  <SCORE.INTRA.DIHEDRAL>
-2.24007

>  <SCORE.INTRA.DIHEDRAL.0>
3.34563

>  <SCORE.INTRA.POLAR>
0

>  <SCORE.INTRA.POLAR.0>
0

>  <SCORE.INTRA.REPUL>
0

>  <SCORE.INTRA.REPUL.0>
0

>  <SCORE.INTRA.SOLV>
-1.274

>  <SCORE.INTRA.SOLV.lig_0>
-59.746

>  <SCORE.INTRA.VDW>
0.527922

>  <SCORE.INTRA.VDW.0>
-0.691186

>  <SCORE.INTRA.norm>
-0.102426

>  <SCORE.RESTR>
0

>  <SCORE.RESTR.CAVITY>
0

>  <SCORE.RESTR.norm>
0

>  <SCORE.SYSTEM>
0

>  <SCORE.SYSTEM.CONST>
0

>  <SCORE.SYSTEM.DIHEDRAL>
0

>  <SCORE.SYSTEM.SOLV>
0

>  <SCORE.SYSTEM.norm>
0

>  <SCORE.heavy>
12

>  <SCORE.norm>
-1.25597

>  <RMSD>
2.813

$$$$
ligand
 OpenBabel02271912143D
libRbt.so/2013.1/901 2013/11/27
 12 12  0  0  0  0  0  0  0  0999 V2000
  -21.4933  -11.5288   95.2925 C   0  0  0  0  0  0  0  0  0  0  0  0
  -19.9174   -6.2568   95.2647 C   0  0  0  0  0  0  0  0  0  0  0  0
  -23.1591   -9.5440   96.0126 N   0  0  0  0  0  0  0  0  0  0  0  0
  -20.4292  -12.4936   95.6046 N   0  0  0  0  0  0  0  0  0  0  0  0
  -20.6957  -13.5734   95.4642 N   0  0  0  0  0  0  0  0  0  0  0  0
  -20.9579  -14.6542   95.3260 N   0  0  0  0  0  0  0  0  0  0  0  0
  -19.4102   -8.5398   94.9419 N   0  0  0  0  0  0  0  0  0  0  0  0
  -20.2918   -7.5948   95.2943 C   0  0  0  0  0  0  0  0  0  0  0  0
  -21.5126   -7.9261   95.7404 N   0  0  0  0  0  0  0  0  0  0  0  0
  -21.8856   -9.2108   95.8335 C   0  0  0  0  0  0  0  0  0  0  0  0
  -21.0184  -10.2356   95.4727 C   0  0  0  0  0  0  0  0  0  0  0  0
  -19.7466   -9.8961   95.0269 C   0  0  0  0  0  0  0  0  0  0  0  0
  1 11  1  0  0  0  0
  1  4  1  0  0  0  0
  2  8  1  0  0  0  0
  3 10  1  0  0  0  0
  4  5  1  0  0  0  0
  5  6  1  0  0  0  0
  7  8  2  0  0  0  0
  7 12  1  0  0  0  0
  8  9  1  0  0  0  0
  9 10  2  0  0  0  0
 10 11  1  0  0  0  0
 11 12  2  0  0  0  0
M  END
>  <CHROM.1>
-150.99182743,-178.33120718,-171.51465480,-20.87741875,-10.14063768,95.44002021
1.63914234,-0.26405959,-3.13191721

>  <Name>
ligand

>  <RI>
0

>  <Rbt.Current_Directory>
/home/itssahil/PROJECTS/Mol_Feturizer/Test_systems_manuscript/rnas/4nya

>  <Rbt.Executable>
rbdock ($Id: //depot/dev/client3/rdock/2013.1/src/exe/rbdock.cxx#4 $)

>  <Rbt.Library>
libRbt.so (2013.1, Build901 2013/11/27)

>  <Rbt.Parameter_File>
/export/apps/rDock/src/rDock_2013.1_src/data/scripts/dock_solv.prm

>  <Rbt.Receptor>
prm/pocket_docking_5.prm

>  <SCORE>
-15.0437

>  <SCORE.INTER>
-13.7927

>  <SCORE.INTER.CONST>
1

>  <SCORE.INTER.POLAR>
0

>  <SCORE.INTER.ROT>
3

>  <SCORE.INTER.SOLV>
13.7001

>  <SCORE.INTER.VDW>
-19.3618

>  <SCORE.INTER.norm>
-1.14939

>  <SCORE.INTRA>
-1.25097

>  <SCORE.INTRA.DIHEDRAL>
-2.20043

>  <SCORE.INTRA.DIHEDRAL.0>
3.34563

>  <SCORE.INTRA.POLAR>
0

>  <SCORE.INTRA.POLAR.0>
0

>  <SCORE.INTRA.REPUL>
0

>  <SCORE.INTRA.REPUL.0>
0

>  <SCORE.INTRA.SOLV>
-1.26057

>  <SCORE.INTRA.SOLV.lig_0>
-59.746

>  <SCORE.INTRA.VDW>
0.479529

>  <SCORE.INTRA.VDW.0>
-0.691186

>  <SCORE.INTRA.norm>
-0.104248

>  <SCORE.RESTR>
0

>  <SCORE.RESTR.CAVITY>
0

>  <SCORE.RESTR.norm>
0

>  <SCORE.SYSTEM>
0

>  <SCORE.SYSTEM.CONST>
0

>  <SCORE.SYSTEM.DIHEDRAL>
0

>  <SCORE.SYSTEM.SOLV>
0

>  <SCORE.SYSTEM.norm>
0

>  <SCORE.heavy>
12

>  <SCORE.norm>
-1.25364

>  <RMSD>
2.814

$$$$
ligand
 OpenBabel02271912143D
libRbt.so/2013.1/901 2013/11/27
 12 12  0  0  0  0  0  0  0  0999 V2000
  -21.4909  -11.5412   95.2819 C   0  0  0  0  0  0  0  0  0  0  0  0
  -19.9270   -6.2658   95.2337 C   0  0  0  0  0  0  0  0  0  0  0  0
  -23.1466   -9.5613   96.0379 N   0  0  0  0  0  0  0  0  0  0  0  0
  -20.4256  -12.5048   95.5937 N   0  0  0  0  0  0  0  0  0  0  0  0
  -20.6935  -13.5852   95.4610 N   0  0  0  0  0  0  0  0  0  0  0  0
  -20.9653  -14.6647   95.3316 N   0  0  0  0  0  0  0  0  0  0  0  0
  -19.4213   -8.5471   94.8968 N   0  0  0  0  0  0  0  0  0  0  0  0
  -20.2979   -7.6046   95.2679 C   0  0  0  0  0  0  0  0  0  0  0  0
  -21.5091   -7.9393   95.7370 N   0  0  0  0  0  0  0  0  0  0  0  0
  -21.8775   -9.2250   95.8348 C   0  0  0  0  0  0  0  0  0  0  0  0
  -21.0153  -10.2472   95.4554 C   0  0  0  0  0  0  0  0  0  0  0  0
  -19.7532   -9.9042   94.9857 C   0  0  0  0  0  0  0  0  0  0  0  0
  1 11  1  0  0  0  0
  1  4  1  0  0  0  0
  2  8  1  0  0  0  0
  3 10  1  0  0  0  0
  4  5  1  0  0  0  0
  5  6  1  0  0  0  0
  7  8  2  0  0  0  0
  7 12  1  0  0  0  0
  8  9  1  0  0  0  0
  9 10  2  0  0  0  0
 10 11  1  0  0  0  0
 11 12  2  0  0  0  0
M  END
>  <CHROM.1>
-150.03351960,-178.48737321,-56.57182322,-20.87793338,-10.15200724,95.42720648
1.63940281,-0.28173300,-3.13435953

>  <Name>
ligand

>  <RI>
0

>  <Rbt.Current_Directory>
/home/itssahil/PROJECTS/Mol_Feturizer/Test_systems_manuscript/rnas/4nya

>  <Rbt.Executable>
rbdock ($Id: //depot/dev/client3/rdock/2013.1/src/exe/rbdock.cxx#4 $)

>  <Rbt.Library>
libRbt.so (2013.1, Build901 2013/11/27)

>  <Rbt.Parameter_File>
/export/apps/rDock/src/rDock_2013.1_src/data/scripts/dock_solv.prm

>  <Rbt.Receptor>
prm/pocket_docking_5.prm

>  <SCORE>
-15.0277

>  <SCORE.INTER>
-13.7645

>  <SCORE.INTER.CONST>
1

>  <SCORE.INTER.POLAR>
0

>  <SCORE.INTER.ROT>
3

>  <SCORE.INTER.SOLV>
13.7112

>  <SCORE.INTER.VDW>
-19.3467

>  <SCORE.INTER.norm>
-1.14704

>  <SCORE.INTRA>
-1.26316

>  <SCORE.INTRA.DIHEDRAL>
-2.20763

>  <SCORE.INTRA.DIHEDRAL.0>
3.34563

>  <SCORE.INTRA.POLAR>
0

>  <SCORE.INTRA.POLAR.0>
0

>  <SCORE.INTRA.REPUL>
0

>  <SCORE.INTRA.REPUL.0>
0

>  <SCORE.INTRA.SOLV>
-1.25172

>  <SCORE.INTRA.SOLV.lig_0>
-59.746

>  <SCORE.INTRA.VDW>
0.466518

>  <SCORE.INTRA.VDW.0>
-0.691186

>  <SCORE.INTRA.norm>
-0.105263

>  <SCORE.RESTR>
0

>  <SCORE.RESTR.CAVITY>
0

>  <SCORE.RESTR.norm>
0

>  <SCORE.SYSTEM>
0

>  <SCORE.SYSTEM.CONST>
0

>  <SCORE.SYSTEM.DIHEDRAL>
0

>  <SCORE.SYSTEM.SOLV>
0

>  <SCORE.SYSTEM.norm>
0

>  <SCORE.heavy>
12

>  <SCORE.norm>
-1.25231

>  <RMSD>
2.814

$$$$
ligand
 OpenBabel02271912143D
libRbt.so/2013.1/901 2013/11/27
 12 12  0  0  0  0  0  0  0  0999 V2000
  -21.4900  -11.5378   95.2740 C   0  0  0  0  0  0  0  0  0  0  0  0
  -19.9290   -6.2615   95.2396 C   0  0  0  0  0  0  0  0  0  0  0  0
  -23.1494   -9.5601   96.0276 N   0  0  0  0  0  0  0  0  0  0  0  0
  -20.4298  -12.5016   95.6019 N   0  0  0  0  0  0  0  0  0  0  0  0
  -20.6947  -13.5818   95.4619 N   0  0  0  0  0  0  0  0  0  0  0  0
  -20.9636  -14.6612   95.3252 N   0  0  0  0  0  0  0  0  0  0  0  0
  -19.4209   -8.5419   94.9007 N   0  0  0  0  0  0  0  0  0  0  0  0
  -20.2993   -7.6006   95.2704 C   0  0  0  0  0  0  0  0  0  0  0  0
  -21.5119   -7.9367   95.7348 N   0  0  0  0  0  0  0  0  0  0  0  0
  -21.8799   -9.2228   95.8293 C   0  0  0  0  0  0  0  0  0  0  0  0
  -21.0158  -10.2439   95.4511 C   0  0  0  0  0  0  0  0  0  0  0  0
  -19.7523   -9.8994   94.9862 C   0  0  0  0  0  0  0  0  0  0  0  0
  1 11  1  0  0  0  0
  1  4  1  0  0  0  0
  2  8  1  0  0  0  0
  3 10  1  0  0  0  0
  4  5  1  0  0  0  0
  5  6  1  0  0  0  0
  7  8  2  0  0  0  0
  7 12  1  0  0  0  0
  8  9  1  0  0  0  0
  9 10  2  0  0  0  0
 10 11  1  0  0  0  0
 11 12  2  0  0  0  0
M  END
>  <CHROM.1>
-149.41927836,-178.13351071,-56.86749518,-20.87906509,-10.14857401,95.42605534
1.63922022,-0.27774939,-3.13410451

>  <Name>
ligand

>  <RI>
0

>  <Rbt.Current_Directory>
/home/itssahil/PROJECTS/Mol_Feturizer/Test_systems_manuscript/rnas/4nya

>  <Rbt.Executable>
rbdock ($Id: //depot/dev/client3/rdock/2013.1/src/exe/rbdock.cxx#4 $)

>  <Rbt.Library>
libRbt.so (2013.1, Build901 2013/11/27)

>  <Rbt.Parameter_File>
/export/apps/rDock/src/rDock_2013.1_src/data/scripts/dock_solv.prm

>  <Rbt.Receptor>
prm/pocket_docking_6.prm

>  <SCORE>
-15.026

>  <SCORE.INTER>
-13.7596

>  <SCORE.INTER.CONST>
1

>  <SCORE.INTER.POLAR>
0

>  <SCORE.INTER.ROT>
3

>  <SCORE.INTER.SOLV>
13.6976

>  <SCORE.INTER.VDW>
-19.3389

>  <SCORE.INTER.norm>
-1.14663

>  <SCORE.INTRA>
-1.2664

>  <SCORE.INTRA.DIHEDRAL>
-2.20042

>  <SCORE.INTRA.DIHEDRAL.0>
3.34563

>  <SCORE.INTRA.POLAR>
0

>  <SCORE.INTRA.POLAR.0>
0

>  <SCORE.INTRA.REPUL>
0

>  <SCORE.INTRA.REPUL.0>
0

>  <SCORE.INTRA.SOLV>
-1.24719

>  <SCORE.INTRA.SOLV.lig_0>
-59.746

>  <SCORE.INTRA.VDW>
0.457409

>  <SCORE.INTRA.VDW.0>
-0.691186

>  <SCORE.INTRA.norm>
-0.105533

>  <SCORE.RESTR>
0

>  <SCORE.RESTR.CAVITY>
0

>  <SCORE.RESTR.norm>
0

>  <SCORE.SYSTEM>
0

>  <SCORE.SYSTEM.CONST>
0

>  <SCORE.SYSTEM.DIHEDRAL>
0

>  <SCORE.SYSTEM.SOLV>
0

>  <SCORE.SYSTEM.norm>
0

>  <SCORE.heavy>
12

>  <SCORE.norm>
-1.25216

>  <RMSD>
2.814

$$$$
ligand
 OpenBabel02271912143D
libRbt.so/2013.1/901 2013/11/27
 12 12  0  0  0  0  0  0  0  0999 V2000
  -21.4876  -11.5371   95.2733 C   0  0  0  0  0  0  0  0  0  0  0  0
  -19.9287   -6.2601   95.2513 C   0  0  0  0  0  0  0  0  0  0  0  0
  -23.1431   -9.5632   96.0450 N   0  0  0  0  0  0  0  0  0  0  0  0
  -20.4199  -12.5015   95.5741 N   0  0  0  0  0  0  0  0  0  0  0  0
  -20.6913  -13.5819   95.4486 N   0  0  0  0  0  0  0  0  0  0  0  0
  -20.9665  -14.6614   95.3263 N   0  0  0  0  0  0  0  0  0  0  0  0
  -19.4218   -8.5389   94.8999 N   0  0  0  0  0  0  0  0  0  0  0  0
  -20.2983   -7.5995   95.2788 C   0  0  0  0  0  0  0  0  0  0  0  0
  -21.5080   -7.9380   95.7491 N   0  0  0  0  0  0  0  0  0  0  0  0
  -21.8749   -9.2246   95.8406 C   0  0  0  0  0  0  0  0  0  0  0  0
  -21.0128  -10.2438   95.4529 C   0  0  0  0  0  0  0  0  0  0  0  0
  -19.7522   -9.8969   94.9819 C   0  0  0  0  0  0  0  0  0  0  0  0
  1 11  1  0  0  0  0
  1  4  1  0  0  0  0
  2  8  1  0  0  0  0
  3 10  1  0  0  0  0
  4  5  1  0  0  0  0
  5  6  1  0  0  0  0
  7  8  2  0  0  0  0
  7 12  1  0  0  0  0
  8  9  1  0  0  0  0
  9 10  2  0  0  0  0
 10 11  1  0  0  0  0
 11 12  2  0  0  0  0
M  END
>  <CHROM.1>
-150.14001616,-179.25349523,-56.33405754,-20.87643406,-10.14836882,95.42758647
1.63930680,-0.28383872,-3.13059243

>  <Name>
ligand

>  <RI>
0

>  <Rbt.Current_Directory>
/home/itssahil/PROJECTS/Mol_Feturizer/Test_systems_manuscript/rnas/4nya

>  <Rbt.Executable>
rbdock ($Id: //depot/dev/client3/rdock/2013.1/src/exe/rbdock.cxx#4 $)

>  <Rbt.Library>
libRbt.so (2013.1, Build901 2013/11/27)

>  <Rbt.Parameter_File>
/export/apps/rDock/src/rDock_2013.1_src/data/scripts/dock_solv.prm

>  <Rbt.Receptor>
prm/pocket_docking_7.prm

>  <SCORE>
-15.0289

>  <SCORE.INTER>
-13.7654

>  <SCORE.INTER.CONST>
1

>  <SCORE.INTER.POLAR>
0

>  <SCORE.INTER.ROT>
3

>  <SCORE.INTER.SOLV>
13.6915

>  <SCORE.INTER.VDW>
-19.3408

>  <SCORE.INTER.norm>
-1.14712

>  <SCORE.INTRA>
-1.26346

>  <SCORE.INTRA.DIHEDRAL>
-2.20971

>  <SCORE.INTRA.DIHEDRAL.0>
3.34563

>  <SCORE.INTRA.POLAR>
0

>  <SCORE.INTRA.POLAR.0>
0

>  <SCORE.INTRA.REPUL>
0

>  <SCORE.INTRA.REPUL.0>
0

>  <SCORE.INTRA.SOLV>
-1.25378

>  <SCORE.INTRA.SOLV.lig_0>
-59.746

>  <SCORE.INTRA.VDW>
0.468284

>  <SCORE.INTRA.VDW.0>
-0.691186

>  <SCORE.INTRA.norm>
-0.105288

>  <SCORE.RESTR>
0

>  <SCORE.RESTR.CAVITY>
0

>  <SCORE.RESTR.norm>
0

>  <SCORE.SYSTEM>
0

>  <SCORE.SYSTEM.CONST>
0

>  <SCORE.SYSTEM.DIHEDRAL>
0

>  <SCORE.SYSTEM.SOLV>
0

>  <SCORE.SYSTEM.norm>
0

>  <SCORE.heavy>
12

>  <SCORE.norm>
-1.25241

>  <RMSD>
2.814

$$$$
ligand
 OpenBabel02271912143D
libRbt.so/2013.1/901 2013/11/27
 12 12  0  0  0  0  0  0  0  0999 V2000
  -21.5271  -11.5580   95.3690 C   0  0  0  0  0  0  0  0  0  0  0  0
  -20.0184   -6.2687   95.2118 C   0  0  0  0  0  0  0  0  0  0  0  0
  -23.1855   -9.5840   96.1344 N   0  0  0  0  0  0  0  0  0  0  0  0
  -20.4240  -12.5049   95.5863 N   0  0  0  0  0  0  0  0  0  0  0  0
  -20.6821  -13.5887   95.4611 N   0  0  0  0  0  0  0  0  0  0  0  0
  -20.9411  -14.6712   95.3311 N   0  0  0  0  0  0  0  0  0  0  0  0
  -19.4972   -8.5495   94.8954 N   0  0  0  0  0  0  0  0  0  0  0  0
  -20.3748   -7.6105   95.2731 C   0  0  0  0  0  0  0  0  0  0  0  0
  -21.5717   -7.9505   95.7740 N   0  0  0  0  0  0  0  0  0  0  0  0
  -21.9247   -9.2382   95.8981 C   0  0  0  0  0  0  0  0  0  0  0  0
  -21.0610  -10.2572   95.5136 C   0  0  0  0  0  0  0  0  0  0  0  0
  -19.8132   -9.9084   95.0108 C   0  0  0  0  0  0  0  0  0  0  0  0
  1 11  1  0  0  0  0
  1  4  1  0  0  0  0
  2  8  1  0  0  0  0
  3 10  1  0  0  0  0
  4  5  1  0  0  0  0
  5  6  1  0  0  0  0
  7  8  2  0  0  0  0
  7 12  1  0  0  0  0
  8  9  1  0  0  0  0
  9 10  2  0  0  0  0
 10 11  1  0  0  0  0
 11 12  2  0  0  0  0
M  END
>  <CHROM.1>
-153.61260804,-178.12795116,63.50833382,-20.91891352,-10.16026296,95.45485952
1.62374627,-0.31076471,-3.13699012

>  <Name>
ligand

>  <RI>
0

>  <Rbt.Current_Directory>
/home/itssahil/PROJECTS/Mol_Feturizer/Test_systems_manuscript/rnas/4nya

>  <Rbt.Executable>
rbdock ($Id: //depot/dev/client3/rdock/2013.1/src/exe/rbdock.cxx#4 $)

>  <Rbt.Library>
libRbt.so (2013.1, Build901 2013/11/27)

>  <Rbt.Parameter_File>
/export/apps/rDock/src/rDock_2013.1_src/data/scripts/dock_solv.prm

>  <Rbt.Receptor>
prm/pocket_docking_7.prm

>  <SCORE>
-14.9902

>  <SCORE.INTER>
-13.7588

>  <SCORE.INTER.CONST>
1

>  <SCORE.INTER.POLAR>
0

>  <SCORE.INTER.ROT>
3

>  <SCORE.INTER.SOLV>
13.6707

>  <SCORE.INTER.VDW>
-19.3294

>  <SCORE.INTER.norm>
-1.14657

>  <SCORE.INTRA>
-1.23141

>  <SCORE.INTRA.DIHEDRAL>
-2.23441

>  <SCORE.INTRA.DIHEDRAL.0>
3.34563

>  <SCORE.INTRA.POLAR>
0

>  <SCORE.INTRA.POLAR.0>
0

>  <SCORE.INTRA.REPUL>
0

>  <SCORE.INTRA.REPUL.0>
0

>  <SCORE.INTRA.SOLV>
-1.27177

>  <SCORE.INTRA.SOLV.lig_0>
-59.746

>  <SCORE.INTRA.VDW>
0.52168

>  <SCORE.INTRA.VDW.0>
-0.691186

>  <SCORE.INTRA.norm>
-0.102618

>  <SCORE.RESTR>
0

>  <SCORE.RESTR.CAVITY>
0

>  <SCORE.RESTR.norm>
0

>  <SCORE.SYSTEM>
0

>  <SCORE.SYSTEM.CONST>
0

>  <SCORE.SYSTEM.DIHEDRAL>
0

>  <SCORE.SYSTEM.SOLV>
0

>  <SCORE.SYSTEM.norm>
0

>  <SCORE.heavy>
12

>  <SCORE.norm>
-1.24918

>  <RMSD>
2.814

$$$$
ligand
 OpenBabel02271912143D
libRbt.so/2013.1/901 2013/11/27
 12 12  0  0  0  0  0  0  0  0999 V2000
  -21.4875  -11.5322   95.2723 C   0  0  0  0  0  0  0  0  0  0  0  0
  -19.9269   -6.2558   95.2328 C   0  0  0  0  0  0  0  0  0  0  0  0
  -23.1402   -9.5558   96.0438 N   0  0  0  0  0  0  0  0  0  0  0  0
  -20.4215  -12.4963   95.5798 N   0  0  0  0  0  0  0  0  0  0  0  0
  -20.6925  -13.5769   95.4544 N   0  0  0  0  0  0  0  0  0  0  0  0
  -20.9641  -14.6563   95.3240 N   0  0  0  0  0  0  0  0  0  0  0  0
  -19.4218   -8.5357   94.8857 N   0  0  0  0  0  0  0  0  0  0  0  0
  -20.2969   -7.5949   95.2647 C   0  0  0  0  0  0  0  0  0  0  0  0
  -21.5053   -7.9319   95.7393 N   0  0  0  0  0  0  0  0  0  0  0  0
  -21.8725   -9.2181   95.8349 C   0  0  0  0  0  0  0  0  0  0  0  0
  -21.0118  -10.2386   95.4474 C   0  0  0  0  0  0  0  0  0  0  0  0
  -19.7524   -9.8933   94.9720 C   0  0  0  0  0  0  0  0  0  0  0  0
  1 11  1  0  0  0  0
  1  4  1  0  0  0  0
  2  8  1  0  0  0  0
  3 10  1  0  0  0  0
  4  5  1  0  0  0  0
  5  6  1  0  0  0  0
  7  8  2  0  0  0  0
  7 12  1  0  0  0  0
  8  9  1  0  0  0  0
  9 10  2  0  0  0  0
 10 11  1  0  0  0  0
 11 12  2  0  0  0  0
M  END
>  <CHROM.1>
-149.82737781,-179.01447494,62.44621611,-20.87547701,-10.14328823,95.42174913
1.63958158,-0.28652843,-3.13294435

>  <Name>
ligand

>  <RI>
0

>  <Rbt.Current_Directory>
/home/itssahil/PROJECTS/Mol_Feturizer/Test_systems_manuscript/rnas/4nya

>  <Rbt.Executable>
rbdock ($Id: //depot/dev/client3/rdock/2013.1/src/exe/rbdock.cxx#4 $)

>  <Rbt.Library>
libRbt.so (2013.1, Build901 2013/11/27)

>  <Rbt.Parameter_File>
/export/apps/rDock/src/rDock_2013.1_src/data/scripts/dock_solv.prm

>  <Rbt.Receptor>
prm/pocket_docking_8.prm

>  <SCORE>
-15.0313

>  <SCORE.INTER>
-13.7649

>  <SCORE.INTER.CONST>
1

>  <SCORE.INTER.POLAR>
0

>  <SCORE.INTER.ROT>
3

>  <SCORE.INTER.SOLV>
13.7172

>  <SCORE.INTER.VDW>
-19.349

>  <SCORE.INTER.norm>
-1.14708

>  <SCORE.INTRA>
-1.26632

>  <SCORE.INTRA.DIHEDRAL>
-2.20809

>  <SCORE.INTRA.DIHEDRAL.0>
3.34563

>  <SCORE.INTRA.POLAR>
0

>  <SCORE.INTRA.POLAR.0>
0

>  <SCORE.INTRA.REPUL>
0

>  <SCORE.INTRA.REPUL.0>
0

>  <SCORE.INTRA.SOLV>
-1.25161

>  <SCORE.INTRA.SOLV.lig_0>
-59.746

>  <SCORE.INTRA.VDW>
0.463529

>  <SCORE.INTRA.VDW.0>
-0.691186

>  <SCORE.INTRA.norm>
-0.105527

>  <SCORE.RESTR>
0

>  <SCORE.RESTR.CAVITY>
0

>  <SCORE.RESTR.norm>
0

>  <SCORE.SYSTEM>
0

>  <SCORE.SYSTEM.CONST>
0

>  <SCORE.SYSTEM.DIHEDRAL>
0

>  <SCORE.SYSTEM.SOLV>
0

>  <SCORE.SYSTEM.norm>
0

>  <SCORE.heavy>
12

>  <SCORE.norm>
-1.2526

>  <RMSD>
2.814

$$$$
ligand
 OpenBabel02271912143D
libRbt.so/2013.1/901 2013/11/27
 12 12  0  0  0  0  0  0  0  0999 V2000
  -21.4908  -11.5397   95.2843 C   0  0  0  0  0  0  0  0  0  0  0  0
  -19.9222   -6.2656   95.2565 C   0  0  0  0  0  0  0  0  0  0  0  0
  -23.1446   -9.5614   96.0484 N   0  0  0  0  0  0  0  0  0  0  0  0
  -20.4259  -12.5055   95.5904 N   0  0  0  0  0  0  0  0  0  0  0  0
  -20.6937  -13.5850   95.4500 N   0  0  0  0  0  0  0  0  0  0  0  0
  -20.9568  -14.6655   95.3113 N   0  0  0  0  0  0  0  0  0  0  0  0
  -19.4187   -8.5460   94.9105 N   0  0  0  0  0  0  0  0  0  0  0  0
  -20.2943   -7.6043   95.2855 C   0  0  0  0  0  0  0  0  0  0  0  0
  -21.5058   -7.9397   95.7535 N   0  0  0  0  0  0  0  0  0  0  0  0
  -21.8753   -9.2255   95.8464 C   0  0  0  0  0  0  0  0  0  0  0  0
  -21.0141  -10.2469   95.4627 C   0  0  0  0  0  0  0  0  0  0  0  0
  -19.7517   -9.9032   94.9941 C   0  0  0  0  0  0  0  0  0  0  0  0
  1 11  1  0  0  0  0
  1  4  1  0  0  0  0
  2  8  1  0  0  0  0
  3 10  1  0  0  0  0
  4  5  1  0  0  0  0
  5  6  1  0  0  0  0
  7  8  2  0  0  0  0
  7 12  1  0  0  0  0
  8  9  1  0  0  0  0
  9 10  2  0  0  0  0
 10 11  1  0  0  0  0
 11 12  2  0  0  0  0
M  END
>  <CHROM.1>
-150.10365295,-178.28608133,-178.64434506,-20.87546092,-10.15183915,95.43343844
1.63926674,-0.28227311,-3.12940470

>  <Name>
ligand

>  <RI>
0

>  <Rbt.Current_Directory>
/home/itssahil/PROJECTS/Mol_Feturizer/Test_systems_manuscript/rnas/4nya

>  <Rbt.Executable>
rbdock ($Id: //depot/dev/client3/rdock/2013.1/src/exe/rbdock.cxx#4 $)

>  <Rbt.Library>
libRbt.so (2013.1, Build901 2013/11/27)

>  <Rbt.Parameter_File>
/export/apps/rDock/src/rDock_2013.1_src/data/scripts/dock_solv.prm

>  <Rbt.Receptor>
prm/pocket_docking_8.prm

>  <SCORE>
-15.0057

>  <SCORE.INTER>
-13.739

>  <SCORE.INTER.CONST>
1

>  <SCORE.INTER.POLAR>
0

>  <SCORE.INTER.ROT>
3

>  <SCORE.INTER.SOLV>
13.6704

>  <SCORE.INTER.VDW>
-19.3161

>  <SCORE.INTER.norm>
-1.14492

>  <SCORE.INTRA>
-1.26665

>  <SCORE.INTRA.DIHEDRAL>
-2.21055

>  <SCORE.INTRA.DIHEDRAL.0>
3.34563

>  <SCORE.INTRA.POLAR>
0

>  <SCORE.INTRA.POLAR.0>
0

>  <SCORE.INTRA.REPUL>
0

>  <SCORE.INTRA.REPUL.0>
0

>  <SCORE.INTRA.SOLV>
-1.25513

>  <SCORE.INTRA.SOLV.lig_0>
-59.746

>  <SCORE.INTRA.VDW>
0.466192

>  <SCORE.INTRA.VDW.0>
-0.691186

>  <SCORE.INTRA.norm>
-0.105554

>  <SCORE.RESTR>
0

>  <SCORE.RESTR.CAVITY>
0

>  <SCORE.RESTR.norm>
0

>  <SCORE.SYSTEM>
0

>  <SCORE.SYSTEM.CONST>
0

>  <SCORE.SYSTEM.DIHEDRAL>
0

>  <SCORE.SYSTEM.SOLV>
0

>  <SCORE.SYSTEM.norm>
0

>  <SCORE.heavy>
12

>  <SCORE.norm>
-1.25047

>  <RMSD>
2.814

$$$$
ligand
 OpenBabel02271912143D
libRbt.so/2013.1/901 2013/11/27
 12 12  0  0  0  0  0  0  0  0999 V2000
  -21.4907  -11.5381   95.2705 C   0  0  0  0  0  0  0  0  0  0  0  0
  -19.9303   -6.2615   95.2454 C   0  0  0  0  0  0  0  0  0  0  0  0
  -23.1557   -9.5604   96.0117 N   0  0  0  0  0  0  0  0  0  0  0  0
  -20.4233  -12.5009   95.5773 N   0  0  0  0  0  0  0  0  0  0  0  0
  -20.6922  -13.5817   95.4494 N   0  0  0  0  0  0  0  0  0  0  0  0
  -20.9648  -14.6616   95.3248 N   0  0  0  0  0  0  0  0  0  0  0  0
  -19.4194   -8.5420   94.9109 N   0  0  0  0  0  0  0  0  0  0  0  0
  -20.3005   -7.6006   95.2740 C   0  0  0  0  0  0  0  0  0  0  0  0
  -21.5164   -7.9368   95.7300 N   0  0  0  0  0  0  0  0  0  0  0  0
  -21.8848   -9.2229   95.8223 C   0  0  0  0  0  0  0  0  0  0  0  0
  -21.0180  -10.2440   95.4506 C   0  0  0  0  0  0  0  0  0  0  0  0
  -19.7512   -9.8995   94.9946 C   0  0  0  0  0  0  0  0  0  0  0  0
  1 11  1  0  0  0  0
  1  4  1  0  0  0  0
  2  8  1  0  0  0  0
  3 10  1  0  0  0  0
  4  5  1  0  0  0  0
  5  6  1  0  0  0  0
  7  8  2  0  0  0  0
  7 12  1  0  0  0  0
  8  9  1  0  0  0  0
  9 10  2  0  0  0  0
 10 11  1  0  0  0  0
 11 12  2  0  0  0  0
M  END
>  <CHROM.1>
-150.67696169,-179.09593248,-58.67438580,-20.87992230,-10.14863794,95.42245096
1.63837335,-0.27171232,-3.13272558

>  <Name>
ligand

>  <RI>
0

>  <Rbt.Current_Directory>
/home/itssahil/PROJECTS/Mol_Feturizer/Test_systems_manuscript/rnas/4nya

>  <Rbt.Executable>
rbdock ($Id: //depot/dev/client3/rdock/2013.1/src/exe/rbdock.cxx#4 $)

>  <Rbt.Library>
libRbt.so (2013.1, Build901 2013/11/27)

>  <Rbt.Parameter_File>
/export/apps/rDock/src/rDock_2013.1_src/data/scripts/dock_solv.prm

>  <Rbt.Receptor>
prm/pocket_docking_4.prm

>  <SCORE>
-15.0324

>  <SCORE.INTER>
-13.7712

>  <SCORE.INTER.CONST>
1

>  <SCORE.INTER.POLAR>
0

>  <SCORE.INTER.ROT>
3

>  <SCORE.INTER.SOLV>
13.6902

>  <SCORE.INTER.VDW>
-19.3442

>  <SCORE.INTER.norm>
-1.1476

>  <SCORE.INTRA>
-1.2612

>  <SCORE.INTRA.DIHEDRAL>
-2.21805

>  <SCORE.INTRA.DIHEDRAL.0>
3.34563

>  <SCORE.INTRA.POLAR>
0

>  <SCORE.INTRA.POLAR.0>
0

>  <SCORE.INTRA.REPUL>
0

>  <SCORE.INTRA.REPUL.0>
0

>  <SCORE.INTRA.SOLV>
-1.25683

>  <SCORE.INTRA.SOLV.lig_0>
-59.746

>  <SCORE.INTRA.VDW>
0.476239

>  <SCORE.INTRA.VDW.0>
-0.691186

>  <SCORE.INTRA.norm>
-0.1051

>  <SCORE.RESTR>
0

>  <SCORE.RESTR.CAVITY>
0

>  <SCORE.RESTR.norm>
0

>  <SCORE.SYSTEM>
0

>  <SCORE.SYSTEM.CONST>
0

>  <SCORE.SYSTEM.DIHEDRAL>
0

>  <SCORE.SYSTEM.SOLV>
0

>  <SCORE.SYSTEM.norm>
0

>  <SCORE.heavy>
12

>  <SCORE.norm>
-1.2527

>  <RMSD>
2.815

$$$$
ligand
 OpenBabel02271912143D
libRbt.so/2013.1/901 2013/11/27
 12 12  0  0  0  0  0  0  0  0999 V2000
  -21.4912  -11.5381   95.2764 C   0  0  0  0  0  0  0  0  0  0  0  0
  -19.9293   -6.2621   95.2402 C   0  0  0  0  0  0  0  0  0  0  0  0
  -23.1562   -9.5582   96.0118 N   0  0  0  0  0  0  0  0  0  0  0  0
  -20.4253  -12.5007   95.5893 N   0  0  0  0  0  0  0  0  0  0  0  0
  -20.6936  -13.5816   95.4609 N   0  0  0  0  0  0  0  0  0  0  0  0
  -20.9625  -14.6613   95.3276 N   0  0  0  0  0  0  0  0  0  0  0  0
  -19.4188   -8.5435   94.9113 N   0  0  0  0  0  0  0  0  0  0  0  0
  -20.2999   -7.6010   95.2717 C   0  0  0  0  0  0  0  0  0  0  0  0
  -21.5162   -7.9358   95.7275 N   0  0  0  0  0  0  0  0  0  0  0  0
  -21.8850   -9.2216   95.8226 C   0  0  0  0  0  0  0  0  0  0  0  0
  -21.0182  -10.2438   95.4538 C   0  0  0  0  0  0  0  0  0  0  0  0
  -19.7510   -9.9007   94.9979 C   0  0  0  0  0  0  0  0  0  0  0  0
  1 11  1  0  0  0  0
  1  4  1  0  0  0  0
  2  8  1  0  0  0  0
  3 10  1  0  0  0  0
  4  5  1  0  0  0  0
  5  6  1  0  0  0  0
  7  8  2  0  0  0  0
  7 12  1  0  0  0  0
  8  9  1  0  0  0  0
  9 10  2  0  0  0  0
 10 11  1  0  0  0  0
 11 12  2  0  0  0  0
M  END
>  <CHROM.1>
-150.54072975,-178.91924061,62.29225915,-20.87991114,-10.14850277,95.42492001
1.63838480,-0.27111745,-3.13443435

>  <Name>
ligand

>  <RI>
0

>  <Rbt.Current_Directory>
/home/itssahil/PROJECTS/Mol_Feturizer/Test_systems_manuscript/rnas/4nya

>  <Rbt.Executable>
rbdock ($Id: //depot/dev/client3/rdock/2013.1/src/exe/rbdock.cxx#4 $)

>  <Rbt.Library>
libRbt.so (2013.1, Build901 2013/11/27)

>  <Rbt.Parameter_File>
/export/apps/rDock/src/rDock_2013.1_src/data/scripts/dock_solv.prm

>  <Rbt.Receptor>
prm/pocket_docking_4.prm

>  <SCORE>
-15.0306

>  <SCORE.INTER>
-13.7691

>  <SCORE.INTER.CONST>
1

>  <SCORE.INTER.POLAR>
0

>  <SCORE.INTER.ROT>
3

>  <SCORE.INTER.SOLV>
13.7051

>  <SCORE.INTER.VDW>
-19.3478

>  <SCORE.INTER.norm>
-1.14743

>  <SCORE.INTRA>
-1.26154

>  <SCORE.INTRA.DIHEDRAL>
-2.21548

>  <SCORE.INTRA.DIHEDRAL.0>
3.34563

>  <SCORE.INTRA.POLAR>
0

>  <SCORE.INTRA.POLAR.0>
0

>  <SCORE.INTRA.REPUL>
0

>  <SCORE.INTRA.REPUL.0>
0

>  <SCORE.INTRA.SOLV>
-1.25581

>  <SCORE.INTRA.SOLV.lig_0>
-59.746

>  <SCORE.INTRA.VDW>
0.474103

>  <SCORE.INTRA.VDW.0>
-0.691186

>  <SCORE.INTRA.norm>
-0.105129

>  <SCORE.RESTR>
0

>  <SCORE.RESTR.CAVITY>
0

>  <SCORE.RESTR.norm>
0

>  <SCORE.SYSTEM>
0

>  <SCORE.SYSTEM.CONST>
0

>  <SCORE.SYSTEM.DIHEDRAL>
0

>  <SCORE.SYSTEM.SOLV>
0

>  <SCORE.SYSTEM.norm>
0

>  <SCORE.heavy>
12

>  <SCORE.norm>
-1.25255

>  <RMSD>
2.815

$$$$
ligand
 OpenBabel02271912143D
libRbt.so/2013.1/901 2013/11/27
 12 12  0  0  0  0  0  0  0  0999 V2000
  -21.4885  -11.5384   95.2834 C   0  0  0  0  0  0  0  0  0  0  0  0
  -19.9300   -6.2614   95.2470 C   0  0  0  0  0  0  0  0  0  0  0  0
  -23.1503   -9.5609   96.0320 N   0  0  0  0  0  0  0  0  0  0  0  0
  -20.4196  -12.5008   95.5862 N   0  0  0  0  0  0  0  0  0  0  0  0
  -20.6876  -13.5816   95.4565 N   0  0  0  0  0  0  0  0  0  0  0  0
  -20.9593  -14.6615   95.3303 N   0  0  0  0  0  0  0  0  0  0  0  0
  -19.4202   -8.5419   94.9112 N   0  0  0  0  0  0  0  0  0  0  0  0
  -20.2997   -7.6006   95.2784 C   0  0  0  0  0  0  0  0  0  0  0  0
  -21.5130   -7.9370   95.7408 N   0  0  0  0  0  0  0  0  0  0  0  0
  -21.8806   -9.2231   95.8359 C   0  0  0  0  0  0  0  0  0  0  0  0
  -21.0153  -10.2441   95.4602 C   0  0  0  0  0  0  0  0  0  0  0  0
  -19.7510   -9.8994   94.9974 C   0  0  0  0  0  0  0  0  0  0  0  0
  1 11  1  0  0  0  0
  1  4  1  0  0  0  0
  2  8  1  0  0  0  0
  3 10  1  0  0  0  0
  4  5  1  0  0  0  0
  5  6  1  0  0  0  0
  7  8  2  0  0  0  0
  7 12  1  0  0  0  0
  8  9  1  0  0  0  0
  9 10  2  0  0  0  0
 10 11  1  0  0  0  0
 11 12  2  0  0  0  0
M  END
>  <CHROM.1>
-150.63264241,-178.86781542,-58.85102319,-20.87722442,-10.14870755,95.43059406
1.63785055,-0.27705294,-3.13291300

>  <Name>
ligand

>  <RI>
0

>  <Rbt.Current_Directory>
/home/itssahil/PROJECTS/Mol_Feturizer/Test_systems_manuscript/rnas/4nya

>  <Rbt.Executable>
rbdock ($Id: //depot/dev/client3/rdock/2013.1/src/exe/rbdock.cxx#4 $)

>  <Rbt.Library>
libRbt.so (2013.1, Build901 2013/11/27)

>  <Rbt.Parameter_File>
/export/apps/rDock/src/rDock_2013.1_src/data/scripts/dock_solv.prm

>  <Rbt.Receptor>
prm/pocket_docking_4.prm

>  <SCORE>
-15.0264

>  <SCORE.INTER>
-13.7651

>  <SCORE.INTER.CONST>
1

>  <SCORE.INTER.POLAR>
0

>  <SCORE.INTER.ROT>
3

>  <SCORE.INTER.SOLV>
13.7257

>  <SCORE.INTER.VDW>
-19.352

>  <SCORE.INTER.norm>
-1.14709

>  <SCORE.INTRA>
-1.26124

>  <SCORE.INTRA.DIHEDRAL>
-2.21736

>  <SCORE.INTRA.DIHEDRAL.0>
3.34563

>  <SCORE.INTRA.POLAR>
0

>  <SCORE.INTRA.POLAR.0>
0

>  <SCORE.INTRA.REPUL>
0

>  <SCORE.INTRA.REPUL.0>
0

>  <SCORE.INTRA.SOLV>
-1.25616

>  <SCORE.INTRA.SOLV.lig_0>
-59.746

>  <SCORE.INTRA.VDW>
0.475517

>  <SCORE.INTRA.VDW.0>
-0.691186

>  <SCORE.INTRA.norm>
-0.105103

>  <SCORE.RESTR>
0

>  <SCORE.RESTR.CAVITY>
0

>  <SCORE.RESTR.norm>
0

>  <SCORE.SYSTEM>
0

>  <SCORE.SYSTEM.CONST>
0

>  <SCORE.SYSTEM.DIHEDRAL>
0

>  <SCORE.SYSTEM.SOLV>
0

>  <SCORE.SYSTEM.norm>
0

>  <SCORE.heavy>
12

>  <SCORE.norm>
-1.2522

>  <RMSD>
2.815

$$$$
ligand
 OpenBabel02271912143D
libRbt.so/2013.1/901 2013/11/27
 12 12  0  0  0  0  0  0  0  0999 V2000
  -21.4938  -11.5466   95.2920 C   0  0  0  0  0  0  0  0  0  0  0  0
  -19.9223   -6.2733   95.2607 C   0  0  0  0  0  0  0  0  0  0  0  0
  -23.1568   -9.5639   96.0245 N   0  0  0  0  0  0  0  0  0  0  0  0
  -20.4285  -12.5110   95.6010 N   0  0  0  0  0  0  0  0  0  0  0  0
  -20.6958  -13.5910   95.4635 N   0  0  0  0  0  0  0  0  0  0  0  0
  -20.9585  -14.6720   95.3278 N   0  0  0  0  0  0  0  0  0  0  0  0
  -19.4153   -8.5556   94.9322 N   0  0  0  0  0  0  0  0  0  0  0  0
  -20.2954   -7.6116   95.2910 C   0  0  0  0  0  0  0  0  0  0  0  0
  -21.5132   -7.9444   95.7442 N   0  0  0  0  0  0  0  0  0  0  0  0
  -21.8846   -9.2295   95.8380 C   0  0  0  0  0  0  0  0  0  0  0  0
  -21.0189  -10.2532   95.4708 C   0  0  0  0  0  0  0  0  0  0  0  0
  -19.7501   -9.9122   95.0176 C   0  0  0  0  0  0  0  0  0  0  0  0
  1 11  1  0  0  0  0
  1  4  1  0  0  0  0
  2  8  1  0  0  0  0
  3 10  1  0  0  0  0
  4  5  1  0  0  0  0
  5  6  1  0  0  0  0
  7  8  2  0  0  0  0
  7 12  1  0  0  0  0
  8  9  1  0  0  0  0
  9 10  2  0  0  0  0
 10 11  1  0  0  0  0
 11 12  2  0  0  0  0
M  END
>  <CHROM.1>
-150.79324574,-178.45944172,-176.71541396,-20.87871451,-10.15815434,95.43915072
1.63883968,-0.26971649,-3.13199858

>  <Name>
ligand

>  <RI>
0

>  <Rbt.Current_Directory>
/home/itssahil/PROJECTS/Mol_Feturizer/Test_systems_manuscript/rnas/4nya

>  <Rbt.Executable>
rbdock ($Id: //depot/dev/client3/rdock/2013.1/src/exe/rbdock.cxx#4 $)

>  <Rbt.Library>
libRbt.so (2013.1, Build901 2013/11/27)

>  <Rbt.Parameter_File>
/export/apps/rDock/src/rDock_2013.1_src/data/scripts/dock_solv.prm

>  <Rbt.Receptor>
prm/pocket_docking_4.prm

>  <SCORE>
-15.0181

>  <SCORE.INTER>
-13.7571

>  <SCORE.INTER.CONST>
1

>  <SCORE.INTER.POLAR>
0

>  <SCORE.INTER.ROT>
3

>  <SCORE.INTER.SOLV>
13.6855

>  <SCORE.INTER.VDW>
-19.3333

>  <SCORE.INTER.norm>
-1.14643

>  <SCORE.INTRA>
-1.26098

>  <SCORE.INTRA.DIHEDRAL>
-2.2154

>  <SCORE.INTRA.DIHEDRAL.0>
3.34563

>  <SCORE.INTRA.POLAR>
0

>  <SCORE.INTRA.POLAR.0>
0

>  <SCORE.INTRA.REPUL>
0

>  <SCORE.INTRA.REPUL.0>
0

>  <SCORE.INTRA.SOLV>
-1.25965

>  <SCORE.INTRA.SOLV.lig_0>
-59.746

>  <SCORE.INTRA.VDW>
0.476551

>  <SCORE.INTRA.VDW.0>
-0.691186

>  <SCORE.INTRA.norm>
-0.105081

>  <SCORE.RESTR>
0

>  <SCORE.RESTR.CAVITY>
0

>  <SCORE.RESTR.norm>
0

>  <SCORE.SYSTEM>
0

>  <SCORE.SYSTEM.CONST>
0

>  <SCORE.SYSTEM.DIHEDRAL>
0

>  <SCORE.SYSTEM.SOLV>
0

>  <SCORE.SYSTEM.norm>
0

>  <SCORE.heavy>
12

>  <SCORE.norm>
-1.25151

>  <RMSD>
2.815

$$$$
ligand
 OpenBabel02271912143D
libRbt.so/2013.1/901 2013/11/27
 12 12  0  0  0  0  0  0  0  0999 V2000
  -21.4916  -11.5364   95.3018 C   0  0  0  0  0  0  0  0  0  0  0  0
  -19.9210   -6.2629   95.2689 C   0  0  0  0  0  0  0  0  0  0  0  0
  -23.1582   -9.5528   96.0234 N   0  0  0  0  0  0  0  0  0  0  0  0
  -20.4197  -12.4994   95.5918 N   0  0  0  0  0  0  0  0  0  0  0  0
  -20.6875  -13.5797   95.4573 N   0  0  0  0  0  0  0  0  0  0  0  0
  -20.9590  -14.6591   95.3261 N   0  0  0  0  0  0  0  0  0  0  0  0
  -19.4120   -8.5456   94.9464 N   0  0  0  0  0  0  0  0  0  0  0  0
  -20.2940   -7.6012   95.2997 C   0  0  0  0  0  0  0  0  0  0  0  0
  -21.5138   -7.9335   95.7479 N   0  0  0  0  0  0  0  0  0  0  0  0
  -21.8853   -9.2185   95.8422 C   0  0  0  0  0  0  0  0  0  0  0  0
  -21.0178  -10.2426   95.4806 C   0  0  0  0  0  0  0  0  0  0  0  0
  -19.7470   -9.9021   95.0326 C   0  0  0  0  0  0  0  0  0  0  0  0
  1 11  1  0  0  0  0
  1  4  1  0  0  0  0
  2  8  1  0  0  0  0
  3 10  1  0  0  0  0
  4  5  1  0  0  0  0
  5  6  1  0  0  0  0
  7  8  2  0  0  0  0
  7 12  1  0  0  0  0
  8  9  1  0  0  0  0
  9 10  2  0  0  0  0
 10 11  1  0  0  0  0
 11 12  2  0  0  0  0
M  END
>  <CHROM.1>
-151.89618443,-178.74101521,-57.06859003,-20.87648027,-10.14726559,95.44355771
1.63803430,-0.26664321,-3.13050855

>  <Name>
ligand

>  <RI>
0

>  <Rbt.Current_Directory>
/home/itssahil/PROJECTS/Mol_Feturizer/Test_systems_manuscript/rnas/4nya

>  <Rbt.Executable>
rbdock ($Id: //depot/dev/client3/rdock/2013.1/src/exe/rbdock.cxx#4 $)

>  <Rbt.Library>
libRbt.so (2013.1, Build901 2013/11/27)

>  <Rbt.Parameter_File>
/export/apps/rDock/src/rDock_2013.1_src/data/scripts/dock_solv.prm

>  <Rbt.Receptor>
prm/pocket_docking_4.prm

>  <SCORE>
-15.0125

>  <SCORE.INTER>
-13.7626

>  <SCORE.INTER.CONST>
1

>  <SCORE.INTER.POLAR>
0

>  <SCORE.INTER.ROT>
3

>  <SCORE.INTER.SOLV>
13.7012

>  <SCORE.INTER.VDW>
-19.3422

>  <SCORE.INTER.norm>
-1.14689

>  <SCORE.INTRA>
-1.24988

>  <SCORE.INTRA.DIHEDRAL>
-2.22608

>  <SCORE.INTRA.DIHEDRAL.0>
3.34563

>  <SCORE.INTRA.POLAR>
0

>  <SCORE.INTRA.POLAR.0>
0

>  <SCORE.INTRA.REPUL>
0

>  <SCORE.INTRA.REPUL.0>
0

>  <SCORE.INTRA.SOLV>
-1.26327

>  <SCORE.INTRA.SOLV.lig_0>
-59.746

>  <SCORE.INTRA.VDW>
0.494794

>  <SCORE.INTRA.VDW.0>
-0.691186

>  <SCORE.INTRA.norm>
-0.104157

>  <SCORE.RESTR>
0

>  <SCORE.RESTR.CAVITY>
0

>  <SCORE.RESTR.norm>
0

>  <SCORE.SYSTEM>
0

>  <SCORE.SYSTEM.CONST>
0

>  <SCORE.SYSTEM.DIHEDRAL>
0

>  <SCORE.SYSTEM.SOLV>
0

>  <SCORE.SYSTEM.norm>
0

>  <SCORE.heavy>
12

>  <SCORE.norm>
-1.25104

>  <RMSD>
2.815

$$$$
ligand
 OpenBabel02271912143D
libRbt.so/2013.1/901 2013/11/27
 12 12  0  0  0  0  0  0  0  0999 V2000
  -21.4902  -11.5332   95.2847 C   0  0  0  0  0  0  0  0  0  0  0  0
  -19.9268   -6.2577   95.2423 C   0  0  0  0  0  0  0  0  0  0  0  0
  -23.1541   -9.5522   96.0195 N   0  0  0  0  0  0  0  0  0  0  0  0
  -20.4219  -12.4956   95.5900 N   0  0  0  0  0  0  0  0  0  0  0  0
  -20.6885  -13.5763   95.4560 N   0  0  0  0  0  0  0  0  0  0  0  0
  -20.9589  -14.6560   95.3253 N   0  0  0  0  0  0  0  0  0  0  0  0
  -19.4173   -8.5395   94.9152 N   0  0  0  0  0  0  0  0  0  0  0  0
  -20.2978   -7.5965   95.2753 C   0  0  0  0  0  0  0  0  0  0  0  0
  -21.5138   -7.9305   95.7324 N   0  0  0  0  0  0  0  0  0  0  0  0
  -21.8830   -9.2161   95.8290 C   0  0  0  0  0  0  0  0  0  0  0  0
  -21.0167  -10.2389   95.4605 C   0  0  0  0  0  0  0  0  0  0  0  0
  -19.7498   -9.8966   95.0033 C   0  0  0  0  0  0  0  0  0  0  0  0
  1 11  1  0  0  0  0
  1  4  1  0  0  0  0
  2  8  1  0  0  0  0
  3 10  1  0  0  0  0
  4  5  1  0  0  0  0
  5  6  1  0  0  0  0
  7  8  2  0  0  0  0
  7 12  1  0  0  0  0
  8  9  1  0  0  0  0
  9 10  2  0  0  0  0
 10 11  1  0  0  0  0
 11 12  2  0  0  0  0
M  END
>  <CHROM.1>
-150.87619313,-178.55417093,-56.03777326,-20.87751781,-10.14356010,95.42837684
1.63797283,-0.27261216,-3.13358988

>  <Name>
ligand

>  <RI>
0

>  <Rbt.Current_Directory>
/home/itssahil/PROJECTS/Mol_Feturizer/Test_systems_manuscript/rnas/4nya

>  <Rbt.Executable>
rbdock ($Id: //depot/dev/client3/rdock/2013.1/src/exe/rbdock.cxx#4 $)

>  <Rbt.Library>
libRbt.so (2013.1, Build901 2013/11/27)

>  <Rbt.Parameter_File>
/export/apps/rDock/src/rDock_2013.1_src/data/scripts/dock_solv.prm

>  <Rbt.Receptor>
prm/pocket_docking_4.prm

>  <SCORE>
-15.0253

>  <SCORE.INTER>
-13.7685

>  <SCORE.INTER.CONST>
1

>  <SCORE.INTER.POLAR>
0

>  <SCORE.INTER.ROT>
3

>  <SCORE.INTER.SOLV>
13.7247

>  <SCORE.INTER.VDW>
-19.3539

>  <SCORE.INTER.norm>
-1.14737

>  <SCORE.INTRA>
-1.25686

>  <SCORE.INTRA.DIHEDRAL>
-2.21507

>  <SCORE.INTRA.DIHEDRAL.0>
3.34563

>  <SCORE.INTRA.POLAR>
0

>  <SCORE.INTRA.POLAR.0>
0

>  <SCORE.INTRA.REPUL>
0

>  <SCORE.INTRA.REPUL.0>
0

>  <SCORE.INTRA.SOLV>
-1.25695

>  <SCORE.INTRA.SOLV.lig_0>
-59.746

>  <SCORE.INTRA.VDW>
0.479145

>  <SCORE.INTRA.VDW.0>
-0.691186

>  <SCORE.INTRA.norm>
-0.104739

>  <SCORE.RESTR>
0

>  <SCORE.RESTR.CAVITY>
0

>  <SCORE.RESTR.norm>
0

>  <SCORE.SYSTEM>
0

>  <SCORE.SYSTEM.CONST>
0

>  <SCORE.SYSTEM.DIHEDRAL>
0

>  <SCORE.SYSTEM.SOLV>
0

>  <SCORE.SYSTEM.norm>
0

>  <SCORE.heavy>
12

>  <SCORE.norm>
-1.25211

>  <RMSD>
2.815

$$$$
ligand
 OpenBabel02271912143D
libRbt.so/2013.1/901 2013/11/27
 12 12  0  0  0  0  0  0  0  0999 V2000
  -21.4913  -11.5440   95.2783 C   0  0  0  0  0  0  0  0  0  0  0  0
  -19.9308   -6.2676   95.2331 C   0  0  0  0  0  0  0  0  0  0  0  0
  -23.1534   -9.5642   96.0205 N   0  0  0  0  0  0  0  0  0  0  0  0
  -20.4282  -12.5065   95.6009 N   0  0  0  0  0  0  0  0  0  0  0  0
  -20.6926  -13.5871   95.4626 N   0  0  0  0  0  0  0  0  0  0  0  0
  -20.9609  -14.6668   95.3274 N   0  0  0  0  0  0  0  0  0  0  0  0
  -19.4213   -8.5490   94.9027 N   0  0  0  0  0  0  0  0  0  0  0  0
  -20.3010   -7.6066   95.2667 C   0  0  0  0  0  0  0  0  0  0  0  0
  -21.5151   -7.9416   95.7282 N   0  0  0  0  0  0  0  0  0  0  0  0
  -21.8832   -9.2274   95.8254 C   0  0  0  0  0  0  0  0  0  0  0  0
  -21.0178  -10.2495   95.4531 C   0  0  0  0  0  0  0  0  0  0  0  0
  -19.7528   -9.9062   94.9913 C   0  0  0  0  0  0  0  0  0  0  0  0
  1 11  1  0  0  0  0
  1  4  1  0  0  0  0
  2  8  1  0  0  0  0
  3 10  1  0  0  0  0
  4  5  1  0  0  0  0
  5  6  1  0  0  0  0
  7  8  2  0  0  0  0
  7 12  1  0  0  0  0
  8  9  1  0  0  0  0
  9 10  2  0  0  0  0
 10 11  1  0  0  0  0
 11 12  2  0  0  0  0
M  END
>  <CHROM.1>
-149.92369381,-178.14885122,-56.02281688,-20.88000712,-10.15417807,95.42493321
1.63833869,-0.27525007,-3.13540794

>  <Name>
ligand

>  <RI>
0

>  <Rbt.Current_Directory>
/home/itssahil/PROJECTS/Mol_Feturizer/Test_systems_manuscript/rnas/4nya

>  <Rbt.Executable>
rbdock ($Id: //depot/dev/client3/rdock/2013.1/src/exe/rbdock.cxx#4 $)

>  <Rbt.Library>
libRbt.so (2013.1, Build901 2013/11/27)

>  <Rbt.Parameter_File>
/export/apps/rDock/src/rDock_2013.1_src/data/scripts/dock_solv.prm

>  <Rbt.Receptor>
prm/pocket_docking_4.prm

>  <SCORE>
-15.0256

>  <SCORE.INTER>
-13.763

>  <SCORE.INTER.CONST>
1

>  <SCORE.INTER.POLAR>
0

>  <SCORE.INTER.ROT>
3

>  <SCORE.INTER.SOLV>
13.7105

>  <SCORE.INTER.VDW>
-19.3455

>  <SCORE.INTER.norm>
-1.14692

>  <SCORE.INTRA>
-1.26258

>  <SCORE.INTRA.DIHEDRAL>
-2.20442

>  <SCORE.INTRA.DIHEDRAL.0>
3.34563

>  <SCORE.INTRA.POLAR>
0

>  <SCORE.INTRA.POLAR.0>
0

>  <SCORE.INTRA.REPUL>
0

>  <SCORE.INTRA.REPUL.0>
0

>  <SCORE.INTRA.SOLV>
-1.25037

>  <SCORE.INTRA.SOLV.lig_0>
-59.746

>  <SCORE.INTRA.VDW>
0.464815

>  <SCORE.INTRA.VDW.0>
-0.691186

>  <SCORE.INTRA.norm>
-0.105215

>  <SCORE.RESTR>
0

>  <SCORE.RESTR.CAVITY>
0

>  <SCORE.RESTR.norm>
0

>  <SCORE.SYSTEM>
0

>  <SCORE.SYSTEM.CONST>
0

>  <SCORE.SYSTEM.DIHEDRAL>
0

>  <SCORE.SYSTEM.SOLV>
0

>  <SCORE.SYSTEM.norm>
0

>  <SCORE.heavy>
12

>  <SCORE.norm>
-1.25213

>  <RMSD>
2.815

$$$$
ligand
 OpenBabel02271912143D
libRbt.so/2013.1/901 2013/11/27
 12 12  0  0  0  0  0  0  0  0999 V2000
  -21.4876  -11.5330   95.2798 C   0  0  0  0  0  0  0  0  0  0  0  0
  -19.9257   -6.2569   95.2456 C   0  0  0  0  0  0  0  0  0  0  0  0
  -23.1409   -9.5566   96.0502 N   0  0  0  0  0  0  0  0  0  0  0  0
  -20.4222  -12.4975   95.5879 N   0  0  0  0  0  0  0  0  0  0  0  0
  -20.6917  -13.5777   95.4567 N   0  0  0  0  0  0  0  0  0  0  0  0
  -20.9565  -14.6590   95.3270 N   0  0  0  0  0  0  0  0  0  0  0  0
  -19.4207   -8.5367   94.8978 N   0  0  0  0  0  0  0  0  0  0  0  0
  -20.2960   -7.5960   95.2762 C   0  0  0  0  0  0  0  0  0  0  0  0
  -21.5052   -7.9329   95.7489 N   0  0  0  0  0  0  0  0  0  0  0  0
  -21.8728   -9.2191   95.8432 C   0  0  0  0  0  0  0  0  0  0  0  0
  -21.0119  -10.2396   95.4563 C   0  0  0  0  0  0  0  0  0  0  0  0
  -19.7517   -9.8943   94.9827 C   0  0  0  0  0  0  0  0  0  0  0  0
  1 11  1  0  0  0  0
  1  4  1  0  0  0  0
  2  8  1  0  0  0  0
  3 10  1  0  0  0  0
  4  5  1  0  0  0  0
  5  6  1  0  0  0  0
  7  8  2  0  0  0  0
  7 12  1  0  0  0  0
  8  9  1  0  0  0  0
  9 10  2  0  0  0  0
 10 11  1  0  0  0  0
 11 12  2  0  0  0  0
M  END
>  <CHROM.1>
-149.83715419,-178.73168953,-179.02719115,-20.87457430,-10.14441898,95.43012986
1.63900153,-0.28534519,-3.13198245

>  <Name>
ligand

>  <RI>
0

>  <Rbt.Current_Directory>
/home/itssahil/PROJECTS/Mol_Feturizer/Test_systems_manuscript/rnas/4nya

>  <Rbt.Executable>
rbdock ($Id: //depot/dev/client3/rdock/2013.1/src/exe/rbdock.cxx#4 $)

>  <Rbt.Library>
libRbt.so (2013.1, Build901 2013/11/27)

>  <Rbt.Parameter_File>
/export/apps/rDock/src/rDock_2013.1_src/data/scripts/dock_solv.prm

>  <Rbt.Receptor>
prm/pocket_docking_5.prm

>  <SCORE>
-15.0255

>  <SCORE.INTER>
-13.7561

>  <SCORE.INTER.CONST>
1

>  <SCORE.INTER.POLAR>
0

>  <SCORE.INTER.ROT>
3

>  <SCORE.INTER.SOLV>
13.7288

>  <SCORE.INTER.VDW>
-19.347

>  <SCORE.INTER.norm>
-1.14634

>  <SCORE.INTRA>
-1.26931

>  <SCORE.INTRA.DIHEDRAL>
-2.20905

>  <SCORE.INTRA.DIHEDRAL.0>
3.34563

>  <SCORE.INTRA.POLAR>
0

>  <SCORE.INTRA.POLAR.0>
0

>  <SCORE.INTRA.REPUL>
0

>  <SCORE.INTRA.REPUL.0>
0

>  <SCORE.INTRA.SOLV>
-1.25432

>  <SCORE.INTRA.SOLV.lig_0>
-59.746

>  <SCORE.INTRA.VDW>
0.462369

>  <SCORE.INTRA.VDW.0>
-0.691186

>  <SCORE.INTRA.norm>
-0.105776

>  <SCORE.RESTR>
0

>  <SCORE.RESTR.CAVITY>
0

>  <SCORE.RESTR.norm>
0

>  <SCORE.SYSTEM>
0

>  <SCORE.SYSTEM.CONST>
0

>  <SCORE.SYSTEM.DIHEDRAL>
0

>  <SCORE.SYSTEM.SOLV>
0

>  <SCORE.SYSTEM.norm>
0

>  <SCORE.heavy>
12

>  <SCORE.norm>
-1.25212

>  <RMSD>
2.815

$$$$
ligand
 OpenBabel02271912143D
libRbt.so/2013.1/901 2013/11/27
 12 12  0  0  0  0  0  0  0  0999 V2000
  -21.4891  -11.5303   95.3032 C   0  0  0  0  0  0  0  0  0  0  0  0
  -19.9195   -6.2567   95.2466 C   0  0  0  0  0  0  0  0  0  0  0  0
  -23.1431   -9.5473   96.0549 N   0  0  0  0  0  0  0  0  0  0  0  0
  -20.4177  -12.4940   95.5929 N   0  0  0  0  0  0  0  0  0  0  0  0
  -20.6871  -13.5742   95.4615 N   0  0  0  0  0  0  0  0  0  0  0  0
  -20.9572  -14.6533   95.3251 N   0  0  0  0  0  0  0  0  0  0  0  0
  -19.4161   -8.5391   94.9139 N   0  0  0  0  0  0  0  0  0  0  0  0
  -20.2919   -7.5951   95.2829 C   0  0  0  0  0  0  0  0  0  0  0  0
  -21.5037   -7.9277   95.7520 N   0  0  0  0  0  0  0  0  0  0  0  0
  -21.8735   -9.2128   95.8519 C   0  0  0  0  0  0  0  0  0  0  0  0
  -21.0123  -10.2366   95.4746 C   0  0  0  0  0  0  0  0  0  0  0  0
  -19.7495   -9.8957   95.0050 C   0  0  0  0  0  0  0  0  0  0  0  0
  1 11  1  0  0  0  0
  1  4  1  0  0  0  0
  2  8  1  0  0  0  0
  3 10  1  0  0  0  0
  4  5  1  0  0  0  0
  5  6  1  0  0  0  0
  7  8  2  0  0  0  0
  7 12  1  0  0  0  0
  8  9  1  0  0  0  0
  9 10  2  0  0  0  0
 10 11  1  0  0  0  0
 11 12  2  0  0  0  0
M  END
>  <CHROM.1>
-151.08280936,-178.58856157,63.10539557,-20.87266175,-10.14135699,95.43920075
1.63886952,-0.28294727,-3.13182965

>  <Name>
ligand

>  <RI>
0

>  <Rbt.Current_Directory>
/home/itssahil/PROJECTS/Mol_Feturizer/Test_systems_manuscript/rnas/4nya

>  <Rbt.Executable>
rbdock ($Id: //depot/dev/client3/rdock/2013.1/src/exe/rbdock.cxx#4 $)

>  <Rbt.Library>
libRbt.so (2013.1, Build901 2013/11/27)

>  <Rbt.Parameter_File>
/export/apps/rDock/src/rDock_2013.1_src/data/scripts/dock_solv.prm

>  <Rbt.Receptor>
prm/pocket_docking_6.prm

>  <SCORE>
-15.0232

>  <SCORE.INTER>
-13.7668

>  <SCORE.INTER.CONST>
1

>  <SCORE.INTER.POLAR>
0

>  <SCORE.INTER.ROT>
3

>  <SCORE.INTER.SOLV>
13.7339

>  <SCORE.INTER.VDW>
-19.3558

>  <SCORE.INTER.norm>
-1.14723

>  <SCORE.INTRA>
-1.25638

>  <SCORE.INTRA.DIHEDRAL>
-2.21868

>  <SCORE.INTRA.DIHEDRAL.0>
3.34563

>  <SCORE.INTRA.POLAR>
0

>  <SCORE.INTRA.POLAR.0>
0

>  <SCORE.INTRA.REPUL>
0

>  <SCORE.INTRA.REPUL.0>
0

>  <SCORE.INTRA.SOLV>
-1.25847

>  <SCORE.INTRA.SOLV.lig_0>
-59.746

>  <SCORE.INTRA.VDW>
0.482192

>  <SCORE.INTRA.VDW.0>
-0.691186

>  <SCORE.INTRA.norm>
-0.104699

>  <SCORE.RESTR>
0

>  <SCORE.RESTR.CAVITY>
0

>  <SCORE.RESTR.norm>
0

>  <SCORE.SYSTEM>
0

>  <SCORE.SYSTEM.CONST>
0

>  <SCORE.SYSTEM.DIHEDRAL>
0

>  <SCORE.SYSTEM.SOLV>
0

>  <SCORE.SYSTEM.norm>
0

>  <SCORE.heavy>
12

>  <SCORE.norm>
-1.25193

>  <RMSD>
2.815

$$$$
ligand
 OpenBabel02271912143D
libRbt.so/2013.1/901 2013/11/27
 12 12  0  0  0  0  0  0  0  0999 V2000
  -21.5338  -11.5688   95.3536 C   0  0  0  0  0  0  0  0  0  0  0  0
  -19.9666   -6.2971   95.1778 C   0  0  0  0  0  0  0  0  0  0  0  0
  -23.2038   -9.5671   96.0150 N   0  0  0  0  0  0  0  0  0  0  0  0
  -20.4499  -12.5223   95.6303 N   0  0  0  0  0  0  0  0  0  0  0  0
  -20.6997  -13.6028   95.4668 N   0  0  0  0  0  0  0  0  0  0  0  0
  -20.9449  -14.6844   95.3055 N   0  0  0  0  0  0  0  0  0  0  0  0
  -19.4553   -8.5875   94.9206 N   0  0  0  0  0  0  0  0  0  0  0  0
  -20.3388   -7.6344   95.2449 C   0  0  0  0  0  0  0  0  0  0  0  0
  -21.5596   -7.9549   95.6988 N   0  0  0  0  0  0  0  0  0  0  0  0
  -21.9306   -9.2371   95.8280 C   0  0  0  0  0  0  0  0  0  0  0  0
  -21.0613  -10.2702   95.4975 C   0  0  0  0  0  0  0  0  0  0  0  0
  -19.7896   -9.9414   95.0437 C   0  0  0  0  0  0  0  0  0  0  0  0
  1 11  1  0  0  0  0
  1  4  1  0  0  0  0
  2  8  1  0  0  0  0
  3 10  1  0  0  0  0
  4  5  1  0  0  0  0
  5  6  1  0  0  0  0
  7  8  2  0  0  0  0
  7 12  1  0  0  0  0
  8  9  1  0  0  0  0
  9 10  2  0  0  0  0
 10 11  1  0  0  0  0
 11 12  2  0  0  0  0
M  END
>  <CHROM.1>
-153.74883220,-175.50243975,-172.20915365,-20.91170831,-10.17506641,95.43165577
1.63012834,-0.27049421,3.14031750

>  <Name>
ligand

>  <RI>
0

>  <Rbt.Current_Directory>
/home/itssahil/PROJECTS/Mol_Feturizer/Test_systems_manuscript/rnas/4nya

>  <Rbt.Executable>
rbdock ($Id: //depot/dev/client3/rdock/2013.1/src/exe/rbdock.cxx#4 $)

>  <Rbt.Library>
libRbt.so (2013.1, Build901 2013/11/27)

>  <Rbt.Parameter_File>
/export/apps/rDock/src/rDock_2013.1_src/data/scripts/dock_solv.prm

>  <Rbt.Receptor>
prm/pocket_docking_7.prm

>  <SCORE>
-15.0132

>  <SCORE.INTER>
-13.7957

>  <SCORE.INTER.CONST>
1

>  <SCORE.INTER.POLAR>
0

>  <SCORE.INTER.ROT>
3

>  <SCORE.INTER.SOLV>
13.6134

>  <SCORE.INTER.VDW>
-19.335

>  <SCORE.INTER.norm>
-1.14964

>  <SCORE.INTRA>
-1.21747

>  <SCORE.INTRA.DIHEDRAL>
-2.20836

>  <SCORE.INTRA.DIHEDRAL.0>
3.34563

>  <SCORE.INTRA.POLAR>
0

>  <SCORE.INTRA.POLAR.0>
0

>  <SCORE.INTRA.REPUL>
0

>  <SCORE.INTRA.REPUL.0>
0

>  <SCORE.INTRA.SOLV>
-1.27033

>  <SCORE.INTRA.SOLV.lig_0>
-59.746

>  <SCORE.INTRA.VDW>
0.52187

>  <SCORE.INTRA.VDW.0>
-0.691186

>  <SCORE.INTRA.norm>
-0.101456

>  <SCORE.RESTR>
0

>  <SCORE.RESTR.CAVITY>
0

>  <SCORE.RESTR.norm>
0

>  <SCORE.SYSTEM>
0

>  <SCORE.SYSTEM.CONST>
0

>  <SCORE.SYSTEM.DIHEDRAL>
0

>  <SCORE.SYSTEM.SOLV>
0

>  <SCORE.SYSTEM.norm>
0

>  <SCORE.heavy>
12

>  <SCORE.norm>
-1.2511

>  <RMSD>
2.815

$$$$
ligand
 OpenBabel02271912143D
libRbt.so/2013.1/901 2013/11/27
 12 12  0  0  0  0  0  0  0  0999 V2000
  -21.4914  -11.5385   95.2918 C   0  0  0  0  0  0  0  0  0  0  0  0
  -19.9174   -6.2660   95.2658 C   0  0  0  0  0  0  0  0  0  0  0  0
  -23.1412   -9.5592   96.0622 N   0  0  0  0  0  0  0  0  0  0  0  0
  -20.4224  -12.5053   95.5799 N   0  0  0  0  0  0  0  0  0  0  0  0
  -20.6901  -13.5839   95.4329 N   0  0  0  0  0  0  0  0  0  0  0  0
  -20.9530  -14.6636   95.2875 N   0  0  0  0  0  0  0  0  0  0  0  0
  -19.4171   -8.5465   94.9160 N   0  0  0  0  0  0  0  0  0  0  0  0
  -20.2908   -7.6042   95.2943 C   0  0  0  0  0  0  0  0  0  0  0  0
  -21.5014   -7.9390   95.7650 N   0  0  0  0  0  0  0  0  0  0  0  0
  -21.8720   -9.2244   95.8574 C   0  0  0  0  0  0  0  0  0  0  0  0
  -21.0129  -10.2464   95.4705 C   0  0  0  0  0  0  0  0  0  0  0  0
  -19.7513   -9.9034   94.9990 C   0  0  0  0  0  0  0  0  0  0  0  0
  1 11  1  0  0  0  0
  1  4  1  0  0  0  0
  2  8  1  0  0  0  0
  3 10  1  0  0  0  0
  4  5  1  0  0  0  0
  5  6  1  0  0  0  0
  7  8  2  0  0  0  0
  7 12  1  0  0  0  0
  8  9  1  0  0  0  0
  9 10  2  0  0  0  0
 10 11  1  0  0  0  0
 11 12  2  0  0  0  0
M  END
>  <CHROM.1>
-150.72031419,-177.99804292,-178.92509370,-20.87267536,-10.15116471,95.43557854
1.63913092,-0.28603143,-3.12499728

>  <Name>
ligand

>  <RI>
0

>  <Rbt.Current_Directory>
/home/itssahil/PROJECTS/Mol_Feturizer/Test_systems_manuscript/rnas/4nya

>  <Rbt.Executable>
rbdock ($Id: //depot/dev/client3/rdock/2013.1/src/exe/rbdock.cxx#4 $)

>  <Rbt.Library>
libRbt.so (2013.1, Build901 2013/11/27)

>  <Rbt.Parameter_File>
/export/apps/rDock/src/rDock_2013.1_src/data/scripts/dock_solv.prm

>  <Rbt.Receptor>
prm/pocket_docking_7.prm

>  <SCORE>
-15.0053

>  <SCORE.INTER>
-13.7435

>  <SCORE.INTER.CONST>
1

>  <SCORE.INTER.POLAR>
0

>  <SCORE.INTER.ROT>
3

>  <SCORE.INTER.SOLV>
13.6464

>  <SCORE.INTER.VDW>
-19.3111

>  <SCORE.INTER.norm>
-1.14529

>  <SCORE.INTRA>
-1.26184

>  <SCORE.INTRA.DIHEDRAL>
-2.216

>  <SCORE.INTRA.DIHEDRAL.0>
3.34563

>  <SCORE.INTRA.POLAR>
0

>  <SCORE.INTRA.POLAR.0>
0

>  <SCORE.INTRA.REPUL>
0

>  <SCORE.INTRA.REPUL.0>
0

>  <SCORE.INTRA.SOLV>
-1.25833

>  <SCORE.INTRA.SOLV.lig_0>
-59.746

>  <SCORE.INTRA.VDW>
0.475329

>  <SCORE.INTRA.VDW.0>
-0.691186

>  <SCORE.INTRA.norm>
-0.105153

>  <SCORE.RESTR>
0

>  <SCORE.RESTR.CAVITY>
0

>  <SCORE.RESTR.norm>
0

>  <SCORE.SYSTEM>
0

>  <SCORE.SYSTEM.CONST>
0

>  <SCORE.SYSTEM.DIHEDRAL>
0

>  <SCORE.SYSTEM.SOLV>
0

>  <SCORE.SYSTEM.norm>
0

>  <SCORE.heavy>
12

>  <SCORE.norm>
-1.25045

>  <RMSD>
2.815

$$$$
ligand
 OpenBabel02271912143D
libRbt.so/2013.1/901 2013/11/27
 12 12  0  0  0  0  0  0  0  0999 V2000
  -21.4920  -11.5397   95.2760 C   0  0  0  0  0  0  0  0  0  0  0  0
  -19.9298   -6.2639   95.2241 C   0  0  0  0  0  0  0  0  0  0  0  0
  -23.1541   -9.5584   96.0138 N   0  0  0  0  0  0  0  0  0  0  0  0
  -20.4260  -12.5019   95.5901 N   0  0  0  0  0  0  0  0  0  0  0  0
  -20.6938  -13.5829   95.4617 N   0  0  0  0  0  0  0  0  0  0  0  0
  -20.9623  -14.6627   95.3284 N   0  0  0  0  0  0  0  0  0  0  0  0
  -19.4208   -8.5460   94.8976 N   0  0  0  0  0  0  0  0  0  0  0  0
  -20.3004   -7.6028   95.2595 C   0  0  0  0  0  0  0  0  0  0  0  0
  -21.5150   -7.9366   95.7204 N   0  0  0  0  0  0  0  0  0  0  0  0
  -21.8836   -9.2222   95.8193 C   0  0  0  0  0  0  0  0  0  0  0  0
  -21.0183  -10.2451   95.4492 C   0  0  0  0  0  0  0  0  0  0  0  0
  -19.7527   -9.9030   94.9880 C   0  0  0  0  0  0  0  0  0  0  0  0
  1 11  1  0  0  0  0
  1  4  1  0  0  0  0
  2  8  1  0  0  0  0
  3 10  1  0  0  0  0
  4  5  1  0  0  0  0
  5  6  1  0  0  0  0
  7  8  2  0  0  0  0
  7 12  1  0  0  0  0
  8  9  1  0  0  0  0
  9 10  2  0  0  0  0
 10 11  1  0  0  0  0
 11 12  2  0  0  0  0
M  END
>  <CHROM.1>
-150.39705422,-178.71964247,61.14190075,-20.88003454,-10.14989918,95.41972330
1.63844397,-0.27477418,-3.13624832

>  <Name>
ligand

>  <RI>
0

>  <Rbt.Current_Directory>
/home/itssahil/PROJECTS/Mol_Feturizer/Test_systems_manuscript/rnas/4nya

>  <Rbt.Executable>
rbdock ($Id: //depot/dev/client3/rdock/2013.1/src/exe/rbdock.cxx#4 $)

>  <Rbt.Library>
libRbt.so (2013.1, Build901 2013/11/27)

>  <Rbt.Parameter_File>
/export/apps/rDock/src/rDock_2013.1_src/data/scripts/dock_solv.prm

>  <Rbt.Receptor>
prm/pocket_docking_7.prm

>  <SCORE>
-15.0319

>  <SCORE.INTER>
-13.7692

>  <SCORE.INTER.CONST>
1

>  <SCORE.INTER.POLAR>
0

>  <SCORE.INTER.ROT>
3

>  <SCORE.INTER.SOLV>
13.7202

>  <SCORE.INTER.VDW>
-19.3529

>  <SCORE.INTER.norm>
-1.14743

>  <SCORE.INTRA>
-1.26272

>  <SCORE.INTRA.DIHEDRAL>
-2.21476

>  <SCORE.INTRA.DIHEDRAL.0>
3.34563

>  <SCORE.INTRA.POLAR>
0

>  <SCORE.INTRA.POLAR.0>
0

>  <SCORE.INTRA.REPUL>
0

>  <SCORE.INTRA.REPUL.0>
0

>  <SCORE.INTRA.SOLV>
-1.25453

>  <SCORE.INTRA.SOLV.lig_0>
-59.746

>  <SCORE.INTRA.VDW>
0.47192

>  <SCORE.INTRA.VDW.0>
-0.691186

>  <SCORE.INTRA.norm>
-0.105227

>  <SCORE.RESTR>
0

>  <SCORE.RESTR.CAVITY>
0

>  <SCORE.RESTR.norm>
0

>  <SCORE.SYSTEM>
0

>  <SCORE.SYSTEM.CONST>
0

>  <SCORE.SYSTEM.DIHEDRAL>
0

>  <SCORE.SYSTEM.SOLV>
0

>  <SCORE.SYSTEM.norm>
0

>  <SCORE.heavy>
12

>  <SCORE.norm>
-1.25266

>  <RMSD>
2.815

$$$$
ligand
 OpenBabel02271912143D
libRbt.so/2013.1/901 2013/11/27
 12 12  0  0  0  0  0  0  0  0999 V2000
  -21.4911  -11.5492   95.2950 C   0  0  0  0  0  0  0  0  0  0  0  0
  -19.9271   -6.2738   95.2554 C   0  0  0  0  0  0  0  0  0  0  0  0
  -23.1524   -9.5690   96.0378 N   0  0  0  0  0  0  0  0  0  0  0  0
  -20.4191  -12.5119   95.5859 N   0  0  0  0  0  0  0  0  0  0  0  0
  -20.6892  -13.5927   95.4603 N   0  0  0  0  0  0  0  0  0  0  0  0
  -20.9601  -14.6723   95.3297 N   0  0  0  0  0  0  0  0  0  0  0  0
  -19.4189   -8.5552   94.9234 N   0  0  0  0  0  0  0  0  0  0  0  0
  -20.2982   -7.6126   95.2877 C   0  0  0  0  0  0  0  0  0  0  0  0
  -21.5128   -7.9471   95.7480 N   0  0  0  0  0  0  0  0  0  0  0  0
  -21.8819   -9.2328   95.8438 C   0  0  0  0  0  0  0  0  0  0  0  0
  -21.0169  -10.2552   95.4713 C   0  0  0  0  0  0  0  0  0  0  0  0
  -19.7513   -9.9123   95.0106 C   0  0  0  0  0  0  0  0  0  0  0  0
  1 11  1  0  0  0  0
  1  4  1  0  0  0  0
  2  8  1  0  0  0  0
  3 10  1  0  0  0  0
  4  5  1  0  0  0  0
  5  6  1  0  0  0  0
  7  8  2  0  0  0  0
  7 12  1  0  0  0  0
  8  9  1  0  0  0  0
  9 10  2  0  0  0  0
 10 11  1  0  0  0  0
 11 12  2  0  0  0  0
M  END
>  <CHROM.1>
-151.29530983,-179.14357215,62.02597186,-20.87751371,-10.15980729,95.43792587
1.63802089,-0.27592018,-3.13176205

>  <Name>
ligand

>  <RI>
0

>  <Rbt.Current_Directory>
/home/itssahil/PROJECTS/Mol_Feturizer/Test_systems_manuscript/rnas/4nya

>  <Rbt.Executable>
rbdock ($Id: //depot/dev/client3/rdock/2013.1/src/exe/rbdock.cxx#4 $)

>  <Rbt.Library>
libRbt.so (2013.1, Build901 2013/11/27)

>  <Rbt.Parameter_File>
/export/apps/rDock/src/rDock_2013.1_src/data/scripts/dock_solv.prm

>  <Rbt.Receptor>
prm/pocket_docking_8.prm

>  <SCORE>
-15.0263

>  <SCORE.INTER>
-13.77

>  <SCORE.INTER.CONST>
1

>  <SCORE.INTER.POLAR>
0

>  <SCORE.INTER.ROT>
3

>  <SCORE.INTER.SOLV>
13.6981

>  <SCORE.INTER.VDW>
-19.346

>  <SCORE.INTER.norm>
-1.1475

>  <SCORE.INTRA>
-1.25631

>  <SCORE.INTRA.DIHEDRAL>
-2.2231

>  <SCORE.INTRA.DIHEDRAL.0>
3.34563

>  <SCORE.INTRA.POLAR>
0

>  <SCORE.INTRA.POLAR.0>
0

>  <SCORE.INTRA.REPUL>
0

>  <SCORE.INTRA.REPUL.0>
0

>  <SCORE.INTRA.SOLV>
-1.26069

>  <SCORE.INTRA.SOLV.lig_0>
-59.746

>  <SCORE.INTRA.VDW>
0.485579

>  <SCORE.INTRA.VDW.0>
-0.691186

>  <SCORE.INTRA.norm>
-0.104693

>  <SCORE.RESTR>
0

>  <SCORE.RESTR.CAVITY>
0

>  <SCORE.RESTR.norm>
0

>  <SCORE.SYSTEM>
0

>  <SCORE.SYSTEM.CONST>
0

>  <SCORE.SYSTEM.DIHEDRAL>
0

>  <SCORE.SYSTEM.SOLV>
0

>  <SCORE.SYSTEM.norm>
0

>  <SCORE.heavy>
12

>  <SCORE.norm>
-1.25219

>  <RMSD>
2.815

$$$$
ligand
 OpenBabel02271912143D
libRbt.so/2013.1/901 2013/11/27
 12 12  0  0  0  0  0  0  0  0999 V2000
  -21.4896  -11.5329   95.2850 C   0  0  0  0  0  0  0  0  0  0  0  0
  -19.9260   -6.2574   95.2419 C   0  0  0  0  0  0  0  0  0  0  0  0
  -23.1498   -9.5526   96.0302 N   0  0  0  0  0  0  0  0  0  0  0  0
  -20.4179  -12.4955   95.5770 N   0  0  0  0  0  0  0  0  0  0  0  0
  -20.6885  -13.5764   95.4530 N   0  0  0  0  0  0  0  0  0  0  0  0
  -20.9543  -14.6582   95.3305 N   0  0  0  0  0  0  0  0  0  0  0  0
  -19.4182   -8.5388   94.9094 N   0  0  0  0  0  0  0  0  0  0  0  0
  -20.2969   -7.5962   95.2749 C   0  0  0  0  0  0  0  0  0  0  0  0
  -21.5108   -7.9307   95.7374 N   0  0  0  0  0  0  0  0  0  0  0  0
  -21.8796   -9.2164   95.8341 C   0  0  0  0  0  0  0  0  0  0  0  0
  -21.0152  -10.2388   95.4602 C   0  0  0  0  0  0  0  0  0  0  0  0
  -19.7504   -9.8959   94.9973 C   0  0  0  0  0  0  0  0  0  0  0  0
  1 11  1  0  0  0  0
  1  4  1  0  0  0  0
  2  8  1  0  0  0  0
  3 10  1  0  0  0  0
  4  5  1  0  0  0  0
  5  6  1  0  0  0  0
  7  8  2  0  0  0  0
  7 12  1  0  0  0  0
  8  9  1  0  0  0  0
  9 10  2  0  0  0  0
 10 11  1  0  0  0  0
 11 12  2  0  0  0  0
M  END
>  <CHROM.1>
-151.17457568,-179.18798932,-178.13215732,-20.87567825,-10.14362075,95.42814552
1.63778138,-0.27728888,-3.13301755

>  <Name>
ligand

>  <RI>
0

>  <Rbt.Current_Directory>
/home/itssahil/PROJECTS/Mol_Feturizer/Test_systems_manuscript/rnas/4nya

>  <Rbt.Executable>
rbdock ($Id: //depot/dev/client3/rdock/2013.1/src/exe/rbdock.cxx#4 $)

>  <Rbt.Library>
libRbt.so (2013.1, Build901 2013/11/27)

>  <Rbt.Parameter_File>
/export/apps/rDock/src/rDock_2013.1_src/data/scripts/dock_solv.prm

>  <Rbt.Receptor>
prm/pocket_docking_4.prm

>  <SCORE>
-15.0267

>  <SCORE.INTER>
-13.7664

>  <SCORE.INTER.CONST>
1

>  <SCORE.INTER.POLAR>
0

>  <SCORE.INTER.ROT>
3

>  <SCORE.INTER.SOLV>
13.7473

>  <SCORE.INTER.VDW>
-19.3601

>  <SCORE.INTER.norm>
-1.1472

>  <SCORE.INTRA>
-1.26025

>  <SCORE.INTRA.DIHEDRAL>
-2.22228

>  <SCORE.INTRA.DIHEDRAL.0>
3.34563

>  <SCORE.INTRA.POLAR>
0

>  <SCORE.INTRA.POLAR.0>
0

>  <SCORE.INTRA.REPUL>
0

>  <SCORE.INTRA.REPUL.0>
0

>  <SCORE.INTRA.SOLV>
-1.26324

>  <SCORE.INTRA.SOLV.lig_0>
-59.746

>  <SCORE.INTRA.VDW>
0.482507

>  <SCORE.INTRA.VDW.0>
-0.691186

>  <SCORE.INTRA.norm>
-0.105021

>  <SCORE.RESTR>
0

>  <SCORE.RESTR.CAVITY>
0

>  <SCORE.RESTR.norm>
0

>  <SCORE.SYSTEM>
0

>  <SCORE.SYSTEM.CONST>
0

>  <SCORE.SYSTEM.DIHEDRAL>
0

>  <SCORE.SYSTEM.SOLV>
0

>  <SCORE.SYSTEM.norm>
0

>  <SCORE.heavy>
12

>  <SCORE.norm>
-1.25222

>  <RMSD>
2.816

$$$$
ligand
 OpenBabel02271912143D
libRbt.so/2013.1/901 2013/11/27
 12 12  0  0  0  0  0  0  0  0999 V2000
  -21.4971  -11.5660   95.3631 C   0  0  0  0  0  0  0  0  0  0  0  0
  -19.9071   -6.3004   95.2120 C   0  0  0  0  0  0  0  0  0  0  0  0
  -23.1443   -9.5633   96.0763 N   0  0  0  0  0  0  0  0  0  0  0  0
  -20.4098  -12.5271   95.5962 N   0  0  0  0  0  0  0  0  0  0  0  0
  -20.6805  -13.6075   95.4686 N   0  0  0  0  0  0  0  0  0  0  0  0
  -20.9549  -14.6870   95.3444 N   0  0  0  0  0  0  0  0  0  0  0  0
  -19.4122   -8.5904   94.9217 N   0  0  0  0  0  0  0  0  0  0  0  0
  -20.2847   -7.6364   95.2724 C   0  0  0  0  0  0  0  0  0  0  0  0
  -21.4983   -7.9557   95.7459 N   0  0  0  0  0  0  0  0  0  0  0  0
  -21.8732   -9.2374   95.8688 C   0  0  0  0  0  0  0  0  0  0  0  0
  -21.0155  -10.2712   95.5114 C   0  0  0  0  0  0  0  0  0  0  0  0
  -19.7509   -9.9438   95.0371 C   0  0  0  0  0  0  0  0  0  0  0  0
  1 11  1  0  0  0  0
  1  4  1  0  0  0  0
  2  8  1  0  0  0  0
  3 10  1  0  0  0  0
  4  5  1  0  0  0  0
  5  6  1  0  0  0  0
  7  8  2  0  0  0  0
  7 12  1  0  0  0  0
  8  9  1  0  0  0  0
  9 10  2  0  0  0  0
 10 11  1  0  0  0  0
 11 12  2  0  0  0  0
M  END
>  <CHROM.1>
-154.31217936,-178.07154920,-54.39320091,-20.86981127,-10.17659044,95.45139742
1.63839085,-0.28746817,-3.13620541

>  <Name>
ligand

>  <RI>
0

>  <Rbt.Current_Directory>
/home/itssahil/PROJECTS/Mol_Feturizer/Test_systems_manuscript/rnas/4nya

>  <Rbt.Executable>
rbdock ($Id: //depot/dev/client3/rdock/2013.1/src/exe/rbdock.cxx#4 $)

>  <Rbt.Library>
libRbt.so (2013.1, Build901 2013/11/27)

>  <Rbt.Parameter_File>
/export/apps/rDock/src/rDock_2013.1_src/data/scripts/dock_solv.prm

>  <Rbt.Receptor>
prm/pocket_docking_5.prm

>  <SCORE>
-15.0441

>  <SCORE.INTER>
-13.8237

>  <SCORE.INTER.CONST>
1

>  <SCORE.INTER.POLAR>
0

>  <SCORE.INTER.ROT>
3

>  <SCORE.INTER.SOLV>
13.7863

>  <SCORE.INTER.VDW>
-19.4112

>  <SCORE.INTER.norm>
-1.15197

>  <SCORE.INTRA>
-1.22045

>  <SCORE.INTRA.DIHEDRAL>
-2.23217

>  <SCORE.INTRA.DIHEDRAL.0>
3.34563

>  <SCORE.INTRA.POLAR>
0

>  <SCORE.INTRA.POLAR.0>
0

>  <SCORE.INTRA.REPUL>
0

>  <SCORE.INTRA.REPUL.0>
0

>  <SCORE.INTRA.SOLV>
-1.27499

>  <SCORE.INTRA.SOLV.lig_0>
-59.746

>  <SCORE.INTRA.VDW>
0.533134

>  <SCORE.INTRA.VDW.0>
-0.691186

>  <SCORE.INTRA.norm>
-0.101704

>  <SCORE.RESTR>
0

>  <SCORE.RESTR.CAVITY>
0

>  <SCORE.RESTR.norm>
0

>  <SCORE.SYSTEM>
0

>  <SCORE.SYSTEM.CONST>
0

>  <SCORE.SYSTEM.DIHEDRAL>
0

>  <SCORE.SYSTEM.SOLV>
0

>  <SCORE.SYSTEM.norm>
0

>  <SCORE.heavy>
12

>  <SCORE.norm>
-1.25368

>  <RMSD>
2.816

$$$$
ligand
 OpenBabel02271912143D
libRbt.so/2013.1/901 2013/11/27
 12 12  0  0  0  0  0  0  0  0999 V2000
  -21.4897  -11.5467   95.2796 C   0  0  0  0  0  0  0  0  0  0  0  0
  -19.9343   -6.2689   95.2202 C   0  0  0  0  0  0  0  0  0  0  0  0
  -23.1504   -9.5674   96.0262 N   0  0  0  0  0  0  0  0  0  0  0  0
  -20.4228  -12.5076   95.5939 N   0  0  0  0  0  0  0  0  0  0  0  0
  -20.6900  -13.5890   95.4675 N   0  0  0  0  0  0  0  0  0  0  0  0
  -20.9580  -14.6693   95.3362 N   0  0  0  0  0  0  0  0  0  0  0  0
  -19.4241   -8.5503   94.8908 N   0  0  0  0  0  0  0  0  0  0  0  0
  -20.3031   -7.6083   95.2573 C   0  0  0  0  0  0  0  0  0  0  0  0
  -21.5148   -7.9436   95.7245 N   0  0  0  0  0  0  0  0  0  0  0  0
  -21.8814   -9.2297   95.8251 C   0  0  0  0  0  0  0  0  0  0  0  0
  -21.0167  -10.2515   95.4505 C   0  0  0  0  0  0  0  0  0  0  0  0
  -19.7540   -9.9077   94.9828 C   0  0  0  0  0  0  0  0  0  0  0  0
  1 11  1  0  0  0  0
  1  4  1  0  0  0  0
  2  8  1  0  0  0  0
  3 10  1  0  0  0  0
  4  5  1  0  0  0  0
  5  6  1  0  0  0  0
  7  8  2  0  0  0  0
  7 12  1  0  0  0  0
  8  9  1  0  0  0  0
  9 10  2  0  0  0  0
 10 11  1  0  0  0  0
 11 12  2  0  0  0  0
M  END
>  <CHROM.1>
-150.14685858,-178.73269999,61.33608513,-20.87923016,-10.15614394,95.42201144
1.63758993,-0.27953152,-3.13742066

>  <Name>
ligand

>  <RI>
0

>  <Rbt.Current_Directory>
/home/itssahil/PROJECTS/Mol_Feturizer/Test_systems_manuscript/rnas/4nya

>  <Rbt.Executable>
rbdock ($Id: //depot/dev/client3/rdock/2013.1/src/exe/rbdock.cxx#4 $)

>  <Rbt.Library>
libRbt.so (2013.1, Build901 2013/11/27)

>  <Rbt.Parameter_File>
/export/apps/rDock/src/rDock_2013.1_src/data/scripts/dock_solv.prm

>  <Rbt.Receptor>
prm/pocket_docking_7.prm

>  <SCORE>
-15.0256

>  <SCORE.INTER>
-13.7612

>  <SCORE.INTER.CONST>
1

>  <SCORE.INTER.POLAR>
0

>  <SCORE.INTER.ROT>
3

>  <SCORE.INTER.SOLV>
13.7531

>  <SCORE.INTER.VDW>
-19.3585

>  <SCORE.INTER.norm>
-1.14677

>  <SCORE.INTRA>
-1.26437

>  <SCORE.INTRA.DIHEDRAL>
-2.2121

>  <SCORE.INTRA.DIHEDRAL.0>
3.34563

>  <SCORE.INTRA.POLAR>
0

>  <SCORE.INTRA.POLAR.0>
0

>  <SCORE.INTRA.REPUL>
0

>  <SCORE.INTRA.REPUL.0>
0

>  <SCORE.INTRA.SOLV>
-1.25303

>  <SCORE.INTRA.SOLV.lig_0>
-59.746

>  <SCORE.INTRA.VDW>
0.468196

>  <SCORE.INTRA.VDW.0>
-0.691186

>  <SCORE.INTRA.norm>
-0.105364

>  <SCORE.RESTR>
0

>  <SCORE.RESTR.CAVITY>
0

>  <SCORE.RESTR.norm>
0

>  <SCORE.SYSTEM>
0

>  <SCORE.SYSTEM.CONST>
0

>  <SCORE.SYSTEM.DIHEDRAL>
0

>  <SCORE.SYSTEM.SOLV>
0

>  <SCORE.SYSTEM.norm>
0

>  <SCORE.heavy>
12

>  <SCORE.norm>
-1.25213

>  <RMSD>
2.816

$$$$
ligand
 OpenBabel02271912143D
libRbt.so/2013.1/901 2013/11/27
 12 12  0  0  0  0  0  0  0  0999 V2000
  -21.4859  -11.5490   95.2931 C   0  0  0  0  0  0  0  0  0  0  0  0
  -19.9334   -6.2704   95.2330 C   0  0  0  0  0  0  0  0  0  0  0  0
  -23.1387   -9.5729   96.0650 N   0  0  0  0  0  0  0  0  0  0  0  0
  -20.4175  -12.5107   95.6001 N   0  0  0  0  0  0  0  0  0  0  0  0
  -20.6836  -13.5915   95.4674 N   0  0  0  0  0  0  0  0  0  0  0  0
  -20.9533  -14.6716   95.3381 N   0  0  0  0  0  0  0  0  0  0  0  0
  -19.4261   -8.5505   94.8904 N   0  0  0  0  0  0  0  0  0  0  0  0
  -20.3012   -7.6100   95.2700 C   0  0  0  0  0  0  0  0  0  0  0  0
  -21.5074   -7.9474   95.7499 N   0  0  0  0  0  0  0  0  0  0  0  0
  -21.8722   -9.2340   95.8505 C   0  0  0  0  0  0  0  0  0  0  0  0
  -21.0115  -10.2542   95.4627 C   0  0  0  0  0  0  0  0  0  0  0  0
  -19.7543   -9.9083   94.9817 C   0  0  0  0  0  0  0  0  0  0  0  0
  1 11  1  0  0  0  0
  1  4  1  0  0  0  0
  2  8  1  0  0  0  0
  3 10  1  0  0  0  0
  4  5  1  0  0  0  0
  5  6  1  0  0  0  0
  7  8  2  0  0  0  0
  7 12  1  0  0  0  0
  8  9  1  0  0  0  0
  9 10  2  0  0  0  0
 10 11  1  0  0  0  0
 11 12  2  0  0  0  0
M  END
>  <CHROM.1>
-149.79580411,-178.33536203,-60.10566802,-20.87472266,-10.15868671,95.43428554
1.63744685,-0.29062508,-3.13494126

>  <Name>
ligand

>  <RI>
0

>  <Rbt.Current_Directory>
/home/itssahil/PROJECTS/Mol_Feturizer/Test_systems_manuscript/rnas/4nya

>  <Rbt.Executable>
rbdock ($Id: //depot/dev/client3/rdock/2013.1/src/exe/rbdock.cxx#4 $)

>  <Rbt.Library>
libRbt.so (2013.1, Build901 2013/11/27)

>  <Rbt.Parameter_File>
/export/apps/rDock/src/rDock_2013.1_src/data/scripts/dock_solv.prm

>  <Rbt.Receptor>
prm/pocket_docking_8.prm

>  <SCORE>
-15.0193

>  <SCORE.INTER>
-13.7532

>  <SCORE.INTER.CONST>
1

>  <SCORE.INTER.POLAR>
0

>  <SCORE.INTER.ROT>
3

>  <SCORE.INTER.SOLV>
13.7716

>  <SCORE.INTER.VDW>
-19.3593

>  <SCORE.INTER.norm>
-1.1461

>  <SCORE.INTRA>
-1.26605

>  <SCORE.INTRA.DIHEDRAL>
-2.2079

>  <SCORE.INTRA.DIHEDRAL.0>
3.34563

>  <SCORE.INTRA.POLAR>
0

>  <SCORE.INTRA.POLAR.0>
0

>  <SCORE.INTRA.REPUL>
0

>  <SCORE.INTRA.REPUL.0>
0

>  <SCORE.INTRA.SOLV>
-1.25006

>  <SCORE.INTRA.SOLV.lig_0>
-59.746

>  <SCORE.INTRA.VDW>
0.462928

>  <SCORE.INTRA.VDW.0>
-0.691186

>  <SCORE.INTRA.norm>
-0.105504

>  <SCORE.RESTR>
0

>  <SCORE.RESTR.CAVITY>
0

>  <SCORE.RESTR.norm>
0

>  <SCORE.SYSTEM>
0

>  <SCORE.SYSTEM.CONST>
0

>  <SCORE.SYSTEM.DIHEDRAL>
0

>  <SCORE.SYSTEM.SOLV>
0

>  <SCORE.SYSTEM.norm>
0

>  <SCORE.heavy>
12

>  <SCORE.norm>
-1.2516

>  <RMSD>
2.816

$$$$
ligand
 OpenBabel02271912143D
libRbt.so/2013.1/901 2013/11/27
 12 12  0  0  0  0  0  0  0  0999 V2000
  -21.4874  -11.5304   95.2743 C   0  0  0  0  0  0  0  0  0  0  0  0
  -19.9324   -6.2523   95.2962 C   0  0  0  0  0  0  0  0  0  0  0  0
  -23.1729   -9.5554   95.9754 N   0  0  0  0  0  0  0  0  0  0  0  0
  -20.4232  -12.4923   95.5947 N   0  0  0  0  0  0  0  0  0  0  0  0
  -20.6894  -13.5733   95.4633 N   0  0  0  0  0  0  0  0  0  0  0  0
  -20.9556  -14.6534   95.3269 N   0  0  0  0  0  0  0  0  0  0  0  0
  -19.4108   -8.5318   94.9717 N   0  0  0  0  0  0  0  0  0  0  0  0
  -20.3019   -7.5918   95.3135 C   0  0  0  0  0  0  0  0  0  0  0  0
  -21.5286   -7.9299   95.7378 N   0  0  0  0  0  0  0  0  0  0  0  0
  -21.8979   -9.2165   95.8190 C   0  0  0  0  0  0  0  0  0  0  0  0
  -21.0208  -10.2362   95.4681 C   0  0  0  0  0  0  0  0  0  0  0  0
  -19.7432   -9.8897   95.0451 C   0  0  0  0  0  0  0  0  0  0  0  0
  1 11  1  0  0  0  0
  1  4  1  0  0  0  0
  2  8  1  0  0  0  0
  3 10  1  0  0  0  0
  4  5  1  0  0  0  0
  5  6  1  0  0  0  0
  7  8  2  0  0  0  0
  7 12  1  0  0  0  0
  8  9  1  0  0  0  0
  9 10  2  0  0  0  0
 10 11  1  0  0  0  0
 11 12  2  0  0  0  0
M  END
>  <CHROM.1>
-151.21013437,-179.45210102,70.52798787,-20.88127182,-10.14055666,95.44101357
1.63638370,-0.24686544,-3.13030830

>  <Name>
ligand

>  <RI>
0

>  <Rbt.Current_Directory>
/home/itssahil/PROJECTS/Mol_Feturizer/Test_systems_manuscript/rnas/4nya

>  <Rbt.Executable>
rbdock ($Id: //depot/dev/client3/rdock/2013.1/src/exe/rbdock.cxx#4 $)

>  <Rbt.Library>
libRbt.so (2013.1, Build901 2013/11/27)

>  <Rbt.Parameter_File>
/export/apps/rDock/src/rDock_2013.1_src/data/scripts/dock_solv.prm

>  <Rbt.Receptor>
prm/pocket_docking_8.prm

>  <SCORE>
-15.0106

>  <SCORE.INTER>
-13.7672

>  <SCORE.INTER.CONST>
1

>  <SCORE.INTER.POLAR>
0

>  <SCORE.INTER.ROT>
3

>  <SCORE.INTER.SOLV>
13.7138

>  <SCORE.INTER.VDW>
-19.3494

>  <SCORE.INTER.norm>
-1.14727

>  <SCORE.INTRA>
-1.24338

>  <SCORE.INTRA.DIHEDRAL>
-2.19421

>  <SCORE.INTRA.DIHEDRAL.0>
3.34563

>  <SCORE.INTRA.POLAR>
0

>  <SCORE.INTRA.POLAR.0>
0

>  <SCORE.INTRA.REPUL>
0

>  <SCORE.INTRA.REPUL.0>
0

>  <SCORE.INTRA.SOLV>
-1.26102

>  <SCORE.INTRA.SOLV.lig_0>
-59.746

>  <SCORE.INTRA.VDW>
0.484234

>  <SCORE.INTRA.VDW.0>
-0.691186

>  <SCORE.INTRA.norm>
-0.103615

>  <SCORE.RESTR>
0

>  <SCORE.RESTR.CAVITY>
0

>  <SCORE.RESTR.norm>
0

>  <SCORE.SYSTEM>
0

>  <SCORE.SYSTEM.CONST>
0

>  <SCORE.SYSTEM.DIHEDRAL>
0

>  <SCORE.SYSTEM.SOLV>
0

>  <SCORE.SYSTEM.norm>
0

>  <SCORE.heavy>
12

>  <SCORE.norm>
-1.25088

>  <RMSD>
2.817

$$$$
ligand
 OpenBabel02271912143D
libRbt.so/2013.1/901 2013/11/27
 12 12  0  0  0  0  0  0  0  0999 V2000
  -21.4872  -11.5352   95.2976 C   0  0  0  0  0  0  0  0  0  0  0  0
  -19.9266   -6.2590   95.2372 C   0  0  0  0  0  0  0  0  0  0  0  0
  -23.1424   -9.5550   96.0540 N   0  0  0  0  0  0  0  0  0  0  0  0
  -20.4186  -12.4975   95.6020 N   0  0  0  0  0  0  0  0  0  0  0  0
  -20.6841  -13.5780   95.4646 N   0  0  0  0  0  0  0  0  0  0  0  0
  -20.9447  -14.6595   95.3287 N   0  0  0  0  0  0  0  0  0  0  0  0
  -19.4203   -8.5405   94.9028 N   0  0  0  0  0  0  0  0  0  0  0  0
  -20.2966   -7.5980   95.2744 C   0  0  0  0  0  0  0  0  0  0  0  0
  -21.5066   -7.9326   95.7468 N   0  0  0  0  0  0  0  0  0  0  0  0
  -21.8740   -9.2184   95.8476 C   0  0  0  0  0  0  0  0  0  0  0  0
  -21.0120  -10.2407   95.4678 C   0  0  0  0  0  0  0  0  0  0  0  0
  -19.7511   -9.8977   94.9947 C   0  0  0  0  0  0  0  0  0  0  0  0
  1 11  1  0  0  0  0
  1  4  1  0  0  0  0
  2  8  1  0  0  0  0
  3 10  1  0  0  0  0
  4  5  1  0  0  0  0
  5  6  1  0  0  0  0
  7  8  2  0  0  0  0
  7 12  1  0  0  0  0
  8  9  1  0  0  0  0
  9 10  2  0  0  0  0
 10 11  1  0  0  0  0
 11 12  2  0  0  0  0
M  END
>  <CHROM.1>
-150.31364344,-178.09461417,-179.14708107,-20.87291469,-10.14547302,95.43549399
1.63717000,-0.28486031,-3.13412866

>  <Name>
ligand

>  <RI>
0

>  <Rbt.Current_Directory>
/home/itssahil/PROJECTS/Mol_Feturizer/Test_systems_manuscript/rnas/4nya

>  <Rbt.Executable>
rbdock ($Id: //depot/dev/client3/rdock/2013.1/src/exe/rbdock.cxx#4 $)

>  <Rbt.Library>
libRbt.so (2013.1, Build901 2013/11/27)

>  <Rbt.Parameter_File>
/export/apps/rDock/src/rDock_2013.1_src/data/scripts/dock_solv.prm

>  <Rbt.Receptor>
prm/pocket_docking_8.prm

>  <SCORE>
-15.0189

>  <SCORE.INTER>
-13.7539

>  <SCORE.INTER.CONST>
1

>  <SCORE.INTER.POLAR>
0

>  <SCORE.INTER.ROT>
3

>  <SCORE.INTER.SOLV>
13.7824

>  <SCORE.INTER.VDW>
-19.3634

>  <SCORE.INTER.norm>
-1.14616

>  <SCORE.INTRA>
-1.26498

>  <SCORE.INTRA.DIHEDRAL>
-2.21244

>  <SCORE.INTRA.DIHEDRAL.0>
3.34563

>  <SCORE.INTRA.POLAR>
0

>  <SCORE.INTRA.POLAR.0>
0

>  <SCORE.INTRA.REPUL>
0

>  <SCORE.INTRA.REPUL.0>
0

>  <SCORE.INTRA.SOLV>
-1.25605

>  <SCORE.INTRA.SOLV.lig_0>
-59.746

>  <SCORE.INTRA.VDW>
0.469263

>  <SCORE.INTRA.VDW.0>
-0.691186

>  <SCORE.INTRA.norm>
-0.105415

>  <SCORE.RESTR>
0

>  <SCORE.RESTR.CAVITY>
0

>  <SCORE.RESTR.norm>
0

>  <SCORE.SYSTEM>
0

>  <SCORE.SYSTEM.CONST>
0

>  <SCORE.SYSTEM.DIHEDRAL>
0

>  <SCORE.SYSTEM.SOLV>
0

>  <SCORE.SYSTEM.norm>
0

>  <SCORE.heavy>
12

>  <SCORE.norm>
-1.25157

>  <RMSD>
2.817

$$$$
ligand
 OpenBabel02271912143D
libRbt.so/2013.1/901 2013/11/27
 12 12  0  0  0  0  0  0  0  0999 V2000
  -21.4970  -11.5587   95.3697 C   0  0  0  0  0  0  0  0  0  0  0  0
  -19.9066   -6.2926   95.2394 C   0  0  0  0  0  0  0  0  0  0  0  0
  -23.1520   -9.5568   96.0673 N   0  0  0  0  0  0  0  0  0  0  0  0
  -20.4064  -12.5191   95.5900 N   0  0  0  0  0  0  0  0  0  0  0  0
  -20.6746  -13.5989   95.4530 N   0  0  0  0  0  0  0  0  0  0  0  0
  -20.9441  -14.6775   95.3112 N   0  0  0  0  0  0  0  0  0  0  0  0
  -19.4082   -8.5823   94.9525 N   0  0  0  0  0  0  0  0  0  0  0  0
  -20.2845   -7.6288   95.2948 C   0  0  0  0  0  0  0  0  0  0  0  0
  -21.5030   -7.9487   95.7553 N   0  0  0  0  0  0  0  0  0  0  0  0
  -21.8789   -9.2306   95.8733 C   0  0  0  0  0  0  0  0  0  0  0  0
  -21.0173  -10.2639   95.5241 C   0  0  0  0  0  0  0  0  0  0  0  0
  -19.7478   -9.9359   95.0633 C   0  0  0  0  0  0  0  0  0  0  0  0
  1 11  1  0  0  0  0
  1  4  1  0  0  0  0
  2  8  1  0  0  0  0
  3 10  1  0  0  0  0
  4  5  1  0  0  0  0
  5  6  1  0  0  0  0
  7  8  2  0  0  0  0
  7 12  1  0  0  0  0
  8  9  1  0  0  0  0
  9 10  2  0  0  0  0
 10 11  1  0  0  0  0
 11 12  2  0  0  0  0
M  END
>  <CHROM.1>
-155.30829446,-177.85945403,59.67393732,-20.86905558,-10.16888901,95.45736930
1.63652739,-0.27915441,-3.13067767

>  <Name>
ligand

>  <RI>
0

>  <Rbt.Current_Directory>
/home/itssahil/PROJECTS/Mol_Feturizer/Test_systems_manuscript/rnas/4nya

>  <Rbt.Executable>
rbdock ($Id: //depot/dev/client3/rdock/2013.1/src/exe/rbdock.cxx#4 $)

>  <Rbt.Library>
libRbt.so (2013.1, Build901 2013/11/27)

>  <Rbt.Parameter_File>
/export/apps/rDock/src/rDock_2013.1_src/data/scripts/dock_solv.prm

>  <Rbt.Receptor>
prm/pocket_docking_6.prm

>  <SCORE>
-15.0292

>  <SCORE.INTER>
-13.8172

>  <SCORE.INTER.CONST>
1

>  <SCORE.INTER.POLAR>
0

>  <SCORE.INTER.ROT>
3

>  <SCORE.INTER.SOLV>
13.7355

>  <SCORE.INTER.VDW>
-19.39

>  <SCORE.INTER.norm>
-1.15144

>  <SCORE.INTRA>
-1.21196

>  <SCORE.INTRA.DIHEDRAL>
-2.2431

>  <SCORE.INTRA.DIHEDRAL.0>
3.34563

>  <SCORE.INTRA.POLAR>
0

>  <SCORE.INTRA.POLAR.0>
0

>  <SCORE.INTRA.REPUL>
0

>  <SCORE.INTRA.REPUL.0>
0

>  <SCORE.INTRA.SOLV>
-1.27971

>  <SCORE.INTRA.SOLV.lig_0>
-59.746

>  <SCORE.INTRA.VDW>
0.549442

>  <SCORE.INTRA.VDW.0>
-0.691186

>  <SCORE.INTRA.norm>
-0.100997

>  <SCORE.RESTR>
0

>  <SCORE.RESTR.CAVITY>
0

>  <SCORE.RESTR.norm>
0

>  <SCORE.SYSTEM>
0

>  <SCORE.SYSTEM.CONST>
0

>  <SCORE.SYSTEM.DIHEDRAL>
0

>  <SCORE.SYSTEM.SOLV>
0

>  <SCORE.SYSTEM.norm>
0

>  <SCORE.heavy>
12

>  <SCORE.norm>
-1.25243

>  <RMSD>
2.818

$$$$
ligand
 OpenBabel02271912143D
libRbt.so/2013.1/901 2013/11/27
 12 12  0  0  0  0  0  0  0  0999 V2000
  -21.4912  -11.5319   95.2960 C   0  0  0  0  0  0  0  0  0  0  0  0
  -19.9230   -6.2579   95.2385 C   0  0  0  0  0  0  0  0  0  0  0  0
  -23.1540   -9.5471   96.0231 N   0  0  0  0  0  0  0  0  0  0  0  0
  -20.4207  -12.4941   95.5939 N   0  0  0  0  0  0  0  0  0  0  0  0
  -20.6840  -13.5741   95.4497 N   0  0  0  0  0  0  0  0  0  0  0  0
  -20.9427  -14.6552   95.3072 N   0  0  0  0  0  0  0  0  0  0  0  0
  -19.4153   -8.5412   94.9190 N   0  0  0  0  0  0  0  0  0  0  0  0
  -20.2953   -7.5963   95.2754 C   0  0  0  0  0  0  0  0  0  0  0  0
  -21.5120   -7.9278   95.7324 N   0  0  0  0  0  0  0  0  0  0  0  0
  -21.8824   -9.2127   95.8327 C   0  0  0  0  0  0  0  0  0  0  0  0
  -21.0168  -10.2374   95.4682 C   0  0  0  0  0  0  0  0  0  0  0  0
  -19.7491   -9.8977   95.0110 C   0  0  0  0  0  0  0  0  0  0  0  0
  1 11  1  0  0  0  0
  1  4  1  0  0  0  0
  2  8  1  0  0  0  0
  3 10  1  0  0  0  0
  4  5  1  0  0  0  0
  5  6  1  0  0  0  0
  7  8  2  0  0  0  0
  7 12  1  0  0  0  0
  8  9  1  0  0  0  0
  9 10  2  0  0  0  0
 10 11  1  0  0  0  0
 11 12  2  0  0  0  0
M  END
>  <CHROM.1>
-151.36402979,-177.81213194,-175.93898881,-20.87473155,-10.14224904,95.42927955
1.63654986,-0.27325092,-3.13270134

>  <Name>
ligand

>  <RI>
0

>  <Rbt.Current_Directory>
/home/itssahil/PROJECTS/Mol_Feturizer/Test_systems_manuscript/rnas/4nya

>  <Rbt.Executable>
rbdock ($Id: //depot/dev/client3/rdock/2013.1/src/exe/rbdock.cxx#4 $)

>  <Rbt.Library>
libRbt.so (2013.1, Build901 2013/11/27)

>  <Rbt.Parameter_File>
/export/apps/rDock/src/rDock_2013.1_src/data/scripts/dock_solv.prm

>  <Rbt.Receptor>
prm/pocket_docking_7.prm

>  <SCORE>
-14.9974

>  <SCORE.INTER>
-13.743

>  <SCORE.INTER.CONST>
1

>  <SCORE.INTER.POLAR>
0

>  <SCORE.INTER.ROT>
3

>  <SCORE.INTER.SOLV>
13.7493

>  <SCORE.INTER.VDW>
-19.3451

>  <SCORE.INTER.norm>
-1.14525

>  <SCORE.INTRA>
-1.25433

>  <SCORE.INTRA.DIHEDRAL>
-2.21698

>  <SCORE.INTRA.DIHEDRAL.0>
3.34563

>  <SCORE.INTRA.POLAR>
0

>  <SCORE.INTRA.POLAR.0>
0

>  <SCORE.INTRA.REPUL>
0

>  <SCORE.INTRA.REPUL.0>
0

>  <SCORE.INTRA.SOLV>
-1.26179

>  <SCORE.INTRA.SOLV.lig_0>
-59.746

>  <SCORE.INTRA.VDW>
0.485053

>  <SCORE.INTRA.VDW.0>
-0.691186

>  <SCORE.INTRA.norm>
-0.104528

>  <SCORE.RESTR>
0

>  <SCORE.RESTR.CAVITY>
0

>  <SCORE.RESTR.norm>
0

>  <SCORE.SYSTEM>
0

>  <SCORE.SYSTEM.CONST>
0

>  <SCORE.SYSTEM.DIHEDRAL>
0

>  <SCORE.SYSTEM.SOLV>
0

>  <SCORE.SYSTEM.norm>
0

>  <SCORE.heavy>
12

>  <SCORE.norm>
-1.24978

>  <RMSD>
2.818

$$$$
ligand
 OpenBabel02271912143D
libRbt.so/2013.1/901 2013/11/27
 12 12  0  0  0  0  0  0  0  0999 V2000
  -21.2014  -11.8873   94.9220 C   0  0  0  0  0  0  0  0  0  0  0  0
  -20.3190   -6.4915   95.5425 C   0  0  0  0  0  0  0  0  0  0  0  0
  -23.0451  -10.2623   96.0143 N   0  0  0  0  0  0  0  0  0  0  0  0
  -20.4074  -12.8115   95.7442 N   0  0  0  0  0  0  0  0  0  0  0  0
  -20.7581  -13.8762   95.7548 N   0  0  0  0  0  0  0  0  0  0  0  0
  -21.1133  -14.9391   95.7669 N   0  0  0  0  0  0  0  0  0  0  0  0
  -19.5514   -8.6206   94.8708 N   0  0  0  0  0  0  0  0  0  0  0  0
  -20.5159   -7.8604   95.4057 C   0  0  0  0  0  0  0  0  0  0  0  0
  -21.6454   -8.4120   95.8738 N   0  0  0  0  0  0  0  0  0  0  0  0
  -21.8427   -9.7367   95.8072 C   0  0  0  0  0  0  0  0  0  0  0  0
  -20.8829  -10.5762   95.2537 C   0  0  0  0  0  0  0  0  0  0  0  0
  -19.7041  -10.0095   94.7840 C   0  0  0  0  0  0  0  0  0  0  0  0
  1 11  1  0  0  0  0
  1  4  1  0  0  0  0
  2  8  1  0  0  0  0
  3 10  1  0  0  0  0
  4  5  1  0  0  0  0
  5  6  1  0  0  0  0
  7  8  2  0  0  0  0
  7 12  1  0  0  0  0
  8  9  1  0  0  0  0
  9 10  2  0  0  0  0
 10 11  1  0  0  0  0
 11 12  2  0  0  0  0
M  END
>  <CHROM.1>
-116.29173763,165.05180497,-55.17210832,-20.92066878,-10.47696661,95.48687797
-1.63266674,0.31370074,-0.01543252

>  <Name>
ligand

>  <RI>
0

>  <Rbt.Current_Directory>
/home/itssahil/PROJECTS/Mol_Feturizer/Test_systems_manuscript/rnas/4nya

>  <Rbt.Executable>
rbdock ($Id: //depot/dev/client3/rdock/2013.1/src/exe/rbdock.cxx#4 $)

>  <Rbt.Library>
libRbt.so (2013.1, Build901 2013/11/27)

>  <Rbt.Parameter_File>
/export/apps/rDock/src/rDock_2013.1_src/data/scripts/dock_solv.prm

>  <Rbt.Receptor>
prm/pocket_docking_7.prm

>  <SCORE>
-13.1788

>  <SCORE.INTER>
-12.3743

>  <SCORE.INTER.CONST>
1

>  <SCORE.INTER.POLAR>
0

>  <SCORE.INTER.ROT>
3

>  <SCORE.INTER.SOLV>
14.8441

>  <SCORE.INTER.VDW>
-18.7976

>  <SCORE.INTER.norm>
-1.03119

>  <SCORE.INTRA>
-0.804544

>  <SCORE.INTRA.DIHEDRAL>
-1.18071

>  <SCORE.INTRA.DIHEDRAL.0>
3.34563

>  <SCORE.INTRA.POLAR>
0

>  <SCORE.INTRA.POLAR.0>
0

>  <SCORE.INTRA.REPUL>
0

>  <SCORE.INTRA.REPUL.0>
0

>  <SCORE.INTRA.SOLV>
-0.697653

>  <SCORE.INTRA.SOLV.lig_0>
-59.746

>  <SCORE.INTRA.VDW>
0.134636

>  <SCORE.INTRA.VDW.0>
-0.691186

>  <SCORE.INTRA.norm>
-0.0670454

>  <SCORE.RESTR>
0

>  <SCORE.RESTR.CAVITY>
0

>  <SCORE.RESTR.norm>
0

>  <SCORE.SYSTEM>
0

>  <SCORE.SYSTEM.CONST>
0

>  <SCORE.SYSTEM.DIHEDRAL>
0

>  <SCORE.SYSTEM.SOLV>
0

>  <SCORE.SYSTEM.norm>
0

>  <SCORE.heavy>
12

>  <SCORE.norm>
-1.09824

>  <RMSD>
2.819

$$$$
ligand
 OpenBabel02271912143D
libRbt.so/2013.1/901 2013/11/27
 12 12  0  0  0  0  0  0  0  0999 V2000
  -21.1902  -11.8941   94.9248 C   0  0  0  0  0  0  0  0  0  0  0  0
  -20.3089   -6.5009   95.5685 C   0  0  0  0  0  0  0  0  0  0  0  0
  -23.0470  -10.2685   95.9938 N   0  0  0  0  0  0  0  0  0  0  0  0
  -20.3854  -12.8209   95.7333 N   0  0  0  0  0  0  0  0  0  0  0  0
  -20.7569  -13.8778   95.7751 N   0  0  0  0  0  0  0  0  0  0  0  0
  -21.1277  -14.9347   95.8118 N   0  0  0  0  0  0  0  0  0  0  0  0
  -19.5349   -8.6298   94.9038 N   0  0  0  0  0  0  0  0  0  0  0  0
  -20.5058   -7.8691   95.4262 C   0  0  0  0  0  0  0  0  0  0  0  0
  -21.6427   -8.4200   95.8770 N   0  0  0  0  0  0  0  0  0  0  0  0
  -21.8410   -9.7443   95.8050 C   0  0  0  0  0  0  0  0  0  0  0  0
  -20.8746  -10.5841   95.2636 C   0  0  0  0  0  0  0  0  0  0  0  0
  -19.6883  -10.0183   94.8120 C   0  0  0  0  0  0  0  0  0  0  0  0
  1 11  1  0  0  0  0
  1  4  1  0  0  0  0
  2  8  1  0  0  0  0
  3 10  1  0  0  0  0
  4  5  1  0  0  0  0
  5  6  1  0  0  0  0
  7  8  2  0  0  0  0
  7 12  1  0  0  0  0
  8  9  1  0  0  0  0
  9 10  2  0  0  0  0
 10 11  1  0  0  0  0
 11 12  2  0  0  0  0
M  END
>  <CHROM.1>
-117.67566023,162.48302483,61.23738669,-20.91380458,-10.48350309,95.49983143
-1.63418150,0.29916415,-0.01603603

>  <Name>
ligand

>  <RI>
0

>  <Rbt.Current_Directory>
/home/itssahil/PROJECTS/Mol_Feturizer/Test_systems_manuscript/rnas/4nya

>  <Rbt.Executable>
rbdock ($Id: //depot/dev/client3/rdock/2013.1/src/exe/rbdock.cxx#4 $)

>  <Rbt.Library>
libRbt.so (2013.1, Build901 2013/11/27)

>  <Rbt.Parameter_File>
/export/apps/rDock/src/rDock_2013.1_src/data/scripts/dock_solv.prm

>  <Rbt.Receptor>
prm/pocket_docking_5.prm

>  <SCORE>
-13.1002

>  <SCORE.INTER>
-12.3008

>  <SCORE.INTER.CONST>
1

>  <SCORE.INTER.POLAR>
0

>  <SCORE.INTER.ROT>
3

>  <SCORE.INTER.SOLV>
14.9765

>  <SCORE.INTER.VDW>
-18.7927

>  <SCORE.INTER.norm>
-1.02506

>  <SCORE.INTRA>
-0.799426

>  <SCORE.INTRA.DIHEDRAL>
-1.16288

>  <SCORE.INTRA.DIHEDRAL.0>
3.34563

>  <SCORE.INTRA.POLAR>
0

>  <SCORE.INTRA.POLAR.0>
0

>  <SCORE.INTRA.REPUL>
0

>  <SCORE.INTRA.REPUL.0>
0

>  <SCORE.INTRA.SOLV>
-0.714227

>  <SCORE.INTRA.SOLV.lig_0>
-59.746

>  <SCORE.INTRA.VDW>
0.139125

>  <SCORE.INTRA.VDW.0>
-0.691186

>  <SCORE.INTRA.norm>
-0.0666188

>  <SCORE.RESTR>
0

>  <SCORE.RESTR.CAVITY>
0

>  <SCORE.RESTR.norm>
0

>  <SCORE.SYSTEM>
0

>  <SCORE.SYSTEM.CONST>
0

>  <SCORE.SYSTEM.DIHEDRAL>
0

>  <SCORE.SYSTEM.SOLV>
0

>  <SCORE.SYSTEM.norm>
0

>  <SCORE.heavy>
12

>  <SCORE.norm>
-1.09168

>  <RMSD>
2.820

$$$$
ligand
 OpenBabel02271912143D
libRbt.so/2013.1/901 2013/11/27
 12 12  0  0  0  0  0  0  0  0999 V2000
  -21.4862  -11.0817   95.4671 C   0  0  0  0  0  0  0  0  0  0  0  0
  -19.8140   -5.8595   95.0091 C   0  0  0  0  0  0  0  0  0  0  0  0
  -22.9931   -9.0266   96.3267 N   0  0  0  0  0  0  0  0  0  0  0  0
  -20.3908  -12.0617   95.4726 N   0  0  0  0  0  0  0  0  0  0  0  0
  -20.6979  -13.1345   95.3655 N   0  0  0  0  0  0  0  0  0  0  0  0
  -21.0001  -14.2084   95.2589 N   0  0  0  0  0  0  0  0  0  0  0  0
  -19.4063   -8.1660   94.7133 N   0  0  0  0  0  0  0  0  0  0  0  0
  -20.2100   -7.1847   95.1441 C   0  0  0  0  0  0  0  0  0  0  0  0
  -21.3647   -7.4656   95.7662 N   0  0  0  0  0  0  0  0  0  0  0  0
  -21.7494   -8.7353   95.9617 C   0  0  0  0  0  0  0  0  0  0  0  0
  -20.9629   -9.7961   95.5278 C   0  0  0  0  0  0  0  0  0  0  0  0
  -19.7575   -9.5084   94.8988 C   0  0  0  0  0  0  0  0  0  0  0  0
  1 11  1  0  0  0  0
  1  4  1  0  0  0  0
  2  8  1  0  0  0  0
  3 10  1  0  0  0  0
  4  5  1  0  0  0  0
  5  6  1  0  0  0  0
  7  8  2  0  0  0  0
  7 12  1  0  0  0  0
  8  9  1  0  0  0  0
  9 10  2  0  0  0  0
 10 11  1  0  0  0  0
 11 12  2  0  0  0  0
M  END
>  <CHROM.1>
-159.20121019,-176.54559899,-177.36597315,-20.82046369,-9.70504303,95.40808226
1.65871421,-0.41759508,-3.12486789

>  <Name>
ligand

>  <RI>
0

>  <Rbt.Current_Directory>
/home/itssahil/PROJECTS/Mol_Feturizer/Test_systems_manuscript/rnas/4nya

>  <Rbt.Executable>
rbdock ($Id: //depot/dev/client3/rdock/2013.1/src/exe/rbdock.cxx#4 $)

>  <Rbt.Library>
libRbt.so (2013.1, Build901 2013/11/27)

>  <Rbt.Parameter_File>
/export/apps/rDock/src/rDock_2013.1_src/data/scripts/dock_solv.prm

>  <Rbt.Receptor>
prm/pocket_docking_3.prm

>  <SCORE>
-13.9831

>  <SCORE.INTER>
-12.9246

>  <SCORE.INTER.CONST>
1

>  <SCORE.INTER.POLAR>
0

>  <SCORE.INTER.ROT>
3

>  <SCORE.INTER.SOLV>
15.0323

>  <SCORE.INTER.VDW>
-19.2272

>  <SCORE.INTER.norm>
-1.07705

>  <SCORE.INTRA>
-1.16702

>  <SCORE.INTRA.DIHEDRAL>
-2.23219

>  <SCORE.INTRA.DIHEDRAL.0>
3.34563

>  <SCORE.INTRA.POLAR>
0

>  <SCORE.INTRA.POLAR.0>
0

>  <SCORE.INTRA.REPUL>
0

>  <SCORE.INTRA.REPUL.0>
0

>  <SCORE.INTRA.SOLV>
-1.29747

>  <SCORE.INTRA.SOLV.lig_0>
-59.746

>  <SCORE.INTRA.VDW>
0.597811

>  <SCORE.INTRA.VDW.0>
-0.691186

>  <SCORE.INTRA.norm>
-0.0972514

>  <SCORE.RESTR>
0.108487

>  <SCORE.RESTR.CAVITY>
0.108487

>  <SCORE.RESTR.norm>
0.00904055

>  <SCORE.SYSTEM>
0

>  <SCORE.SYSTEM.CONST>
0

>  <SCORE.SYSTEM.DIHEDRAL>
0

>  <SCORE.SYSTEM.SOLV>
0

>  <SCORE.SYSTEM.norm>
0

>  <SCORE.heavy>
12

>  <SCORE.norm>
-1.16526

>  <RMSD>
2.821

$$$$
ligand
 OpenBabel02271912143D
libRbt.so/2013.1/901 2013/11/27
 12 12  0  0  0  0  0  0  0  0999 V2000
  -21.4858  -11.5783   95.3561 C   0  0  0  0  0  0  0  0  0  0  0  0
  -19.9166   -6.3053   95.2521 C   0  0  0  0  0  0  0  0  0  0  0  0
  -23.1449   -9.5876   96.0753 N   0  0  0  0  0  0  0  0  0  0  0  0
  -20.4054  -12.5378   95.6256 N   0  0  0  0  0  0  0  0  0  0  0  0
  -20.6697  -13.6185   95.4881 N   0  0  0  0  0  0  0  0  0  0  0  0
  -20.9294  -14.7002   95.3524 N   0  0  0  0  0  0  0  0  0  0  0  0
  -19.4108   -8.5911   94.9477 N   0  0  0  0  0  0  0  0  0  0  0  0
  -20.2890   -7.6432   95.3007 C   0  0  0  0  0  0  0  0  0  0  0  0
  -21.5038   -7.9709   95.7654 N   0  0  0  0  0  0  0  0  0  0  0  0
  -21.8741   -9.2550   95.8770 C   0  0  0  0  0  0  0  0  0  0  0  0
  -21.0103  -10.2827   95.5165 C   0  0  0  0  0  0  0  0  0  0  0  0
  -19.7445   -9.9467   95.0514 C   0  0  0  0  0  0  0  0  0  0  0  0
  1 11  1  0  0  0  0
  1  4  1  0  0  0  0
  2  8  1  0  0  0  0
  3 10  1  0  0  0  0
  4  5  1  0  0  0  0
  5  6  1  0  0  0  0
  7  8  2  0  0  0  0
  7 12  1  0  0  0  0
  8  9  1  0  0  0  0
  9 10  2  0  0  0  0
 10 11  1  0  0  0  0
 11 12  2  0  0  0  0
M  END
>  <CHROM.1>
-152.70679561,-177.83654697,-175.42124820,-20.86611956,-10.18753669,95.46750956
1.63507562,-0.27974429,-3.13536905

>  <Name>
ligand

>  <RI>
0

>  <Rbt.Current_Directory>
/home/itssahil/PROJECTS/Mol_Feturizer/Test_systems_manuscript/rnas/4nya

>  <Rbt.Executable>
rbdock ($Id: //depot/dev/client3/rdock/2013.1/src/exe/rbdock.cxx#4 $)

>  <Rbt.Library>
libRbt.so (2013.1, Build901 2013/11/27)

>  <Rbt.Parameter_File>
/export/apps/rDock/src/rDock_2013.1_src/data/scripts/dock_solv.prm

>  <Rbt.Receptor>
prm/pocket_docking_5.prm

>  <SCORE>
-15.0061

>  <SCORE.INTER>
-13.7643

>  <SCORE.INTER.CONST>
1

>  <SCORE.INTER.POLAR>
0

>  <SCORE.INTER.ROT>
3

>  <SCORE.INTER.SOLV>
13.875

>  <SCORE.INTER.VDW>
-19.4012

>  <SCORE.INTER.norm>
-1.14703

>  <SCORE.INTRA>
-1.24175

>  <SCORE.INTRA.DIHEDRAL>
-2.2259

>  <SCORE.INTRA.DIHEDRAL.0>
3.34563

>  <SCORE.INTRA.POLAR>
0

>  <SCORE.INTRA.POLAR.0>
0

>  <SCORE.INTRA.REPUL>
0

>  <SCORE.INTRA.REPUL.0>
0

>  <SCORE.INTRA.SOLV>
-1.26947

>  <SCORE.INTRA.SOLV.lig_0>
-59.746

>  <SCORE.INTRA.VDW>
0.505938

>  <SCORE.INTRA.VDW.0>
-0.691186

>  <SCORE.INTRA.norm>
-0.103479

>  <SCORE.RESTR>
0

>  <SCORE.RESTR.CAVITY>
0

>  <SCORE.RESTR.norm>
0

>  <SCORE.SYSTEM>
0

>  <SCORE.SYSTEM.CONST>
0

>  <SCORE.SYSTEM.DIHEDRAL>
0

>  <SCORE.SYSTEM.SOLV>
0

>  <SCORE.SYSTEM.norm>
0

>  <SCORE.heavy>
12

>  <SCORE.norm>
-1.25051

>  <RMSD>
2.821

$$$$
ligand
 OpenBabel02271912143D
libRbt.so/2013.1/901 2013/11/27
 12 12  0  0  0  0  0  0  0  0999 V2000
  -21.4820  -11.5434   95.2975 C   0  0  0  0  0  0  0  0  0  0  0  0
  -19.9437   -6.2605   95.2491 C   0  0  0  0  0  0  0  0  0  0  0  0
  -23.1592   -9.5684   96.0182 N   0  0  0  0  0  0  0  0  0  0  0  0
  -20.4025  -12.4991   95.5835 N   0  0  0  0  0  0  0  0  0  0  0  0
  -20.6661  -13.5815   95.4589 N   0  0  0  0  0  0  0  0  0  0  0  0
  -20.9249  -14.6650   95.3357 N   0  0  0  0  0  0  0  0  0  0  0  0
  -19.4216   -8.5408   94.9308 N   0  0  0  0  0  0  0  0  0  0  0  0
  -20.3085   -7.6010   95.2838 C   0  0  0  0  0  0  0  0  0  0  0  0
  -21.5253   -7.9396   95.7354 N   0  0  0  0  0  0  0  0  0  0  0  0
  -21.8888   -9.2267   95.8335 C   0  0  0  0  0  0  0  0  0  0  0  0
  -21.0157  -10.2463   95.4723 C   0  0  0  0  0  0  0  0  0  0  0  0
  -19.7481   -9.8991   95.0208 C   0  0  0  0  0  0  0  0  0  0  0  0
  1 11  1  0  0  0  0
  1  4  1  0  0  0  0
  2  8  1  0  0  0  0
  3 10  1  0  0  0  0
  4  5  1  0  0  0  0
  5  6  1  0  0  0  0
  7  8  2  0  0  0  0
  7 12  1  0  0  0  0
  8  9  1  0  0  0  0
  9 10  2  0  0  0  0
 10 11  1  0  0  0  0
 11 12  2  0  0  0  0
M  END
>  <CHROM.1>
-152.06541246,-179.16472825,-179.85203165,-20.87463162,-10.15041441,95.43535131
1.63131086,-0.26878021,-3.13510326

>  <Name>
ligand

>  <RI>
0

>  <Rbt.Current_Directory>
/home/itssahil/PROJECTS/Mol_Feturizer/Test_systems_manuscript/rnas/4nya

>  <Rbt.Executable>
rbdock ($Id: //depot/dev/client3/rdock/2013.1/src/exe/rbdock.cxx#4 $)

>  <Rbt.Library>
libRbt.so (2013.1, Build901 2013/11/27)

>  <Rbt.Parameter_File>
/export/apps/rDock/src/rDock_2013.1_src/data/scripts/dock_solv.prm

>  <Rbt.Receptor>
prm/pocket_docking_4.prm

>  <SCORE>
-15.0076

>  <SCORE.INTER>
-13.7544

>  <SCORE.INTER.CONST>
1

>  <SCORE.INTER.POLAR>
0

>  <SCORE.INTER.ROT>
3

>  <SCORE.INTER.SOLV>
13.8607

>  <SCORE.INTER.VDW>
-19.3898

>  <SCORE.INTER.norm>
-1.1462

>  <SCORE.INTRA>
-1.25317

>  <SCORE.INTRA.DIHEDRAL>
-2.23043

>  <SCORE.INTRA.DIHEDRAL.0>
3.34563

>  <SCORE.INTRA.POLAR>
0

>  <SCORE.INTRA.POLAR.0>
0

>  <SCORE.INTRA.REPUL>
0

>  <SCORE.INTRA.REPUL.0>
0

>  <SCORE.INTRA.SOLV>
-1.26833

>  <SCORE.INTRA.SOLV.lig_0>
-59.746

>  <SCORE.INTRA.VDW>
0.496216

>  <SCORE.INTRA.VDW.0>
-0.691186

>  <SCORE.INTRA.norm>
-0.10443

>  <SCORE.RESTR>
0

>  <SCORE.RESTR.CAVITY>
0

>  <SCORE.RESTR.norm>
0

>  <SCORE.SYSTEM>
0

>  <SCORE.SYSTEM.CONST>
0

>  <SCORE.SYSTEM.DIHEDRAL>
0

>  <SCORE.SYSTEM.SOLV>
0

>  <SCORE.SYSTEM.norm>
0

>  <SCORE.heavy>
12

>  <SCORE.norm>
-1.25063

>  <RMSD>
2.823

$$$$
ligand
 OpenBabel02271912143D
libRbt.so/2013.1/901 2013/11/27
 12 12  0  0  0  0  0  0  0  0999 V2000
  -21.4998  -11.0865   95.4053 C   0  0  0  0  0  0  0  0  0  0  0  0
  -19.8443   -5.8553   94.9914 C   0  0  0  0  0  0  0  0  0  0  0  0
  -23.0456   -9.0389   96.2118 N   0  0  0  0  0  0  0  0  0  0  0  0
  -20.4011  -12.0607   95.4708 N   0  0  0  0  0  0  0  0  0  0  0  0
  -20.6994  -13.1370   95.3740 N   0  0  0  0  0  0  0  0  0  0  0  0
  -20.9996  -14.2120   95.2726 N   0  0  0  0  0  0  0  0  0  0  0  0
  -19.4137   -8.1599   94.7135 N   0  0  0  0  0  0  0  0  0  0  0  0
  -20.2366   -7.1826   95.1161 C   0  0  0  0  0  0  0  0  0  0  0  0
  -21.4092   -7.4692   95.7011 N   0  0  0  0  0  0  0  0  0  0  0  0
  -21.7925   -8.7408   95.8866 C   0  0  0  0  0  0  0  0  0  0  0  0
  -20.9862   -9.7977   95.4804 C   0  0  0  0  0  0  0  0  0  0  0  0
  -19.7628   -9.5040   94.8901 C   0  0  0  0  0  0  0  0  0  0  0  0
  1 11  1  0  0  0  0
  1  4  1  0  0  0  0
  2  8  1  0  0  0  0
  3 10  1  0  0  0  0
  4  5  1  0  0  0  0
  5  6  1  0  0  0  0
  7  8  2  0  0  0  0
  7 12  1  0  0  0  0
  8  9  1  0  0  0  0
  9 10  2  0  0  0  0
 10 11  1  0  0  0  0
 11 12  2  0  0  0  0
M  END
>  <CHROM.1>
-158.25897768,-177.46502908,60.08856687,-20.84188292,-9.70642879,95.37532719
1.65327098,-0.38271574,-3.13551706

>  <Name>
ligand

>  <RI>
0

>  <Rbt.Current_Directory>
/home/itssahil/PROJECTS/Mol_Feturizer/Test_systems_manuscript/rnas/4nya

>  <Rbt.Executable>
rbdock ($Id: //depot/dev/client3/rdock/2013.1/src/exe/rbdock.cxx#4 $)

>  <Rbt.Library>
libRbt.so (2013.1, Build901 2013/11/27)

>  <Rbt.Parameter_File>
/export/apps/rDock/src/rDock_2013.1_src/data/scripts/dock_solv.prm

>  <Rbt.Receptor>
prm/pocket_docking_3.prm

>  <SCORE>
-13.9228

>  <SCORE.INTER>
-12.8676

>  <SCORE.INTER.CONST>
1

>  <SCORE.INTER.POLAR>
0

>  <SCORE.INTER.ROT>
3

>  <SCORE.INTER.SOLV>
15.0642

>  <SCORE.INTER.VDW>
-19.1998

>  <SCORE.INTER.norm>
-1.0723

>  <SCORE.INTRA>
-1.16713

>  <SCORE.INTRA.DIHEDRAL>
-2.24154

>  <SCORE.INTRA.DIHEDRAL.0>
3.34563

>  <SCORE.INTRA.POLAR>
0

>  <SCORE.INTRA.POLAR.0>
0

>  <SCORE.INTRA.REPUL>
0

>  <SCORE.INTRA.REPUL.0>
0

>  <SCORE.INTRA.SOLV>
-1.29215

>  <SCORE.INTRA.SOLV.lig_0>
-59.746

>  <SCORE.INTRA.VDW>
0.599714

>  <SCORE.INTRA.VDW.0>
-0.691186

>  <SCORE.INTRA.norm>
-0.0972612

>  <SCORE.RESTR>
0.111955

>  <SCORE.RESTR.CAVITY>
0.111955

>  <SCORE.RESTR.norm>
0.00932959

>  <SCORE.SYSTEM>
0

>  <SCORE.SYSTEM.CONST>
0

>  <SCORE.SYSTEM.DIHEDRAL>
0

>  <SCORE.SYSTEM.SOLV>
0

>  <SCORE.SYSTEM.norm>
0

>  <SCORE.heavy>
12

>  <SCORE.norm>
-1.16024

>  <RMSD>
2.825

$$$$
ligand
 OpenBabel02271912143D
libRbt.so/2013.1/901 2013/11/27
 12 12  0  0  0  0  0  0  0  0999 V2000
  -21.4927  -11.4976   95.3222 C   0  0  0  0  0  0  0  0  0  0  0  0
  -19.9752   -6.2089   95.2589 C   0  0  0  0  0  0  0  0  0  0  0  0
  -23.1712   -9.5288   96.0567 N   0  0  0  0  0  0  0  0  0  0  0  0
  -20.3776  -12.4431   95.4738 N   0  0  0  0  0  0  0  0  0  0  0  0
  -20.6477  -13.5287   95.4011 N   0  0  0  0  0  0  0  0  0  0  0  0
  -20.9133  -14.6152   95.3308 N   0  0  0  0  0  0  0  0  0  0  0  0
  -19.4470   -8.4872   94.9368 N   0  0  0  0  0  0  0  0  0  0  0  0
  -20.3345   -7.5507   95.2972 C   0  0  0  0  0  0  0  0  0  0  0  0
  -21.5460   -7.8939   95.7593 N   0  0  0  0  0  0  0  0  0  0  0  0
  -21.9037   -9.1823   95.8609 C   0  0  0  0  0  0  0  0  0  0  0  0
  -21.0299  -10.1987   95.4926 C   0  0  0  0  0  0  0  0  0  0  0  0
  -19.7675   -9.8468   95.0300 C   0  0  0  0  0  0  0  0  0  0  0  0
  1 11  1  0  0  0  0
  1  4  1  0  0  0  0
  2  8  1  0  0  0  0
  3 10  1  0  0  0  0
  4  5  1  0  0  0  0
  5  6  1  0  0  0  0
  7  8  2  0  0  0  0
  7 12  1  0  0  0  0
  8  9  1  0  0  0  0
  9 10  2  0  0  0  0
 10 11  1  0  0  0  0
 11 12  2  0  0  0  0
M  END
>  <CHROM.1>
-157.39859982,177.35269291,-161.65306142,-20.88432362,-10.10124632,95.43463239
1.62388412,-0.28341857,-3.12732177

>  <Name>
ligand

>  <RI>
0

>  <Rbt.Current_Directory>
/home/itssahil/PROJECTS/Mol_Feturizer/Test_systems_manuscript/rnas/4nya

>  <Rbt.Executable>
rbdock ($Id: //depot/dev/client3/rdock/2013.1/src/exe/rbdock.cxx#4 $)

>  <Rbt.Library>
libRbt.so (2013.1, Build901 2013/11/27)

>  <Rbt.Parameter_File>
/export/apps/rDock/src/rDock_2013.1_src/data/scripts/dock_solv.prm

>  <Rbt.Receptor>
prm/pocket_docking_8.prm

>  <SCORE>
-14.9189

>  <SCORE.INTER>
-13.7753

>  <SCORE.INTER.CONST>
1

>  <SCORE.INTER.POLAR>
0

>  <SCORE.INTER.ROT>
3

>  <SCORE.INTER.SOLV>
13.8799

>  <SCORE.INTER.VDW>
-19.4102

>  <SCORE.INTER.norm>
-1.14794

>  <SCORE.INTRA>
-1.14361

>  <SCORE.INTRA.DIHEDRAL>
-2.15712

>  <SCORE.INTRA.DIHEDRAL.0>
3.34563

>  <SCORE.INTRA.POLAR>
0

>  <SCORE.INTRA.POLAR.0>
0

>  <SCORE.INTRA.REPUL>
0

>  <SCORE.INTRA.REPUL.0>
0

>  <SCORE.INTRA.SOLV>
-1.29922

>  <SCORE.INTRA.SOLV.lig_0>
-59.746

>  <SCORE.INTRA.VDW>
0.584569

>  <SCORE.INTRA.VDW.0>
-0.691186

>  <SCORE.INTRA.norm>
-0.0953004

>  <SCORE.RESTR>
0

>  <SCORE.RESTR.CAVITY>
0

>  <SCORE.RESTR.norm>
0

>  <SCORE.SYSTEM>
0

>  <SCORE.SYSTEM.CONST>
0

>  <SCORE.SYSTEM.DIHEDRAL>
0

>  <SCORE.SYSTEM.SOLV>
0

>  <SCORE.SYSTEM.norm>
0

>  <SCORE.heavy>
12

>  <SCORE.norm>
-1.24324

>  <RMSD>
2.826

$$$$
ligand
 OpenBabel02271912143D
libRbt.so/2013.1/901 2013/11/27
 12 12  0  0  0  0  0  0  0  0999 V2000
  -21.4835  -11.0503   95.4785 C   0  0  0  0  0  0  0  0  0  0  0  0
  -19.8066   -5.8318   94.9958 C   0  0  0  0  0  0  0  0  0  0  0  0
  -22.9982   -8.9886   96.3079 N   0  0  0  0  0  0  0  0  0  0  0  0
  -20.3890  -12.0306   95.5180 N   0  0  0  0  0  0  0  0  0  0  0  0
  -20.6928  -13.1032   95.3999 N   0  0  0  0  0  0  0  0  0  0  0  0
  -20.9993  -14.1752   95.2860 N   0  0  0  0  0  0  0  0  0  0  0  0
  -19.3963   -8.1405   94.7217 N   0  0  0  0  0  0  0  0  0  0  0  0
  -20.2040   -7.1559   95.1373 C   0  0  0  0  0  0  0  0  0  0  0  0
  -21.3645   -7.4320   95.7506 N   0  0  0  0  0  0  0  0  0  0  0  0
  -21.7511   -8.7001   95.9524 C   0  0  0  0  0  0  0  0  0  0  0  0
  -20.9606   -9.7643   95.5341 C   0  0  0  0  0  0  0  0  0  0  0  0
  -19.7493   -9.4815   94.9143 C   0  0  0  0  0  0  0  0  0  0  0  0
  1 11  1  0  0  0  0
  1  4  1  0  0  0  0
  2  8  1  0  0  0  0
  3 10  1  0  0  0  0
  4  5  1  0  0  0  0
  5  6  1  0  0  0  0
  7  8  2  0  0  0  0
  7 12  1  0  0  0  0
  8  9  1  0  0  0  0
  9 10  2  0  0  0  0
 10 11  1  0  0  0  0
 11 12  2  0  0  0  0
M  END
>  <CHROM.1>
-158.53319127,-175.52550055,-60.51938960,-20.81735537,-9.67385259,95.41528210
1.65886681,-0.40794784,-3.13227519

>  <Name>
ligand

>  <RI>
0

>  <Rbt.Current_Directory>
/home/itssahil/PROJECTS/Mol_Feturizer/Test_systems_manuscript/rnas/4nya

>  <Rbt.Executable>
rbdock ($Id: //depot/dev/client3/rdock/2013.1/src/exe/rbdock.cxx#4 $)

>  <Rbt.Library>
libRbt.so (2013.1, Build901 2013/11/27)

>  <Rbt.Parameter_File>
/export/apps/rDock/src/rDock_2013.1_src/data/scripts/dock_solv.prm

>  <Rbt.Receptor>
prm/pocket_docking_3.prm

>  <SCORE>
-13.8282

>  <SCORE.INTER>
-12.7306

>  <SCORE.INTER.CONST>
1

>  <SCORE.INTER.POLAR>
0

>  <SCORE.INTER.ROT>
3

>  <SCORE.INTER.SOLV>
15.1648

>  <SCORE.INTER.VDW>
-19.142

>  <SCORE.INTER.norm>
-1.06089

>  <SCORE.INTRA>
-1.1727

>  <SCORE.INTRA.DIHEDRAL>
-2.22964

>  <SCORE.INTRA.DIHEDRAL.0>
3.34563

>  <SCORE.INTRA.POLAR>
0

>  <SCORE.INTRA.POLAR.0>
0

>  <SCORE.INTRA.REPUL>
0

>  <SCORE.INTRA.REPUL.0>
0

>  <SCORE.INTRA.SOLV>
-1.2896

>  <SCORE.INTRA.SOLV.lig_0>
-59.746

>  <SCORE.INTRA.VDW>
0.586926

>  <SCORE.INTRA.VDW.0>
-0.691186

>  <SCORE.INTRA.norm>
-0.0977246

>  <SCORE.RESTR>
0.0751799

>  <SCORE.RESTR.CAVITY>
0.0751799

>  <SCORE.RESTR.norm>
0.00626499

>  <SCORE.SYSTEM>
0

>  <SCORE.SYSTEM.CONST>
0

>  <SCORE.SYSTEM.DIHEDRAL>
0

>  <SCORE.SYSTEM.SOLV>
0

>  <SCORE.SYSTEM.norm>
0

>  <SCORE.heavy>
12

>  <SCORE.norm>
-1.15235

>  <RMSD>
2.827

$$$$
ligand
 OpenBabel02271912143D
libRbt.so/2013.1/901 2013/11/27
 12 12  0  0  0  0  0  0  0  0999 V2000
  -21.4863  -11.0698   95.4863 C   0  0  0  0  0  0  0  0  0  0  0  0
  -19.8591   -5.8331   95.0310 C   0  0  0  0  0  0  0  0  0  0  0  0
  -23.0170   -9.0274   96.3338 N   0  0  0  0  0  0  0  0  0  0  0  0
  -20.3809  -12.0382   95.4597 N   0  0  0  0  0  0  0  0  0  0  0  0
  -20.6799  -13.1146   95.3661 N   0  0  0  0  0  0  0  0  0  0  0  0
  -20.9739  -14.1920   95.2728 N   0  0  0  0  0  0  0  0  0  0  0  0
  -19.4285   -8.1362   94.7409 N   0  0  0  0  0  0  0  0  0  0  0  0
  -20.2438   -7.1617   95.1654 C   0  0  0  0  0  0  0  0  0  0  0  0
  -21.3996   -7.4523   95.7809 N   0  0  0  0  0  0  0  0  0  0  0  0
  -21.7738   -8.7252   95.9759 C   0  0  0  0  0  0  0  0  0  0  0  0
  -20.9750   -9.7793   95.5483 C   0  0  0  0  0  0  0  0  0  0  0  0
  -19.7685   -9.4815   94.9261 C   0  0  0  0  0  0  0  0  0  0  0  0
  1 11  1  0  0  0  0
  1  4  1  0  0  0  0
  2  8  1  0  0  0  0
  3 10  1  0  0  0  0
  4  5  1  0  0  0  0
  5  6  1  0  0  0  0
  7  8  2  0  0  0  0
  7 12  1  0  0  0  0
  8  9  1  0  0  0  0
  9 10  2  0  0  0  0
 10 11  1  0  0  0  0
 11 12  2  0  0  0  0
M  END
>  <CHROM.1>
-160.86091895,-177.53222469,-179.18443808,-20.83309104,-9.68694646,95.42242819
1.64880052,-0.41377480,-3.12657918

>  <Name>
ligand

>  <RI>
0

>  <Rbt.Current_Directory>
/home/itssahil/PROJECTS/Mol_Feturizer/Test_systems_manuscript/rnas/4nya

>  <Rbt.Executable>
rbdock ($Id: //depot/dev/client3/rdock/2013.1/src/exe/rbdock.cxx#4 $)

>  <Rbt.Library>
libRbt.so (2013.1, Build901 2013/11/27)

>  <Rbt.Parameter_File>
/export/apps/rDock/src/rDock_2013.1_src/data/scripts/dock_solv.prm

>  <Rbt.Receptor>
prm/pocket_docking_3.prm

>  <SCORE>
-13.8953

>  <SCORE.INTER>
-12.8473

>  <SCORE.INTER.CONST>
1

>  <SCORE.INTER.POLAR>
0

>  <SCORE.INTER.ROT>
3

>  <SCORE.INTER.SOLV>
15.0913

>  <SCORE.INTER.VDW>
-19.1953

>  <SCORE.INTER.norm>
-1.07061

>  <SCORE.INTRA>
-1.13999

>  <SCORE.INTRA.DIHEDRAL>
-2.23008

>  <SCORE.INTRA.DIHEDRAL.0>
3.34563

>  <SCORE.INTRA.POLAR>
0

>  <SCORE.INTRA.POLAR.0>
0

>  <SCORE.INTRA.REPUL>
0

>  <SCORE.INTRA.REPUL.0>
0

>  <SCORE.INTRA.SOLV>
-1.30525

>  <SCORE.INTRA.SOLV.lig_0>
-59.746

>  <SCORE.INTRA.VDW>
0.627674

>  <SCORE.INTRA.VDW.0>
-0.691186

>  <SCORE.INTRA.norm>
-0.0949991

>  <SCORE.RESTR>
0.0919882

>  <SCORE.RESTR.CAVITY>
0.0919882

>  <SCORE.RESTR.norm>
0.00766569

>  <SCORE.SYSTEM>
0

>  <SCORE.SYSTEM.CONST>
0

>  <SCORE.SYSTEM.DIHEDRAL>
0

>  <SCORE.SYSTEM.SOLV>
0

>  <SCORE.SYSTEM.norm>
0

>  <SCORE.heavy>
12

>  <SCORE.norm>
-1.15794

>  <RMSD>
2.829

$$$$
ligand
 OpenBabel02271912143D
libRbt.so/2013.1/901 2013/11/27
 12 12  0  0  0  0  0  0  0  0999 V2000
  -20.8320   -8.6444   95.5401 C   0  0  0  0  0  0  0  0  0  0  0  0
  -20.6520  -14.1436   95.5985 C   0  0  0  0  0  0  0  0  0  0  0  0
  -23.0519  -10.1358   95.8234 N   0  0  0  0  0  0  0  0  0  0  0  0
  -19.7129   -8.0129   94.8263 N   0  0  0  0  0  0  0  0  0  0  0  0
  -19.6170   -6.9036   94.9573 N   0  0  0  0  0  0  0  0  0  0  0  0
  -19.5170   -5.7947   95.0851 N   0  0  0  0  0  0  0  0  0  0  0  0
  -19.5466  -12.0680   95.3905 N   0  0  0  0  0  0  0  0  0  0  0  0
  -20.6850  -12.7551   95.5529 C   0  0  0  0  0  0  0  0  0  0  0  0
  -21.8671  -12.1235   95.6052 N   0  0  0  0  0  0  0  0  0  0  0  0
  -21.9382  -10.7879   95.5085 C   0  0  0  0  0  0  0  0  0  0  0  0
  -20.7905  -10.0200   95.3493 C   0  0  0  0  0  0  0  0  0  0  0  0
  -19.5658  -10.6728   95.2769 C   0  0  0  0  0  0  0  0  0  0  0  0
  1 11  1  0  0  0  0
  1  4  1  0  0  0  0
  2  8  1  0  0  0  0
  3 10  1  0  0  0  0
  4  5  1  0  0  0  0
  5  6  1  0  0  0  0
  7  8  2  0  0  0  0
  7 12  1  0  0  0  0
  8  9  1  0  0  0  0
  9 10  2  0  0  0  0
 10 11  1  0  0  0  0
 11 12  2  0  0  0  0
M  END
>  <CHROM.1>
-157.70115016,-176.85071789,-179.33215831,-20.64325040,-10.15305338,95.37535151
1.37753897,0.16329070,-0.05442167

>  <Name>
ligand

>  <RI>
0

>  <Rbt.Current_Directory>
/home/itssahil/PROJECTS/Mol_Feturizer/Test_systems_manuscript/rnas/4nya

>  <Rbt.Executable>
rbdock ($Id: //depot/dev/client3/rdock/2013.1/src/exe/rbdock.cxx#4 $)

>  <Rbt.Library>
libRbt.so (2013.1, Build901 2013/11/27)

>  <Rbt.Parameter_File>
/export/apps/rDock/src/rDock_2013.1_src/data/scripts/dock_solv.prm

>  <Rbt.Receptor>
prm/blind_docking_100.prm

>  <SCORE>
-10.363

>  <SCORE.INTER>
-9.18574

>  <SCORE.INTER.CONST>
1

>  <SCORE.INTER.POLAR>
0

>  <SCORE.INTER.ROT>
3

>  <SCORE.INTER.SOLV>
22.9964

>  <SCORE.INTER.VDW>
-19.3893

>  <SCORE.INTER.norm>
-0.765478

>  <SCORE.INTRA>
-1.17723

>  <SCORE.INTRA.DIHEDRAL>
-2.23964

>  <SCORE.INTRA.DIHEDRAL.0>
3.34563

>  <SCORE.INTRA.POLAR>
0

>  <SCORE.INTRA.POLAR.0>
0

>  <SCORE.INTRA.REPUL>
0

>  <SCORE.INTRA.REPUL.0>
0

>  <SCORE.INTRA.SOLV>
-1.29196

>  <SCORE.INTRA.SOLV.lig_0>
-59.746

>  <SCORE.INTRA.VDW>
0.588571

>  <SCORE.INTRA.VDW.0>
-0.691186

>  <SCORE.INTRA.norm>
-0.0981025

>  <SCORE.RESTR>
0

>  <SCORE.RESTR.CAVITY>
0

>  <SCORE.RESTR.norm>
0

>  <SCORE.SYSTEM>
0

>  <SCORE.SYSTEM.CONST>
0

>  <SCORE.SYSTEM.DIHEDRAL>
0

>  <SCORE.SYSTEM.SOLV>
0

>  <SCORE.SYSTEM.norm>
0

>  <SCORE.heavy>
12

>  <SCORE.norm>
-0.86358

>  <RMSD>
4.923

$$$$
ligand
 OpenBabel02271912143D
libRbt.so/2013.1/901 2013/11/27
 12 12  0  0  0  0  0  0  0  0999 V2000
  -32.4555  -14.5381   88.1155 C   0  0  0  0  0  0  0  0  0  0  0  0
  -37.7179  -12.9844   87.7029 C   0  0  0  0  0  0  0  0  0  0  0  0
  -34.4633  -16.3259   88.0414 N   0  0  0  0  0  0  0  0  0  0  0  0
  -31.5927  -13.6280   88.8822 N   0  0  0  0  0  0  0  0  0  0  0  0
  -31.1691  -14.0452   89.8326 N   0  0  0  0  0  0  0  0  0  0  0  0
  -30.7436  -14.4578   90.7837 N   0  0  0  0  0  0  0  0  0  0  0  0
  -35.4325  -12.4214   87.8861 N   0  0  0  0  0  0  0  0  0  0  0  0
  -36.3867  -13.3603   87.8359 C   0  0  0  0  0  0  0  0  0  0  0  0
  -36.0814  -14.6585   87.9797 N   0  0  0  0  0  0  0  0  0  0  0  0
  -34.8124  -15.0501   88.1653 C   0  0  0  0  0  0  0  0  0  0  0  0
  -33.7777  -14.1233   88.2159 C   0  0  0  0  0  0  0  0  0  0  0  0
  -34.0929  -12.7761   88.0850 C   0  0  0  0  0  0  0  0  0  0  0  0
  1 11  1  0  0  0  0
  1  4  1  0  0  0  0
  2  8  1  0  0  0  0
  3 10  1  0  0  0  0
  4  5  1  0  0  0  0
  5  6  1  0  0  0  0
  7  8  2  0  0  0  0
  7 12  1  0  0  0  0
  8  9  1  0  0  0  0
  9 10  2  0  0  0  0
 10 11  1  0  0  0  0
 11 12  2  0  0  0  0
M  END
>  <CHROM.1>
-149.34370854,108.10913185,-174.95177072,-34.04858144,-14.03422328,88.47473127
0.10878290,0.35349295,-3.08027917

>  <Name>
ligand

>  <RI>
0

>  <Rbt.Current_Directory>
/home/itssahil/PROJECTS/Mol_Feturizer/Test_systems_manuscript/rnas/4nya

>  <Rbt.Executable>
rbdock ($Id: //depot/dev/client3/rdock/2013.1/src/exe/rbdock.cxx#4 $)

>  <Rbt.Library>
libRbt.so (2013.1, Build901 2013/11/27)

>  <Rbt.Parameter_File>
/export/apps/rDock/src/rDock_2013.1_src/data/scripts/dock_solv.prm

>  <Rbt.Receptor>
prm/blind_docking_100.prm

>  <SCORE>
-3.34786

>  <SCORE.INTER>
-2.63671

>  <SCORE.INTER.CONST>
1

>  <SCORE.INTER.POLAR>
0

>  <SCORE.INTER.ROT>
3

>  <SCORE.INTER.SOLV>
8.19265

>  <SCORE.INTER.VDW>
-10.0887

>  <SCORE.INTER.norm>
-0.219726

>  <SCORE.INTRA>
-0.71115

>  <SCORE.INTRA.DIHEDRAL>
-1.11074

>  <SCORE.INTRA.DIHEDRAL.0>
3.34563

>  <SCORE.INTRA.POLAR>
0

>  <SCORE.INTRA.POLAR.0>
0

>  <SCORE.INTRA.REPUL>
0

>  <SCORE.INTRA.REPUL.0>
0

>  <SCORE.INTRA.SOLV>
-1.01863

>  <SCORE.INTRA.SOLV.lig_0>
-59.746

>  <SCORE.INTRA.VDW>
0.353535

>  <SCORE.INTRA.VDW.0>
-0.691186

>  <SCORE.INTRA.norm>
-0.0592625

>  <SCORE.RESTR>
0

>  <SCORE.RESTR.CAVITY>
0

>  <SCORE.RESTR.norm>
0

>  <SCORE.SYSTEM>
0

>  <SCORE.SYSTEM.CONST>
0

>  <SCORE.SYSTEM.DIHEDRAL>
0

>  <SCORE.SYSTEM.SOLV>
0

>  <SCORE.SYSTEM.norm>
0

>  <SCORE.heavy>
12

>  <SCORE.norm>
-0.278988

>  <RMSD>
15.368

$$$$
ligand
 OpenBabel02271912143D
libRbt.so/2013.1/901 2013/11/27
 12 12  0  0  0  0  0  0  0  0999 V2000
  -31.4869   -9.9696   81.0936 C   0  0  0  0  0  0  0  0  0  0  0  0
  -34.9855   -9.6542   85.3290 C   0  0  0  0  0  0  0  0  0  0  0  0
  -31.3182   -8.0153   82.9335 N   0  0  0  0  0  0  0  0  0  0  0  0
  -32.0740  -10.3790   79.8098 N   0  0  0  0  0  0  0  0  0  0  0  0
  -31.5593   -9.9886   78.8936 N   0  0  0  0  0  0  0  0  0  0  0  0
  -31.0483   -9.6006   77.9747 N   0  0  0  0  0  0  0  0  0  0  0  0
  -34.2742  -10.7175   83.3448 N   0  0  0  0  0  0  0  0  0  0  0  0
  -34.1275   -9.7304   84.2384 C   0  0  0  0  0  0  0  0  0  0  0  0
  -33.2048   -8.7734   84.0598 N   0  0  0  0  0  0  0  0  0  0  0  0
  -32.3980   -8.7873   82.9888 C   0  0  0  0  0  0  0  0  0  0  0  0
  -32.4954   -9.7914   82.0325 C   0  0  0  0  0  0  0  0  0  0  0  0
  -33.4623  -10.7745   82.2057 C   0  0  0  0  0  0  0  0  0  0  0  0
  1 11  1  0  0  0  0
  1  4  1  0  0  0  0
  2  8  1  0  0  0  0
  3 10  1  0  0  0  0
  4  5  1  0  0  0  0
  5  6  1  0  0  0  0
  7  8  2  0  0  0  0
  7 12  1  0  0  0  0
  8  9  1  0  0  0  0
  9 10  2  0  0  0  0
 10 11  1  0  0  0  0
 11 12  2  0  0  0  0
M  END
>  <CHROM.1>
-144.34766547,144.99504249,-177.74074986,-32.69657721,-9.67725647,82.05678958
-0.93494687,0.71341203,1.06697629

>  <Name>
ligand

>  <RI>
0

>  <Rbt.Current_Directory>
/home/itssahil/PROJECTS/Mol_Feturizer/Test_systems_manuscript/rnas/4nya

>  <Rbt.Executable>
rbdock ($Id: //depot/dev/client3/rdock/2013.1/src/exe/rbdock.cxx#4 $)

>  <Rbt.Library>
libRbt.so (2013.1, Build901 2013/11/27)

>  <Rbt.Parameter_File>
/export/apps/rDock/src/rDock_2013.1_src/data/scripts/dock_solv.prm

>  <Rbt.Receptor>
prm/blind_docking_100.prm

>  <SCORE>
-2.92175

>  <SCORE.INTER>
-1.9932

>  <SCORE.INTER.CONST>
1

>  <SCORE.INTER.POLAR>
0

>  <SCORE.INTER.ROT>
3

>  <SCORE.INTER.SOLV>
17.8244

>  <SCORE.INTER.VDW>
-12.8703

>  <SCORE.INTER.norm>
-0.1661

>  <SCORE.INTRA>
-0.928686

>  <SCORE.INTRA.DIHEDRAL>
-1.37277

>  <SCORE.INTRA.DIHEDRAL.0>
3.34563

>  <SCORE.INTRA.POLAR>
0

>  <SCORE.INTRA.POLAR.0>
0

>  <SCORE.INTRA.REPUL>
0

>  <SCORE.INTRA.REPUL.0>
0

>  <SCORE.INTRA.SOLV>
-1.20119

>  <SCORE.INTRA.SOLV.lig_0>
-59.746

>  <SCORE.INTRA.VDW>
0.358292

>  <SCORE.INTRA.VDW.0>
-0.691186

>  <SCORE.INTRA.norm>
-0.0773905

>  <SCORE.RESTR>
0.000143406

>  <SCORE.RESTR.CAVITY>
0.000143406

>  <SCORE.RESTR.norm>
1.19505e-05

>  <SCORE.SYSTEM>
0

>  <SCORE.SYSTEM.CONST>
0

>  <SCORE.SYSTEM.DIHEDRAL>
0

>  <SCORE.SYSTEM.SOLV>
0

>  <SCORE.SYSTEM.norm>
0

>  <SCORE.heavy>
12

>  <SCORE.norm>
-0.243479

>  <RMSD>
17.868

$$$$
ligand
 OpenBabel02271912143D
libRbt.so/2013.1/901 2013/11/27
 12 12  0  0  0  0  0  0  0  0999 V2000
  -32.9033  -12.0640   81.2930 C   0  0  0  0  0  0  0  0  0  0  0  0
  -32.2199   -7.3949   84.1231 C   0  0  0  0  0  0  0  0  0  0  0  0
  -30.6422  -10.6177   81.1235 N   0  0  0  0  0  0  0  0  0  0  0  0
  -34.1268  -12.1795   80.4866 N   0  0  0  0  0  0  0  0  0  0  0  0
  -34.0435  -11.8310   79.4244 N   0  0  0  0  0  0  0  0  0  0  0  0
  -33.9592  -11.4778   78.3641 N   0  0  0  0  0  0  0  0  0  0  0  0
  -33.5749   -9.2268   83.5055 N   0  0  0  0  0  0  0  0  0  0  0  0
  -32.4184   -8.5603   83.3926 C   0  0  0  0  0  0  0  0  0  0  0  0
  -31.4727   -8.9659   82.5322 N   0  0  0  0  0  0  0  0  0  0  0  0
  -31.6561  -10.0554   81.7721 C   0  0  0  0  0  0  0  0  0  0  0  0
  -32.8308  -10.7942   81.8522 C   0  0  0  0  0  0  0  0  0  0  0  0
  -33.8197  -10.3663   82.7300 C   0  0  0  0  0  0  0  0  0  0  0  0
  1 11  1  0  0  0  0
  1  4  1  0  0  0  0
  2  8  1  0  0  0  0
  3 10  1  0  0  0  0
  4  5  1  0  0  0  0
  5  6  1  0  0  0  0
  7  8  2  0  0  0  0
  7 12  1  0  0  0  0
  8  9  1  0  0  0  0
  9 10  2  0  0  0  0
 10 11  1  0  0  0  0
 11 12  2  0  0  0  0
M  END
>  <CHROM.1>
-131.99984011,86.46752146,-62.76529644,-32.80806762,-10.29357973,81.69622717
-1.85537550,0.20830626,0.90715278

>  <Name>
ligand

>  <RI>
0

>  <Rbt.Current_Directory>
/home/itssahil/PROJECTS/Mol_Feturizer/Test_systems_manuscript/rnas/4nya

>  <Rbt.Executable>
rbdock ($Id: //depot/dev/client3/rdock/2013.1/src/exe/rbdock.cxx#4 $)

>  <Rbt.Library>
libRbt.so (2013.1, Build901 2013/11/27)

>  <Rbt.Parameter_File>
/export/apps/rDock/src/rDock_2013.1_src/data/scripts/dock_solv.prm

>  <Rbt.Receptor>
prm/blind_docking_100.prm

>  <SCORE>
-7.11159

>  <SCORE.INTER>
-6.61911

>  <SCORE.INTER.CONST>
1

>  <SCORE.INTER.POLAR>
0

>  <SCORE.INTER.ROT>
3

>  <SCORE.INTER.SOLV>
7.45842

>  <SCORE.INTER.VDW>
-12.4989

>  <SCORE.INTER.norm>
-0.551593

>  <SCORE.INTRA>
-0.492475

>  <SCORE.INTRA.DIHEDRAL>
-1.33159

>  <SCORE.INTRA.DIHEDRAL.0>
3.34563

>  <SCORE.INTRA.POLAR>
0

>  <SCORE.INTRA.POLAR.0>
0

>  <SCORE.INTRA.REPUL>
0

>  <SCORE.INTRA.REPUL.0>
0

>  <SCORE.INTRA.SOLV>
0.103658

>  <SCORE.INTRA.SOLV.lig_0>
-59.746

>  <SCORE.INTRA.VDW>
0.121491

>  <SCORE.INTRA.VDW.0>
-0.691186

>  <SCORE.INTRA.norm>
-0.0410396

>  <SCORE.RESTR>
0

>  <SCORE.RESTR.CAVITY>
0

>  <SCORE.RESTR.norm>
0

>  <SCORE.SYSTEM>
0

>  <SCORE.SYSTEM.CONST>
0

>  <SCORE.SYSTEM.DIHEDRAL>
0

>  <SCORE.SYSTEM.SOLV>
0

>  <SCORE.SYSTEM.norm>
0

>  <SCORE.heavy>
12

>  <SCORE.norm>
-0.592632

>  <RMSD>
17.869

$$$$
ligand
 OpenBabel02271912143D
libRbt.so/2013.1/901 2013/11/27
 12 12  0  0  0  0  0  0  0  0999 V2000
  -32.8883  -11.9830   81.2669 C   0  0  0  0  0  0  0  0  0  0  0  0
  -32.3206   -7.4097   84.2737 C   0  0  0  0  0  0  0  0  0  0  0  0
  -30.7109  -10.4163   81.0732 N   0  0  0  0  0  0  0  0  0  0  0  0
  -34.1159  -12.1094   80.4685 N   0  0  0  0  0  0  0  0  0  0  0  0
  -34.0191  -11.8459   79.3832 N   0  0  0  0  0  0  0  0  0  0  0  0
  -33.9272  -11.5834   78.2975 N   0  0  0  0  0  0  0  0  0  0  0  0
  -33.6074   -9.2810   83.6287 N   0  0  0  0  0  0  0  0  0  0  0  0
  -32.4912   -8.5517   83.5003 C   0  0  0  0  0  0  0  0  0  0  0  0
  -31.5632   -8.8710   82.5860 N   0  0  0  0  0  0  0  0  0  0  0  0
  -31.7236   -9.9351   81.7858 C   0  0  0  0  0  0  0  0  0  0  0  0
  -32.8558  -10.7361   81.8791 C   0  0  0  0  0  0  0  0  0  0  0  0
  -33.8273  -10.3975   82.8133 C   0  0  0  0  0  0  0  0  0  0  0  0
  1 11  1  0  0  0  0
  1  4  1  0  0  0  0
  2  8  1  0  0  0  0
  3 10  1  0  0  0  0
  4  5  1  0  0  0  0
  5  6  1  0  0  0  0
  7  8  2  0  0  0  0
  7 12  1  0  0  0  0
  8  9  1  0  0  0  0
  9 10  2  0  0  0  0
 10 11  1  0  0  0  0
 11 12  2  0  0  0  0
M  END
>  <CHROM.1>
-130.10957355,94.58641098,179.95294001,-32.83984407,-10.25962048,81.72534632
1.83510656,-0.30925406,-2.19032227

>  <Name>
ligand

>  <RI>
0

>  <Rbt.Current_Directory>
/home/itssahil/PROJECTS/Mol_Feturizer/Test_systems_manuscript/rnas/4nya

>  <Rbt.Executable>
rbdock ($Id: //depot/dev/client3/rdock/2013.1/src/exe/rbdock.cxx#4 $)

>  <Rbt.Library>
libRbt.so (2013.1, Build901 2013/11/27)

>  <Rbt.Parameter_File>
/export/apps/rDock/src/rDock_2013.1_src/data/scripts/dock_solv.prm

>  <Rbt.Receptor>
prm/blind_docking_100.prm

>  <SCORE>
-7.02534

>  <SCORE.INTER>
-6.59434

>  <SCORE.INTER.CONST>
1

>  <SCORE.INTER.POLAR>
0

>  <SCORE.INTER.ROT>
3

>  <SCORE.INTER.SOLV>
7.84871

>  <SCORE.INTER.VDW>
-12.6125

>  <SCORE.INTER.norm>
-0.549528

>  <SCORE.INTRA>
-0.431003

>  <SCORE.INTRA.DIHEDRAL>
-1.0244

>  <SCORE.INTRA.DIHEDRAL.0>
3.34563

>  <SCORE.INTRA.POLAR>
0

>  <SCORE.INTRA.POLAR.0>
0

>  <SCORE.INTRA.REPUL>
0

>  <SCORE.INTRA.REPUL.0>
0

>  <SCORE.INTRA.SOLV>
-0.0229654

>  <SCORE.INTRA.SOLV.lig_0>
-59.746

>  <SCORE.INTRA.VDW>
0.0926812

>  <SCORE.INTRA.VDW.0>
-0.691186

>  <SCORE.INTRA.norm>
-0.0359169

>  <SCORE.RESTR>
0

>  <SCORE.RESTR.CAVITY>
0

>  <SCORE.RESTR.norm>
0

>  <SCORE.SYSTEM>
0

>  <SCORE.SYSTEM.CONST>
0

>  <SCORE.SYSTEM.DIHEDRAL>
0

>  <SCORE.SYSTEM.SOLV>
0

>  <SCORE.SYSTEM.norm>
0

>  <SCORE.heavy>
12

>  <SCORE.norm>
-0.585445

>  <RMSD>
17.876

$$$$
ligand
 OpenBabel02271912143D
libRbt.so/2013.1/901 2013/11/27
 12 12  0  0  0  0  0  0  0  0999 V2000
  -32.8851  -11.9725   81.2575 C   0  0  0  0  0  0  0  0  0  0  0  0
  -32.3198   -7.4039   84.2718 C   0  0  0  0  0  0  0  0  0  0  0  0
  -30.7236  -10.3867   81.0425 N   0  0  0  0  0  0  0  0  0  0  0  0
  -34.1246  -12.1097   80.4795 N   0  0  0  0  0  0  0  0  0  0  0  0
  -34.0605  -11.7989   79.4044 N   0  0  0  0  0  0  0  0  0  0  0  0
  -34.0014  -11.4889   78.3290 N   0  0  0  0  0  0  0  0  0  0  0  0
  -33.5984   -9.2841   83.6365 N   0  0  0  0  0  0  0  0  0  0  0  0
  -32.4900   -8.5448   83.4969 C   0  0  0  0  0  0  0  0  0  0  0  0
  -31.5705   -8.8534   82.5704 N   0  0  0  0  0  0  0  0  0  0  0  0
  -31.7317   -9.9163   81.7688 C   0  0  0  0  0  0  0  0  0  0  0  0
  -32.8558  -10.7273   81.8732 C   0  0  0  0  0  0  0  0  0  0  0  0
  -33.8187  -10.3999   82.8203 C   0  0  0  0  0  0  0  0  0  0  0  0
  1 11  1  0  0  0  0
  1  4  1  0  0  0  0
  2  8  1  0  0  0  0
  3 10  1  0  0  0  0
  4  5  1  0  0  0  0
  5  6  1  0  0  0  0
  7  8  2  0  0  0  0
  7 12  1  0  0  0  0
  8  9  1  0  0  0  0
  9 10  2  0  0  0  0
 10 11  1  0  0  0  0
 11 12  2  0  0  0  0
M  END
>  <CHROM.1>
-130.41485062,92.00147303,-174.59149598,-32.85113850,-10.23966053,81.72511562
1.84558559,-0.31562974,-2.18344641

>  <Name>
ligand

>  <RI>
0

>  <Rbt.Current_Directory>
/home/itssahil/PROJECTS/Mol_Feturizer/Test_systems_manuscript/rnas/4nya

>  <Rbt.Executable>
rbdock ($Id: //depot/dev/client3/rdock/2013.1/src/exe/rbdock.cxx#4 $)

>  <Rbt.Library>
libRbt.so (2013.1, Build901 2013/11/27)

>  <Rbt.Parameter_File>
/export/apps/rDock/src/rDock_2013.1_src/data/scripts/dock_solv.prm

>  <Rbt.Receptor>
prm/blind_docking_100.prm

>  <SCORE>
-6.98281

>  <SCORE.INTER>
-6.54541

>  <SCORE.INTER.CONST>
1

>  <SCORE.INTER.POLAR>
0

>  <SCORE.INTER.ROT>
3

>  <SCORE.INTER.SOLV>
8.20067

>  <SCORE.INTER.VDW>
-12.6972

>  <SCORE.INTER.norm>
-0.545451

>  <SCORE.INTRA>
-0.437405

>  <SCORE.INTRA.DIHEDRAL>
-1.10554

>  <SCORE.INTRA.DIHEDRAL.0>
3.34563

>  <SCORE.INTRA.POLAR>
0

>  <SCORE.INTRA.POLAR.0>
0

>  <SCORE.INTRA.REPUL>
0

>  <SCORE.INTRA.REPUL.0>
0

>  <SCORE.INTRA.SOLV>
0.0365758

>  <SCORE.INTRA.SOLV.lig_0>
-59.746

>  <SCORE.INTRA.VDW>
0.0970783

>  <SCORE.INTRA.VDW.0>
-0.691186

>  <SCORE.INTRA.norm>
-0.0364504

>  <SCORE.RESTR>
0

>  <SCORE.RESTR.CAVITY>
0

>  <SCORE.RESTR.norm>
0

>  <SCORE.SYSTEM>
0

>  <SCORE.SYSTEM.CONST>
0

>  <SCORE.SYSTEM.DIHEDRAL>
0

>  <SCORE.SYSTEM.SOLV>
0

>  <SCORE.SYSTEM.norm>
0

>  <SCORE.heavy>
12

>  <SCORE.norm>
-0.581901

>  <RMSD>
17.882

$$$$
ligand
 OpenBabel02271912143D
libRbt.so/2013.1/901 2013/11/27
 12 12  0  0  0  0  0  0  0  0999 V2000
  -38.0481  -11.8920   88.7372 C   0  0  0  0  0  0  0  0  0  0  0  0
  -36.7014  -17.2258   88.8586 C   0  0  0  0  0  0  0  0  0  0  0  0
  -37.3364  -13.1262   91.0182 N   0  0  0  0  0  0  0  0  0  0  0  0
  -39.4703  -11.5338   88.8359 N   0  0  0  0  0  0  0  0  0  0  0  0
  -39.9756  -11.2790   87.8682 N   0  0  0  0  0  0  0  0  0  0  0  0
  -40.4774  -11.0206   86.9000 N   0  0  0  0  0  0  0  0  0  0  0  0
  -37.4351  -15.3335   87.6526 N   0  0  0  0  0  0  0  0  0  0  0  0
  -37.0719  -15.8870   88.8171 C   0  0  0  0  0  0  0  0  0  0  0  0
  -37.1248  -15.1840   89.9582 N   0  0  0  0  0  0  0  0  0  0  0  0
  -37.5311  -13.9060   89.9603 C   0  0  0  0  0  0  0  0  0  0  0  0
  -37.9105  -13.2738   88.7819 C   0  0  0  0  0  0  0  0  0  0  0  0
  -37.8736  -14.0050   87.6007 C   0  0  0  0  0  0  0  0  0  0  0  0
  1 11  1  0  0  0  0
  1  4  1  0  0  0  0
  2  8  1  0  0  0  0
  3 10  1  0  0  0  0
  4  5  1  0  0  0  0
  5  6  1  0  0  0  0
  7  8  2  0  0  0  0
  7 12  1  0  0  0  0
  8  9  1  0  0  0  0
  9 10  2  0  0  0  0
 10 11  1  0  0  0  0
 11 12  2  0  0  0  0
M  END
>  <CHROM.1>
-100.48164595,-100.37501291,-57.90768663,-38.09482499,-13.63038408,88.74774837
-2.71653330,0.99132041,-2.31268935

>  <Name>
ligand

>  <RI>
0

>  <Rbt.Current_Directory>
/home/itssahil/PROJECTS/Mol_Feturizer/Test_systems_manuscript/rnas/4nya

>  <Rbt.Executable>
rbdock ($Id: //depot/dev/client3/rdock/2013.1/src/exe/rbdock.cxx#4 $)

>  <Rbt.Library>
libRbt.so (2013.1, Build901 2013/11/27)

>  <Rbt.Parameter_File>
/export/apps/rDock/src/rDock_2013.1_src/data/scripts/dock_solv.prm

>  <Rbt.Receptor>
prm/blind_docking_100.prm

>  <SCORE>
-3.65871

>  <SCORE.INTER>
-3.51908

>  <SCORE.INTER.CONST>
1

>  <SCORE.INTER.POLAR>
0

>  <SCORE.INTER.ROT>
3

>  <SCORE.INTER.SOLV>
10.9942

>  <SCORE.INTER.VDW>
-11.6108

>  <SCORE.INTER.norm>
-0.293257

>  <SCORE.INTRA>
-0.139632

>  <SCORE.INTRA.DIHEDRAL>
-0.182308

>  <SCORE.INTRA.DIHEDRAL.0>
3.34563

>  <SCORE.INTRA.POLAR>
0

>  <SCORE.INTRA.POLAR.0>
0

>  <SCORE.INTRA.REPUL>
0

>  <SCORE.INTRA.REPUL.0>
0

>  <SCORE.INTRA.SOLV>
-0.092237

>  <SCORE.INTRA.SOLV.lig_0>
-59.746

>  <SCORE.INTRA.VDW>
-0.00235893

>  <SCORE.INTRA.VDW.0>
-0.691186

>  <SCORE.INTRA.norm>
-0.011636

>  <SCORE.RESTR>
0

>  <SCORE.RESTR.CAVITY>
0

>  <SCORE.RESTR.norm>
0

>  <SCORE.SYSTEM>
0

>  <SCORE.SYSTEM.CONST>
0

>  <SCORE.SYSTEM.DIHEDRAL>
0

>  <SCORE.SYSTEM.SOLV>
0

>  <SCORE.SYSTEM.norm>
0

>  <SCORE.heavy>
12

>  <SCORE.norm>
-0.304893

>  <RMSD>
18.490

$$$$
ligand
 OpenBabel02271912143D
libRbt.so/2013.1/901 2013/11/27
 12 12  0  0  0  0  0  0  0  0999 V2000
  -32.2449  -10.0048   79.9725 C   0  0  0  0  0  0  0  0  0  0  0  0
  -34.5155   -9.5032   84.9595 C   0  0  0  0  0  0  0  0  0  0  0  0
  -33.6056  -12.0190   81.1233 N   0  0  0  0  0  0  0  0  0  0  0  0
  -33.1879   -9.2450   79.1394 N   0  0  0  0  0  0  0  0  0  0  0  0
  -33.4238   -9.6938   78.1396 N   0  0  0  0  0  0  0  0  0  0  0  0
  -33.6616  -10.1467   77.1424 N   0  0  0  0  0  0  0  0  0  0  0  0
  -33.2312   -8.5910   83.2011 N   0  0  0  0  0  0  0  0  0  0  0  0
  -33.9122   -9.6245   83.7135 C   0  0  0  0  0  0  0  0  0  0  0  0
  -33.9639  -10.8001   83.0698 N   0  0  0  0  0  0  0  0  0  0  0  0
  -33.3456  -10.9668   81.8915 C   0  0  0  0  0  0  0  0  0  0  0  0
  -32.6322   -9.9281   81.3046 C   0  0  0  0  0  0  0  0  0  0  0  0
  -32.5620   -8.7143   81.9777 C   0  0  0  0  0  0  0  0  0  0  0  0
  1 11  1  0  0  0  0
  1  4  1  0  0  0  0
  2  8  1  0  0  0  0
  3 10  1  0  0  0  0
  4  5  1  0  0  0  0
  5  6  1  0  0  0  0
  7  8  2  0  0  0  0
  7 12  1  0  0  0  0
  8  9  1  0  0  0  0
  9 10  2  0  0  0  0
 10 11  1  0  0  0  0
 11 12  2  0  0  0  0
M  END
>  <CHROM.1>
98.93437777,-142.44185278,61.50579757,-33.37655313,-9.94001411,81.28055350
-1.16889486,1.28485686,1.13549967

>  <Name>
ligand

>  <RI>
0

>  <Rbt.Current_Directory>
/home/itssahil/PROJECTS/Mol_Feturizer/Test_systems_manuscript/rnas/4nya

>  <Rbt.Executable>
rbdock ($Id: //depot/dev/client3/rdock/2013.1/src/exe/rbdock.cxx#4 $)

>  <Rbt.Library>
libRbt.so (2013.1, Build901 2013/11/27)

>  <Rbt.Parameter_File>
/export/apps/rDock/src/rDock_2013.1_src/data/scripts/dock_solv.prm

>  <Rbt.Receptor>
prm/blind_docking_100.prm

>  <SCORE>
-5.41462

>  <SCORE.INTER>
-5.05016

>  <SCORE.INTER.CONST>
1

>  <SCORE.INTER.POLAR>
0

>  <SCORE.INTER.ROT>
3

>  <SCORE.INTER.SOLV>
10.9247

>  <SCORE.INTER.VDW>
-12.6083

>  <SCORE.INTER.norm>
-0.420846

>  <SCORE.INTRA>
-0.364463

>  <SCORE.INTRA.DIHEDRAL>
-1.2305

>  <SCORE.INTRA.DIHEDRAL.0>
3.34563

>  <SCORE.INTRA.POLAR>
0

>  <SCORE.INTRA.POLAR.0>
0

>  <SCORE.INTRA.REPUL>
0

>  <SCORE.INTRA.REPUL.0>
0

>  <SCORE.INTRA.SOLV>
0.464754

>  <SCORE.INTRA.SOLV.lig_0>
-59.746

>  <SCORE.INTRA.VDW>
0.0184086

>  <SCORE.INTRA.VDW.0>
-0.691186

>  <SCORE.INTRA.norm>
-0.0303719

>  <SCORE.RESTR>
0

>  <SCORE.RESTR.CAVITY>
0

>  <SCORE.RESTR.norm>
0

>  <SCORE.SYSTEM>
0

>  <SCORE.SYSTEM.CONST>
0

>  <SCORE.SYSTEM.DIHEDRAL>
0

>  <SCORE.SYSTEM.SOLV>
0

>  <SCORE.SYSTEM.norm>
0

>  <SCORE.heavy>
12

>  <SCORE.norm>
-0.451218

>  <RMSD>
18.749

$$$$
ligand
 OpenBabel02271912143D
libRbt.so/2013.1/901 2013/11/27
 12 12  0  0  0  0  0  0  0  0999 V2000
  -38.4406  -13.1582   89.6133 C   0  0  0  0  0  0  0  0  0  0  0  0
  -41.7310   -9.0606   87.9821 C   0  0  0  0  0  0  0  0  0  0  0  0
  -37.4704  -10.9276   88.4660 N   0  0  0  0  0  0  0  0  0  0  0  0
  -37.6194  -13.7967   88.5749 N   0  0  0  0  0  0  0  0  0  0  0  0
  -37.0091  -14.6754   88.9099 N   0  0  0  0  0  0  0  0  0  0  0  0
  -36.3968  -15.5509   89.2485 N   0  0  0  0  0  0  0  0  0  0  0  0
  -41.4606  -11.2094   88.9217 N   0  0  0  0  0  0  0  0  0  0  0  0
  -40.9155  -10.1158   88.3728 C   0  0  0  0  0  0  0  0  0  0  0  0
  -39.5974  -10.0517   88.1327 N   0  0  0  0  0  0  0  0  0  0  0  0
  -38.7905  -11.0756   88.4471 C   0  0  0  0  0  0  0  0  0  0  0  0
  -39.2960  -12.2326   89.0284 C   0  0  0  0  0  0  0  0  0  0  0  0
  -40.6638  -12.3090   89.2621 C   0  0  0  0  0  0  0  0  0  0  0  0
  1 11  1  0  0  0  0
  1  4  1  0  0  0  0
  2  8  1  0  0  0  0
  3 10  1  0  0  0  0
  4  5  1  0  0  0  0
  5  6  1  0  0  0  0
  7  8  2  0  0  0  0
  7 12  1  0  0  0  0
  8  9  1  0  0  0  0
  9 10  2  0  0  0  0
 10 11  1  0  0  0  0
 11 12  2  0  0  0  0
M  END
>  <CHROM.1>
-67.76431061,-170.63109309,-56.54588914,-39.09285464,-12.02368596,88.74031485
0.84933437,-0.16131378,2.84561776

>  <Name>
ligand

>  <RI>
0

>  <Rbt.Current_Directory>
/home/itssahil/PROJECTS/Mol_Feturizer/Test_systems_manuscript/rnas/4nya

>  <Rbt.Executable>
rbdock ($Id: //depot/dev/client3/rdock/2013.1/src/exe/rbdock.cxx#4 $)

>  <Rbt.Library>
libRbt.so (2013.1, Build901 2013/11/27)

>  <Rbt.Parameter_File>
/export/apps/rDock/src/rDock_2013.1_src/data/scripts/dock_solv.prm

>  <Rbt.Receptor>
prm/blind_docking_100.prm

>  <SCORE>
-5.04741

>  <SCORE.INTER>
-4.94143

>  <SCORE.INTER.CONST>
1

>  <SCORE.INTER.POLAR>
0

>  <SCORE.INTER.ROT>
3

>  <SCORE.INTER.SOLV>
8.553

>  <SCORE.INTER.VDW>
-11.7453

>  <SCORE.INTER.norm>
-0.411786

>  <SCORE.INTRA>
-0.105977

>  <SCORE.INTRA.DIHEDRAL>
-1.56122

>  <SCORE.INTRA.DIHEDRAL.0>
3.34563

>  <SCORE.INTRA.POLAR>
0

>  <SCORE.INTRA.POLAR.0>
0

>  <SCORE.INTRA.REPUL>
0

>  <SCORE.INTRA.REPUL.0>
0

>  <SCORE.INTRA.SOLV>
1.07373

>  <SCORE.INTRA.SOLV.lig_0>
-59.746

>  <SCORE.INTRA.VDW>
0.137766

>  <SCORE.INTRA.VDW.0>
-0.691186

>  <SCORE.INTRA.norm>
-0.0088314

>  <SCORE.RESTR>
0

>  <SCORE.RESTR.CAVITY>
0

>  <SCORE.RESTR.norm>
0

>  <SCORE.SYSTEM>
0

>  <SCORE.SYSTEM.CONST>
0

>  <SCORE.SYSTEM.DIHEDRAL>
0

>  <SCORE.SYSTEM.SOLV>
0

>  <SCORE.SYSTEM.norm>
0

>  <SCORE.heavy>
12

>  <SCORE.norm>
-0.420618

>  <RMSD>
19.100

$$$$
ligand
 OpenBabel02271912143D
libRbt.so/2013.1/901 2013/11/27
 12 12  0  0  0  0  0  0  0  0999 V2000
  -37.7417  -12.7629   89.2616 C   0  0  0  0  0  0  0  0  0  0  0  0
  -42.2791   -9.8602   88.1374 C   0  0  0  0  0  0  0  0  0  0  0  0
  -37.6774  -10.5729   87.7020 N   0  0  0  0  0  0  0  0  0  0  0  0
  -37.6297  -14.1115   88.6878 N   0  0  0  0  0  0  0  0  0  0  0  0
  -36.6317  -14.6084   88.8057 N   0  0  0  0  0  0  0  0  0  0  0  0
  -35.6347  -15.1052   88.9285 N   0  0  0  0  0  0  0  0  0  0  0  0
  -41.2466  -11.7120   89.1758 N   0  0  0  0  0  0  0  0  0  0  0  0
  -41.1470  -10.6198   88.4066 C   0  0  0  0  0  0  0  0  0  0  0  0
  -39.9800  -10.2852   87.8363 N   0  0  0  0  0  0  0  0  0  0  0  0
  -38.8810  -11.0286   88.0313 C   0  0  0  0  0  0  0  0  0  0  0  0
  -38.9195  -12.1673   88.8277 C   0  0  0  0  0  0  0  0  0  0  0  0
  -40.1313  -12.5264   89.4056 C   0  0  0  0  0  0  0  0  0  0  0  0
  1 11  1  0  0  0  0
  1  4  1  0  0  0  0
  2  8  1  0  0  0  0
  3 10  1  0  0  0  0
  4  5  1  0  0  0  0
  5  6  1  0  0  0  0
  7  8  2  0  0  0  0
  7 12  1  0  0  0  0
  8  9  1  0  0  0  0
  9 10  2  0  0  0  0
 10 11  1  0  0  0  0
 11 12  2  0  0  0  0
M  END
>  <CHROM.1>
-115.97064280,168.54784584,63.85361422,-38.97390944,-12.12523095,88.59432191
-0.67266306,0.23978764,-0.42528411

>  <Name>
ligand

>  <RI>
0

>  <Rbt.Current_Directory>
/home/itssahil/PROJECTS/Mol_Feturizer/Test_systems_manuscript/rnas/4nya

>  <Rbt.Executable>
rbdock ($Id: //depot/dev/client3/rdock/2013.1/src/exe/rbdock.cxx#4 $)

>  <Rbt.Library>
libRbt.so (2013.1, Build901 2013/11/27)

>  <Rbt.Parameter_File>
/export/apps/rDock/src/rDock_2013.1_src/data/scripts/dock_solv.prm

>  <Rbt.Receptor>
prm/blind_docking_100.prm

>  <SCORE>
-4.44362

>  <SCORE.INTER>
-3.5893

>  <SCORE.INTER.CONST>
1

>  <SCORE.INTER.POLAR>
0

>  <SCORE.INTER.ROT>
3

>  <SCORE.INTER.SOLV>
8.49857

>  <SCORE.INTER.VDW>
-10.8257

>  <SCORE.INTER.norm>
-0.299109

>  <SCORE.INTRA>
-0.85432

>  <SCORE.INTRA.DIHEDRAL>
-1.2446

>  <SCORE.INTRA.DIHEDRAL.0>
3.34563

>  <SCORE.INTRA.POLAR>
0

>  <SCORE.INTRA.POLAR.0>
0

>  <SCORE.INTRA.REPUL>
0

>  <SCORE.INTRA.REPUL.0>
0

>  <SCORE.INTRA.SOLV>
-0.73431

>  <SCORE.INTRA.SOLV.lig_0>
-59.746

>  <SCORE.INTRA.VDW>
0.135134

>  <SCORE.INTRA.VDW.0>
-0.691186

>  <SCORE.INTRA.norm>
-0.0711934

>  <SCORE.RESTR>
0

>  <SCORE.RESTR.CAVITY>
0

>  <SCORE.RESTR.norm>
0

>  <SCORE.SYSTEM>
0

>  <SCORE.SYSTEM.CONST>
0

>  <SCORE.SYSTEM.DIHEDRAL>
0

>  <SCORE.SYSTEM.SOLV>
0

>  <SCORE.SYSTEM.norm>
0

>  <SCORE.heavy>
12

>  <SCORE.norm>
-0.370302

>  <RMSD>
19.113

$$$$
ligand
 OpenBabel02271912143D
libRbt.so/2013.1/901 2013/11/27
 12 12  0  0  0  0  0  0  0  0999 V2000
  -32.8590   -9.7971   79.5574 C   0  0  0  0  0  0  0  0  0  0  0  0
  -34.3561   -9.5449   84.8463 C   0  0  0  0  0  0  0  0  0  0  0  0
  -33.6576  -11.9779   80.9136 N   0  0  0  0  0  0  0  0  0  0  0  0
  -34.1343   -9.5100   78.8853 N   0  0  0  0  0  0  0  0  0  0  0  0
  -34.1252   -9.5976   77.7677 N   0  0  0  0  0  0  0  0  0  0  0  0
  -34.1149   -9.6902   76.6509 N   0  0  0  0  0  0  0  0  0  0  0  0
  -33.5421   -8.4796   82.9030 N   0  0  0  0  0  0  0  0  0  0  0  0
  -33.9476   -9.5979   83.5190 C   0  0  0  0  0  0  0  0  0  0  0  0
  -33.9017  -10.7829   82.8923 N   0  0  0  0  0  0  0  0  0  0  0  0
  -33.4602  -10.8763   81.6294 C   0  0  0  0  0  0  0  0  0  0  0  0
  -33.0360   -9.7496   80.9346 C   0  0  0  0  0  0  0  0  0  0  0  0
  -33.0657   -8.5230   81.5874 C   0  0  0  0  0  0  0  0  0  0  0  0
  1 11  1  0  0  0  0
  1  4  1  0  0  0  0
  2  8  1  0  0  0  0
  3 10  1  0  0  0  0
  4  5  1  0  0  0  0
  5  6  1  0  0  0  0
  7  8  2  0  0  0  0
  7 12  1  0  0  0  0
  8  9  1  0  0  0  0
  9 10  2  0  0  0  0
 10 11  1  0  0  0  0
 11 12  2  0  0  0  0
M  END
>  <CHROM.1>
86.59956569,-175.58867844,61.82296299,-33.70271095,-9.84979036,80.98643919
-1.55972226,1.52559061,1.54823044

>  <Name>
ligand

>  <RI>
0

>  <Rbt.Current_Directory>
/home/itssahil/PROJECTS/Mol_Feturizer/Test_systems_manuscript/rnas/4nya

>  <Rbt.Executable>
rbdock ($Id: //depot/dev/client3/rdock/2013.1/src/exe/rbdock.cxx#4 $)

>  <Rbt.Library>
libRbt.so (2013.1, Build901 2013/11/27)

>  <Rbt.Parameter_File>
/export/apps/rDock/src/rDock_2013.1_src/data/scripts/dock_solv.prm

>  <Rbt.Receptor>
prm/blind_docking_100.prm

>  <SCORE>
-5.70489

>  <SCORE.INTER>
-4.84261

>  <SCORE.INTER.CONST>
1

>  <SCORE.INTER.POLAR>
0

>  <SCORE.INTER.ROT>
3

>  <SCORE.INTER.SOLV>
12.7391

>  <SCORE.INTER.VDW>
-13.0748

>  <SCORE.INTER.norm>
-0.40355

>  <SCORE.INTRA>
-0.862289

>  <SCORE.INTRA.DIHEDRAL>
-2.22271

>  <SCORE.INTRA.DIHEDRAL.0>
3.34563

>  <SCORE.INTRA.POLAR>
0

>  <SCORE.INTRA.POLAR.0>
0

>  <SCORE.INTRA.REPUL>
0

>  <SCORE.INTRA.REPUL.0>
0

>  <SCORE.INTRA.SOLV>
0.427495

>  <SCORE.INTRA.SOLV.lig_0>
-59.746

>  <SCORE.INTRA.VDW>
0.0353201

>  <SCORE.INTRA.VDW.0>
-0.691186

>  <SCORE.INTRA.norm>
-0.0718575

>  <SCORE.RESTR>
0

>  <SCORE.RESTR.CAVITY>
0

>  <SCORE.RESTR.norm>
0

>  <SCORE.SYSTEM>
0

>  <SCORE.SYSTEM.CONST>
0

>  <SCORE.SYSTEM.DIHEDRAL>
0

>  <SCORE.SYSTEM.SOLV>
0

>  <SCORE.SYSTEM.norm>
0

>  <SCORE.heavy>
12

>  <SCORE.norm>
-0.475408

>  <RMSD>
19.162

$$$$
ligand
 OpenBabel02271912143D
libRbt.so/2013.1/901 2013/11/27
 12 12  0  0  0  0  0  0  0  0999 V2000
  -39.8958  -10.2484   88.3776 C   0  0  0  0  0  0  0  0  0  0  0  0
  -36.9078  -14.6917   89.6450 C   0  0  0  0  0  0  0  0  0  0  0  0
  -37.4827  -10.6986   87.2790 N   0  0  0  0  0  0  0  0  0  0  0  0
  -41.1104  -10.8332   87.7916 N   0  0  0  0  0  0  0  0  0  0  0  0
  -41.8441  -10.1017   87.3633 N   0  0  0  0  0  0  0  0  0  0  0  0
  -42.5741   -9.3689   86.9319 N   0  0  0  0  0  0  0  0  0  0  0  0
  -38.8483  -13.3825   89.9512 N   0  0  0  0  0  0  0  0  0  0  0  0
  -37.6611  -13.5600   89.3568 C   0  0  0  0  0  0  0  0  0  0  0  0
  -37.1571  -12.6264   88.5361 N   0  0  0  0  0  0  0  0  0  0  0  0
  -37.8343  -11.4975   88.2806 C   0  0  0  0  0  0  0  0  0  0  0  0
  -39.0758  -11.2612   88.8594 C   0  0  0  0  0  0  0  0  0  0  0  0
  -39.5925  -12.2187   89.7241 C   0  0  0  0  0  0  0  0  0  0  0  0
  1 11  1  0  0  0  0
  1  4  1  0  0  0  0
  2  8  1  0  0  0  0
  3 10  1  0  0  0  0
  4  5  1  0  0  0  0
  5  6  1  0  0  0  0
  7  8  2  0  0  0  0
  7 12  1  0  0  0  0
  8  9  1  0  0  0  0
  9 10  2  0  0  0  0
 10 11  1  0  0  0  0
 11 12  2  0  0  0  0
M  END
>  <CHROM.1>
114.29811647,-179.60508736,61.97174123,-39.18196150,-11.70510083,88.48817048
-2.38394417,-0.15820706,2.48827225

>  <Name>
ligand

>  <RI>
0

>  <Rbt.Current_Directory>
/home/itssahil/PROJECTS/Mol_Feturizer/Test_systems_manuscript/rnas/4nya

>  <Rbt.Executable>
rbdock ($Id: //depot/dev/client3/rdock/2013.1/src/exe/rbdock.cxx#4 $)

>  <Rbt.Library>
libRbt.so (2013.1, Build901 2013/11/27)

>  <Rbt.Parameter_File>
/export/apps/rDock/src/rDock_2013.1_src/data/scripts/dock_solv.prm

>  <Rbt.Receptor>
prm/blind_docking_100.prm

>  <SCORE>
-3.83599

>  <SCORE.INTER>
-2.9036

>  <SCORE.INTER.CONST>
1

>  <SCORE.INTER.POLAR>
0

>  <SCORE.INTER.ROT>
3

>  <SCORE.INTER.SOLV>
9.61128

>  <SCORE.INTER.VDW>
-10.7395

>  <SCORE.INTER.norm>
-0.241967

>  <SCORE.INTRA>
-0.932382

>  <SCORE.INTRA.DIHEDRAL>
-1.63191

>  <SCORE.INTRA.DIHEDRAL.0>
3.34563

>  <SCORE.INTRA.POLAR>
0

>  <SCORE.INTRA.POLAR.0>
0

>  <SCORE.INTRA.REPUL>
0

>  <SCORE.INTRA.REPUL.0>
0

>  <SCORE.INTRA.SOLV>
-0.723164

>  <SCORE.INTRA.SOLV.lig_0>
-59.746

>  <SCORE.INTRA.VDW>
0.245156

>  <SCORE.INTRA.VDW.0>
-0.691186

>  <SCORE.INTRA.norm>
-0.0776985

>  <SCORE.RESTR>
0

>  <SCORE.RESTR.CAVITY>
0

>  <SCORE.RESTR.norm>
0

>  <SCORE.SYSTEM>
0

>  <SCORE.SYSTEM.CONST>
0

>  <SCORE.SYSTEM.DIHEDRAL>
0

>  <SCORE.SYSTEM.SOLV>
0

>  <SCORE.SYSTEM.norm>
0

>  <SCORE.heavy>
12

>  <SCORE.norm>
-0.319666

>  <RMSD>
19.192

$$$$
ligand
 OpenBabel02271912143D
libRbt.so/2013.1/901 2013/11/27
 12 12  0  0  0  0  0  0  0  0999 V2000
  -39.6123  -10.8884   88.9204 C   0  0  0  0  0  0  0  0  0  0  0  0
  -37.0253  -15.7227   88.4569 C   0  0  0  0  0  0  0  0  0  0  0  0
  -38.4290  -11.6529   86.6295 N   0  0  0  0  0  0  0  0  0  0  0  0
  -41.0043  -11.2798   88.6564 N   0  0  0  0  0  0  0  0  0  0  0  0
  -41.6346  -10.5124   88.1364 N   0  0  0  0  0  0  0  0  0  0  0  0
  -42.2638   -9.7419   87.6203 N   0  0  0  0  0  0  0  0  0  0  0  0
  -38.2121  -14.1613   89.7711 N   0  0  0  0  0  0  0  0  0  0  0  0
  -37.6572  -14.4931   88.5979 C   0  0  0  0  0  0  0  0  0  0  0  0
  -37.6441  -13.6262   87.5745 N   0  0  0  0  0  0  0  0  0  0  0  0
  -38.1966  -12.4103   87.6960 C   0  0  0  0  0  0  0  0  0  0  0  0
  -38.7965  -12.0126   88.8851 C   0  0  0  0  0  0  0  0  0  0  0  0
  -38.7960  -12.9020   89.9530 C   0  0  0  0  0  0  0  0  0  0  0  0
  1 11  1  0  0  0  0
  1  4  1  0  0  0  0
  2  8  1  0  0  0  0
  3 10  1  0  0  0  0
  4  5  1  0  0  0  0
  5  6  1  0  0  0  0
  7  8  2  0  0  0  0
  7 12  1  0  0  0  0
  8  9  1  0  0  0  0
  9 10  2  0  0  0  0
 10 11  1  0  0  0  0
 11 12  2  0  0  0  0
M  END
>  <CHROM.1>
90.61019708,-148.87455001,-58.58065653,-39.12964829,-12.44600021,88.38993620
2.67815168,0.71658787,-1.04610712

>  <Name>
ligand

>  <RI>
0

>  <Rbt.Current_Directory>
/home/itssahil/PROJECTS/Mol_Feturizer/Test_systems_manuscript/rnas/4nya

>  <Rbt.Executable>
rbdock ($Id: //depot/dev/client3/rdock/2013.1/src/exe/rbdock.cxx#4 $)

>  <Rbt.Library>
libRbt.so (2013.1, Build901 2013/11/27)

>  <Rbt.Parameter_File>
/export/apps/rDock/src/rDock_2013.1_src/data/scripts/dock_solv.prm

>  <Rbt.Receptor>
prm/blind_docking_100.prm

>  <SCORE>
-5.12073

>  <SCORE.INTER>
-4.68427

>  <SCORE.INTER.CONST>
1

>  <SCORE.INTER.POLAR>
0

>  <SCORE.INTER.ROT>
3

>  <SCORE.INTER.SOLV>
11.7952

>  <SCORE.INTER.VDW>
-12.6546

>  <SCORE.INTER.norm>
-0.390356

>  <SCORE.INTRA>
-0.436456

>  <SCORE.INTRA.DIHEDRAL>
-1.56974

>  <SCORE.INTRA.DIHEDRAL.0>
3.34563

>  <SCORE.INTRA.POLAR>
0

>  <SCORE.INTRA.POLAR.0>
0

>  <SCORE.INTRA.REPUL>
0

>  <SCORE.INTRA.REPUL.0>
0

>  <SCORE.INTRA.SOLV>
0.739115

>  <SCORE.INTRA.SOLV.lig_0>
-59.746

>  <SCORE.INTRA.VDW>
-0.0211409

>  <SCORE.INTRA.VDW.0>
-0.691186

>  <SCORE.INTRA.norm>
-0.0363713

>  <SCORE.RESTR>
0

>  <SCORE.RESTR.CAVITY>
0

>  <SCORE.RESTR.norm>
0

>  <SCORE.SYSTEM>
0

>  <SCORE.SYSTEM.CONST>
0

>  <SCORE.SYSTEM.DIHEDRAL>
0

>  <SCORE.SYSTEM.SOLV>
0

>  <SCORE.SYSTEM.norm>
0

>  <SCORE.heavy>
12

>  <SCORE.norm>
-0.426727

>  <RMSD>
19.280

$$$$
ligand
 OpenBabel02271912143D
libRbt.so/2013.1/901 2013/11/27
 12 12  0  0  0  0  0  0  0  0999 V2000
  -33.9503  -10.1471   79.1628 C   0  0  0  0  0  0  0  0  0  0  0  0
  -32.5832   -7.7864   83.9415 C   0  0  0  0  0  0  0  0  0  0  0  0
  -32.7427  -11.5228   81.1331 N   0  0  0  0  0  0  0  0  0  0  0  0
  -33.2000   -9.7529   77.9619 N   0  0  0  0  0  0  0  0  0  0  0  0
  -33.6501   -8.9222   77.3585 N   0  0  0  0  0  0  0  0  0  0  0  0
  -34.1044   -8.0944   76.7550 N   0  0  0  0  0  0  0  0  0  0  0  0
  -33.4920   -7.6186   81.7691 N   0  0  0  0  0  0  0  0  0  0  0  0
  -32.9083   -8.3614   82.7188 C   0  0  0  0  0  0  0  0  0  0  0  0
  -32.5714   -9.6380   82.4824 N   0  0  0  0  0  0  0  0  0  0  0  0
  -32.8212  -10.2064   81.2938 C   0  0  0  0  0  0  0  0  0  0  0  0
  -33.4340   -9.4897   80.2726 C   0  0  0  0  0  0  0  0  0  0  0  0
  -33.7682   -8.1615   80.5086 C   0  0  0  0  0  0  0  0  0  0  0  0
  1 11  1  0  0  0  0
  1  4  1  0  0  0  0
  2  8  1  0  0  0  0
  3 10  1  0  0  0  0
  4  5  1  0  0  0  0
  5  6  1  0  0  0  0
  7  8  2  0  0  0  0
  7 12  1  0  0  0  0
  8  9  1  0  0  0  0
  9 10  2  0  0  0  0
 10 11  1  0  0  0  0
 11 12  2  0  0  0  0
M  END
>  <CHROM.1>
-115.00308490,-95.59757344,-54.96633391,-33.26628728,-9.13757502,80.43138686
-2.35280794,-1.31468149,0.72909528

>  <Name>
ligand

>  <RI>
0

>  <Rbt.Current_Directory>
/home/itssahil/PROJECTS/Mol_Feturizer/Test_systems_manuscript/rnas/4nya

>  <Rbt.Executable>
rbdock ($Id: //depot/dev/client3/rdock/2013.1/src/exe/rbdock.cxx#4 $)

>  <Rbt.Library>
libRbt.so (2013.1, Build901 2013/11/27)

>  <Rbt.Parameter_File>
/export/apps/rDock/src/rDock_2013.1_src/data/scripts/dock_solv.prm

>  <Rbt.Receptor>
prm/blind_docking_100.prm

>  <SCORE>
-5.81358

>  <SCORE.INTER>
-5.53022

>  <SCORE.INTER.CONST>
1

>  <SCORE.INTER.POLAR>
0

>  <SCORE.INTER.ROT>
3

>  <SCORE.INTER.SOLV>
9.2276

>  <SCORE.INTER.VDW>
-12.3627

>  <SCORE.INTER.norm>
-0.460852

>  <SCORE.INTRA>
-0.283361

>  <SCORE.INTRA.DIHEDRAL>
-0.548551

>  <SCORE.INTRA.DIHEDRAL.0>
3.34563

>  <SCORE.INTRA.POLAR>
0

>  <SCORE.INTRA.POLAR.0>
0

>  <SCORE.INTRA.REPUL>
0

>  <SCORE.INTRA.REPUL.0>
0

>  <SCORE.INTRA.SOLV>
-0.0729145

>  <SCORE.INTRA.SOLV.lig_0>
-59.746

>  <SCORE.INTRA.VDW>
0.0273713

>  <SCORE.INTRA.VDW.0>
-0.691186

>  <SCORE.INTRA.norm>
-0.0236134

>  <SCORE.RESTR>
0

>  <SCORE.RESTR.CAVITY>
0

>  <SCORE.RESTR.norm>
0

>  <SCORE.SYSTEM>
0

>  <SCORE.SYSTEM.CONST>
0

>  <SCORE.SYSTEM.DIHEDRAL>
0

>  <SCORE.SYSTEM.SOLV>
0

>  <SCORE.SYSTEM.norm>
0

>  <SCORE.heavy>
12

>  <SCORE.norm>
-0.484465

>  <RMSD>
19.281

$$$$
ligand
 OpenBabel02271912143D
libRbt.so/2013.1/901 2013/11/27
 12 12  0  0  0  0  0  0  0  0999 V2000
  -40.1843  -10.8833   87.4640 C   0  0  0  0  0  0  0  0  0  0  0  0
  -36.8421  -13.6041   90.8851 C   0  0  0  0  0  0  0  0  0  0  0  0
  -37.5074  -10.7436   87.2454 N   0  0  0  0  0  0  0  0  0  0  0  0
  -41.4592  -10.4529   88.0556 N   0  0  0  0  0  0  0  0  0  0  0  0
  -42.1917   -9.9875   87.3460 N   0  0  0  0  0  0  0  0  0  0  0  0
  -42.9271   -9.5213   86.6404 N   0  0  0  0  0  0  0  0  0  0  0  0
  -39.0235  -12.9957   90.2183 N   0  0  0  0  0  0  0  0  0  0  0  0
  -37.6984  -12.9001   90.0471 C   0  0  0  0  0  0  0  0  0  0  0  0
  -37.1829  -12.0804   89.1189 N   0  0  0  0  0  0  0  0  0  0  0  0
  -37.9810  -11.3452   88.3310 C   0  0  0  0  0  0  0  0  0  0  0  0
  -39.3641  -11.4095   88.4543 C   0  0  0  0  0  0  0  0  0  0  0  0
  -39.9007  -12.2445   89.4270 C   0  0  0  0  0  0  0  0  0  0  0  0
  1 11  1  0  0  0  0
  1  4  1  0  0  0  0
  2  8  1  0  0  0  0
  3 10  1  0  0  0  0
  4  5  1  0  0  0  0
  5  6  1  0  0  0  0
  7  8  2  0  0  0  0
  7 12  1  0  0  0  0
  8  9  1  0  0  0  0
  9 10  2  0  0  0  0
 10 11  1  0  0  0  0
 11 12  2  0  0  0  0
M  END
>  <CHROM.1>
-151.68965214,178.59336206,-176.93558264,-39.36994703,-11.50442838,88.59428159
-2.43273605,-0.10620010,2.24484892

>  <Name>
ligand

>  <RI>
0

>  <Rbt.Current_Directory>
/home/itssahil/PROJECTS/Mol_Feturizer/Test_systems_manuscript/rnas/4nya

>  <Rbt.Executable>
rbdock ($Id: //depot/dev/client3/rdock/2013.1/src/exe/rbdock.cxx#4 $)

>  <Rbt.Library>
libRbt.so (2013.1, Build901 2013/11/27)

>  <Rbt.Parameter_File>
/export/apps/rDock/src/rDock_2013.1_src/data/scripts/dock_solv.prm

>  <Rbt.Receptor>
prm/blind_docking_100.prm

>  <SCORE>
-4.00058

>  <SCORE.INTER>
-2.74456

>  <SCORE.INTER.CONST>
1

>  <SCORE.INTER.POLAR>
0

>  <SCORE.INTER.ROT>
3

>  <SCORE.INTER.SOLV>
10.2114

>  <SCORE.INTER.VDW>
-10.8335

>  <SCORE.INTER.norm>
-0.228714

>  <SCORE.INTRA>
-1.25601

>  <SCORE.INTRA.DIHEDRAL>
-2.22391

>  <SCORE.INTRA.DIHEDRAL.0>
3.34563

>  <SCORE.INTRA.POLAR>
0

>  <SCORE.INTRA.POLAR.0>
0

>  <SCORE.INTRA.REPUL>
0

>  <SCORE.INTRA.REPUL.0>
0

>  <SCORE.INTRA.SOLV>
-1.26979

>  <SCORE.INTRA.SOLV.lig_0>
-59.746

>  <SCORE.INTRA.VDW>
0.490838

>  <SCORE.INTRA.VDW.0>
-0.691186

>  <SCORE.INTRA.norm>
-0.104668

>  <SCORE.RESTR>
0

>  <SCORE.RESTR.CAVITY>
0

>  <SCORE.RESTR.norm>
0

>  <SCORE.SYSTEM>
0

>  <SCORE.SYSTEM.CONST>
0

>  <SCORE.SYSTEM.DIHEDRAL>
0

>  <SCORE.SYSTEM.SOLV>
0

>  <SCORE.SYSTEM.norm>
0

>  <SCORE.heavy>
12

>  <SCORE.norm>
-0.333381

>  <RMSD>
19.292

$$$$
ligand
 OpenBabel02271912143D
libRbt.so/2013.1/901 2013/11/27
 12 12  0  0  0  0  0  0  0  0999 V2000
  -39.6654  -10.8674   88.8938 C   0  0  0  0  0  0  0  0  0  0  0  0
  -37.0384  -15.6798   88.4276 C   0  0  0  0  0  0  0  0  0  0  0  0
  -38.5351  -11.6512   86.5828 N   0  0  0  0  0  0  0  0  0  0  0  0
  -41.0420  -11.2600   88.5601 N   0  0  0  0  0  0  0  0  0  0  0  0
  -41.6652  -10.4719   88.0630 N   0  0  0  0  0  0  0  0  0  0  0  0
  -42.2922   -9.6872   87.5658 N   0  0  0  0  0  0  0  0  0  0  0  0
  -38.2070  -14.1128   89.7515 N   0  0  0  0  0  0  0  0  0  0  0  0
  -37.6799  -14.4551   88.5685 C   0  0  0  0  0  0  0  0  0  0  0  0
  -37.7036  -13.6025   87.5333 N   0  0  0  0  0  0  0  0  0  0  0  0
  -38.2661  -12.3910   87.6529 C   0  0  0  0  0  0  0  0  0  0  0  0
  -38.8385  -11.9831   88.8521 C   0  0  0  0  0  0  0  0  0  0  0  0
  -38.7998  -12.8575   89.9317 C   0  0  0  0  0  0  0  0  0  0  0  0
  1 11  1  0  0  0  0
  1  4  1  0  0  0  0
  2  8  1  0  0  0  0
  3 10  1  0  0  0  0
  4  5  1  0  0  0  0
  5  6  1  0  0  0  0
  7  8  2  0  0  0  0
  7 12  1  0  0  0  0
  8  9  1  0  0  0  0
  9 10  2  0  0  0  0
 10 11  1  0  0  0  0
 11 12  2  0  0  0  0
M  END
>  <CHROM.1>
85.84653540,-150.19407006,-179.68187353,-39.16814144,-12.41395303,88.34660473
2.71114831,0.73413830,-1.10762395

>  <Name>
ligand

>  <RI>
0

>  <Rbt.Current_Directory>
/home/itssahil/PROJECTS/Mol_Feturizer/Test_systems_manuscript/rnas/4nya

>  <Rbt.Executable>
rbdock ($Id: //depot/dev/client3/rdock/2013.1/src/exe/rbdock.cxx#4 $)

>  <Rbt.Library>
libRbt.so (2013.1, Build901 2013/11/27)

>  <Rbt.Parameter_File>
/export/apps/rDock/src/rDock_2013.1_src/data/scripts/dock_solv.prm

>  <Rbt.Receptor>
prm/blind_docking_100.prm

>  <SCORE>
-5.12465

>  <SCORE.INTER>
-4.77007

>  <SCORE.INTER.CONST>
1

>  <SCORE.INTER.POLAR>
0

>  <SCORE.INTER.ROT>
3

>  <SCORE.INTER.SOLV>
11.3861

>  <SCORE.INTER.VDW>
-12.5754

>  <SCORE.INTER.norm>
-0.397506

>  <SCORE.INTRA>
-0.354582

>  <SCORE.INTRA.DIHEDRAL>
-1.64921

>  <SCORE.INTRA.DIHEDRAL.0>
3.34563

>  <SCORE.INTRA.POLAR>
0

>  <SCORE.INTRA.POLAR.0>
0

>  <SCORE.INTRA.REPUL>
0

>  <SCORE.INTRA.REPUL.0>
0

>  <SCORE.INTRA.SOLV>
1.02209

>  <SCORE.INTRA.SOLV.lig_0>
-59.746

>  <SCORE.INTRA.VDW>
-0.0410181

>  <SCORE.INTRA.VDW.0>
-0.691186

>  <SCORE.INTRA.norm>
-0.0295485

>  <SCORE.RESTR>
0

>  <SCORE.RESTR.CAVITY>
0

>  <SCORE.RESTR.norm>
0

>  <SCORE.SYSTEM>
0

>  <SCORE.SYSTEM.CONST>
0

>  <SCORE.SYSTEM.DIHEDRAL>
0

>  <SCORE.SYSTEM.SOLV>
0

>  <SCORE.SYSTEM.norm>
0

>  <SCORE.heavy>
12

>  <SCORE.norm>
-0.427054

>  <RMSD>
19.327

$$$$
ligand
 OpenBabel02271912143D
libRbt.so/2013.1/901 2013/11/27
 12 12  0  0  0  0  0  0  0  0999 V2000
  -34.2689   -9.0641   77.9905 C   0  0  0  0  0  0  0  0  0  0  0  0
  -33.5385   -9.4835   83.4282 C   0  0  0  0  0  0  0  0  0  0  0  0
  -33.9813  -11.4458   79.2060 N   0  0  0  0  0  0  0  0  0  0  0  0
  -33.6042   -7.9217   77.3473 N   0  0  0  0  0  0  0  0  0  0  0  0
  -34.0277   -7.6070   76.3581 N   0  0  0  0  0  0  0  0  0  0  0  0
  -34.4474   -7.2888   75.3689 N   0  0  0  0  0  0  0  0  0  0  0  0
  -33.8141   -8.1441   81.5037 N   0  0  0  0  0  0  0  0  0  0  0  0
  -33.6948   -9.3601   82.0528 C   0  0  0  0  0  0  0  0  0  0  0  0
  -33.6567  -10.4597   81.2857 N   0  0  0  0  0  0  0  0  0  0  0  0
  -33.7492  -10.3705   79.9508 C   0  0  0  0  0  0  0  0  0  0  0  0
  -33.8851   -9.1373   79.3238 C   0  0  0  0  0  0  0  0  0  0  0  0
  -33.9070   -7.9949   80.1149 C   0  0  0  0  0  0  0  0  0  0  0  0
  1 11  1  0  0  0  0
  1  4  1  0  0  0  0
  2  8  1  0  0  0  0
  3 10  1  0  0  0  0
  4  5  1  0  0  0  0
  5  6  1  0  0  0  0
  7  8  2  0  0  0  0
  7 12  1  0  0  0  0
  8  9  1  0  0  0  0
  9 10  2  0  0  0  0
 10 11  1  0  0  0  0
 11 12  2  0  0  0  0
M  END
>  <CHROM.1>
-145.89501564,-165.09440974,-176.66053716,-33.88268108,-9.01651352,79.47621523
2.74927235,-1.48625354,-0.08119019

>  <Name>
ligand

>  <RI>
0

>  <Rbt.Current_Directory>
/home/itssahil/PROJECTS/Mol_Feturizer/Test_systems_manuscript/rnas/4nya

>  <Rbt.Executable>
rbdock ($Id: //depot/dev/client3/rdock/2013.1/src/exe/rbdock.cxx#4 $)

>  <Rbt.Library>
libRbt.so (2013.1, Build901 2013/11/27)

>  <Rbt.Parameter_File>
/export/apps/rDock/src/rDock_2013.1_src/data/scripts/dock_solv.prm

>  <Rbt.Receptor>
prm/blind_docking_100.prm

>  <SCORE>
-6.07062

>  <SCORE.INTER>
-4.86963

>  <SCORE.INTER.CONST>
1

>  <SCORE.INTER.POLAR>
0

>  <SCORE.INTER.ROT>
3

>  <SCORE.INTER.SOLV>
12.3831

>  <SCORE.INTER.VDW>
-12.9741

>  <SCORE.INTER.norm>
-0.405802

>  <SCORE.INTRA>
-1.201

>  <SCORE.INTRA.DIHEDRAL>
-1.97995

>  <SCORE.INTRA.DIHEDRAL.0>
3.34563

>  <SCORE.INTRA.POLAR>
0

>  <SCORE.INTRA.POLAR.0>
0

>  <SCORE.INTRA.REPUL>
0

>  <SCORE.INTRA.REPUL.0>
0

>  <SCORE.INTRA.SOLV>
-1.18864

>  <SCORE.INTRA.SOLV.lig_0>
-59.746

>  <SCORE.INTRA.VDW>
0.383298

>  <SCORE.INTRA.VDW.0>
-0.691186

>  <SCORE.INTRA.norm>
-0.100083

>  <SCORE.RESTR>
0

>  <SCORE.RESTR.CAVITY>
0

>  <SCORE.RESTR.norm>
0

>  <SCORE.SYSTEM>
0

>  <SCORE.SYSTEM.CONST>
0

>  <SCORE.SYSTEM.DIHEDRAL>
0

>  <SCORE.SYSTEM.SOLV>
0

>  <SCORE.SYSTEM.norm>
0

>  <SCORE.heavy>
12

>  <SCORE.norm>
-0.505885

>  <RMSD>
20.517

$$$$
ligand
 OpenBabel02271912143D
libRbt.so/2013.1/901 2013/11/27
 12 12  0  0  0  0  0  0  0  0999 V2000
  -34.3335   -9.1365   77.9049 C   0  0  0  0  0  0  0  0  0  0  0  0
  -33.5326   -9.5156   83.3356 C   0  0  0  0  0  0  0  0  0  0  0  0
  -34.0048  -11.5076   79.1306 N   0  0  0  0  0  0  0  0  0  0  0  0
  -33.6644   -8.0100   77.2386 N   0  0  0  0  0  0  0  0  0  0  0  0
  -34.1031   -7.6967   76.2557 N   0  0  0  0  0  0  0  0  0  0  0  0
  -34.5408   -7.3882   75.2712 N   0  0  0  0  0  0  0  0  0  0  0  0
  -33.8462   -8.1908   81.4069 N   0  0  0  0  0  0  0  0  0  0  0  0
  -33.7068   -9.4021   81.9616 C   0  0  0  0  0  0  0  0  0  0  0  0
  -33.6659  -10.5057   81.2004 N   0  0  0  0  0  0  0  0  0  0  0  0
  -33.7756  -10.4254   79.8663 C   0  0  0  0  0  0  0  0  0  0  0  0
  -33.9327   -9.1976   79.2339 C   0  0  0  0  0  0  0  0  0  0  0  0
  -33.9577   -8.0508   80.0185 C   0  0  0  0  0  0  0  0  0  0  0  0
  1 11  1  0  0  0  0
  1  4  1  0  0  0  0
  2  8  1  0  0  0  0
  3 10  1  0  0  0  0
  4  5  1  0  0  0  0
  5  6  1  0  0  0  0
  7  8  2  0  0  0  0
  7 12  1  0  0  0  0
  8  9  1  0  0  0  0
  9 10  2  0  0  0  0
 10 11  1  0  0  0  0
 11 12  2  0  0  0  0
M  END
>  <CHROM.1>
-144.54490870,-164.56704736,-59.41583761,-33.92348806,-9.07925700,79.38390994
2.84899622,-1.47728434,0.00982271

>  <Name>
ligand

>  <RI>
0

>  <Rbt.Current_Directory>
/home/itssahil/PROJECTS/Mol_Feturizer/Test_systems_manuscript/rnas/4nya

>  <Rbt.Executable>
rbdock ($Id: //depot/dev/client3/rdock/2013.1/src/exe/rbdock.cxx#4 $)

>  <Rbt.Library>
libRbt.so (2013.1, Build901 2013/11/27)

>  <Rbt.Parameter_File>
/export/apps/rDock/src/rDock_2013.1_src/data/scripts/dock_solv.prm

>  <Rbt.Receptor>
prm/blind_docking_100.prm

>  <SCORE>
-6.01554

>  <SCORE.INTER>
-4.82216

>  <SCORE.INTER.CONST>
1

>  <SCORE.INTER.POLAR>
0

>  <SCORE.INTER.ROT>
3

>  <SCORE.INTER.SOLV>
11.8745

>  <SCORE.INTER.VDW>
-12.7729

>  <SCORE.INTER.norm>
-0.401846

>  <SCORE.INTRA>
-1.19339

>  <SCORE.INTRA.DIHEDRAL>
-1.94767

>  <SCORE.INTRA.DIHEDRAL.0>
3.34563

>  <SCORE.INTRA.POLAR>
0

>  <SCORE.INTRA.POLAR.0>
0

>  <SCORE.INTRA.REPUL>
0

>  <SCORE.INTRA.REPUL.0>
0

>  <SCORE.INTRA.SOLV>
-1.17287

>  <SCORE.INTRA.SOLV.lig_0>
-59.746

>  <SCORE.INTRA.VDW>
0.366885

>  <SCORE.INTRA.VDW.0>
-0.691186

>  <SCORE.INTRA.norm>
-0.0994488

>  <SCORE.RESTR>
0

>  <SCORE.RESTR.CAVITY>
0

>  <SCORE.RESTR.norm>
0

>  <SCORE.SYSTEM>
0

>  <SCORE.SYSTEM.CONST>
0

>  <SCORE.SYSTEM.DIHEDRAL>
0

>  <SCORE.SYSTEM.SOLV>
0

>  <SCORE.SYSTEM.norm>
0

>  <SCORE.heavy>
12

>  <SCORE.norm>
-0.501295

>  <RMSD>
20.606

$$$$
ligand
 OpenBabel02271912143D
libRbt.so/2013.1/901 2013/11/27
 12 12  0  0  0  0  0  0  0  0999 V2000
  -40.5038  -11.6714   88.1208 C   0  0  0  0  0  0  0  0  0  0  0  0
  -42.1375   -6.6091   86.7131 C   0  0  0  0  0  0  0  0  0  0  0  0
  -40.5342  -10.8487   85.5605 N   0  0  0  0  0  0  0  0  0  0  0  0
  -39.0835  -11.4413   88.4211 N   0  0  0  0  0  0  0  0  0  0  0  0
  -38.4826  -12.3572   88.6595 N   0  0  0  0  0  0  0  0  0  0  0  0
  -37.8778  -13.2700   88.8985 N   0  0  0  0  0  0  0  0  0  0  0  0
  -41.7795   -8.2501   88.3721 N   0  0  0  0  0  0  0  0  0  0  0  0
  -41.7552   -7.8934   87.0812 C   0  0  0  0  0  0  0  0  0  0  0  0
  -41.4303   -8.7808   86.1292 N   0  0  0  0  0  0  0  0  0  0  0  0
  -41.1101  -10.0437   86.4467 C   0  0  0  0  0  0  0  0  0  0  0  0
  -41.1073  -10.4702   87.7697 C   0  0  0  0  0  0  0  0  0  0  0  0
  -41.4606   -9.5579   88.7567 C   0  0  0  0  0  0  0  0  0  0  0  0
  1 11  1  0  0  0  0
  1  4  1  0  0  0  0
  2  8  1  0  0  0  0
  3 10  1  0  0  0  0
  4  5  1  0  0  0  0
  5  6  1  0  0  0  0
  7  8  2  0  0  0  0
  7 12  1  0  0  0  0
  8  9  1  0  0  0  0
  9 10  2  0  0  0  0
 10 11  1  0  0  0  0
 11 12  2  0  0  0  0
M  END
>  <CHROM.1>
88.45960927,-176.57271212,-179.98495372,-40.57764571,-10.10753503,87.57513454
0.08812119,-0.99402335,1.34899225

>  <Name>
ligand

>  <RI>
0

>  <Rbt.Current_Directory>
/home/itssahil/PROJECTS/Mol_Feturizer/Test_systems_manuscript/rnas/4nya

>  <Rbt.Executable>
rbdock ($Id: //depot/dev/client3/rdock/2013.1/src/exe/rbdock.cxx#4 $)

>  <Rbt.Library>
libRbt.so (2013.1, Build901 2013/11/27)

>  <Rbt.Parameter_File>
/export/apps/rDock/src/rDock_2013.1_src/data/scripts/dock_solv.prm

>  <Rbt.Receptor>
prm/blind_docking_100.prm

>  <SCORE>
-4.61314

>  <SCORE.INTER>
-3.70841

>  <SCORE.INTER.CONST>
1

>  <SCORE.INTER.POLAR>
0

>  <SCORE.INTER.ROT>
3

>  <SCORE.INTER.SOLV>
8.44457

>  <SCORE.INTER.VDW>
-10.8871

>  <SCORE.INTER.norm>
-0.309034

>  <SCORE.INTRA>
-0.904729

>  <SCORE.INTRA.DIHEDRAL>
-2.21726

>  <SCORE.INTRA.DIHEDRAL.0>
3.34563

>  <SCORE.INTRA.POLAR>
0

>  <SCORE.INTRA.POLAR.0>
0

>  <SCORE.INTRA.REPUL>
0

>  <SCORE.INTRA.REPUL.0>
0

>  <SCORE.INTRA.SOLV>
0.326362

>  <SCORE.INTRA.SOLV.lig_0>
-59.746

>  <SCORE.INTRA.VDW>
0.0407205

>  <SCORE.INTRA.VDW.0>
-0.691186

>  <SCORE.INTRA.norm>
-0.075394

>  <SCORE.RESTR>
0

>  <SCORE.RESTR.CAVITY>
0

>  <SCORE.RESTR.norm>
0

>  <SCORE.SYSTEM>
0

>  <SCORE.SYSTEM.CONST>
0

>  <SCORE.SYSTEM.DIHEDRAL>
0

>  <SCORE.SYSTEM.SOLV>
0

>  <SCORE.SYSTEM.norm>
0

>  <SCORE.heavy>
12

>  <SCORE.norm>
-0.384428

>  <RMSD>
20.767

$$$$
ligand
 OpenBabel02271912143D
libRbt.so/2013.1/901 2013/11/27
 12 12  0  0  0  0  0  0  0  0999 V2000
  -41.0399  -10.1795   86.9533 C   0  0  0  0  0  0  0  0  0  0  0  0
  -43.1586   -5.1123   86.6184 C   0  0  0  0  0  0  0  0  0  0  0  0
  -42.8273   -9.5091   85.0590 N   0  0  0  0  0  0  0  0  0  0  0  0
  -40.6166  -10.5738   88.3046 N   0  0  0  0  0  0  0  0  0  0  0  0
  -39.7912  -11.3308   88.3538 N   0  0  0  0  0  0  0  0  0  0  0  0
  -38.9629  -12.0843   88.4007 N   0  0  0  0  0  0  0  0  0  0  0  0
  -41.7636   -6.6726   87.7107 N   0  0  0  0  0  0  0  0  0  0  0  0
  -42.6367   -6.3952   86.7334 C   0  0  0  0  0  0  0  0  0  0  0  0
  -43.0667   -7.3566   85.9029 N   0  0  0  0  0  0  0  0  0  0  0  0
  -42.6245   -8.6170   86.0223 C   0  0  0  0  0  0  0  0  0  0  0  0
  -41.7103   -8.9639   87.0102 C   0  0  0  0  0  0  0  0  0  0  0  0
  -41.2763   -7.9736   87.8834 C   0  0  0  0  0  0  0  0  0  0  0  0
  1 11  1  0  0  0  0
  1  4  1  0  0  0  0
  2  8  1  0  0  0  0
  3 10  1  0  0  0  0
  4  5  1  0  0  0  0
  5  6  1  0  0  0  0
  7  8  2  0  0  0  0
  7 12  1  0  0  0  0
  8  9  1  0  0  0  0
  9 10  2  0  0  0  0
 10 11  1  0  0  0  0
 11 12  2  0  0  0  0
M  END
>  <CHROM.1>
-155.59243077,-160.20585790,63.82400430,-41.61085984,-8.74465642,87.08470679
0.68796915,0.86311983,-2.71764631

>  <Name>
ligand

>  <RI>
0

>  <Rbt.Current_Directory>
/home/itssahil/PROJECTS/Mol_Feturizer/Test_systems_manuscript/rnas/4nya

>  <Rbt.Executable>
rbdock ($Id: //depot/dev/client3/rdock/2013.1/src/exe/rbdock.cxx#4 $)

>  <Rbt.Library>
libRbt.so (2013.1, Build901 2013/11/27)

>  <Rbt.Parameter_File>
/export/apps/rDock/src/rDock_2013.1_src/data/scripts/dock_solv.prm

>  <Rbt.Receptor>
prm/blind_docking_100.prm

>  <SCORE>
-4.87598

>  <SCORE.INTER>
-3.81182

>  <SCORE.INTER.CONST>
1

>  <SCORE.INTER.POLAR>
0

>  <SCORE.INTER.ROT>
3

>  <SCORE.INTER.SOLV>
5.82353

>  <SCORE.INTER.VDW>
-10.0824

>  <SCORE.INTER.norm>
-0.317652

>  <SCORE.INTRA>
-1.06416

>  <SCORE.INTRA.DIHEDRAL>
-1.94908

>  <SCORE.INTRA.DIHEDRAL.0>
3.34563

>  <SCORE.INTRA.POLAR>
0

>  <SCORE.INTRA.POLAR.0>
0

>  <SCORE.INTRA.REPUL>
0

>  <SCORE.INTRA.REPUL.0>
0

>  <SCORE.INTRA.SOLV>
-1.22882

>  <SCORE.INTRA.SOLV.lig_0>
-59.746

>  <SCORE.INTRA.VDW>
0.524792

>  <SCORE.INTRA.VDW.0>
-0.691186

>  <SCORE.INTRA.norm>
-0.0886799

>  <SCORE.RESTR>
0

>  <SCORE.RESTR.CAVITY>
0

>  <SCORE.RESTR.norm>
0

>  <SCORE.SYSTEM>
0

>  <SCORE.SYSTEM.CONST>
0

>  <SCORE.SYSTEM.DIHEDRAL>
0

>  <SCORE.SYSTEM.SOLV>
0

>  <SCORE.SYSTEM.norm>
0

>  <SCORE.heavy>
12

>  <SCORE.norm>
-0.406332

>  <RMSD>
21.938

$$$$
ligand
 OpenBabel02271912143D
libRbt.so/2013.1/901 2013/11/27
 12 12  0  0  0  0  0  0  0  0999 V2000
  -41.8683  -10.8423   87.3700 C   0  0  0  0  0  0  0  0  0  0  0  0
  -42.4030   -5.4156   86.6340 C   0  0  0  0  0  0  0  0  0  0  0  0
  -43.2994   -9.8184   85.3362 N   0  0  0  0  0  0  0  0  0  0  0  0
  -40.5452  -11.0876   86.7785 N   0  0  0  0  0  0  0  0  0  0  0  0
  -39.7376  -11.3802   87.4988 N   0  0  0  0  0  0  0  0  0  0  0  0
  -38.9308  -11.6683   88.2214 N   0  0  0  0  0  0  0  0  0  0  0  0
  -41.5715   -7.2319   87.8921 N   0  0  0  0  0  0  0  0  0  0  0  0
  -42.2828   -6.7831   86.8495 C   0  0  0  0  0  0  0  0  0  0  0  0
  -42.9379   -7.6351   86.0470 N   0  0  0  0  0  0  0  0  0  0  0  0
  -42.8875   -8.9580   86.2608 C   0  0  0  0  0  0  0  0  0  0  0  0
  -42.1574   -9.4843   87.3202 C   0  0  0  0  0  0  0  0  0  0  0  0
  -41.4921   -8.6029   88.1640 C   0  0  0  0  0  0  0  0  0  0  0  0
  1 11  1  0  0  0  0
  1  4  1  0  0  0  0
  2  8  1  0  0  0  0
  3 10  1  0  0  0  0
  4  5  1  0  0  0  0
  5  6  1  0  0  0  0
  7  8  2  0  0  0  0
  7 12  1  0  0  0  0
  8  9  1  0  0  0  0
  9 10  2  0  0  0  0
 10 11  1  0  0  0  0
 11 12  2  0  0  0  0
M  END
>  <CHROM.1>
94.16828093,109.43372556,-59.34416626,-41.65459739,-9.08316989,87.02272562
0.93677525,0.64461597,-2.92535036

>  <Name>
ligand

>  <RI>
0

>  <Rbt.Current_Directory>
/home/itssahil/PROJECTS/Mol_Feturizer/Test_systems_manuscript/rnas/4nya

>  <Rbt.Executable>
rbdock ($Id: //depot/dev/client3/rdock/2013.1/src/exe/rbdock.cxx#4 $)

>  <Rbt.Library>
libRbt.so (2013.1, Build901 2013/11/27)

>  <Rbt.Parameter_File>
/export/apps/rDock/src/rDock_2013.1_src/data/scripts/dock_solv.prm

>  <Rbt.Receptor>
prm/blind_docking_100.prm

>  <SCORE>
-4.94476

>  <SCORE.INTER>
-4.39923

>  <SCORE.INTER.CONST>
1

>  <SCORE.INTER.POLAR>
0

>  <SCORE.INTER.ROT>
3

>  <SCORE.INTER.SOLV>
4.10584

>  <SCORE.INTER.VDW>
-9.90143

>  <SCORE.INTER.norm>
-0.366603

>  <SCORE.INTRA>
-0.545533

>  <SCORE.INTRA.DIHEDRAL>
-1.04499

>  <SCORE.INTRA.DIHEDRAL.0>
3.34563

>  <SCORE.INTRA.POLAR>
0

>  <SCORE.INTRA.POLAR.0>
0

>  <SCORE.INTRA.REPUL>
0

>  <SCORE.INTRA.REPUL.0>
0

>  <SCORE.INTRA.SOLV>
0.0525415

>  <SCORE.INTRA.SOLV.lig_0>
-59.746

>  <SCORE.INTRA.VDW>
-0.0493077

>  <SCORE.INTRA.VDW.0>
-0.691186

>  <SCORE.INTRA.norm>
-0.0454611

>  <SCORE.RESTR>
0

>  <SCORE.RESTR.CAVITY>
0

>  <SCORE.RESTR.norm>
0

>  <SCORE.SYSTEM>
0

>  <SCORE.SYSTEM.CONST>
0

>  <SCORE.SYSTEM.DIHEDRAL>
0

>  <SCORE.SYSTEM.SOLV>
0

>  <SCORE.SYSTEM.norm>
0

>  <SCORE.heavy>
12

>  <SCORE.norm>
-0.412064

>  <RMSD>
21.965

$$$$
ligand
 OpenBabel02271912143D
libRbt.so/2013.1/901 2013/11/27
 12 12  0  0  0  0  0  0  0  0999 V2000
  -41.1040  -10.1565   86.9327 C   0  0  0  0  0  0  0  0  0  0  0  0
  -43.3534   -5.1469   86.5839 C   0  0  0  0  0  0  0  0  0  0  0  0
  -43.1861   -9.6436   85.3095 N   0  0  0  0  0  0  0  0  0  0  0  0
  -40.6179  -10.5368   88.2667 N   0  0  0  0  0  0  0  0  0  0  0  0
  -39.7745  -11.2751   88.2843 N   0  0  0  0  0  0  0  0  0  0  0  0
  -38.9283  -12.0098   88.2996 N   0  0  0  0  0  0  0  0  0  0  0  0
  -41.7691   -6.6098   87.5448 N   0  0  0  0  0  0  0  0  0  0  0  0
  -42.7934   -6.4130   86.7042 C   0  0  0  0  0  0  0  0  0  0  0  0
  -43.3313   -7.4369   86.0250 N   0  0  0  0  0  0  0  0  0  0  0  0
  -42.8497   -8.6811   86.1611 C   0  0  0  0  0  0  0  0  0  0  0  0
  -41.7816   -8.9460   87.0102 C   0  0  0  0  0  0  0  0  0  0  0  0
  -41.2336   -7.8901   87.7288 C   0  0  0  0  0  0  0  0  0  0  0  0
  1 11  1  0  0  0  0
  1  4  1  0  0  0  0
  2  8  1  0  0  0  0
  3 10  1  0  0  0  0
  4  5  1  0  0  0  0
  5  6  1  0  0  0  0
  7  8  2  0  0  0  0
  7 12  1  0  0  0  0
  8  9  1  0  0  0  0
  9 10  2  0  0  0  0
 10 11  1  0  0  0  0
 11 12  2  0  0  0  0
M  END
>  <CHROM.1>
-147.87026115,-159.33163682,63.62623521,-41.71551806,-8.74309843,87.07617196
0.76818728,0.73697565,-2.84686226

>  <Name>
ligand

>  <RI>
0

>  <Rbt.Current_Directory>
/home/itssahil/PROJECTS/Mol_Feturizer/Test_systems_manuscript/rnas/4nya

>  <Rbt.Executable>
rbdock ($Id: //depot/dev/client3/rdock/2013.1/src/exe/rbdock.cxx#4 $)

>  <Rbt.Library>
libRbt.so (2013.1, Build901 2013/11/27)

>  <Rbt.Parameter_File>
/export/apps/rDock/src/rDock_2013.1_src/data/scripts/dock_solv.prm

>  <Rbt.Receptor>
prm/blind_docking_100.prm

>  <SCORE>
-4.71137

>  <SCORE.INTER>
-3.59595

>  <SCORE.INTER.CONST>
1

>  <SCORE.INTER.POLAR>
0

>  <SCORE.INTER.ROT>
3

>  <SCORE.INTER.SOLV>
5.07095

>  <SCORE.INTER.VDW>
-9.68761

>  <SCORE.INTER.norm>
-0.299662

>  <SCORE.INTRA>
-1.11542

>  <SCORE.INTRA.DIHEDRAL>
-1.86451

>  <SCORE.INTRA.DIHEDRAL.0>
3.34563

>  <SCORE.INTRA.POLAR>
0

>  <SCORE.INTRA.POLAR.0>
0

>  <SCORE.INTRA.REPUL>
0

>  <SCORE.INTRA.REPUL.0>
0

>  <SCORE.INTRA.SOLV>
-1.17676

>  <SCORE.INTRA.SOLV.lig_0>
-59.746

>  <SCORE.INTRA.VDW>
0.405211

>  <SCORE.INTRA.VDW.0>
-0.691186

>  <SCORE.INTRA.norm>
-0.0929518

>  <SCORE.RESTR>
0

>  <SCORE.RESTR.CAVITY>
0

>  <SCORE.RESTR.norm>
0

>  <SCORE.SYSTEM>
0

>  <SCORE.SYSTEM.CONST>
0

>  <SCORE.SYSTEM.DIHEDRAL>
0

>  <SCORE.SYSTEM.SOLV>
0

>  <SCORE.SYSTEM.norm>
0

>  <SCORE.heavy>
12

>  <SCORE.norm>
-0.392614

>  <RMSD>
22.045

$$$$
ligand
 OpenBabel02271912143D
libRbt.so/2013.1/901 2013/11/27
 12 12  0  0  0  0  0  0  0  0999 V2000
  -41.5392   -9.6645   87.9979 C   0  0  0  0  0  0  0  0  0  0  0  0
  -42.9265   -4.9877   85.4523 C   0  0  0  0  0  0  0  0  0  0  0  0
  -42.8312   -9.6598   85.6392 N   0  0  0  0  0  0  0  0  0  0  0  0
  -40.1955   -9.8994   87.4506 N   0  0  0  0  0  0  0  0  0  0  0  0
  -39.6671  -10.8109   87.8338 N   0  0  0  0  0  0  0  0  0  0  0  0
  -39.1348  -11.7207   88.2143 N   0  0  0  0  0  0  0  0  0  0  0  0
  -41.9683   -6.0967   87.3031 N   0  0  0  0  0  0  0  0  0  0  0  0
  -42.5953   -6.1600   86.1210 C   0  0  0  0  0  0  0  0  0  0  0  0
  -42.9687   -7.3398   85.6036 N   0  0  0  0  0  0  0  0  0  0  0  0
  -42.7132   -8.4863   86.2506 C   0  0  0  0  0  0  0  0  0  0  0  0
  -42.0565   -8.4854   87.4757 C   0  0  0  0  0  0  0  0  0  0  0  0
  -41.6841   -7.2634   88.0228 C   0  0  0  0  0  0  0  0  0  0  0  0
  1 11  1  0  0  0  0
  1  4  1  0  0  0  0
  2  8  1  0  0  0  0
  3 10  1  0  0  0  0
  4  5  1  0  0  0  0
  5  6  1  0  0  0  0
  7  8  2  0  0  0  0
  7 12  1  0  0  0  0
  8  9  1  0  0  0  0
  9 10  2  0  0  0  0
 10 11  1  0  0  0  0
 11 12  2  0  0  0  0
M  END
>  <CHROM.1>
85.29192033,177.97239194,-175.80239394,-41.66956204,-8.39848620,86.93664795
-0.81883941,-0.78390016,0.21407236

>  <Name>
ligand

>  <RI>
0

>  <Rbt.Current_Directory>
/home/itssahil/PROJECTS/Mol_Feturizer/Test_systems_manuscript/rnas/4nya

>  <Rbt.Executable>
rbdock ($Id: //depot/dev/client3/rdock/2013.1/src/exe/rbdock.cxx#4 $)

>  <Rbt.Library>
libRbt.so (2013.1, Build901 2013/11/27)

>  <Rbt.Parameter_File>
/export/apps/rDock/src/rDock_2013.1_src/data/scripts/dock_solv.prm

>  <Rbt.Receptor>
prm/blind_docking_100.prm

>  <SCORE>
-4.16497

>  <SCORE.INTER>
-3.27485

>  <SCORE.INTER.CONST>
1

>  <SCORE.INTER.POLAR>
0

>  <SCORE.INTER.ROT>
3

>  <SCORE.INTER.SOLV>
5.04352

>  <SCORE.INTER.VDW>
-9.4644

>  <SCORE.INTER.norm>
-0.272904

>  <SCORE.INTRA>
-0.890126

>  <SCORE.INTRA.DIHEDRAL>
-2.23702

>  <SCORE.INTRA.DIHEDRAL.0>
3.34563

>  <SCORE.INTRA.POLAR>
0

>  <SCORE.INTRA.POLAR.0>
0

>  <SCORE.INTRA.REPUL>
0

>  <SCORE.INTRA.REPUL.0>
0

>  <SCORE.INTRA.SOLV>
0.388806

>  <SCORE.INTRA.SOLV.lig_0>
-59.746

>  <SCORE.INTRA.VDW>
0.0339818

>  <SCORE.INTRA.VDW.0>
-0.691186

>  <SCORE.INTRA.norm>
-0.0741771

>  <SCORE.RESTR>
0

>  <SCORE.RESTR.CAVITY>
0

>  <SCORE.RESTR.norm>
0

>  <SCORE.SYSTEM>
0

>  <SCORE.SYSTEM.CONST>
0

>  <SCORE.SYSTEM.DIHEDRAL>
0

>  <SCORE.SYSTEM.SOLV>
0

>  <SCORE.SYSTEM.norm>
0

>  <SCORE.heavy>
12

>  <SCORE.norm>
-0.347081

>  <RMSD>
22.058

$$$$
ligand
 OpenBabel02271912143D
libRbt.so/2013.1/901 2013/11/27
 12 12  0  0  0  0  0  0  0  0999 V2000
  -43.4465   -9.4876   86.8203 C   0  0  0  0  0  0  0  0  0  0  0  0
  -39.3039  -12.1189   89.3088 C   0  0  0  0  0  0  0  0  0  0  0  0
  -42.5902  -11.8975   85.9885 N   0  0  0  0  0  0  0  0  0  0  0  0
  -43.1157   -8.3941   85.8954 N   0  0  0  0  0  0  0  0  0  0  0  0
  -43.9890   -7.8967   85.3988 N   0  0  0  0  0  0  0  0  0  0  0  0
  -44.8635   -7.4040   84.9003 N   0  0  0  0  0  0  0  0  0  0  0  0
  -40.6984  -10.2230   89.1231 N   0  0  0  0  0  0  0  0  0  0  0  0
  -40.3294  -11.4295   88.6729 C   0  0  0  0  0  0  0  0  0  0  0  0
  -40.8912  -11.9540   87.5737 N   0  0  0  0  0  0  0  0  0  0  0  0
  -41.8448  -11.2895   86.9048 C   0  0  0  0  0  0  0  0  0  0  0  0
  -42.2769  -10.0384   87.3293 C   0  0  0  0  0  0  0  0  0  0  0  0
  -41.6842   -9.4845   88.4577 C   0  0  0  0  0  0  0  0  0  0  0  0
  1 11  1  0  0  0  0
  1  4  1  0  0  0  0
  2  8  1  0  0  0  0
  3 10  1  0  0  0  0
  4  5  1  0  0  0  0
  5  6  1  0  0  0  0
  7  8  2  0  0  0  0
  7 12  1  0  0  0  0
  8  9  1  0  0  0  0
  9 10  2  0  0  0  0
 10 11  1  0  0  0  0
 11 12  2  0  0  0  0
M  END
>  <CHROM.1>
-106.98425295,178.14926121,-57.86427066,-42.09593052,-10.12630391,87.17934447
-2.84251603,0.85203243,-2.70195240

>  <Name>
ligand

>  <RI>
0

>  <Rbt.Current_Directory>
/home/itssahil/PROJECTS/Mol_Feturizer/Test_systems_manuscript/rnas/4nya

>  <Rbt.Executable>
rbdock ($Id: //depot/dev/client3/rdock/2013.1/src/exe/rbdock.cxx#4 $)

>  <Rbt.Library>
libRbt.so (2013.1, Build901 2013/11/27)

>  <Rbt.Parameter_File>
/export/apps/rDock/src/rDock_2013.1_src/data/scripts/dock_solv.prm

>  <Rbt.Receptor>
prm/blind_docking_100.prm

>  <SCORE>
-4.19615

>  <SCORE.INTER>
-3.46515

>  <SCORE.INTER.CONST>
1

>  <SCORE.INTER.POLAR>
0

>  <SCORE.INTER.ROT>
3

>  <SCORE.INTER.SOLV>
5.28345

>  <SCORE.INTER.VDW>
-9.67125

>  <SCORE.INTER.norm>
-0.288763

>  <SCORE.INTRA>
-0.730995

>  <SCORE.INTRA.DIHEDRAL>
-1.16004

>  <SCORE.INTRA.DIHEDRAL.0>
3.34563

>  <SCORE.INTRA.POLAR>
0

>  <SCORE.INTRA.POLAR.0>
0

>  <SCORE.INTRA.REPUL>
0

>  <SCORE.INTRA.REPUL.0>
0

>  <SCORE.INTRA.SOLV>
-0.515848

>  <SCORE.INTRA.SOLV.lig_0>
-59.746

>  <SCORE.INTRA.VDW>
0.106947

>  <SCORE.INTRA.VDW.0>
-0.691186

>  <SCORE.INTRA.norm>
-0.0609163

>  <SCORE.RESTR>
0

>  <SCORE.RESTR.CAVITY>
0

>  <SCORE.RESTR.norm>
0

>  <SCORE.SYSTEM>
0

>  <SCORE.SYSTEM.CONST>
0

>  <SCORE.SYSTEM.DIHEDRAL>
0

>  <SCORE.SYSTEM.SOLV>
0

>  <SCORE.SYSTEM.norm>
0

>  <SCORE.heavy>
12

>  <SCORE.norm>
-0.349679

>  <RMSD>
22.290

$$$$
ligand
 OpenBabel02271912143D
libRbt.so/2013.1/901 2013/11/27
 12 12  0  0  0  0  0  0  0  0999 V2000
  -43.5330   -9.6658   86.5536 C   0  0  0  0  0  0  0  0  0  0  0  0
  -39.4752  -12.1064   89.3562 C   0  0  0  0  0  0  0  0  0  0  0  0
  -42.4945  -12.0246   85.7855 N   0  0  0  0  0  0  0  0  0  0  0  0
  -43.3370   -8.2523   86.2011 N   0  0  0  0  0  0  0  0  0  0  0  0
  -44.1695   -7.7761   85.6208 N   0  0  0  0  0  0  0  0  0  0  0  0
  -45.0014   -7.3037   85.0370 N   0  0  0  0  0  0  0  0  0  0  0  0
  -40.9431  -10.2804   89.0656 N   0  0  0  0  0  0  0  0  0  0  0  0
  -40.4800  -11.4640   88.6427 C   0  0  0  0  0  0  0  0  0  0  0  0
  -40.9260  -12.0081   87.5007 N   0  0  0  0  0  0  0  0  0  0  0  0
  -41.8554  -11.3869   86.7600 C   0  0  0  0  0  0  0  0  0  0  0  0
  -42.3816  -10.1616   87.1524 C   0  0  0  0  0  0  0  0  0  0  0  0
  -41.9085   -9.5870   88.3260 C   0  0  0  0  0  0  0  0  0  0  0  0
  1 11  1  0  0  0  0
  1  4  1  0  0  0  0
  2  8  1  0  0  0  0
  3 10  1  0  0  0  0
  4  5  1  0  0  0  0
  5  6  1  0  0  0  0
  7  8  2  0  0  0  0
  7 12  1  0  0  0  0
  8  9  1  0  0  0  0
  9 10  2  0  0  0  0
 10 11  1  0  0  0  0
 11 12  2  0  0  0  0
M  END
>  <CHROM.1>
-133.52358050,174.30978894,-56.26044608,-42.21886703,-10.15651848,87.15327189
2.87343837,-0.85770638,0.54098045

>  <Name>
ligand

>  <RI>
0

>  <Rbt.Current_Directory>
/home/itssahil/PROJECTS/Mol_Feturizer/Test_systems_manuscript/rnas/4nya

>  <Rbt.Executable>
rbdock ($Id: //depot/dev/client3/rdock/2013.1/src/exe/rbdock.cxx#4 $)

>  <Rbt.Library>
libRbt.so (2013.1, Build901 2013/11/27)

>  <Rbt.Parameter_File>
/export/apps/rDock/src/rDock_2013.1_src/data/scripts/dock_solv.prm

>  <Rbt.Receptor>
prm/blind_docking_100.prm

>  <SCORE>
-4.62696

>  <SCORE.INTER>
-3.38953

>  <SCORE.INTER.CONST>
1

>  <SCORE.INTER.POLAR>
0

>  <SCORE.INTER.ROT>
3

>  <SCORE.INTER.SOLV>
5.94073

>  <SCORE.INTER.VDW>
-9.83993

>  <SCORE.INTER.norm>
-0.282461

>  <SCORE.INTRA>
-1.23743

>  <SCORE.INTRA.DIHEDRAL>
-1.83731

>  <SCORE.INTRA.DIHEDRAL.0>
3.34563

>  <SCORE.INTRA.POLAR>
0

>  <SCORE.INTRA.POLAR.0>
0

>  <SCORE.INTRA.REPUL>
0

>  <SCORE.INTRA.REPUL.0>
0

>  <SCORE.INTRA.SOLV>
-1.12681

>  <SCORE.INTRA.SOLV.lig_0>
-59.746

>  <SCORE.INTRA.VDW>
0.244626

>  <SCORE.INTRA.VDW.0>
-0.691186

>  <SCORE.INTRA.norm>
-0.103119

>  <SCORE.RESTR>
0

>  <SCORE.RESTR.CAVITY>
0

>  <SCORE.RESTR.norm>
0

>  <SCORE.SYSTEM>
0

>  <SCORE.SYSTEM.CONST>
0

>  <SCORE.SYSTEM.DIHEDRAL>
0

>  <SCORE.SYSTEM.SOLV>
0

>  <SCORE.SYSTEM.norm>
0

>  <SCORE.heavy>
12

>  <SCORE.norm>
-0.38558

>  <RMSD>
22.414

$$$$
ligand
 OpenBabel02271912143D
libRbt.so/2013.1/901 2013/11/27
 12 12  0  0  0  0  0  0  0  0999 V2000
  -43.2995   -6.6663   86.1939 C   0  0  0  0  0  0  0  0  0  0  0  0
  -41.1031   -1.8276   84.7656 C   0  0  0  0  0  0  0  0  0  0  0  0
  -44.0980   -5.3366   83.9969 N   0  0  0  0  0  0  0  0  0  0  0  0
  -42.1299   -7.5521   86.2829 N   0  0  0  0  0  0  0  0  0  0  0  0
  -42.3224   -8.5698   86.7118 N   0  0  0  0  0  0  0  0  0  0  0  0
  -42.5166   -9.5850   87.1449 N   0  0  0  0  0  0  0  0  0  0  0  0
  -41.2408   -3.6412   86.2708 N   0  0  0  0  0  0  0  0  0  0  0  0
  -41.6683   -3.0360   85.1548 C   0  0  0  0  0  0  0  0  0  0  0  0
  -42.6829   -3.5470   84.4417 N   0  0  0  0  0  0  0  0  0  0  0  0
  -43.2868   -4.6827   84.8211 C   0  0  0  0  0  0  0  0  0  0  0  0
  -42.8807   -5.3617   85.9640 C   0  0  0  0  0  0  0  0  0  0  0  0
  -41.8414   -4.8252   86.7147 C   0  0  0  0  0  0  0  0  0  0  0  0
  1 11  1  0  0  0  0
  1  4  1  0  0  0  0
  2  8  1  0  0  0  0
  3 10  1  0  0  0  0
  4  5  1  0  0  0  0
  5  6  1  0  0  0  0
  7  8  2  0  0  0  0
  7 12  1  0  0  0  0
  8  9  1  0  0  0  0
  9 10  2  0  0  0  0
 10 11  1  0  0  0  0
 11 12  2  0  0  0  0
M  END
>  <CHROM.1>
120.02438085,165.54034954,-59.27572299,-42.41438478,-5.40846313,85.70137485
1.73119823,0.68744549,2.73939169

>  <Name>
ligand

>  <RI>
0

>  <Rbt.Current_Directory>
/home/itssahil/PROJECTS/Mol_Feturizer/Test_systems_manuscript/rnas/4nya

>  <Rbt.Executable>
rbdock ($Id: //depot/dev/client3/rdock/2013.1/src/exe/rbdock.cxx#4 $)

>  <Rbt.Library>
libRbt.so (2013.1, Build901 2013/11/27)

>  <Rbt.Parameter_File>
/export/apps/rDock/src/rDock_2013.1_src/data/scripts/dock_solv.prm

>  <Rbt.Receptor>
prm/blind_docking_100.prm

>  <SCORE>
-3.83442

>  <SCORE.INTER>
-3.10312

>  <SCORE.INTER.CONST>
1

>  <SCORE.INTER.POLAR>
0

>  <SCORE.INTER.ROT>
3

>  <SCORE.INTER.SOLV>
6.44967

>  <SCORE.INTER.VDW>
-9.81864

>  <SCORE.INTER.norm>
-0.258593

>  <SCORE.INTRA>
-0.73205

>  <SCORE.INTRA.DIHEDRAL>
-1.2986

>  <SCORE.INTRA.DIHEDRAL.0>
3.34563

>  <SCORE.INTRA.POLAR>
0

>  <SCORE.INTRA.POLAR.0>
0

>  <SCORE.INTRA.REPUL>
0

>  <SCORE.INTRA.REPUL.0>
0

>  <SCORE.INTRA.SOLV>
-0.771925

>  <SCORE.INTRA.SOLV.lig_0>
-59.746

>  <SCORE.INTRA.VDW>
0.30321

>  <SCORE.INTRA.VDW.0>
-0.691186

>  <SCORE.INTRA.norm>
-0.0610042

>  <SCORE.RESTR>
0.000752245

>  <SCORE.RESTR.CAVITY>
0.000752245

>  <SCORE.RESTR.norm>
6.26871e-05

>  <SCORE.SYSTEM>
0

>  <SCORE.SYSTEM.CONST>
0

>  <SCORE.SYSTEM.DIHEDRAL>
0

>  <SCORE.SYSTEM.SOLV>
0

>  <SCORE.SYSTEM.norm>
0

>  <SCORE.heavy>
12

>  <SCORE.norm>
-0.319535

>  <RMSD>
23.537

$$$$
ligand
 OpenBabel02271912143D
libRbt.so/2013.1/901 2013/11/27
 12 12  0  0  0  0  0  0  0  0999 V2000
  -43.2886   -4.4688   85.8594 C   0  0  0  0  0  0  0  0  0  0  0  0
  -41.4529   -9.2025   87.9806 C   0  0  0  0  0  0  0  0  0  0  0  0
  -43.4333   -6.7853   84.5010 N   0  0  0  0  0  0  0  0  0  0  0  0
  -42.2973   -3.4340   85.5320 N   0  0  0  0  0  0  0  0  0  0  0  0
  -42.6981   -2.5230   85.0161 N   0  0  0  0  0  0  0  0  0  0  0  0
  -43.0941   -1.6104   84.4998 N   0  0  0  0  0  0  0  0  0  0  0  0
  -41.7694   -6.8703   88.1660 N   0  0  0  0  0  0  0  0  0  0  0  0
  -41.8857   -7.9946   87.4470 C   0  0  0  0  0  0  0  0  0  0  0  0
  -42.3534   -7.9611   86.1903 N   0  0  0  0  0  0  0  0  0  0  0  0
  -42.7276   -6.8034   85.6264 C   0  0  0  0  0  0  0  0  0  0  0  0
  -42.6401   -5.6055   86.3260 C   0  0  0  0  0  0  0  0  0  0  0  0
  -42.1392   -5.6346   87.6221 C   0  0  0  0  0  0  0  0  0  0  0  0
  1 11  1  0  0  0  0
  1  4  1  0  0  0  0
  2  8  1  0  0  0  0
  3 10  1  0  0  0  0
  4  5  1  0  0  0  0
  5  6  1  0  0  0  0
  7  8  2  0  0  0  0
  7 12  1  0  0  0  0
  8  9  1  0  0  0  0
  9 10  2  0  0  0  0
 10 11  1  0  0  0  0
 11 12  2  0  0  0  0
M  END
>  <CHROM.1>
-116.85122206,172.06240627,-175.33688269,-42.48178563,-5.72497180,86.21568550
1.96978218,-1.13960222,-0.04651661

>  <Name>
ligand

>  <RI>
0

>  <Rbt.Current_Directory>
/home/itssahil/PROJECTS/Mol_Feturizer/Test_systems_manuscript/rnas/4nya

>  <Rbt.Executable>
rbdock ($Id: //depot/dev/client3/rdock/2013.1/src/exe/rbdock.cxx#4 $)

>  <Rbt.Library>
libRbt.so (2013.1, Build901 2013/11/27)

>  <Rbt.Parameter_File>
/export/apps/rDock/src/rDock_2013.1_src/data/scripts/dock_solv.prm

>  <Rbt.Receptor>
prm/blind_docking_100.prm

>  <SCORE>
-6.08836

>  <SCORE.INTER>
-5.1593

>  <SCORE.INTER.CONST>
1

>  <SCORE.INTER.POLAR>
0

>  <SCORE.INTER.ROT>
3

>  <SCORE.INTER.SOLV>
5.44191

>  <SCORE.INTER.VDW>
-10.8535

>  <SCORE.INTER.norm>
-0.429942

>  <SCORE.INTRA>
-0.929057

>  <SCORE.INTRA.DIHEDRAL>
-1.31934

>  <SCORE.INTRA.DIHEDRAL.0>
3.34563

>  <SCORE.INTRA.POLAR>
0

>  <SCORE.INTRA.POLAR.0>
0

>  <SCORE.INTRA.REPUL>
0

>  <SCORE.INTRA.REPUL.0>
0

>  <SCORE.INTRA.SOLV>
-0.817271

>  <SCORE.INTRA.SOLV.lig_0>
-59.746

>  <SCORE.INTRA.VDW>
0.139249

>  <SCORE.INTRA.VDW.0>
-0.691186

>  <SCORE.INTRA.norm>
-0.0774214

>  <SCORE.RESTR>
0

>  <SCORE.RESTR.CAVITY>
0

>  <SCORE.RESTR.norm>
0

>  <SCORE.SYSTEM>
0

>  <SCORE.SYSTEM.CONST>
0

>  <SCORE.SYSTEM.DIHEDRAL>
0

>  <SCORE.SYSTEM.SOLV>
0

>  <SCORE.SYSTEM.norm>
0

>  <SCORE.heavy>
12

>  <SCORE.norm>
-0.507363

>  <RMSD>
23.566

$$$$
ligand
 OpenBabel02271912143D
libRbt.so/2013.1/901 2013/11/27
 12 12  0  0  0  0  0  0  0  0999 V2000
  -30.7159   -3.3880   71.3433 C   0  0  0  0  0  0  0  0  0  0  0  0
  -25.4585   -1.8482   71.8591 C   0  0  0  0  0  0  0  0  0  0  0  0
  -28.7324   -5.1806   71.6357 N   0  0  0  0  0  0  0  0  0  0  0  0
  -31.1551   -3.3786   72.7460 N   0  0  0  0  0  0  0  0  0  0  0  0
  -30.3790   -3.6713   73.5002 N   0  0  0  0  0  0  0  0  0  0  0  0
  -29.6066   -3.9632   74.2579 N   0  0  0  0  0  0  0  0  0  0  0  0
  -27.7281   -1.2831   71.5382 N   0  0  0  0  0  0  0  0  0  0  0  0
  -26.7871   -2.2228   71.6988 C   0  0  0  0  0  0  0  0  0  0  0  0
  -27.1002   -3.5258   71.6401 N   0  0  0  0  0  0  0  0  0  0  0  0
  -28.3647   -3.9205   71.4312 C   0  0  0  0  0  0  0  0  0  0  0  0
  -29.3863   -2.9921   71.2677 C   0  0  0  0  0  0  0  0  0  0  0  0
  -29.0621   -1.6414   71.3104 C   0  0  0  0  0  0  0  0  0  0  0  0
  1 11  1  0  0  0  0
  1  4  1  0  0  0  0
  2  8  1  0  0  0  0
  3 10  1  0  0  0  0
  4  5  1  0  0  0  0
  5  6  1  0  0  0  0
  7  8  2  0  0  0  0
  7 12  1  0  0  0  0
  8  9  1  0  0  0  0
  9 10  2  0  0  0  0
 10 11  1  0  0  0  0
 11 12  2  0  0  0  0
M  END
>  <CHROM.1>
85.86112753,-34.76957587,-178.42417912,-28.70105591,-3.09613792,72.04727857
2.67442082,-0.08520013,2.70690312

>  <Name>
ligand

>  <RI>
0

>  <Rbt.Current_Directory>
/home/itssahil/PROJECTS/Mol_Feturizer/Test_systems_manuscript/rnas/4nya

>  <Rbt.Executable>
rbdock ($Id: //depot/dev/client3/rdock/2013.1/src/exe/rbdock.cxx#4 $)

>  <Rbt.Library>
libRbt.so (2013.1, Build901 2013/11/27)

>  <Rbt.Parameter_File>
/export/apps/rDock/src/rDock_2013.1_src/data/scripts/dock_solv.prm

>  <Rbt.Receptor>
prm/blind_docking_80.prm

>  <SCORE>
2.28958

>  <SCORE.INTER>
-1.23112

>  <SCORE.INTER.CONST>
1

>  <SCORE.INTER.POLAR>
0

>  <SCORE.INTER.ROT>
3

>  <SCORE.INTER.SOLV>
13.1021

>  <SCORE.INTER.VDW>
-10.7881

>  <SCORE.INTER.norm>
-0.102594

>  <SCORE.INTRA>
3.14039

>  <SCORE.INTRA.DIHEDRAL>
-1.79069

>  <SCORE.INTRA.DIHEDRAL.0>
3.34563

>  <SCORE.INTRA.POLAR>
0

>  <SCORE.INTRA.POLAR.0>
0

>  <SCORE.INTRA.REPUL>
0

>  <SCORE.INTRA.REPUL.0>
0

>  <SCORE.INTRA.SOLV>
6.88907

>  <SCORE.INTRA.SOLV.lig_0>
-59.746

>  <SCORE.INTRA.VDW>
0.591201

>  <SCORE.INTRA.VDW.0>
-0.691186

>  <SCORE.INTRA.norm>
0.261699

>  <SCORE.RESTR>
0.380314

>  <SCORE.RESTR.CAVITY>
0.380314

>  <SCORE.RESTR.norm>
0.0316928

>  <SCORE.SYSTEM>
0

>  <SCORE.SYSTEM.CONST>
0

>  <SCORE.SYSTEM.DIHEDRAL>
0

>  <SCORE.SYSTEM.SOLV>
0

>  <SCORE.SYSTEM.norm>
0

>  <SCORE.heavy>
12

>  <SCORE.norm>
0.190798

>  <RMSD>
25.609

$$$$
ligand
 OpenBabel02271912143D
libRbt.so/2013.1/901 2013/11/27
 12 12  0  0  0  0  0  0  0  0999 V2000
  -30.6690   -3.8056   72.5998 C   0  0  0  0  0  0  0  0  0  0  0  0
  -25.6302   -1.6344   72.1834 C   0  0  0  0  0  0  0  0  0  0  0  0
  -28.6621   -4.5497   74.2282 N   0  0  0  0  0  0  0  0  0  0  0  0
  -31.4919   -3.5954   71.4002 N   0  0  0  0  0  0  0  0  0  0  0  0
  -31.7442   -2.5288   71.1647 N   0  0  0  0  0  0  0  0  0  0  0  0
  -31.9985   -1.4620   70.9339 N   0  0  0  0  0  0  0  0  0  0  0  0
  -27.8533   -1.7955   71.4052 N   0  0  0  0  0  0  0  0  0  0  0  0
  -26.8999   -2.1944   72.2575 C   0  0  0  0  0  0  0  0  0  0  0  0
  -27.1344   -3.1769   73.1400 N   0  0  0  0  0  0  0  0  0  0  0  0
  -28.3325   -3.7762   73.1996 C   0  0  0  0  0  0  0  0  0  0  0  0
  -29.3645   -3.3987   72.3483 C   0  0  0  0  0  0  0  0  0  0  0  0
  -29.1191   -2.3932   71.4209 C   0  0  0  0  0  0  0  0  0  0  0  0
  1 11  1  0  0  0  0
  1  4  1  0  0  0  0
  2  8  1  0  0  0  0
  3 10  1  0  0  0  0
  4  5  1  0  0  0  0
  5  6  1  0  0  0  0
  7  8  2  0  0  0  0
  7 12  1  0  0  0  0
  8  9  1  0  0  0  0
  9 10  2  0  0  0  0
 10 11  1  0  0  0  0
 11 12  2  0  0  0  0
M  END
>  <CHROM.1>
-164.92282080,-72.79191708,-56.95860550,-29.08518413,-2.84749032,72.18438506
3.01262193,-0.21399761,-0.72100524

>  <Name>
ligand

>  <RI>
0

>  <Rbt.Current_Directory>
/home/itssahil/PROJECTS/Mol_Feturizer/Test_systems_manuscript/rnas/4nya

>  <Rbt.Executable>
rbdock ($Id: //depot/dev/client3/rdock/2013.1/src/exe/rbdock.cxx#4 $)

>  <Rbt.Library>
libRbt.so (2013.1, Build901 2013/11/27)

>  <Rbt.Parameter_File>
/export/apps/rDock/src/rDock_2013.1_src/data/scripts/dock_solv.prm

>  <Rbt.Receptor>
prm/blind_docking_80.prm

>  <SCORE>
1.61466

>  <SCORE.INTER>
0.706229

>  <SCORE.INTER.CONST>
1

>  <SCORE.INTER.POLAR>
0

>  <SCORE.INTER.ROT>
3

>  <SCORE.INTER.SOLV>
10.7794

>  <SCORE.INTER.VDW>
-8.7223

>  <SCORE.INTER.norm>
0.0588524

>  <SCORE.INTRA>
0.446928

>  <SCORE.INTRA.DIHEDRAL>
-2.0641

>  <SCORE.INTRA.DIHEDRAL.0>
3.34563

>  <SCORE.INTRA.POLAR>
0

>  <SCORE.INTRA.POLAR.0>
0

>  <SCORE.INTRA.REPUL>
0

>  <SCORE.INTRA.REPUL.0>
0

>  <SCORE.INTRA.SOLV>
0.36619

>  <SCORE.INTRA.SOLV.lig_0>
-59.746

>  <SCORE.INTRA.VDW>
1.29588

>  <SCORE.INTRA.VDW.0>
-0.691186

>  <SCORE.INTRA.norm>
0.037244

>  <SCORE.RESTR>
0.461507

>  <SCORE.RESTR.CAVITY>
0.461507

>  <SCORE.RESTR.norm>
0.0384589

>  <SCORE.SYSTEM>
0

>  <SCORE.SYSTEM.CONST>
0

>  <SCORE.SYSTEM.DIHEDRAL>
0

>  <SCORE.SYSTEM.SOLV>
0

>  <SCORE.SYSTEM.norm>
0

>  <SCORE.heavy>
12

>  <SCORE.norm>
0.134555

>  <RMSD>
25.612

$$$$
ligand
 OpenBabel02271912143D
libRbt.so/2013.1/901 2013/11/27
 12 12  0  0  0  0  0  0  0  0999 V2000
  -30.6834   -4.5112   72.3645 C   0  0  0  0  0  0  0  0  0  0  0  0
  -25.7966   -1.9915   72.1470 C   0  0  0  0  0  0  0  0  0  0  0  0
  -30.0678   -2.4615   73.9933 N   0  0  0  0  0  0  0  0  0  0  0  0
  -31.3357   -4.0065   71.1479 N   0  0  0  0  0  0  0  0  0  0  0  0
  -31.4958   -2.8977   71.1066 N   0  0  0  0  0  0  0  0  0  0  0  0
  -31.6579   -1.7897   71.0606 N   0  0  0  0  0  0  0  0  0  0  0  0
  -27.2558   -3.6833   71.3840 N   0  0  0  0  0  0  0  0  0  0  0  0
  -27.0153   -2.6563   72.2097 C   0  0  0  0  0  0  0  0  0  0  0  0
  -27.9100   -2.3020   73.1442 N   0  0  0  0  0  0  0  0  0  0  0  0
  -29.0725   -2.9590   73.2674 C   0  0  0  0  0  0  0  0  0  0  0  0
  -29.3832   -4.0262   72.4327 C   0  0  0  0  0  0  0  0  0  0  0  0
  -28.4507   -4.4069   71.4752 C   0  0  0  0  0  0  0  0  0  0  0  0
  1 11  1  0  0  0  0
  1  4  1  0  0  0  0
  2  8  1  0  0  0  0
  3 10  1  0  0  0  0
  4  5  1  0  0  0  0
  5  6  1  0  0  0  0
  7  8  2  0  0  0  0
  7 12  1  0  0  0  0
  8  9  1  0  0  0  0
  9 10  2  0  0  0  0
 10 11  1  0  0  0  0
 11 12  2  0  0  0  0
M  END
>  <CHROM.1>
101.53207055,-65.23995492,178.28923426,-29.19018160,-3.11542598,72.13445942
-2.94386503,-0.02212019,0.77268802

>  <Name>
ligand

>  <RI>
0

>  <Rbt.Current_Directory>
/home/itssahil/PROJECTS/Mol_Feturizer/Test_systems_manuscript/rnas/4nya

>  <Rbt.Executable>
rbdock ($Id: //depot/dev/client3/rdock/2013.1/src/exe/rbdock.cxx#4 $)

>  <Rbt.Library>
libRbt.so (2013.1, Build901 2013/11/27)

>  <Rbt.Parameter_File>
/export/apps/rDock/src/rDock_2013.1_src/data/scripts/dock_solv.prm

>  <Rbt.Receptor>
prm/blind_docking_80.prm

>  <SCORE>
-0.134302

>  <SCORE.INTER>
-1.18251

>  <SCORE.INTER.CONST>
1

>  <SCORE.INTER.POLAR>
0

>  <SCORE.INTER.ROT>
3

>  <SCORE.INTER.SOLV>
8.27957

>  <SCORE.INTER.VDW>
-9.1482

>  <SCORE.INTER.norm>
-0.0985428

>  <SCORE.INTRA>
1.02315

>  <SCORE.INTRA.DIHEDRAL>
-1.97759

>  <SCORE.INTRA.DIHEDRAL.0>
3.34563

>  <SCORE.INTRA.POLAR>
0

>  <SCORE.INTRA.POLAR.0>
0

>  <SCORE.INTRA.REPUL>
0

>  <SCORE.INTRA.REPUL.0>
0

>  <SCORE.INTRA.SOLV>
4.23999

>  <SCORE.INTRA.SOLV.lig_0>
-59.746

>  <SCORE.INTRA.VDW>
-0.10805

>  <SCORE.INTRA.VDW.0>
-0.691186

>  <SCORE.INTRA.norm>
0.0852621

>  <SCORE.RESTR>
0.0250659

>  <SCORE.RESTR.CAVITY>
0.0250659

>  <SCORE.RESTR.norm>
0.00208883

>  <SCORE.SYSTEM>
0

>  <SCORE.SYSTEM.CONST>
0

>  <SCORE.SYSTEM.DIHEDRAL>
0

>  <SCORE.SYSTEM.SOLV>
0

>  <SCORE.SYSTEM.norm>
0

>  <SCORE.heavy>
12

>  <SCORE.norm>
-0.0111919

>  <RMSD>
25.646

$$$$
ligand
 OpenBabel02271912143D
libRbt.so/2013.1/901 2013/11/27
 12 12  0  0  0  0  0  0  0  0999 V2000
  -30.8158   -3.6431   72.9941 C   0  0  0  0  0  0  0  0  0  0  0  0
  -25.6869   -2.1420   71.6833 C   0  0  0  0  0  0  0  0  0  0  0  0
  -29.6830   -1.4229   74.0043 N   0  0  0  0  0  0  0  0  0  0  0  0
  -31.5994   -2.5015   72.5007 N   0  0  0  0  0  0  0  0  0  0  0  0
  -31.5979   -2.3551   71.3893 N   0  0  0  0  0  0  0  0  0  0  0  0
  -31.5985   -2.2134   70.2776 N   0  0  0  0  0  0  0  0  0  0  0  0
  -27.4726   -3.6759   71.5050 N   0  0  0  0  0  0  0  0  0  0  0  0
  -26.9703   -2.5493   72.0273 C   0  0  0  0  0  0  0  0  0  0  0  0
  -27.6642   -1.8421   72.9314 N   0  0  0  0  0  0  0  0  0  0  0  0
  -28.8830   -2.2384   73.3262 C   0  0  0  0  0  0  0  0  0  0  0  0
  -29.4613   -3.3931   72.8122 C   0  0  0  0  0  0  0  0  0  0  0  0
  -28.7374   -4.1375   71.8885 C   0  0  0  0  0  0  0  0  0  0  0  0
  1 11  1  0  0  0  0
  1  4  1  0  0  0  0
  2  8  1  0  0  0  0
  3 10  1  0  0  0  0
  4  5  1  0  0  0  0
  5  6  1  0  0  0  0
  7  8  2  0  0  0  0
  7 12  1  0  0  0  0
  8  9  1  0  0  0  0
  9 10  2  0  0  0  0
 10 11  1  0  0  0  0
 11 12  2  0  0  0  0
M  END
>  <CHROM.1>
54.67616170,69.27965505,60.24456124,-29.19185061,-2.65292440,72.26296907
3.09956878,0.00953343,-1.95258032

>  <Name>
ligand

>  <RI>
0

>  <Rbt.Current_Directory>
/home/itssahil/PROJECTS/Mol_Feturizer/Test_systems_manuscript/rnas/4nya

>  <Rbt.Executable>
rbdock ($Id: //depot/dev/client3/rdock/2013.1/src/exe/rbdock.cxx#4 $)

>  <Rbt.Library>
libRbt.so (2013.1, Build901 2013/11/27)

>  <Rbt.Parameter_File>
/export/apps/rDock/src/rDock_2013.1_src/data/scripts/dock_solv.prm

>  <Rbt.Receptor>
prm/blind_docking_80.prm

>  <SCORE>
1.24557

>  <SCORE.INTER>
-0.0601962

>  <SCORE.INTER.CONST>
1

>  <SCORE.INTER.POLAR>
0

>  <SCORE.INTER.ROT>
3

>  <SCORE.INTER.SOLV>
7.32373

>  <SCORE.INTER.VDW>
-8.08138

>  <SCORE.INTER.norm>
-0.00501635

>  <SCORE.INTRA>
1.11463

>  <SCORE.INTRA.DIHEDRAL>
-1.64021

>  <SCORE.INTRA.DIHEDRAL.0>
3.34563

>  <SCORE.INTRA.POLAR>
0

>  <SCORE.INTRA.POLAR.0>
0

>  <SCORE.INTRA.REPUL>
0

>  <SCORE.INTRA.REPUL.0>
0

>  <SCORE.INTRA.SOLV>
3.48275

>  <SCORE.INTRA.SOLV.lig_0>
-59.746

>  <SCORE.INTRA.VDW>
0.193359

>  <SCORE.INTRA.VDW.0>
-0.691186

>  <SCORE.INTRA.norm>
0.0928855

>  <SCORE.RESTR>
0.191144

>  <SCORE.RESTR.CAVITY>
0.191144

>  <SCORE.RESTR.norm>
0.0159287

>  <SCORE.SYSTEM>
0

>  <SCORE.SYSTEM.CONST>
0

>  <SCORE.SYSTEM.DIHEDRAL>
0

>  <SCORE.SYSTEM.SOLV>
0

>  <SCORE.SYSTEM.norm>
0

>  <SCORE.heavy>
12

>  <SCORE.norm>
0.103798

>  <RMSD>
25.665

$$$$
ligand
 OpenBabel02271912143D
libRbt.so/2013.1/901 2013/11/27
 12 12  0  0  0  0  0  0  0  0999 V2000
  -30.8621   -3.1849   71.6999 C   0  0  0  0  0  0  0  0  0  0  0  0
  -25.4648   -2.1172   71.6203 C   0  0  0  0  0  0  0  0  0  0  0  0
  -29.0302   -5.0832   72.2228 N   0  0  0  0  0  0  0  0  0  0  0  0
  -31.1872   -2.9048   73.1058 N   0  0  0  0  0  0  0  0  0  0  0  0
  -30.6265   -2.0546   73.5742 N   0  0  0  0  0  0  0  0  0  0  0  0
  -30.0616   -1.2070   74.0416 N   0  0  0  0  0  0  0  0  0  0  0  0
  -27.6923   -1.3946   71.3215 N   0  0  0  0  0  0  0  0  0  0  0  0
  -26.8296   -2.3784   71.6082 C   0  0  0  0  0  0  0  0  0  0  0  0
  -27.2611   -3.6309   71.8188 N   0  0  0  0  0  0  0  0  0  0  0  0
  -28.5676   -3.9273   71.7596 C   0  0  0  0  0  0  0  0  0  0  0  0
  -29.5116   -2.9469   71.4767 C   0  0  0  0  0  0  0  0  0  0  0  0
  -29.0660   -1.6519   71.2405 C   0  0  0  0  0  0  0  0  0  0  0  0
  1 11  1  0  0  0  0
  1  4  1  0  0  0  0
  2  8  1  0  0  0  0
  3 10  1  0  0  0  0
  4  5  1  0  0  0  0
  5  6  1  0  0  0  0
  7  8  2  0  0  0  0
  7 12  1  0  0  0  0
  8  9  1  0  0  0  0
  9 10  2  0  0  0  0
 10 11  1  0  0  0  0
 11 12  2  0  0  0  0
M  END
>  <CHROM.1>
84.32141435,35.07733074,-60.67912172,-28.84286795,-2.70214269,72.15076588
3.07118937,0.33045263,0.28051913

>  <Name>
ligand

>  <RI>
0

>  <Rbt.Current_Directory>
/home/itssahil/PROJECTS/Mol_Feturizer/Test_systems_manuscript/rnas/4nya

>  <Rbt.Executable>
rbdock ($Id: //depot/dev/client3/rdock/2013.1/src/exe/rbdock.cxx#4 $)

>  <Rbt.Library>
libRbt.so (2013.1, Build901 2013/11/27)

>  <Rbt.Parameter_File>
/export/apps/rDock/src/rDock_2013.1_src/data/scripts/dock_solv.prm

>  <Rbt.Receptor>
prm/blind_docking_80.prm

>  <SCORE>
0.557478

>  <SCORE.INTER>
-1.24543

>  <SCORE.INTER.CONST>
1

>  <SCORE.INTER.POLAR>
0

>  <SCORE.INTER.ROT>
3

>  <SCORE.INTER.SOLV>
10.5836

>  <SCORE.INTER.VDW>
-9.95816

>  <SCORE.INTER.norm>
-0.103786

>  <SCORE.INTRA>
1.71561

>  <SCORE.INTRA.DIHEDRAL>
-1.80516

>  <SCORE.INTRA.DIHEDRAL.0>
3.34563

>  <SCORE.INTRA.POLAR>
0

>  <SCORE.INTRA.POLAR.0>
0

>  <SCORE.INTRA.REPUL>
0

>  <SCORE.INTRA.REPUL.0>
0

>  <SCORE.INTRA.SOLV>
3.71068

>  <SCORE.INTRA.SOLV.lig_0>
-59.746

>  <SCORE.INTRA.VDW>
0.762845

>  <SCORE.INTRA.VDW.0>
-0.691186

>  <SCORE.INTRA.norm>
0.142967

>  <SCORE.RESTR>
0.0873063

>  <SCORE.RESTR.CAVITY>
0.0873063

>  <SCORE.RESTR.norm>
0.00727552

>  <SCORE.SYSTEM>
0

>  <SCORE.SYSTEM.CONST>
0

>  <SCORE.SYSTEM.DIHEDRAL>
0

>  <SCORE.SYSTEM.SOLV>
0

>  <SCORE.SYSTEM.norm>
0

>  <SCORE.heavy>
12

>  <SCORE.norm>
0.0464565

>  <RMSD>
25.686

$$$$
ligand
 OpenBabel02271912143D
libRbt.so/2013.1/901 2013/11/27
 12 12  0  0  0  0  0  0  0  0999 V2000
  -30.8338   -3.1521   71.6845 C   0  0  0  0  0  0  0  0  0  0  0  0
  -25.4281   -2.1273   71.6118 C   0  0  0  0  0  0  0  0  0  0  0  0
  -29.0159   -5.0792   72.1476 N   0  0  0  0  0  0  0  0  0  0  0  0
  -31.1506   -2.9103   73.0994 N   0  0  0  0  0  0  0  0  0  0  0  0
  -30.5875   -2.0726   73.5872 N   0  0  0  0  0  0  0  0  0  0  0  0
  -30.0270   -1.2361   74.0792 N   0  0  0  0  0  0  0  0  0  0  0  0
  -27.6507   -1.3784   71.3422 N   0  0  0  0  0  0  0  0  0  0  0  0
  -26.7951   -2.3768   71.5983 C   0  0  0  0  0  0  0  0  0  0  0  0
  -27.2362   -3.6309   71.7762 N   0  0  0  0  0  0  0  0  0  0  0  0
  -28.5454   -3.9148   71.7143 C   0  0  0  0  0  0  0  0  0  0  0  0
  -29.4822   -2.9193   71.4623 C   0  0  0  0  0  0  0  0  0  0  0  0
  -29.0268   -1.6220   71.2599 C   0  0  0  0  0  0  0  0  0  0  0  0
  1 11  1  0  0  0  0
  1  4  1  0  0  0  0
  2  8  1  0  0  0  0
  3 10  1  0  0  0  0
  4  5  1  0  0  0  0
  5  6  1  0  0  0  0
  7  8  2  0  0  0  0
  7 12  1  0  0  0  0
  8  9  1  0  0  0  0
  9 10  2  0  0  0  0
 10 11  1  0  0  0  0
 11 12  2  0  0  0  0
M  END
>  <CHROM.1>
84.22208285,35.62785161,179.92369723,-28.81105566,-2.69771008,72.14027596
3.05940101,0.33207913,0.31038928

>  <Name>
ligand

>  <RI>
0

>  <Rbt.Current_Directory>
/home/itssahil/PROJECTS/Mol_Feturizer/Test_systems_manuscript/rnas/4nya

>  <Rbt.Executable>
rbdock ($Id: //depot/dev/client3/rdock/2013.1/src/exe/rbdock.cxx#4 $)

>  <Rbt.Library>
libRbt.so (2013.1, Build901 2013/11/27)

>  <Rbt.Parameter_File>
/export/apps/rDock/src/rDock_2013.1_src/data/scripts/dock_solv.prm

>  <Rbt.Receptor>
prm/blind_docking_80.prm

>  <SCORE>
0.719334

>  <SCORE.INTER>
-0.994808

>  <SCORE.INTER.CONST>
1

>  <SCORE.INTER.POLAR>
0

>  <SCORE.INTER.ROT>
3

>  <SCORE.INTER.SOLV>
10.806

>  <SCORE.INTER.VDW>
-9.86519

>  <SCORE.INTER.norm>
-0.0829007

>  <SCORE.INTRA>
1.65987

>  <SCORE.INTRA.DIHEDRAL>
-1.82207

>  <SCORE.INTRA.DIHEDRAL.0>
3.34563

>  <SCORE.INTRA.POLAR>
0

>  <SCORE.INTRA.POLAR.0>
0

>  <SCORE.INTRA.REPUL>
0

>  <SCORE.INTRA.REPUL.0>
0

>  <SCORE.INTRA.SOLV>
3.66363

>  <SCORE.INTRA.SOLV.lig_0>
-59.746

>  <SCORE.INTRA.VDW>
0.739094

>  <SCORE.INTRA.VDW.0>
-0.691186

>  <SCORE.INTRA.norm>
0.138323

>  <SCORE.RESTR>
0.0542677

>  <SCORE.RESTR.CAVITY>
0.0542677

>  <SCORE.RESTR.norm>
0.00452231

>  <SCORE.SYSTEM>
0

>  <SCORE.SYSTEM.CONST>
0

>  <SCORE.SYSTEM.DIHEDRAL>
0

>  <SCORE.SYSTEM.SOLV>
0

>  <SCORE.SYSTEM.norm>
0

>  <SCORE.heavy>
12

>  <SCORE.norm>
0.0599445

>  <RMSD>
25.688

$$$$
ligand
 OpenBabel02271912143D
libRbt.so/2013.1/901 2013/11/27
 12 12  0  0  0  0  0  0  0  0999 V2000
  -30.8202   -3.6624   72.0652 C   0  0  0  0  0  0  0  0  0  0  0  0
  -25.6668   -1.7627   72.3973 C   0  0  0  0  0  0  0  0  0  0  0  0
  -29.0806   -4.5860   73.8965 N   0  0  0  0  0  0  0  0  0  0  0  0
  -31.6060   -2.5005   72.5044 N   0  0  0  0  0  0  0  0  0  0  0  0
  -31.6006   -1.6198   71.8107 N   0  0  0  0  0  0  0  0  0  0  0  0
  -31.5980   -0.7368   71.1206 N   0  0  0  0  0  0  0  0  0  0  0  0
  -27.7760   -1.7656   71.3368 N   0  0  0  0  0  0  0  0  0  0  0  0
  -26.9620   -2.2530   72.2825 C   0  0  0  0  0  0  0  0  0  0  0  0
  -27.3579   -3.2569   73.0790 N   0  0  0  0  0  0  0  0  0  0  0  0
  -28.5824   -3.7898   72.9569 C   0  0  0  0  0  0  0  0  0  0  0  0
  -29.4754   -3.3194   72.0012 C   0  0  0  0  0  0  0  0  0  0  0  0
  -29.0618   -2.2912   71.1627 C   0  0  0  0  0  0  0  0  0  0  0  0
  1 11  1  0  0  0  0
  1  4  1  0  0  0  0
  2  8  1  0  0  0  0
  3 10  1  0  0  0  0
  4  5  1  0  0  0  0
  5  6  1  0  0  0  0
  7  8  2  0  0  0  0
  7 12  1  0  0  0  0
  8  9  1  0  0  0  0
  9 10  2  0  0  0  0
 10 11  1  0  0  0  0
 11 12  2  0  0  0  0
M  END
>  <CHROM.1>
106.84720438,63.94593676,-175.96535087,-29.14073246,-2.60917058,72.22474164
2.97111338,-0.06818462,-0.58097252

>  <Name>
ligand

>  <RI>
0

>  <Rbt.Current_Directory>
/home/itssahil/PROJECTS/Mol_Feturizer/Test_systems_manuscript/rnas/4nya

>  <Rbt.Executable>
rbdock ($Id: //depot/dev/client3/rdock/2013.1/src/exe/rbdock.cxx#4 $)

>  <Rbt.Library>
libRbt.so (2013.1, Build901 2013/11/27)

>  <Rbt.Parameter_File>
/export/apps/rDock/src/rDock_2013.1_src/data/scripts/dock_solv.prm

>  <Rbt.Receptor>
prm/blind_docking_80.prm

>  <SCORE>
2.30139

>  <SCORE.INTER>
1.79577

>  <SCORE.INTER.CONST>
1

>  <SCORE.INTER.POLAR>
0

>  <SCORE.INTER.ROT>
3

>  <SCORE.INTER.SOLV>
10.2519

>  <SCORE.INTER.VDW>
-7.82011

>  <SCORE.INTER.norm>
0.149647

>  <SCORE.INTRA>
0.394864

>  <SCORE.INTRA.DIHEDRAL>
-1.8397

>  <SCORE.INTRA.DIHEDRAL.0>
3.34563

>  <SCORE.INTRA.POLAR>
0

>  <SCORE.INTRA.POLAR.0>
0

>  <SCORE.INTRA.REPUL>
0

>  <SCORE.INTRA.REPUL.0>
0

>  <SCORE.INTRA.SOLV>
1.41118

>  <SCORE.INTRA.SOLV.lig_0>
-59.746

>  <SCORE.INTRA.VDW>
0.609124

>  <SCORE.INTRA.VDW.0>
-0.691186

>  <SCORE.INTRA.norm>
0.0329053

>  <SCORE.RESTR>
0.110762

>  <SCORE.RESTR.CAVITY>
0.110762

>  <SCORE.RESTR.norm>
0.00923015

>  <SCORE.SYSTEM>
0

>  <SCORE.SYSTEM.CONST>
0

>  <SCORE.SYSTEM.DIHEDRAL>
0

>  <SCORE.SYSTEM.SOLV>
0

>  <SCORE.SYSTEM.norm>
0

>  <SCORE.heavy>
12

>  <SCORE.norm>
0.191783

>  <RMSD>
25.695

$$$$
ligand
 OpenBabel02271912143D
libRbt.so/2013.1/901 2013/11/27
 12 12  0  0  0  0  0  0  0  0999 V2000
  -30.8547   -3.1444   71.6696 C   0  0  0  0  0  0  0  0  0  0  0  0
  -25.4456   -2.1359   71.6262 C   0  0  0  0  0  0  0  0  0  0  0  0
  -29.0454   -5.0752   72.1506 N   0  0  0  0  0  0  0  0  0  0  0  0
  -31.1787   -2.8998   73.0823 N   0  0  0  0  0  0  0  0  0  0  0  0
  -30.6073   -2.0710   73.5755 N   0  0  0  0  0  0  0  0  0  0  0  0
  -30.0381   -1.2391   74.0653 N   0  0  0  0  0  0  0  0  0  0  0  0
  -27.6642   -1.3813   71.3404 N   0  0  0  0  0  0  0  0  0  0  0  0
  -26.8133   -2.3813   71.6053 C   0  0  0  0  0  0  0  0  0  0  0  0
  -27.2592   -3.6335   71.7850 N   0  0  0  0  0  0  0  0  0  0  0  0
  -28.5688   -3.9137   71.7161 C   0  0  0  0  0  0  0  0  0  0  0  0
  -29.5011   -2.9164   71.4548 C   0  0  0  0  0  0  0  0  0  0  0  0
  -29.0405   -1.6212   71.2506 C   0  0  0  0  0  0  0  0  0  0  0  0
  1 11  1  0  0  0  0
  1  4  1  0  0  0  0
  2  8  1  0  0  0  0
  3 10  1  0  0  0  0
  4  5  1  0  0  0  0
  5  6  1  0  0  0  0
  7  8  2  0  0  0  0
  7 12  1  0  0  0  0
  8  9  1  0  0  0  0
  9 10  2  0  0  0  0
 10 11  1  0  0  0  0
 11 12  2  0  0  0  0
M  END
>  <CHROM.1>
84.08523490,34.96209472,62.24953054,-28.83088699,-2.69716464,72.13689378
3.06150556,0.32625166,0.30908613

>  <Name>
ligand

>  <RI>
0

>  <Rbt.Current_Directory>
/home/itssahil/PROJECTS/Mol_Feturizer/Test_systems_manuscript/rnas/4nya

>  <Rbt.Executable>
rbdock ($Id: //depot/dev/client3/rdock/2013.1/src/exe/rbdock.cxx#4 $)

>  <Rbt.Library>
libRbt.so (2013.1, Build901 2013/11/27)

>  <Rbt.Parameter_File>
/export/apps/rDock/src/rDock_2013.1_src/data/scripts/dock_solv.prm

>  <Rbt.Receptor>
prm/blind_docking_80.prm

>  <SCORE>
0.588028

>  <SCORE.INTER>
-1.21076

>  <SCORE.INTER.CONST>
1

>  <SCORE.INTER.POLAR>
0

>  <SCORE.INTER.ROT>
3

>  <SCORE.INTER.SOLV>
10.7185

>  <SCORE.INTER.VDW>
-9.98001

>  <SCORE.INTER.norm>
-0.100896

>  <SCORE.INTRA>
1.71965

>  <SCORE.INTRA.DIHEDRAL>
-1.80077

>  <SCORE.INTRA.DIHEDRAL.0>
3.34563

>  <SCORE.INTRA.POLAR>
0

>  <SCORE.INTRA.POLAR.0>
0

>  <SCORE.INTRA.REPUL>
0

>  <SCORE.INTRA.REPUL.0>
0

>  <SCORE.INTRA.SOLV>
3.71949

>  <SCORE.INTRA.SOLV.lig_0>
-59.746

>  <SCORE.INTRA.VDW>
0.760293

>  <SCORE.INTRA.VDW.0>
-0.691186

>  <SCORE.INTRA.norm>
0.143304

>  <SCORE.RESTR>
0.0791342

>  <SCORE.RESTR.CAVITY>
0.0791342

>  <SCORE.RESTR.norm>
0.00659451

>  <SCORE.SYSTEM>
0

>  <SCORE.SYSTEM.CONST>
0

>  <SCORE.SYSTEM.DIHEDRAL>
0

>  <SCORE.SYSTEM.SOLV>
0

>  <SCORE.SYSTEM.norm>
0

>  <SCORE.heavy>
12

>  <SCORE.norm>
0.0490023

>  <RMSD>
25.698

$$$$
ligand
 OpenBabel02271912143D
libRbt.so/2013.1/901 2013/11/27
 12 12  0  0  0  0  0  0  0  0999 V2000
  -30.8497   -3.1678   71.6665 C   0  0  0  0  0  0  0  0  0  0  0  0
  -25.4476   -2.1220   71.6281 C   0  0  0  0  0  0  0  0  0  0  0  0
  -29.0272   -5.0881   72.1398 N   0  0  0  0  0  0  0  0  0  0  0  0
  -31.1803   -2.9086   73.0750 N   0  0  0  0  0  0  0  0  0  0  0  0
  -30.6165   -2.0699   73.5602 N   0  0  0  0  0  0  0  0  0  0  0  0
  -30.0553   -1.2323   74.0495 N   0  0  0  0  0  0  0  0  0  0  0  0
  -27.6713   -1.3816   71.3451 N   0  0  0  0  0  0  0  0  0  0  0  0
  -26.8136   -2.3768   71.6059 C   0  0  0  0  0  0  0  0  0  0  0  0
  -27.2509   -3.6328   71.7804 N   0  0  0  0  0  0  0  0  0  0  0  0
  -28.5585   -3.9217   71.7101 C   0  0  0  0  0  0  0  0  0  0  0  0
  -29.4976   -2.9297   71.4528 C   0  0  0  0  0  0  0  0  0  0  0  0
  -29.0460   -1.6305   71.2540 C   0  0  0  0  0  0  0  0  0  0  0  0
  1 11  1  0  0  0  0
  1  4  1  0  0  0  0
  2  8  1  0  0  0  0
  3 10  1  0  0  0  0
  4  5  1  0  0  0  0
  5  6  1  0  0  0  0
  7  8  2  0  0  0  0
  7 12  1  0  0  0  0
  8  9  1  0  0  0  0
  9 10  2  0  0  0  0
 10 11  1  0  0  0  0
 11 12  2  0  0  0  0
M  END
>  <CHROM.1>
85.06760897,34.81577254,179.43524077,-28.83080165,-2.70101712,72.13224461
3.06346214,0.32421370,0.30643421

>  <Name>
ligand

>  <RI>
0

>  <Rbt.Current_Directory>
/home/itssahil/PROJECTS/Mol_Feturizer/Test_systems_manuscript/rnas/4nya

>  <Rbt.Executable>
rbdock ($Id: //depot/dev/client3/rdock/2013.1/src/exe/rbdock.cxx#4 $)

>  <Rbt.Library>
libRbt.so (2013.1, Build901 2013/11/27)

>  <Rbt.Parameter_File>
/export/apps/rDock/src/rDock_2013.1_src/data/scripts/dock_solv.prm

>  <Rbt.Receptor>
prm/blind_docking_80.prm

>  <SCORE>
0.588038

>  <SCORE.INTER>
-1.2241

>  <SCORE.INTER.CONST>
1

>  <SCORE.INTER.POLAR>
0

>  <SCORE.INTER.ROT>
3

>  <SCORE.INTER.SOLV>
10.85

>  <SCORE.INTER.VDW>
-10.0327

>  <SCORE.INTER.norm>
-0.102008

>  <SCORE.INTRA>
1.73016

>  <SCORE.INTRA.DIHEDRAL>
-1.79551

>  <SCORE.INTRA.DIHEDRAL.0>
3.34563

>  <SCORE.INTRA.POLAR>
0

>  <SCORE.INTRA.POLAR.0>
0

>  <SCORE.INTRA.REPUL>
0

>  <SCORE.INTRA.REPUL.0>
0

>  <SCORE.INTRA.SOLV>
3.67117

>  <SCORE.INTRA.SOLV.lig_0>
-59.746

>  <SCORE.INTRA.VDW>
0.792333

>  <SCORE.INTRA.VDW.0>
-0.691186

>  <SCORE.INTRA.norm>
0.14418

>  <SCORE.RESTR>
0.081975

>  <SCORE.RESTR.CAVITY>
0.081975

>  <SCORE.RESTR.norm>
0.00683125

>  <SCORE.SYSTEM>
0

>  <SCORE.SYSTEM.CONST>
0

>  <SCORE.SYSTEM.DIHEDRAL>
0

>  <SCORE.SYSTEM.SOLV>
0

>  <SCORE.SYSTEM.norm>
0

>  <SCORE.heavy>
12

>  <SCORE.norm>
0.0490032

>  <RMSD>
25.700

$$$$
ligand
 OpenBabel02271912143D
libRbt.so/2013.1/901 2013/11/27
 12 12  0  0  0  0  0  0  0  0999 V2000
  -30.8416   -3.2165   71.6291 C   0  0  0  0  0  0  0  0  0  0  0  0
  -25.4535   -2.1005   71.6441 C   0  0  0  0  0  0  0  0  0  0  0  0
  -28.9989   -5.1141   72.1150 N   0  0  0  0  0  0  0  0  0  0  0  0
  -31.1869   -2.9736   73.0370 N   0  0  0  0  0  0  0  0  0  0  0  0
  -30.6261   -2.1426   73.5386 N   0  0  0  0  0  0  0  0  0  0  0  0
  -30.0671   -1.3086   74.0365 N   0  0  0  0  0  0  0  0  0  0  0  0
  -27.6840   -1.3883   71.3419 N   0  0  0  0  0  0  0  0  0  0  0  0
  -26.8158   -2.3729   71.6084 C   0  0  0  0  0  0  0  0  0  0  0  0
  -27.2383   -3.6349   71.7758 N   0  0  0  0  0  0  0  0  0  0  0  0
  -28.5414   -3.9406   71.6926 C   0  0  0  0  0  0  0  0  0  0  0  0
  -29.4909   -2.9602   71.4288 C   0  0  0  0  0  0  0  0  0  0  0  0
  -29.0543   -1.6548   71.2373 C   0  0  0  0  0  0  0  0  0  0  0  0
  1 11  1  0  0  0  0
  1  4  1  0  0  0  0
  2  8  1  0  0  0  0
  3 10  1  0  0  0  0
  4  5  1  0  0  0  0
  5  6  1  0  0  0  0
  7  8  2  0  0  0  0
  7 12  1  0  0  0  0
  8  9  1  0  0  0  0
  9 10  2  0  0  0  0
 10 11  1  0  0  0  0
 11 12  2  0  0  0  0
M  END
>  <CHROM.1>
84.69897436,33.92124780,58.62250641,-28.82964310,-2.73008051,72.11717619
3.08451306,0.32142881,0.30804869

>  <Name>
ligand

>  <RI>
0

>  <Rbt.Current_Directory>
/home/itssahil/PROJECTS/Mol_Feturizer/Test_systems_manuscript/rnas/4nya

>  <Rbt.Executable>
rbdock ($Id: //depot/dev/client3/rdock/2013.1/src/exe/rbdock.cxx#4 $)

>  <Rbt.Library>
libRbt.so (2013.1, Build901 2013/11/27)

>  <Rbt.Parameter_File>
/export/apps/rDock/src/rDock_2013.1_src/data/scripts/dock_solv.prm

>  <Rbt.Receptor>
prm/blind_docking_80.prm

>  <SCORE>
0.588615

>  <SCORE.INTER>
-1.30706

>  <SCORE.INTER.CONST>
1

>  <SCORE.INTER.POLAR>
0

>  <SCORE.INTER.ROT>
3

>  <SCORE.INTER.SOLV>
10.9219

>  <SCORE.INTER.VDW>
-10.112

>  <SCORE.INTER.norm>
-0.108921

>  <SCORE.INTRA>
1.80799

>  <SCORE.INTRA.DIHEDRAL>
-1.76868

>  <SCORE.INTRA.DIHEDRAL.0>
3.34563

>  <SCORE.INTRA.POLAR>
0

>  <SCORE.INTRA.POLAR.0>
0

>  <SCORE.INTRA.REPUL>
0

>  <SCORE.INTRA.REPUL.0>
0

>  <SCORE.INTRA.SOLV>
3.75699

>  <SCORE.INTRA.SOLV.lig_0>
-59.746

>  <SCORE.INTRA.VDW>
0.813842

>  <SCORE.INTRA.VDW.0>
-0.691186

>  <SCORE.INTRA.norm>
0.150666

>  <SCORE.RESTR>
0.0876791

>  <SCORE.RESTR.CAVITY>
0.0876791

>  <SCORE.RESTR.norm>
0.00730659

>  <SCORE.SYSTEM>
0

>  <SCORE.SYSTEM.CONST>
0

>  <SCORE.SYSTEM.DIHEDRAL>
0

>  <SCORE.SYSTEM.SOLV>
0

>  <SCORE.SYSTEM.norm>
0

>  <SCORE.heavy>
12

>  <SCORE.norm>
0.0490513

>  <RMSD>
25.703

$$$$
ligand
 OpenBabel02271912143D
libRbt.so/2013.1/901 2013/11/27
 12 12  0  0  0  0  0  0  0  0999 V2000
  -30.8487   -3.1654   71.6627 C   0  0  0  0  0  0  0  0  0  0  0  0
  -25.4463   -2.1217   71.6234 C   0  0  0  0  0  0  0  0  0  0  0  0
  -29.0272   -5.0843   72.1454 N   0  0  0  0  0  0  0  0  0  0  0  0
  -31.1787   -2.9071   73.0716 N   0  0  0  0  0  0  0  0  0  0  0  0
  -30.6171   -2.0664   73.5560 N   0  0  0  0  0  0  0  0  0  0  0  0
  -30.0581   -1.2269   74.0446 N   0  0  0  0  0  0  0  0  0  0  0  0
  -27.6696   -1.3816   71.3358 N   0  0  0  0  0  0  0  0  0  0  0  0
  -26.8123   -2.3761   71.6014 C   0  0  0  0  0  0  0  0  0  0  0  0
  -27.2502   -3.6311   71.7809 N   0  0  0  0  0  0  0  0  0  0  0  0
  -28.5579   -3.9199   71.7111 C   0  0  0  0  0  0  0  0  0  0  0  0
  -29.4964   -2.9286   71.4489 C   0  0  0  0  0  0  0  0  0  0  0  0
  -29.0442   -1.6305   71.2449 C   0  0  0  0  0  0  0  0  0  0  0  0
  1 11  1  0  0  0  0
  1  4  1  0  0  0  0
  2  8  1  0  0  0  0
  3 10  1  0  0  0  0
  4  5  1  0  0  0  0
  5  6  1  0  0  0  0
  7  8  2  0  0  0  0
  7 12  1  0  0  0  0
  8  9  1  0  0  0  0
  9 10  2  0  0  0  0
 10 11  1  0  0  0  0
 11 12  2  0  0  0  0
M  END
>  <CHROM.1>
84.76794837,35.08241350,-178.65967346,-28.83017357,-2.69912474,72.12886629
3.06404788,0.32461991,0.30325677

>  <Name>
ligand

>  <RI>
0

>  <Rbt.Current_Directory>
/home/itssahil/PROJECTS/Mol_Feturizer/Test_systems_manuscript/rnas/4nya

>  <Rbt.Executable>
rbdock ($Id: //depot/dev/client3/rdock/2013.1/src/exe/rbdock.cxx#4 $)

>  <Rbt.Library>
libRbt.so (2013.1, Build901 2013/11/27)

>  <Rbt.Parameter_File>
/export/apps/rDock/src/rDock_2013.1_src/data/scripts/dock_solv.prm

>  <Rbt.Receptor>
prm/blind_docking_80.prm

>  <SCORE>
0.600695

>  <SCORE.INTER>
-1.18475

>  <SCORE.INTER.CONST>
1

>  <SCORE.INTER.POLAR>
0

>  <SCORE.INTER.ROT>
3

>  <SCORE.INTER.SOLV>
10.8337

>  <SCORE.INTER.VDW>
-10.0011

>  <SCORE.INTER.norm>
-0.098729

>  <SCORE.INTRA>
1.70674

>  <SCORE.INTRA.DIHEDRAL>
-1.80401

>  <SCORE.INTRA.DIHEDRAL.0>
3.34563

>  <SCORE.INTRA.POLAR>
0

>  <SCORE.INTRA.POLAR.0>
0

>  <SCORE.INTRA.REPUL>
0

>  <SCORE.INTRA.REPUL.0>
0

>  <SCORE.INTRA.SOLV>
3.66979

>  <SCORE.INTRA.SOLV.lig_0>
-59.746

>  <SCORE.INTRA.VDW>
0.773853

>  <SCORE.INTRA.VDW.0>
-0.691186

>  <SCORE.INTRA.norm>
0.142229

>  <SCORE.RESTR>
0.0786987

>  <SCORE.RESTR.CAVITY>
0.0786987

>  <SCORE.RESTR.norm>
0.00655822

>  <SCORE.SYSTEM>
0

>  <SCORE.SYSTEM.CONST>
0

>  <SCORE.SYSTEM.DIHEDRAL>
0

>  <SCORE.SYSTEM.SOLV>
0

>  <SCORE.SYSTEM.norm>
0

>  <SCORE.heavy>
12

>  <SCORE.norm>
0.0500579

>  <RMSD>
25.703

$$$$
ligand
 OpenBabel02271912143D
libRbt.so/2013.1/901 2013/11/27
 12 12  0  0  0  0  0  0  0  0999 V2000
  -30.7451   -4.4809   72.3815 C   0  0  0  0  0  0  0  0  0  0  0  0
  -25.8147   -2.0581   72.0671 C   0  0  0  0  0  0  0  0  0  0  0  0
  -30.0530   -2.4515   74.0049 N   0  0  0  0  0  0  0  0  0  0  0  0
  -31.3593   -4.1053   71.1000 N   0  0  0  0  0  0  0  0  0  0  0  0
  -31.4604   -3.0045   70.9136 N   0  0  0  0  0  0  0  0  0  0  0  0
  -31.5637   -1.9035   70.7317 N   0  0  0  0  0  0  0  0  0  0  0  0
  -27.3239   -3.7168   71.3292 N   0  0  0  0  0  0  0  0  0  0  0  0
  -27.0449   -2.6987   72.1538 C   0  0  0  0  0  0  0  0  0  0  0  0
  -27.9115   -2.3310   73.1092 N   0  0  0  0  0  0  0  0  0  0  0  0
  -29.0840   -2.9653   73.2552 C   0  0  0  0  0  0  0  0  0  0  0  0
  -29.4343   -4.0222   72.4231 C   0  0  0  0  0  0  0  0  0  0  0  0
  -28.5307   -4.4169   71.4437 C   0  0  0  0  0  0  0  0  0  0  0  0
  1 11  1  0  0  0  0
  1  4  1  0  0  0  0
  2  8  1  0  0  0  0
  3 10  1  0  0  0  0
  4  5  1  0  0  0  0
  5  6  1  0  0  0  0
  7  8  2  0  0  0  0
  7 12  1  0  0  0  0
  8  9  1  0  0  0  0
  9 10  2  0  0  0  0
 10 11  1  0  0  0  0
 11 12  2  0  0  0  0
M  END
>  <CHROM.1>
108.87710553,-63.41485217,-52.53073469,-29.20564121,-3.15542147,72.06404082
2.91079325,-0.04486585,-2.05067212

>  <Name>
ligand

>  <RI>
0

>  <Rbt.Current_Directory>
/home/itssahil/PROJECTS/Mol_Feturizer/Test_systems_manuscript/rnas/4nya

>  <Rbt.Executable>
rbdock ($Id: //depot/dev/client3/rdock/2013.1/src/exe/rbdock.cxx#4 $)

>  <Rbt.Library>
libRbt.so (2013.1, Build901 2013/11/27)

>  <Rbt.Parameter_File>
/export/apps/rDock/src/rDock_2013.1_src/data/scripts/dock_solv.prm

>  <Rbt.Receptor>
prm/blind_docking_80.prm

>  <SCORE>
0.159434

>  <SCORE.INTER>
-0.68955

>  <SCORE.INTER.CONST>
1

>  <SCORE.INTER.POLAR>
0

>  <SCORE.INTER.ROT>
3

>  <SCORE.INTER.SOLV>
9.75095

>  <SCORE.INTER.VDW>
-9.31002

>  <SCORE.INTER.norm>
-0.0574625

>  <SCORE.INTRA>
0.8136

>  <SCORE.INTRA.DIHEDRAL>
-1.77274

>  <SCORE.INTRA.DIHEDRAL.0>
3.34563

>  <SCORE.INTRA.POLAR>
0

>  <SCORE.INTRA.POLAR.0>
0

>  <SCORE.INTRA.REPUL>
0

>  <SCORE.INTRA.REPUL.0>
0

>  <SCORE.INTRA.SOLV>
3.39992

>  <SCORE.INTRA.SOLV.lig_0>
-59.746

>  <SCORE.INTRA.VDW>
1.17614e-05

>  <SCORE.INTRA.VDW.0>
-0.691186

>  <SCORE.INTRA.norm>
0.0678

>  <SCORE.RESTR>
0.0353844

>  <SCORE.RESTR.CAVITY>
0.0353844

>  <SCORE.RESTR.norm>
0.0029487

>  <SCORE.SYSTEM>
0

>  <SCORE.SYSTEM.CONST>
0

>  <SCORE.SYSTEM.DIHEDRAL>
0

>  <SCORE.SYSTEM.SOLV>
0

>  <SCORE.SYSTEM.norm>
0

>  <SCORE.heavy>
12

>  <SCORE.norm>
0.0132861

>  <RMSD>
25.703

$$$$
ligand
 OpenBabel02271912143D
libRbt.so/2013.1/901 2013/11/27
 12 12  0  0  0  0  0  0  0  0999 V2000
  -30.8175   -3.1802   71.6148 C   0  0  0  0  0  0  0  0  0  0  0  0
  -25.4199   -2.1109   71.6270 C   0  0  0  0  0  0  0  0  0  0  0  0
  -28.9895   -5.1006   72.0662 N   0  0  0  0  0  0  0  0  0  0  0  0
  -31.1501   -2.9818   73.0327 N   0  0  0  0  0  0  0  0  0  0  0  0
  -30.5963   -2.1564   73.5509 N   0  0  0  0  0  0  0  0  0  0  0  0
  -30.0445   -1.3278   74.0657 N   0  0  0  0  0  0  0  0  0  0  0  0
  -27.6451   -1.3752   71.3432 N   0  0  0  0  0  0  0  0  0  0  0  0
  -26.7846   -2.3711   71.5922 C   0  0  0  0  0  0  0  0  0  0  0  0
  -27.2174   -3.6317   71.7425 N   0  0  0  0  0  0  0  0  0  0  0  0
  -28.5234   -3.9249   71.6594 C   0  0  0  0  0  0  0  0  0  0  0  0
  -29.4652   -2.9327   71.4134 C   0  0  0  0  0  0  0  0  0  0  0  0
  -29.0181   -1.6284   71.2396 C   0  0  0  0  0  0  0  0  0  0  0  0
  1 11  1  0  0  0  0
  1  4  1  0  0  0  0
  2  8  1  0  0  0  0
  3 10  1  0  0  0  0
  4  5  1  0  0  0  0
  5  6  1  0  0  0  0
  7  8  2  0  0  0  0
  7 12  1  0  0  0  0
  8  9  1  0  0  0  0
  9 10  2  0  0  0  0
 10 11  1  0  0  0  0
 11 12  2  0  0  0  0
M  END
>  <CHROM.1>
83.54958930,35.52766814,59.98589920,-28.80235160,-2.72355411,72.10589153
3.07584671,0.32575985,0.32749184

>  <Name>
ligand

>  <RI>
0

>  <Rbt.Current_Directory>
/home/itssahil/PROJECTS/Mol_Feturizer/Test_systems_manuscript/rnas/4nya

>  <Rbt.Executable>
rbdock ($Id: //depot/dev/client3/rdock/2013.1/src/exe/rbdock.cxx#4 $)

>  <Rbt.Library>
libRbt.so (2013.1, Build901 2013/11/27)

>  <Rbt.Parameter_File>
/export/apps/rDock/src/rDock_2013.1_src/data/scripts/dock_solv.prm

>  <Rbt.Receptor>
prm/blind_docking_80.prm

>  <SCORE>
0.739827

>  <SCORE.INTER>
-0.991056

>  <SCORE.INTER.CONST>
1

>  <SCORE.INTER.POLAR>
0

>  <SCORE.INTER.ROT>
3

>  <SCORE.INTER.SOLV>
11.0511

>  <SCORE.INTER.VDW>
-9.94442

>  <SCORE.INTER.norm>
-0.082588

>  <SCORE.INTRA>
1.67397

>  <SCORE.INTRA.DIHEDRAL>
-1.81976

>  <SCORE.INTRA.DIHEDRAL.0>
3.34563

>  <SCORE.INTRA.POLAR>
0

>  <SCORE.INTRA.POLAR.0>
0

>  <SCORE.INTRA.REPUL>
0

>  <SCORE.INTRA.REPUL.0>
0

>  <SCORE.INTRA.SOLV>
3.71533

>  <SCORE.INTRA.SOLV.lig_0>
-59.746

>  <SCORE.INTRA.VDW>
0.726185

>  <SCORE.INTRA.VDW.0>
-0.691186

>  <SCORE.INTRA.norm>
0.139498

>  <SCORE.RESTR>
0.0569128

>  <SCORE.RESTR.CAVITY>
0.0569128

>  <SCORE.RESTR.norm>
0.00474273

>  <SCORE.SYSTEM>
0

>  <SCORE.SYSTEM.CONST>
0

>  <SCORE.SYSTEM.DIHEDRAL>
0

>  <SCORE.SYSTEM.SOLV>
0

>  <SCORE.SYSTEM.norm>
0

>  <SCORE.heavy>
12

>  <SCORE.norm>
0.0616523

>  <RMSD>
25.708

$$$$
ligand
 OpenBabel02271912143D
libRbt.so/2013.1/901 2013/11/27
 12 12  0  0  0  0  0  0  0  0999 V2000
  -30.9819   -2.2296   71.8519 C   0  0  0  0  0  0  0  0  0  0  0  0
  -25.5255   -1.8895   72.4760 C   0  0  0  0  0  0  0  0  0  0  0  0
  -29.8401   -0.3116   73.3520 N   0  0  0  0  0  0  0  0  0  0  0  0
  -31.4070   -3.5111   71.2707 N   0  0  0  0  0  0  0  0  0  0  0  0
  -31.2402   -4.4149   71.9126 N   0  0  0  0  0  0  0  0  0  0  0  0
  -31.0685   -5.3175   72.5544 N   0  0  0  0  0  0  0  0  0  0  0  0
  -27.4126   -2.9947   71.5867 N   0  0  0  0  0  0  0  0  0  0  0  0
  -26.9029   -2.0055   72.3324 C   0  0  0  0  0  0  0  0  0  0  0  0
  -27.7065   -1.1633   72.9987 N   0  0  0  0  0  0  0  0  0  0  0  0
  -29.0402   -1.2827   72.9255 C   0  0  0  0  0  0  0  0  0  0  0  0
  -29.6281   -2.2827   72.1596 C   0  0  0  0  0  0  0  0  0  0  0  0
  -28.7979   -3.1678   71.4823 C   0  0  0  0  0  0  0  0  0  0  0  0
  1 11  1  0  0  0  0
  1  4  1  0  0  0  0
  2  8  1  0  0  0  0
  3 10  1  0  0  0  0
  4  5  1  0  0  0  0
  5  6  1  0  0  0  0
  7  8  2  0  0  0  0
  7 12  1  0  0  0  0
  8  9  1  0  0  0  0
  9 10  2  0  0  0  0
 10 11  1  0  0  0  0
 11 12  2  0  0  0  0
M  END
>  <CHROM.1>
-168.99511911,58.12483760,-58.45314730,-29.13314064,-2.56130859,72.24418163
2.63061779,-0.03551814,-2.82488342

>  <Name>
ligand

>  <RI>
0

>  <Rbt.Current_Directory>
/home/itssahil/PROJECTS/Mol_Feturizer/Test_systems_manuscript/rnas/4nya

>  <Rbt.Executable>
rbdock ($Id: //depot/dev/client3/rdock/2013.1/src/exe/rbdock.cxx#4 $)

>  <Rbt.Library>
libRbt.so (2013.1, Build901 2013/11/27)

>  <Rbt.Parameter_File>
/export/apps/rDock/src/rDock_2013.1_src/data/scripts/dock_solv.prm

>  <Rbt.Receptor>
prm/blind_docking_80.prm

>  <SCORE>
1.99128

>  <SCORE.INTER>
1.73607

>  <SCORE.INTER.CONST>
1

>  <SCORE.INTER.POLAR>
0

>  <SCORE.INTER.ROT>
3

>  <SCORE.INTER.SOLV>
13.6704

>  <SCORE.INTER.VDW>
-8.99941

>  <SCORE.INTER.norm>
0.144673

>  <SCORE.INTRA>
0.254925

>  <SCORE.INTRA.DIHEDRAL>
-2.12961

>  <SCORE.INTRA.DIHEDRAL.0>
3.34563

>  <SCORE.INTRA.POLAR>
0

>  <SCORE.INTRA.POLAR.0>
0

>  <SCORE.INTRA.REPUL>
0

>  <SCORE.INTRA.REPUL.0>
0

>  <SCORE.INTRA.SOLV>
0.308066

>  <SCORE.INTRA.SOLV.lig_0>
-59.746

>  <SCORE.INTRA.VDW>
1.1657

>  <SCORE.INTRA.VDW.0>
-0.691186

>  <SCORE.INTRA.norm>
0.0212438

>  <SCORE.RESTR>
0.000276406

>  <SCORE.RESTR.CAVITY>
0.000276406

>  <SCORE.RESTR.norm>
2.30338e-05

>  <SCORE.SYSTEM>
0

>  <SCORE.SYSTEM.CONST>
0

>  <SCORE.SYSTEM.DIHEDRAL>
0

>  <SCORE.SYSTEM.SOLV>
0

>  <SCORE.SYSTEM.norm>
0

>  <SCORE.heavy>
12

>  <SCORE.norm>
0.16594

>  <RMSD>
25.710

$$$$
ligand
 OpenBabel02271912143D
libRbt.so/2013.1/901 2013/11/27
 12 12  0  0  0  0  0  0  0  0999 V2000
  -30.8059   -4.4831   72.3434 C   0  0  0  0  0  0  0  0  0  0  0  0
  -25.8271   -2.1529   72.1002 C   0  0  0  0  0  0  0  0  0  0  0  0
  -30.0807   -2.5030   74.0126 N   0  0  0  0  0  0  0  0  0  0  0  0
  -31.4128   -4.0516   71.0761 N   0  0  0  0  0  0  0  0  0  0  0  0
  -31.4827   -2.9432   70.9233 N   0  0  0  0  0  0  0  0  0  0  0  0
  -31.5549   -1.8360   70.7660 N   0  0  0  0  0  0  0  0  0  0  0  0
  -27.3657   -3.7651   71.3211 N   0  0  0  0  0  0  0  0  0  0  0  0
  -27.0701   -2.7706   72.1684 C   0  0  0  0  0  0  0  0  0  0  0  0
  -27.9335   -2.4061   73.1280 N   0  0  0  0  0  0  0  0  0  0  0  0
  -29.1189   -3.0199   73.2558 C   0  0  0  0  0  0  0  0  0  0  0  0
  -29.4864   -4.0516   72.3999 C   0  0  0  0  0  0  0  0  0  0  0  0
  -28.5867   -4.4434   71.4158 C   0  0  0  0  0  0  0  0  0  0  0  0
  1 11  1  0  0  0  0
  1  4  1  0  0  0  0
  2  8  1  0  0  0  0
  3 10  1  0  0  0  0
  4  5  1  0  0  0  0
  5  6  1  0  0  0  0
  7  8  2  0  0  0  0
  7 12  1  0  0  0  0
  8  9  1  0  0  0  0
  9 10  2  0  0  0  0
 10 11  1  0  0  0  0
 11 12  2  0  0  0  0
M  END
>  <CHROM.1>
108.07376614,-62.80065384,-178.98900251,-29.23841259,-3.17738682,72.06446174
2.92059114,-0.02078091,-2.04530508

>  <Name>
ligand

>  <RI>
0

>  <Rbt.Current_Directory>
/home/itssahil/PROJECTS/Mol_Feturizer/Test_systems_manuscript/rnas/4nya

>  <Rbt.Executable>
rbdock ($Id: //depot/dev/client3/rdock/2013.1/src/exe/rbdock.cxx#4 $)

>  <Rbt.Library>
libRbt.so (2013.1, Build901 2013/11/27)

>  <Rbt.Parameter_File>
/export/apps/rDock/src/rDock_2013.1_src/data/scripts/dock_solv.prm

>  <Rbt.Receptor>
prm/blind_docking_80.prm

>  <SCORE>
0.194761

>  <SCORE.INTER>
-0.6551

>  <SCORE.INTER.CONST>
1

>  <SCORE.INTER.POLAR>
0

>  <SCORE.INTER.ROT>
3

>  <SCORE.INTER.SOLV>
9.60747

>  <SCORE.INTER.VDW>
-9.23922

>  <SCORE.INTER.norm>
-0.0545917

>  <SCORE.INTRA>
0.833384

>  <SCORE.INTRA.DIHEDRAL>
-1.81445

>  <SCORE.INTRA.DIHEDRAL.0>
3.34563

>  <SCORE.INTRA.POLAR>
0

>  <SCORE.INTRA.POLAR.0>
0

>  <SCORE.INTRA.REPUL>
0

>  <SCORE.INTRA.REPUL.0>
0

>  <SCORE.INTRA.SOLV>
3.49089

>  <SCORE.INTRA.SOLV.lig_0>
-59.746

>  <SCORE.INTRA.VDW>
-0.00483342

>  <SCORE.INTRA.VDW.0>
-0.691186

>  <SCORE.INTRA.norm>
0.0694486

>  <SCORE.RESTR>
0.0164777

>  <SCORE.RESTR.CAVITY>
0.0164777

>  <SCORE.RESTR.norm>
0.00137314

>  <SCORE.SYSTEM>
0

>  <SCORE.SYSTEM.CONST>
0

>  <SCORE.SYSTEM.DIHEDRAL>
0

>  <SCORE.SYSTEM.SOLV>
0

>  <SCORE.SYSTEM.norm>
0

>  <SCORE.heavy>
12

>  <SCORE.norm>
0.0162301

>  <RMSD>
25.710

$$$$
ligand
 OpenBabel02271912143D
libRbt.so/2013.1/901 2013/11/27
 12 12  0  0  0  0  0  0  0  0999 V2000
  -27.2292   -1.8389   72.0193 C   0  0  0  0  0  0  0  0  0  0  0  0
  -31.3603   -5.4419   72.4981 C   0  0  0  0  0  0  0  0  0  0  0  0
  -29.5490   -1.5249   70.6955 N   0  0  0  0  0  0  0  0  0  0  0  0
  -27.8050   -0.6454   72.6553 N   0  0  0  0  0  0  0  0  0  0  0  0
  -28.3771   -0.8274   73.6020 N   0  0  0  0  0  0  0  0  0  0  0  0
  -28.9523   -1.0124   74.5459 N   0  0  0  0  0  0  0  0  0  0  0  0
  -29.1599   -4.7772   73.0364 N   0  0  0  0  0  0  0  0  0  0  0  0
  -30.2978   -4.5562   72.3650 C   0  0  0  0  0  0  0  0  0  0  0  0
  -30.4033   -3.5264   71.5120 N   0  0  0  0  0  0  0  0  0  0  0  0
  -29.3769   -2.6853   71.3190 C   0  0  0  0  0  0  0  0  0  0  0  0
  -28.1744   -2.8569   71.9949 C   0  0  0  0  0  0  0  0  0  0  0  0
  -28.0560   -3.9333   72.8660 C   0  0  0  0  0  0  0  0  0  0  0  0
  1 11  1  0  0  0  0
  1  4  1  0  0  0  0
  2  8  1  0  0  0  0
  3 10  1  0  0  0  0
  4  5  1  0  0  0  0
  5  6  1  0  0  0  0
  7  8  2  0  0  0  0
  7 12  1  0  0  0  0
  8  9  1  0  0  0  0
  9 10  2  0  0  0  0
 10 11  1  0  0  0  0
 11 12  2  0  0  0  0
M  END
>  <CHROM.1>
60.57267029,45.29893414,-59.26698118,-29.08043923,-2.78394019,72.44055196
0.22952151,-1.00254648,-1.13434314

>  <Name>
ligand

>  <RI>
0

>  <Rbt.Current_Directory>
/home/itssahil/PROJECTS/Mol_Feturizer/Test_systems_manuscript/rnas/4nya

>  <Rbt.Executable>
rbdock ($Id: //depot/dev/client3/rdock/2013.1/src/exe/rbdock.cxx#4 $)

>  <Rbt.Library>
libRbt.so (2013.1, Build901 2013/11/27)

>  <Rbt.Parameter_File>
/export/apps/rDock/src/rDock_2013.1_src/data/scripts/dock_solv.prm

>  <Rbt.Receptor>
prm/blind_docking_80.prm

>  <SCORE>
4.08522

>  <SCORE.INTER>
1.80606

>  <SCORE.INTER.CONST>
1

>  <SCORE.INTER.POLAR>
0

>  <SCORE.INTER.ROT>
3

>  <SCORE.INTER.SOLV>
13.9867

>  <SCORE.INTER.VDW>
-9.05818

>  <SCORE.INTER.norm>
0.150505

>  <SCORE.INTRA>
2.01707

>  <SCORE.INTRA.DIHEDRAL>
-1.71493

>  <SCORE.INTRA.DIHEDRAL.0>
3.34563

>  <SCORE.INTRA.POLAR>
0

>  <SCORE.INTRA.POLAR.0>
0

>  <SCORE.INTRA.REPUL>
0

>  <SCORE.INTRA.REPUL.0>
0

>  <SCORE.INTRA.SOLV>
4.99427

>  <SCORE.INTRA.SOLV.lig_0>
-59.746

>  <SCORE.INTRA.VDW>
0.377394

>  <SCORE.INTRA.VDW.0>
-0.691186

>  <SCORE.INTRA.norm>
0.168089

>  <SCORE.RESTR>
0.262093

>  <SCORE.RESTR.CAVITY>
0.262093

>  <SCORE.RESTR.norm>
0.0218411

>  <SCORE.SYSTEM>
0

>  <SCORE.SYSTEM.CONST>
0

>  <SCORE.SYSTEM.DIHEDRAL>
0

>  <SCORE.SYSTEM.SOLV>
0

>  <SCORE.SYSTEM.norm>
0

>  <SCORE.heavy>
12

>  <SCORE.norm>
0.340435

>  <RMSD>
25.711

$$$$
ligand
 OpenBabel02271912143D
libRbt.so/2013.1/901 2013/11/27
 12 12  0  0  0  0  0  0  0  0999 V2000
  -28.0152   -4.6543   71.2929 C   0  0  0  0  0  0  0  0  0  0  0  0
  -31.7777   -0.7405   72.1894 C   0  0  0  0  0  0  0  0  0  0  0  0
  -27.3654   -2.2799   72.3759 N   0  0  0  0  0  0  0  0  0  0  0  0
  -28.2112   -5.5201   72.4645 N   0  0  0  0  0  0  0  0  0  0  0  0
  -28.3108   -4.9916   73.4481 N   0  0  0  0  0  0  0  0  0  0  0  0
  -28.4105   -4.4678   74.4338 N   0  0  0  0  0  0  0  0  0  0  0  0
  -31.2171   -2.8830   71.3713 N   0  0  0  0  0  0  0  0  0  0  0  0
  -30.8342   -1.7275   71.9304 C   0  0  0  0  0  0  0  0  0  0  0  0
  -29.5400   -1.4821   72.1832 N   0  0  0  0  0  0  0  0  0  0  0  0
  -28.5983   -2.3919   71.8939 C   0  0  0  0  0  0  0  0  0  0  0  0
  -28.9351   -3.6135   71.3225 C   0  0  0  0  0  0  0  0  0  0  0  0
  -30.2733   -3.8635   71.0430 C   0  0  0  0  0  0  0  0  0  0  0  0
  1 11  1  0  0  0  0
  1  4  1  0  0  0  0
  2  8  1  0  0  0  0
  3 10  1  0  0  0  0
  4  5  1  0  0  0  0
  5  6  1  0  0  0  0
  7  8  2  0  0  0  0
  7 12  1  0  0  0  0
  8  9  1  0  0  0  0
  9 10  2  0  0  0  0
 10 11  1  0  0  0  0
 11 12  2  0  0  0  0
M  END
>  <CHROM.1>
93.67488779,-47.23501883,-175.70597408,-29.28814266,-3.21814466,72.19294965
0.69284071,0.56120743,-2.86024484

>  <Name>
ligand

>  <RI>
0

>  <Rbt.Current_Directory>
/home/itssahil/PROJECTS/Mol_Feturizer/Test_systems_manuscript/rnas/4nya

>  <Rbt.Executable>
rbdock ($Id: //depot/dev/client3/rdock/2013.1/src/exe/rbdock.cxx#4 $)

>  <Rbt.Library>
libRbt.so (2013.1, Build901 2013/11/27)

>  <Rbt.Parameter_File>
/export/apps/rDock/src/rDock_2013.1_src/data/scripts/dock_solv.prm

>  <Rbt.Receptor>
prm/blind_docking_80.prm

>  <SCORE>
3.56262

>  <SCORE.INTER>
1.14278

>  <SCORE.INTER.CONST>
1

>  <SCORE.INTER.POLAR>
0

>  <SCORE.INTER.ROT>
3

>  <SCORE.INTER.SOLV>
15.267

>  <SCORE.INTER.VDW>
-9.92714

>  <SCORE.INTER.norm>
0.0952314

>  <SCORE.INTRA>
1.96955

>  <SCORE.INTRA.DIHEDRAL>
-2.02946

>  <SCORE.INTRA.DIHEDRAL.0>
3.34563

>  <SCORE.INTRA.POLAR>
0

>  <SCORE.INTRA.POLAR.0>
0

>  <SCORE.INTRA.REPUL>
0

>  <SCORE.INTRA.REPUL.0>
0

>  <SCORE.INTRA.SOLV>
5.66709

>  <SCORE.INTRA.SOLV.lig_0>
-59.746

>  <SCORE.INTRA.VDW>
0.150737

>  <SCORE.INTRA.VDW.0>
-0.691186

>  <SCORE.INTRA.norm>
0.164129

>  <SCORE.RESTR>
0.450291

>  <SCORE.RESTR.CAVITY>
0.450291

>  <SCORE.RESTR.norm>
0.0375242

>  <SCORE.SYSTEM>
0

>  <SCORE.SYSTEM.CONST>
0

>  <SCORE.SYSTEM.DIHEDRAL>
0

>  <SCORE.SYSTEM.SOLV>
0

>  <SCORE.SYSTEM.norm>
0

>  <SCORE.heavy>
12

>  <SCORE.norm>
0.296885

>  <RMSD>
25.716

$$$$
ligand
 OpenBabel02271912143D
libRbt.so/2013.1/901 2013/11/27
 12 12  0  0  0  0  0  0  0  0999 V2000
  -30.7303   -3.5472   71.2459 C   0  0  0  0  0  0  0  0  0  0  0  0
  -25.5742   -1.7645   71.9628 C   0  0  0  0  0  0  0  0  0  0  0  0
  -28.7230   -5.2215   71.8786 N   0  0  0  0  0  0  0  0  0  0  0  0
  -31.1567   -3.7562   72.6369 N   0  0  0  0  0  0  0  0  0  0  0  0
  -31.0808   -2.8616   73.3082 N   0  0  0  0  0  0  0  0  0  0  0  0
  -31.0009   -1.9656   73.9766 N   0  0  0  0  0  0  0  0  0  0  0  0
  -27.8287   -1.3231   71.4185 N   0  0  0  0  0  0  0  0  0  0  0  0
  -26.8754   -2.2038   71.7503 C   0  0  0  0  0  0  0  0  0  0  0  0
  -27.1449   -3.5162   71.8152 N   0  0  0  0  0  0  0  0  0  0  0  0
  -28.3779   -3.9784   71.5615 C   0  0  0  0  0  0  0  0  0  0  0  0
  -29.4109   -3.1124   71.2223 C   0  0  0  0  0  0  0  0  0  0  0  0
  -29.1306   -1.7539   71.1369 C   0  0  0  0  0  0  0  0  0  0  0  0
  1 11  1  0  0  0  0
  1  4  1  0  0  0  0
  2  8  1  0  0  0  0
  3 10  1  0  0  0  0
  4  5  1  0  0  0  0
  5  6  1  0  0  0  0
  7  8  2  0  0  0  0
  7 12  1  0  0  0  0
  8  9  1  0  0  0  0
  9 10  2  0  0  0  0
 10 11  1  0  0  0  0
 11 12  2  0  0  0  0
M  END
>  <CHROM.1>
70.26216913,58.02381702,-32.88340292,-28.92173996,-2.91742678,72.02101568
-3.01696316,0.29057436,0.29749047

>  <Name>
ligand

>  <RI>
0

>  <Rbt.Current_Directory>
/home/itssahil/PROJECTS/Mol_Feturizer/Test_systems_manuscript/rnas/4nya

>  <Rbt.Executable>
rbdock ($Id: //depot/dev/client3/rdock/2013.1/src/exe/rbdock.cxx#4 $)

>  <Rbt.Library>
libRbt.so (2013.1, Build901 2013/11/27)

>  <Rbt.Parameter_File>
/export/apps/rDock/src/rDock_2013.1_src/data/scripts/dock_solv.prm

>  <Rbt.Receptor>
prm/blind_docking_80.prm

>  <SCORE>
-0.586458

>  <SCORE.INTER>
-1.62473

>  <SCORE.INTER.CONST>
1

>  <SCORE.INTER.POLAR>
0

>  <SCORE.INTER.ROT>
3

>  <SCORE.INTER.SOLV>
12.3359

>  <SCORE.INTER.VDW>
-10.7951

>  <SCORE.INTER.norm>
-0.135394

>  <SCORE.INTRA>
0.589384

>  <SCORE.INTRA.DIHEDRAL>
-1.94613

>  <SCORE.INTRA.DIHEDRAL.0>
3.34563

>  <SCORE.INTRA.POLAR>
0

>  <SCORE.INTRA.POLAR.0>
0

>  <SCORE.INTRA.REPUL>
0

>  <SCORE.INTRA.REPUL.0>
0

>  <SCORE.INTRA.SOLV>
3.03661

>  <SCORE.INTRA.SOLV.lig_0>
-59.746

>  <SCORE.INTRA.VDW>
0.0441461

>  <SCORE.INTRA.VDW.0>
-0.691186

>  <SCORE.INTRA.norm>
0.0491154

>  <SCORE.RESTR>
0.448887

>  <SCORE.RESTR.CAVITY>
0.448887

>  <SCORE.RESTR.norm>
0.0374072

>  <SCORE.SYSTEM>
0

>  <SCORE.SYSTEM.CONST>
0

>  <SCORE.SYSTEM.DIHEDRAL>
0

>  <SCORE.SYSTEM.SOLV>
0

>  <SCORE.SYSTEM.norm>
0

>  <SCORE.heavy>
12

>  <SCORE.norm>
-0.0488715

>  <RMSD>
25.735

$$$$
ligand
 OpenBabel02271912143D
libRbt.so/2013.1/901 2013/11/27
 12 12  0  0  0  0  0  0  0  0999 V2000
  -30.8337   -3.6388   72.0048 C   0  0  0  0  0  0  0  0  0  0  0  0
  -25.6865   -1.7237   72.3450 C   0  0  0  0  0  0  0  0  0  0  0  0
  -29.0727   -4.6067   73.7922 N   0  0  0  0  0  0  0  0  0  0  0  0
  -31.6187   -2.4998   72.5017 N   0  0  0  0  0  0  0  0  0  0  0  0
  -31.6070   -1.5831   71.8564 N   0  0  0  0  0  0  0  0  0  0  0  0
  -31.5982   -0.6644   71.2147 N   0  0  0  0  0  0  0  0  0  0  0  0
  -27.8055   -1.7063   71.3042 N   0  0  0  0  0  0  0  0  0  0  0  0
  -26.9804   -2.2169   72.2278 C   0  0  0  0  0  0  0  0  0  0  0  0
  -27.3640   -3.2456   72.9982 N   0  0  0  0  0  0  0  0  0  0  0  0
  -28.5871   -3.7810   72.8718 C   0  0  0  0  0  0  0  0  0  0  0  0
  -29.4912   -3.2873   71.9386 C   0  0  0  0  0  0  0  0  0  0  0  0
  -29.0904   -2.2330   71.1266 C   0  0  0  0  0  0  0  0  0  0  0  0
  1 11  1  0  0  0  0
  1  4  1  0  0  0  0
  2  8  1  0  0  0  0
  3 10  1  0  0  0  0
  4  5  1  0  0  0  0
  5  6  1  0  0  0  0
  7  8  2  0  0  0  0
  7 12  1  0  0  0  0
  8  9  1  0  0  0  0
  9 10  2  0  0  0  0
 10 11  1  0  0  0  0
 11 12  2  0  0  0  0
M  END
>  <CHROM.1>
106.11217499,62.64018325,-178.55760331,-29.15286078,-2.57951364,72.18982758
2.98608517,-0.05771963,-0.54257681

>  <Name>
ligand

>  <RI>
0

>  <Rbt.Current_Directory>
/home/itssahil/PROJECTS/Mol_Feturizer/Test_systems_manuscript/rnas/4nya

>  <Rbt.Executable>
rbdock ($Id: //depot/dev/client3/rdock/2013.1/src/exe/rbdock.cxx#4 $)

>  <Rbt.Library>
libRbt.so (2013.1, Build901 2013/11/27)

>  <Rbt.Parameter_File>
/export/apps/rDock/src/rDock_2013.1_src/data/scripts/dock_solv.prm

>  <Rbt.Receptor>
prm/blind_docking_80.prm

>  <SCORE>
2.35571

>  <SCORE.INTER>
1.82022

>  <SCORE.INTER.CONST>
1

>  <SCORE.INTER.POLAR>
0

>  <SCORE.INTER.ROT>
3

>  <SCORE.INTER.SOLV>
10.389

>  <SCORE.INTER.VDW>
-7.84951

>  <SCORE.INTER.norm>
0.151685

>  <SCORE.INTRA>
0.453161

>  <SCORE.INTRA.DIHEDRAL>
-1.87166

>  <SCORE.INTRA.DIHEDRAL.0>
3.34563

>  <SCORE.INTRA.POLAR>
0

>  <SCORE.INTRA.POLAR.0>
0

>  <SCORE.INTRA.REPUL>
0

>  <SCORE.INTRA.REPUL.0>
0

>  <SCORE.INTRA.SOLV>
1.49432

>  <SCORE.INTRA.SOLV.lig_0>
-59.746

>  <SCORE.INTRA.VDW>
0.64183

>  <SCORE.INTRA.VDW.0>
-0.691186

>  <SCORE.INTRA.norm>
0.0377634

>  <SCORE.RESTR>
0.0823267

>  <SCORE.RESTR.CAVITY>
0.0823267

>  <SCORE.RESTR.norm>
0.00686056

>  <SCORE.SYSTEM>
0

>  <SCORE.SYSTEM.CONST>
0

>  <SCORE.SYSTEM.DIHEDRAL>
0

>  <SCORE.SYSTEM.SOLV>
0

>  <SCORE.SYSTEM.norm>
0

>  <SCORE.heavy>
12

>  <SCORE.norm>
0.196309

>  <RMSD>
25.739

$$$$
ligand
 OpenBabel02271912143D
libRbt.so/2013.1/901 2013/11/27
 12 12  0  0  0  0  0  0  0  0999 V2000
  -30.7684   -3.5585   71.2273 C   0  0  0  0  0  0  0  0  0  0  0  0
  -25.6082   -1.7962   71.9649 C   0  0  0  0  0  0  0  0  0  0  0  0
  -28.7746   -5.2373   71.8898 N   0  0  0  0  0  0  0  0  0  0  0  0
  -31.2041   -3.7578   72.6169 N   0  0  0  0  0  0  0  0  0  0  0  0
  -31.1000   -2.8682   73.2912 N   0  0  0  0  0  0  0  0  0  0  0  0
  -30.9980   -1.9817   73.9691 N   0  0  0  0  0  0  0  0  0  0  0  0
  -27.8563   -1.3482   71.4003 N   0  0  0  0  0  0  0  0  0  0  0  0
  -26.9101   -2.2307   71.7471 C   0  0  0  0  0  0  0  0  0  0  0  0
  -27.1870   -3.5409   71.8222 N   0  0  0  0  0  0  0  0  0  0  0  0
  -28.4206   -3.9991   71.5638 C   0  0  0  0  0  0  0  0  0  0  0  0
  -29.4466   -3.1309   71.2092 C   0  0  0  0  0  0  0  0  0  0  0  0
  -29.1585   -1.7747   71.1133 C   0  0  0  0  0  0  0  0  0  0  0  0
  1 11  1  0  0  0  0
  1  4  1  0  0  0  0
  2  8  1  0  0  0  0
  3 10  1  0  0  0  0
  4  5  1  0  0  0  0
  5  6  1  0  0  0  0
  7  8  2  0  0  0  0
  7 12  1  0  0  0  0
  8  9  1  0  0  0  0
  9 10  2  0  0  0  0
 10 11  1  0  0  0  0
 11 12  2  0  0  0  0
M  END
>  <CHROM.1>
70.03046214,56.34344266,178.80000606,-28.95482354,-2.93566469,72.01292083
-3.01534030,0.28654215,0.29737598

>  <Name>
ligand

>  <RI>
0

>  <Rbt.Current_Directory>
/home/itssahil/PROJECTS/Mol_Feturizer/Test_systems_manuscript/rnas/4nya

>  <Rbt.Executable>
rbdock ($Id: //depot/dev/client3/rdock/2013.1/src/exe/rbdock.cxx#4 $)

>  <Rbt.Library>
libRbt.so (2013.1, Build901 2013/11/27)

>  <Rbt.Parameter_File>
/export/apps/rDock/src/rDock_2013.1_src/data/scripts/dock_solv.prm

>  <Rbt.Receptor>
prm/blind_docking_80.prm

>  <SCORE>
-0.882837

>  <SCORE.INTER>
-1.91956

>  <SCORE.INTER.CONST>
1

>  <SCORE.INTER.POLAR>
0

>  <SCORE.INTER.ROT>
3

>  <SCORE.INTER.SOLV>
12.2382

>  <SCORE.INTER.VDW>
-10.9591

>  <SCORE.INTER.norm>
-0.159964

>  <SCORE.INTRA>
0.555342

>  <SCORE.INTRA.DIHEDRAL>
-2.10343

>  <SCORE.INTRA.DIHEDRAL.0>
3.34563

>  <SCORE.INTRA.POLAR>
0

>  <SCORE.INTRA.POLAR.0>
0

>  <SCORE.INTRA.REPUL>
0

>  <SCORE.INTRA.REPUL.0>
0

>  <SCORE.INTRA.SOLV>
3.10106

>  <SCORE.INTRA.SOLV.lig_0>
-59.746

>  <SCORE.INTRA.VDW>
0.0565272

>  <SCORE.INTRA.VDW.0>
-0.691186

>  <SCORE.INTRA.norm>
0.0462785

>  <SCORE.RESTR>
0.481384

>  <SCORE.RESTR.CAVITY>
0.481384

>  <SCORE.RESTR.norm>
0.0401153

>  <SCORE.SYSTEM>
0

>  <SCORE.SYSTEM.CONST>
0

>  <SCORE.SYSTEM.DIHEDRAL>
0

>  <SCORE.SYSTEM.SOLV>
0

>  <SCORE.SYSTEM.norm>
0

>  <SCORE.heavy>
12

>  <SCORE.norm>
-0.0735698

>  <RMSD>
25.747

$$$$
ligand
 OpenBabel02271912143D
libRbt.so/2013.1/901 2013/11/27
 12 12  0  0  0  0  0  0  0  0999 V2000
  -30.7680   -3.5575   71.2283 C   0  0  0  0  0  0  0  0  0  0  0  0
  -25.6068   -1.7942   71.9568 C   0  0  0  0  0  0  0  0  0  0  0  0
  -28.7733   -5.2354   71.8906 N   0  0  0  0  0  0  0  0  0  0  0  0
  -31.1983   -3.7657   72.6182 N   0  0  0  0  0  0  0  0  0  0  0  0
  -31.0980   -2.8786   73.2962 N   0  0  0  0  0  0  0  0  0  0  0  0
  -30.9996   -1.9944   73.9777 N   0  0  0  0  0  0  0  0  0  0  0  0
  -27.8556   -1.3470   71.3945 N   0  0  0  0  0  0  0  0  0  0  0  0
  -26.9090   -2.2290   71.7413 C   0  0  0  0  0  0  0  0  0  0  0  0
  -27.1858   -3.5392   71.8186 N   0  0  0  0  0  0  0  0  0  0  0  0
  -28.4197   -3.9976   71.5624 C   0  0  0  0  0  0  0  0  0  0  0  0
  -29.4462   -3.1299   71.2079 C   0  0  0  0  0  0  0  0  0  0  0  0
  -29.1581   -1.7739   71.1098 C   0  0  0  0  0  0  0  0  0  0  0  0
  1 11  1  0  0  0  0
  1  4  1  0  0  0  0
  2  8  1  0  0  0  0
  3 10  1  0  0  0  0
  4  5  1  0  0  0  0
  5  6  1  0  0  0  0
  7  8  2  0  0  0  0
  7 12  1  0  0  0  0
  8  9  1  0  0  0  0
  9 10  2  0  0  0  0
 10 11  1  0  0  0  0
 11 12  2  0  0  0  0
M  END
>  <CHROM.1>
69.55598767,56.73545662,178.94721069,-28.95363207,-2.93729369,72.01191505
-3.01375987,0.28973642,0.29662963

>  <Name>
ligand

>  <RI>
0

>  <Rbt.Current_Directory>
/home/itssahil/PROJECTS/Mol_Feturizer/Test_systems_manuscript/rnas/4nya

>  <Rbt.Executable>
rbdock ($Id: //depot/dev/client3/rdock/2013.1/src/exe/rbdock.cxx#4 $)

>  <Rbt.Library>
libRbt.so (2013.1, Build901 2013/11/27)

>  <Rbt.Parameter_File>
/export/apps/rDock/src/rDock_2013.1_src/data/scripts/dock_solv.prm

>  <Rbt.Receptor>
prm/blind_docking_80.prm

>  <SCORE>
-0.867543

>  <SCORE.INTER>
-1.90265

>  <SCORE.INTER.CONST>
1

>  <SCORE.INTER.POLAR>
0

>  <SCORE.INTER.ROT>
3

>  <SCORE.INTER.SOLV>
12.2357

>  <SCORE.INTER.VDW>
-10.947

>  <SCORE.INTER.norm>
-0.158554

>  <SCORE.INTRA>
0.556556

>  <SCORE.INTRA.DIHEDRAL>
-2.09637

>  <SCORE.INTRA.DIHEDRAL.0>
3.34563

>  <SCORE.INTRA.POLAR>
0

>  <SCORE.INTRA.POLAR.0>
0

>  <SCORE.INTRA.REPUL>
0

>  <SCORE.INTRA.REPUL.0>
0

>  <SCORE.INTRA.SOLV>
3.10649

>  <SCORE.INTRA.SOLV.lig_0>
-59.746

>  <SCORE.INTRA.VDW>
0.0514935

>  <SCORE.INTRA.VDW.0>
-0.691186

>  <SCORE.INTRA.norm>
0.0463797

>  <SCORE.RESTR>
0.478546

>  <SCORE.RESTR.CAVITY>
0.478546

>  <SCORE.RESTR.norm>
0.0398788

>  <SCORE.SYSTEM>
0

>  <SCORE.SYSTEM.CONST>
0

>  <SCORE.SYSTEM.DIHEDRAL>
0

>  <SCORE.SYSTEM.SOLV>
0

>  <SCORE.SYSTEM.norm>
0

>  <SCORE.heavy>
12

>  <SCORE.norm>
-0.0722952

>  <RMSD>
25.747

$$$$
ligand
 OpenBabel02271912143D
libRbt.so/2013.1/901 2013/11/27
 12 12  0  0  0  0  0  0  0  0999 V2000
  -30.7646   -3.5301   71.2083 C   0  0  0  0  0  0  0  0  0  0  0  0
  -25.5976   -1.8004   71.9750 C   0  0  0  0  0  0  0  0  0  0  0  0
  -28.7828   -5.2233   71.8703 N   0  0  0  0  0  0  0  0  0  0  0  0
  -31.2045   -3.7411   72.5948 N   0  0  0  0  0  0  0  0  0  0  0  0
  -31.1002   -2.8581   73.2776 N   0  0  0  0  0  0  0  0  0  0  0  0
  -30.9991   -1.9727   73.9572 N   0  0  0  0  0  0  0  0  0  0  0  0
  -27.8409   -1.3370   71.4038 N   0  0  0  0  0  0  0  0  0  0  0  0
  -26.9010   -2.2265   71.7499 C   0  0  0  0  0  0  0  0  0  0  0  0
  -27.1855   -3.5356   71.8174 N   0  0  0  0  0  0  0  0  0  0  0  0
  -28.4206   -3.9855   71.5519 C   0  0  0  0  0  0  0  0  0  0  0  0
  -29.4403   -3.1098   71.1976 C   0  0  0  0  0  0  0  0  0  0  0  0
  -29.1442   -1.7548   71.1096 C   0  0  0  0  0  0  0  0  0  0  0  0
  1 11  1  0  0  0  0
  1  4  1  0  0  0  0
  2  8  1  0  0  0  0
  3 10  1  0  0  0  0
  4  5  1  0  0  0  0
  5  6  1  0  0  0  0
  7  8  2  0  0  0  0
  7 12  1  0  0  0  0
  8  9  1  0  0  0  0
  9 10  2  0  0  0  0
 10 11  1  0  0  0  0
 11 12  2  0  0  0  0
M  END
>  <CHROM.1>
69.71202785,56.54215842,61.71659963,-28.95067345,-2.92344956,72.00444715
-3.01796646,0.28181106,0.30278384

>  <Name>
ligand

>  <RI>
0

>  <Rbt.Current_Directory>
/home/itssahil/PROJECTS/Mol_Feturizer/Test_systems_manuscript/rnas/4nya

>  <Rbt.Executable>
rbdock ($Id: //depot/dev/client3/rdock/2013.1/src/exe/rbdock.cxx#4 $)

>  <Rbt.Library>
libRbt.so (2013.1, Build901 2013/11/27)

>  <Rbt.Parameter_File>
/export/apps/rDock/src/rDock_2013.1_src/data/scripts/dock_solv.prm

>  <Rbt.Receptor>
prm/blind_docking_80.prm

>  <SCORE>
-0.875941

>  <SCORE.INTER>
-1.91435

>  <SCORE.INTER.CONST>
1

>  <SCORE.INTER.POLAR>
0

>  <SCORE.INTER.ROT>
3

>  <SCORE.INTER.SOLV>
12.2314

>  <SCORE.INTER.VDW>
-10.9534

>  <SCORE.INTER.norm>
-0.159529

>  <SCORE.INTRA>
0.56387

>  <SCORE.INTRA.DIHEDRAL>
-2.09791

>  <SCORE.INTRA.DIHEDRAL.0>
3.34563

>  <SCORE.INTRA.POLAR>
0

>  <SCORE.INTRA.POLAR.0>
0

>  <SCORE.INTRA.REPUL>
0

>  <SCORE.INTRA.REPUL.0>
0

>  <SCORE.INTRA.SOLV>
3.11623

>  <SCORE.INTRA.SOLV.lig_0>
-59.746

>  <SCORE.INTRA.VDW>
0.0547093

>  <SCORE.INTRA.VDW.0>
-0.691186

>  <SCORE.INTRA.norm>
0.0469892

>  <SCORE.RESTR>
0.474537

>  <SCORE.RESTR.CAVITY>
0.474537

>  <SCORE.RESTR.norm>
0.0395447

>  <SCORE.SYSTEM>
0

>  <SCORE.SYSTEM.CONST>
0

>  <SCORE.SYSTEM.DIHEDRAL>
0

>  <SCORE.SYSTEM.SOLV>
0

>  <SCORE.SYSTEM.norm>
0

>  <SCORE.heavy>
12

>  <SCORE.norm>
-0.0729951

>  <RMSD>
25.758

$$$$
ligand
 OpenBabel02271912143D
libRbt.so/2013.1/901 2013/11/27
 12 12  0  0  0  0  0  0  0  0999 V2000
  -30.9736   -3.2707   71.3590 C   0  0  0  0  0  0  0  0  0  0  0  0
  -25.6128   -2.1317   71.8504 C   0  0  0  0  0  0  0  0  0  0  0  0
  -29.1786   -5.1514   72.0474 N   0  0  0  0  0  0  0  0  0  0  0  0
  -31.5466   -2.5512   72.5054 N   0  0  0  0  0  0  0  0  0  0  0  0
  -30.9125   -2.5258   73.4295 N   0  0  0  0  0  0  0  0  0  0  0  0
  -30.2821   -2.4978   74.3558 N   0  0  0  0  0  0  0  0  0  0  0  0
  -27.8076   -1.4345   71.3308 N   0  0  0  0  0  0  0  0  0  0  0  0
  -26.9652   -2.4105   71.6943 C   0  0  0  0  0  0  0  0  0  0  0  0
  -27.3981   -3.6710   71.8451 N   0  0  0  0  0  0  0  0  0  0  0  0
  -28.6872   -3.9837   71.6476 C   0  0  0  0  0  0  0  0  0  0  0  0
  -29.6108   -3.0124   71.2794 C   0  0  0  0  0  0  0  0  0  0  0  0
  -29.1618   -1.7087   71.1051 C   0  0  0  0  0  0  0  0  0  0  0  0
  1 11  1  0  0  0  0
  1  4  1  0  0  0  0
  2  8  1  0  0  0  0
  3 10  1  0  0  0  0
  4  5  1  0  0  0  0
  5  6  1  0  0  0  0
  7  8  2  0  0  0  0
  7 12  1  0  0  0  0
  8  9  1  0  0  0  0
  9 10  2  0  0  0  0
 10 11  1  0  0  0  0
 11 12  2  0  0  0  0
M  END
>  <CHROM.1>
106.03519773,-39.21814482,-178.86985536,-29.01005048,-2.86198062,72.06622545
-3.11039775,0.27491610,0.25447803

>  <Name>
ligand

>  <RI>
0

>  <Rbt.Current_Directory>
/home/itssahil/PROJECTS/Mol_Feturizer/Test_systems_manuscript/rnas/4nya

>  <Rbt.Executable>
rbdock ($Id: //depot/dev/client3/rdock/2013.1/src/exe/rbdock.cxx#4 $)

>  <Rbt.Library>
libRbt.so (2013.1, Build901 2013/11/27)

>  <Rbt.Parameter_File>
/export/apps/rDock/src/rDock_2013.1_src/data/scripts/dock_solv.prm

>  <Rbt.Receptor>
prm/blind_docking_80.prm

>  <SCORE>
-0.454425

>  <SCORE.INTER>
-2.74068

>  <SCORE.INTER.CONST>
1

>  <SCORE.INTER.POLAR>
0

>  <SCORE.INTER.ROT>
3

>  <SCORE.INTER.SOLV>
10.1943

>  <SCORE.INTER.VDW>
-10.8252

>  <SCORE.INTER.norm>
-0.22839

>  <SCORE.INTRA>
1.86511

>  <SCORE.INTRA.DIHEDRAL>
-1.55828

>  <SCORE.INTRA.DIHEDRAL.0>
3.34563

>  <SCORE.INTRA.POLAR>
0

>  <SCORE.INTRA.POLAR.0>
0

>  <SCORE.INTRA.REPUL>
0

>  <SCORE.INTRA.REPUL.0>
0

>  <SCORE.INTRA.SOLV>
4.27845

>  <SCORE.INTRA.SOLV.lig_0>
-59.746

>  <SCORE.INTRA.VDW>
0.505025

>  <SCORE.INTRA.VDW.0>
-0.691186

>  <SCORE.INTRA.norm>
0.155426

>  <SCORE.RESTR>
0.421145

>  <SCORE.RESTR.CAVITY>
0.421145

>  <SCORE.RESTR.norm>
0.0350954

>  <SCORE.SYSTEM>
0

>  <SCORE.SYSTEM.CONST>
0

>  <SCORE.SYSTEM.DIHEDRAL>
0

>  <SCORE.SYSTEM.SOLV>
0

>  <SCORE.SYSTEM.norm>
0

>  <SCORE.heavy>
12

>  <SCORE.norm>
-0.0378688

>  <RMSD>
25.759

$$$$
ligand
 OpenBabel02271912143D
libRbt.so/2013.1/901 2013/11/27
 12 12  0  0  0  0  0  0  0  0999 V2000
  -30.9478   -3.2772   71.3481 C   0  0  0  0  0  0  0  0  0  0  0  0
  -25.5895   -2.1245   71.8358 C   0  0  0  0  0  0  0  0  0  0  0  0
  -29.1428   -5.1608   72.0016 N   0  0  0  0  0  0  0  0  0  0  0  0
  -31.5198   -2.5743   72.5053 N   0  0  0  0  0  0  0  0  0  0  0  0
  -30.8713   -2.5345   73.4189 N   0  0  0  0  0  0  0  0  0  0  0  0
  -30.2231   -2.4999   74.3325 N   0  0  0  0  0  0  0  0  0  0  0  0
  -27.7891   -1.4283   71.3350 N   0  0  0  0  0  0  0  0  0  0  0  0
  -26.9415   -2.4063   71.6807 C   0  0  0  0  0  0  0  0  0  0  0  0
  -27.3689   -3.6706   71.8144 N   0  0  0  0  0  0  0  0  0  0  0  0
  -28.6575   -3.9854   71.6172 C   0  0  0  0  0  0  0  0  0  0  0  0
  -29.5863   -3.0123   71.2671 C   0  0  0  0  0  0  0  0  0  0  0  0
  -29.1430   -1.7045   71.1106 C   0  0  0  0  0  0  0  0  0  0  0  0
  1 11  1  0  0  0  0
  1  4  1  0  0  0  0
  2  8  1  0  0  0  0
  3 10  1  0  0  0  0
  4  5  1  0  0  0  0
  5  6  1  0  0  0  0
  7  8  2  0  0  0  0
  7 12  1  0  0  0  0
  8  9  1  0  0  0  0
  9 10  2  0  0  0  0
 10 11  1  0  0  0  0
 11 12  2  0  0  0  0
M  END
>  <CHROM.1>
106.17771362,-37.67310928,-60.81573930,-28.98011145,-2.86456025,72.05089068
-3.11374502,0.27518279,0.28074276

>  <Name>
ligand

>  <RI>
0

>  <Rbt.Current_Directory>
/home/itssahil/PROJECTS/Mol_Feturizer/Test_systems_manuscript/rnas/4nya

>  <Rbt.Executable>
rbdock ($Id: //depot/dev/client3/rdock/2013.1/src/exe/rbdock.cxx#4 $)

>  <Rbt.Library>
libRbt.so (2013.1, Build901 2013/11/27)

>  <Rbt.Parameter_File>
/export/apps/rDock/src/rDock_2013.1_src/data/scripts/dock_solv.prm

>  <Rbt.Receptor>
prm/blind_docking_80.prm

>  <SCORE>
-0.223531

>  <SCORE.INTER>
-2.55792

>  <SCORE.INTER.CONST>
1

>  <SCORE.INTER.POLAR>
0

>  <SCORE.INTER.ROT>
3

>  <SCORE.INTER.SOLV>
10.4636

>  <SCORE.INTER.VDW>
-10.7931

>  <SCORE.INTER.norm>
-0.21316

>  <SCORE.INTRA>
1.96568

>  <SCORE.INTRA.DIHEDRAL>
-1.51054

>  <SCORE.INTRA.DIHEDRAL.0>
3.34563

>  <SCORE.INTRA.POLAR>
0

>  <SCORE.INTRA.POLAR.0>
0

>  <SCORE.INTRA.REPUL>
0

>  <SCORE.INTRA.REPUL.0>
0

>  <SCORE.INTRA.SOLV>
4.31415

>  <SCORE.INTRA.SOLV.lig_0>
-59.746

>  <SCORE.INTRA.VDW>
0.563871

>  <SCORE.INTRA.VDW.0>
-0.691186

>  <SCORE.INTRA.norm>
0.163806

>  <SCORE.RESTR>
0.368716

>  <SCORE.RESTR.CAVITY>
0.368716

>  <SCORE.RESTR.norm>
0.0307264

>  <SCORE.SYSTEM>
0

>  <SCORE.SYSTEM.CONST>
0

>  <SCORE.SYSTEM.DIHEDRAL>
0

>  <SCORE.SYSTEM.SOLV>
0

>  <SCORE.SYSTEM.norm>
0

>  <SCORE.heavy>
12

>  <SCORE.norm>
-0.0186276

>  <RMSD>
25.763

$$$$
ligand
 OpenBabel02271912143D
libRbt.so/2013.1/901 2013/11/27
 12 12  0  0  0  0  0  0  0  0999 V2000
  -30.9863   -3.2115   71.3513 C   0  0  0  0  0  0  0  0  0  0  0  0
  -25.6144   -2.1250   71.8413 C   0  0  0  0  0  0  0  0  0  0  0  0
  -29.2103   -5.1086   72.0439 N   0  0  0  0  0  0  0  0  0  0  0  0
  -31.5490   -2.4988   72.5072 N   0  0  0  0  0  0  0  0  0  0  0  0
  -30.9175   -2.5001   73.4334 N   0  0  0  0  0  0  0  0  0  0  0  0
  -30.2898   -2.4988   74.3619 N   0  0  0  0  0  0  0  0  0  0  0  0
  -27.8021   -1.4070   71.3199 N   0  0  0  0  0  0  0  0  0  0  0  0
  -26.9695   -2.3907   71.6855 C   0  0  0  0  0  0  0  0  0  0  0  0
  -27.4150   -3.6465   71.8388 N   0  0  0  0  0  0  0  0  0  0  0  0
  -28.7071   -3.9467   71.6417 C   0  0  0  0  0  0  0  0  0  0  0  0
  -29.6209   -2.9669   71.2715 C   0  0  0  0  0  0  0  0  0  0  0  0
  -29.1589   -1.6682   71.0946 C   0  0  0  0  0  0  0  0  0  0  0  0
  1 11  1  0  0  0  0
  1  4  1  0  0  0  0
  2  8  1  0  0  0  0
  3 10  1  0  0  0  0
  4  5  1  0  0  0  0
  5  6  1  0  0  0  0
  7  8  2  0  0  0  0
  7 12  1  0  0  0  0
  8  9  1  0  0  0  0
  9 10  2  0  0  0  0
 10 11  1  0  0  0  0
 11 12  2  0  0  0  0
M  END
>  <CHROM.1>
105.26418348,-39.86193075,-178.37122664,-29.01870489,-2.83063083,72.06145801
-3.10871098,0.27685259,0.23645547

>  <Name>
ligand

>  <RI>
0

>  <Rbt.Current_Directory>
/home/itssahil/PROJECTS/Mol_Feturizer/Test_systems_manuscript/rnas/4nya

>  <Rbt.Executable>
rbdock ($Id: //depot/dev/client3/rdock/2013.1/src/exe/rbdock.cxx#4 $)

>  <Rbt.Library>
libRbt.so (2013.1, Build901 2013/11/27)

>  <Rbt.Parameter_File>
/export/apps/rDock/src/rDock_2013.1_src/data/scripts/dock_solv.prm

>  <Rbt.Receptor>
prm/blind_docking_80.prm

>  <SCORE>
-0.502845

>  <SCORE.INTER>
-2.78101

>  <SCORE.INTER.CONST>
1

>  <SCORE.INTER.POLAR>
0

>  <SCORE.INTER.ROT>
3

>  <SCORE.INTER.SOLV>
9.99465

>  <SCORE.INTER.VDW>
-10.7856

>  <SCORE.INTER.norm>
-0.231751

>  <SCORE.INTRA>
1.8489

>  <SCORE.INTRA.DIHEDRAL>
-1.59736

>  <SCORE.INTRA.DIHEDRAL.0>
3.34563

>  <SCORE.INTRA.POLAR>
0

>  <SCORE.INTRA.POLAR.0>
0

>  <SCORE.INTRA.REPUL>
0

>  <SCORE.INTRA.REPUL.0>
0

>  <SCORE.INTRA.SOLV>
4.35734

>  <SCORE.INTRA.SOLV.lig_0>
-59.746

>  <SCORE.INTRA.VDW>
0.468906

>  <SCORE.INTRA.VDW.0>
-0.691186

>  <SCORE.INTRA.norm>
0.154075

>  <SCORE.RESTR>
0.42927

>  <SCORE.RESTR.CAVITY>
0.42927

>  <SCORE.RESTR.norm>
0.0357725

>  <SCORE.SYSTEM>
0

>  <SCORE.SYSTEM.CONST>
0

>  <SCORE.SYSTEM.DIHEDRAL>
0

>  <SCORE.SYSTEM.SOLV>
0

>  <SCORE.SYSTEM.norm>
0

>  <SCORE.heavy>
12

>  <SCORE.norm>
-0.0419037

>  <RMSD>
25.776

$$$$
ligand
 OpenBabel02271912143D
libRbt.so/2013.1/901 2013/11/27
 12 12  0  0  0  0  0  0  0  0999 V2000
  -30.9935   -3.2242   71.3477 C   0  0  0  0  0  0  0  0  0  0  0  0
  -25.6256   -2.1175   71.8357 C   0  0  0  0  0  0  0  0  0  0  0  0
  -29.2098   -5.1151   72.0373 N   0  0  0  0  0  0  0  0  0  0  0  0
  -31.5625   -2.4962   72.4909 N   0  0  0  0  0  0  0  0  0  0  0  0
  -30.9436   -2.4992   73.4256 N   0  0  0  0  0  0  0  0  0  0  0  0
  -30.3285   -2.4994   74.3624 N   0  0  0  0  0  0  0  0  0  0  0  0
  -27.8164   -1.4074   71.3162 N   0  0  0  0  0  0  0  0  0  0  0  0
  -26.9798   -2.3882   71.6804 C   0  0  0  0  0  0  0  0  0  0  0  0
  -27.4204   -3.6459   71.8326 N   0  0  0  0  0  0  0  0  0  0  0  0
  -28.7114   -3.9509   71.6360 C   0  0  0  0  0  0  0  0  0  0  0  0
  -29.6291   -2.9742   71.2673 C   0  0  0  0  0  0  0  0  0  0  0  0
  -29.1723   -1.6736   71.0914 C   0  0  0  0  0  0  0  0  0  0  0  0
  1 11  1  0  0  0  0
  1  4  1  0  0  0  0
  2  8  1  0  0  0  0
  3 10  1  0  0  0  0
  4  5  1  0  0  0  0
  5  6  1  0  0  0  0
  7  8  2  0  0  0  0
  7 12  1  0  0  0  0
  8  9  1  0  0  0  0
  9 10  2  0  0  0  0
 10 11  1  0  0  0  0
 11 12  2  0  0  0  0
M  END
>  <CHROM.1>
106.23172881,-41.16130265,178.90606560,-29.03152987,-2.83238224,72.05578931
-3.11001207,0.27748058,0.23751427

>  <Name>
ligand

>  <RI>
0

>  <Rbt.Current_Directory>
/home/itssahil/PROJECTS/Mol_Feturizer/Test_systems_manuscript/rnas/4nya

>  <Rbt.Executable>
rbdock ($Id: //depot/dev/client3/rdock/2013.1/src/exe/rbdock.cxx#4 $)

>  <Rbt.Library>
libRbt.so (2013.1, Build901 2013/11/27)

>  <Rbt.Parameter_File>
/export/apps/rDock/src/rDock_2013.1_src/data/scripts/dock_solv.prm

>  <Rbt.Receptor>
prm/blind_docking_80.prm

>  <SCORE>
-0.585567

>  <SCORE.INTER>
-2.80898

>  <SCORE.INTER.CONST>
1

>  <SCORE.INTER.POLAR>
0

>  <SCORE.INTER.ROT>
3

>  <SCORE.INTER.SOLV>
10.0551

>  <SCORE.INTER.VDW>
-10.8244

>  <SCORE.INTER.norm>
-0.234082

>  <SCORE.INTRA>
1.77174

>  <SCORE.INTRA.DIHEDRAL>
-1.60525

>  <SCORE.INTRA.DIHEDRAL.0>
3.34563

>  <SCORE.INTRA.POLAR>
0

>  <SCORE.INTRA.POLAR.0>
0

>  <SCORE.INTRA.REPUL>
0

>  <SCORE.INTRA.REPUL.0>
0

>  <SCORE.INTRA.SOLV>
4.23363

>  <SCORE.INTRA.SOLV.lig_0>
-59.746

>  <SCORE.INTRA.VDW>
0.457554

>  <SCORE.INTRA.VDW.0>
-0.691186

>  <SCORE.INTRA.norm>
0.147645

>  <SCORE.RESTR>
0.451673

>  <SCORE.RESTR.CAVITY>
0.451673

>  <SCORE.RESTR.norm>
0.0376394

>  <SCORE.SYSTEM>
0

>  <SCORE.SYSTEM.CONST>
0

>  <SCORE.SYSTEM.DIHEDRAL>
0

>  <SCORE.SYSTEM.SOLV>
0

>  <SCORE.SYSTEM.norm>
0

>  <SCORE.heavy>
12

>  <SCORE.norm>
-0.0487973

>  <RMSD>
25.783

$$$$
ligand
 OpenBabel02271912143D
libRbt.so/2013.1/901 2013/11/27
 12 12  0  0  0  0  0  0  0  0999 V2000
  -30.9917   -3.2189   71.3339 C   0  0  0  0  0  0  0  0  0  0  0  0
  -25.6248   -2.1228   71.8553 C   0  0  0  0  0  0  0  0  0  0  0  0
  -29.2146   -5.1158   72.0242 N   0  0  0  0  0  0  0  0  0  0  0  0
  -31.5647   -2.4996   72.4806 N   0  0  0  0  0  0  0  0  0  0  0  0
  -30.9408   -2.4944   73.4120 N   0  0  0  0  0  0  0  0  0  0  0  0
  -30.3171   -2.4942   74.3431 N   0  0  0  0  0  0  0  0  0  0  0  0
  -27.8117   -1.4070   71.3276 N   0  0  0  0  0  0  0  0  0  0  0  0
  -26.9786   -2.3907   71.6916 C   0  0  0  0  0  0  0  0  0  0  0  0
  -27.4218   -3.6484   71.8358 N   0  0  0  0  0  0  0  0  0  0  0  0
  -28.7122   -3.9505   71.6310 C   0  0  0  0  0  0  0  0  0  0  0  0
  -29.6266   -2.9707   71.2619 C   0  0  0  0  0  0  0  0  0  0  0  0
  -29.1668   -1.6700   71.0945 C   0  0  0  0  0  0  0  0  0  0  0  0
  1 11  1  0  0  0  0
  1  4  1  0  0  0  0
  2  8  1  0  0  0  0
  3 10  1  0  0  0  0
  4  5  1  0  0  0  0
  5  6  1  0  0  0  0
  7  8  2  0  0  0  0
  7 12  1  0  0  0  0
  8  9  1  0  0  0  0
  9 10  2  0  0  0  0
 10 11  1  0  0  0  0
 11 12  2  0  0  0  0
M  END
>  <CHROM.1>
106.01007871,-39.99699208,-56.66200639,-29.02978950,-2.83171991,72.05308215
-3.11137588,0.26995493,0.24745308

>  <Name>
ligand

>  <RI>
0

>  <Rbt.Current_Directory>
/home/itssahil/PROJECTS/Mol_Feturizer/Test_systems_manuscript/rnas/4nya

>  <Rbt.Executable>
rbdock ($Id: //depot/dev/client3/rdock/2013.1/src/exe/rbdock.cxx#4 $)

>  <Rbt.Library>
libRbt.so (2013.1, Build901 2013/11/27)

>  <Rbt.Parameter_File>
/export/apps/rDock/src/rDock_2013.1_src/data/scripts/dock_solv.prm

>  <Rbt.Receptor>
prm/blind_docking_80.prm

>  <SCORE>
-0.537308

>  <SCORE.INTER>
-2.80851

>  <SCORE.INTER.CONST>
1

>  <SCORE.INTER.POLAR>
0

>  <SCORE.INTER.ROT>
3

>  <SCORE.INTER.SOLV>
10.0857

>  <SCORE.INTER.VDW>
-10.8342

>  <SCORE.INTER.norm>
-0.234042

>  <SCORE.INTRA>
1.8364

>  <SCORE.INTRA.DIHEDRAL>
-1.57773

>  <SCORE.INTRA.DIHEDRAL.0>
3.34563

>  <SCORE.INTRA.POLAR>
0

>  <SCORE.INTRA.POLAR.0>
0

>  <SCORE.INTRA.REPUL>
0

>  <SCORE.INTRA.REPUL.0>
0

>  <SCORE.INTRA.SOLV>
4.29691

>  <SCORE.INTRA.SOLV.lig_0>
-59.746

>  <SCORE.INTRA.VDW>
0.476806

>  <SCORE.INTRA.VDW.0>
-0.691186

>  <SCORE.INTRA.norm>
0.153033

>  <SCORE.RESTR>
0.434803

>  <SCORE.RESTR.CAVITY>
0.434803

>  <SCORE.RESTR.norm>
0.0362335

>  <SCORE.SYSTEM>
0

>  <SCORE.SYSTEM.CONST>
0

>  <SCORE.SYSTEM.DIHEDRAL>
0

>  <SCORE.SYSTEM.SOLV>
0

>  <SCORE.SYSTEM.norm>
0

>  <SCORE.heavy>
12

>  <SCORE.norm>
-0.0447757

>  <RMSD>
25.786

$$$$
ligand
 OpenBabel02271912143D
libRbt.so/2013.1/901 2013/11/27
 12 12  0  0  0  0  0  0  0  0999 V2000
  -30.9536   -3.3135   71.4707 C   0  0  0  0  0  0  0  0  0  0  0  0
  -25.6164   -2.0171   71.8048 C   0  0  0  0  0  0  0  0  0  0  0  0
  -29.1004   -5.1078   72.2318 N   0  0  0  0  0  0  0  0  0  0  0  0
  -31.5537   -2.4516   72.4990 N   0  0  0  0  0  0  0  0  0  0  0  0
  -30.8344   -1.9794   73.2177 N   0  0  0  0  0  0  0  0  0  0  0  0
  -30.1130   -1.5050   73.9322 N   0  0  0  0  0  0  0  0  0  0  0  0
  -27.8364   -1.4045   71.2852 N   0  0  0  0  0  0  0  0  0  0  0  0
  -26.9636   -2.3375   71.6879 C   0  0  0  0  0  0  0  0  0  0  0  0
  -27.3618   -3.5978   71.9163 N   0  0  0  0  0  0  0  0  0  0  0  0
  -28.6454   -3.9527   71.7590 C   0  0  0  0  0  0  0  0  0  0  0  0
  -29.5992   -3.0266   71.3533 C   0  0  0  0  0  0  0  0  0  0  0  0
  -29.1865   -1.7242   71.0988 C   0  0  0  0  0  0  0  0  0  0  0  0
  1 11  1  0  0  0  0
  1  4  1  0  0  0  0
  2  8  1  0  0  0  0
  3 10  1  0  0  0  0
  4  5  1  0  0  0  0
  5  6  1  0  0  0  0
  7  8  2  0  0  0  0
  7 12  1  0  0  0  0
  8  9  1  0  0  0  0
  9 10  2  0  0  0  0
 10 11  1  0  0  0  0
 11 12  2  0  0  0  0
M  END
>  <CHROM.1>
111.41247296,-18.71325563,60.10404512,-28.97806620,-2.69427511,72.04701982
3.11484393,0.21659429,0.23437222

>  <Name>
ligand

>  <RI>
0

>  <Rbt.Current_Directory>
/home/itssahil/PROJECTS/Mol_Feturizer/Test_systems_manuscript/rnas/4nya

>  <Rbt.Executable>
rbdock ($Id: //depot/dev/client3/rdock/2013.1/src/exe/rbdock.cxx#4 $)

>  <Rbt.Library>
libRbt.so (2013.1, Build901 2013/11/27)

>  <Rbt.Parameter_File>
/export/apps/rDock/src/rDock_2013.1_src/data/scripts/dock_solv.prm

>  <Rbt.Receptor>
prm/blind_docking_80.prm

>  <SCORE>
0.807981

>  <SCORE.INTER>
-2.56792

>  <SCORE.INTER.CONST>
1

>  <SCORE.INTER.POLAR>
0

>  <SCORE.INTER.ROT>
3

>  <SCORE.INTER.SOLV>
10.0892

>  <SCORE.INTER.VDW>
-10.675

>  <SCORE.INTER.norm>
-0.213993

>  <SCORE.INTRA>
3.37481

>  <SCORE.INTRA.DIHEDRAL>
-0.786781

>  <SCORE.INTRA.DIHEDRAL.0>
3.34563

>  <SCORE.INTRA.POLAR>
0

>  <SCORE.INTRA.POLAR.0>
0

>  <SCORE.INTRA.REPUL>
0

>  <SCORE.INTRA.REPUL.0>
0

>  <SCORE.INTRA.SOLV>
4.06735

>  <SCORE.INTRA.SOLV.lig_0>
-59.746

>  <SCORE.INTRA.VDW>
1.73453

>  <SCORE.INTRA.VDW.0>
-0.691186

>  <SCORE.INTRA.norm>
0.281234

>  <SCORE.RESTR>
0.00109064

>  <SCORE.RESTR.CAVITY>
0.00109064

>  <SCORE.RESTR.norm>
9.0887e-05

>  <SCORE.SYSTEM>
0

>  <SCORE.SYSTEM.CONST>
0

>  <SCORE.SYSTEM.DIHEDRAL>
0

>  <SCORE.SYSTEM.SOLV>
0

>  <SCORE.SYSTEM.norm>
0

>  <SCORE.heavy>
12

>  <SCORE.norm>
0.0673317

>  <RMSD>
25.816

$$$$
ligand
 OpenBabel02271912143D
libRbt.so/2013.1/901 2013/11/27
 12 12  0  0  0  0  0  0  0  0999 V2000
  -30.9946   -3.2500   71.3955 C   0  0  0  0  0  0  0  0  0  0  0  0
  -25.6390   -2.0865   71.8871 C   0  0  0  0  0  0  0  0  0  0  0  0
  -29.2095   -5.0902   72.2078 N   0  0  0  0  0  0  0  0  0  0  0  0
  -31.5786   -2.4767   72.5008 N   0  0  0  0  0  0  0  0  0  0  0  0
  -30.8447   -2.0009   73.2020 N   0  0  0  0  0  0  0  0  0  0  0  0
  -30.1089   -1.5226   73.8990 N   0  0  0  0  0  0  0  0  0  0  0  0
  -27.8270   -1.4187   71.3038 N   0  0  0  0  0  0  0  0  0  0  0  0
  -26.9898   -2.3733   71.7305 C   0  0  0  0  0  0  0  0  0  0  0  0
  -27.4255   -3.6235   71.9454 N   0  0  0  0  0  0  0  0  0  0  0  0
  -28.7123   -3.9464   71.7501 C   0  0  0  0  0  0  0  0  0  0  0  0
  -29.6307   -2.9966   71.3181 C   0  0  0  0  0  0  0  0  0  0  0  0
  -29.1786   -1.7047   71.0776 C   0  0  0  0  0  0  0  0  0  0  0  0
  1 11  1  0  0  0  0
  1  4  1  0  0  0  0
  2  8  1  0  0  0  0
  3 10  1  0  0  0  0
  4  5  1  0  0  0  0
  5  6  1  0  0  0  0
  7  8  2  0  0  0  0
  7 12  1  0  0  0  0
  8  9  1  0  0  0  0
  9 10  2  0  0  0  0
 10 11  1  0  0  0  0
 11 12  2  0  0  0  0
M  END
>  <CHROM.1>
105.57244866,-11.78451479,58.38726738,-29.00935794,-2.70124125,72.04444484
3.11895609,0.19587750,0.25011159

>  <Name>
ligand

>  <RI>
0

>  <Rbt.Current_Directory>
/home/itssahil/PROJECTS/Mol_Feturizer/Test_systems_manuscript/rnas/4nya

>  <Rbt.Executable>
rbdock ($Id: //depot/dev/client3/rdock/2013.1/src/exe/rbdock.cxx#4 $)

>  <Rbt.Library>
libRbt.so (2013.1, Build901 2013/11/27)

>  <Rbt.Parameter_File>
/export/apps/rDock/src/rDock_2013.1_src/data/scripts/dock_solv.prm

>  <Rbt.Receptor>
prm/blind_docking_80.prm

>  <SCORE>
0.835719

>  <SCORE.INTER>
-2.85488

>  <SCORE.INTER.CONST>
1

>  <SCORE.INTER.POLAR>
0

>  <SCORE.INTER.ROT>
3

>  <SCORE.INTER.SOLV>
9.81147

>  <SCORE.INTER.VDW>
-10.7737

>  <SCORE.INTER.norm>
-0.237907

>  <SCORE.INTRA>
3.68913

>  <SCORE.INTRA.DIHEDRAL>
-0.803143

>  <SCORE.INTRA.DIHEDRAL.0>
3.34563

>  <SCORE.INTRA.POLAR>
0

>  <SCORE.INTRA.POLAR.0>
0

>  <SCORE.INTRA.REPUL>
0

>  <SCORE.INTRA.REPUL.0>
0

>  <SCORE.INTRA.SOLV>
4.58214

>  <SCORE.INTRA.SOLV.lig_0>
-59.746

>  <SCORE.INTRA.VDW>
1.79964

>  <SCORE.INTRA.VDW.0>
-0.691186

>  <SCORE.INTRA.norm>
0.307428

>  <SCORE.RESTR>
0.00146447

>  <SCORE.RESTR.CAVITY>
0.00146447

>  <SCORE.RESTR.norm>
0.000122039

>  <SCORE.SYSTEM>
0

>  <SCORE.SYSTEM.CONST>
0

>  <SCORE.SYSTEM.DIHEDRAL>
0

>  <SCORE.SYSTEM.SOLV>
0

>  <SCORE.SYSTEM.norm>
0

>  <SCORE.heavy>
12

>  <SCORE.norm>
0.0696433

>  <RMSD>
25.828

$$$$
ligand
 OpenBabel02271912143D
libRbt.so/2013.1/901 2013/11/27
 12 12  0  0  0  0  0  0  0  0999 V2000
  -30.8851   -4.4127   72.3202 C   0  0  0  0  0  0  0  0  0  0  0  0
  -25.8927   -2.1361   71.9077 C   0  0  0  0  0  0  0  0  0  0  0  0
  -30.2529   -2.1328   73.5991 N   0  0  0  0  0  0  0  0  0  0  0  0
  -31.5224   -3.9427   71.0818 N   0  0  0  0  0  0  0  0  0  0  0  0
  -31.5936   -2.8302   70.9638 N   0  0  0  0  0  0  0  0  0  0  0  0
  -31.6597   -1.7177   70.8454 N   0  0  0  0  0  0  0  0  0  0  0  0
  -27.3881   -3.8845   71.3781 N   0  0  0  0  0  0  0  0  0  0  0  0
  -27.1396   -2.7382   72.0251 C   0  0  0  0  0  0  0  0  0  0  0  0
  -28.0569   -2.1966   72.8403 N   0  0  0  0  0  0  0  0  0  0  0  0
  -29.2499   -2.7824   73.0187 C   0  0  0  0  0  0  0  0  0  0  0  0
  -29.5698   -3.9675   72.3664 C   0  0  0  0  0  0  0  0  0  0  0  0
  -28.6149   -4.5404   71.5350 C   0  0  0  0  0  0  0  0  0  0  0  0
  1 11  1  0  0  0  0
  1  4  1  0  0  0  0
  2  8  1  0  0  0  0
  3 10  1  0  0  0  0
  4  5  1  0  0  0  0
  5  6  1  0  0  0  0
  7  8  2  0  0  0  0
  7 12  1  0  0  0  0
  8  9  1  0  0  0  0
  9 10  2  0  0  0  0
 10 11  1  0  0  0  0
 11 12  2  0  0  0  0
M  END
>  <CHROM.1>
93.69321871,-61.87982790,67.35585738,-29.33058303,-3.08094891,71.97744455
-3.01393427,-0.08722336,0.42361802

>  <Name>
ligand

>  <RI>
0

>  <Rbt.Current_Directory>
/home/itssahil/PROJECTS/Mol_Feturizer/Test_systems_manuscript/rnas/4nya

>  <Rbt.Executable>
rbdock ($Id: //depot/dev/client3/rdock/2013.1/src/exe/rbdock.cxx#4 $)

>  <Rbt.Library>
libRbt.so (2013.1, Build901 2013/11/27)

>  <Rbt.Parameter_File>
/export/apps/rDock/src/rDock_2013.1_src/data/scripts/dock_solv.prm

>  <Rbt.Receptor>
prm/blind_docking_80.prm

>  <SCORE>
-0.459969

>  <SCORE.INTER>
-1.92859

>  <SCORE.INTER.CONST>
1

>  <SCORE.INTER.POLAR>
0

>  <SCORE.INTER.ROT>
3

>  <SCORE.INTER.SOLV>
8.94367

>  <SCORE.INTER.VDW>
-9.86695

>  <SCORE.INTER.norm>
-0.160716

>  <SCORE.INTRA>
1.46862

>  <SCORE.INTRA.DIHEDRAL>
-2.14575

>  <SCORE.INTRA.DIHEDRAL.0>
3.34563

>  <SCORE.INTRA.POLAR>
0

>  <SCORE.INTRA.POLAR.0>
0

>  <SCORE.INTRA.REPUL>
0

>  <SCORE.INTRA.REPUL.0>
0

>  <SCORE.INTRA.SOLV>
5.3409

>  <SCORE.INTRA.SOLV.lig_0>
-59.746

>  <SCORE.INTRA.VDW>
-0.128949

>  <SCORE.INTRA.VDW.0>
-0.691186

>  <SCORE.INTRA.norm>
0.122385

>  <SCORE.RESTR>
0

>  <SCORE.RESTR.CAVITY>
0

>  <SCORE.RESTR.norm>
0

>  <SCORE.SYSTEM>
0

>  <SCORE.SYSTEM.CONST>
0

>  <SCORE.SYSTEM.DIHEDRAL>
0

>  <SCORE.SYSTEM.SOLV>
0

>  <SCORE.SYSTEM.norm>
0

>  <SCORE.heavy>
12

>  <SCORE.norm>
-0.0383307

>  <RMSD>
25.843

$$$$
ligand
 OpenBabel02271912143D
libRbt.so/2013.1/901 2013/11/27
 12 12  0  0  0  0  0  0  0  0999 V2000
  -30.8975   -4.3933   72.3290 C   0  0  0  0  0  0  0  0  0  0  0  0
  -25.8958   -2.1386   71.9087 C   0  0  0  0  0  0  0  0  0  0  0  0
  -30.2519   -2.1188   73.6107 N   0  0  0  0  0  0  0  0  0  0  0  0
  -31.5298   -3.9347   71.0838 N   0  0  0  0  0  0  0  0  0  0  0  0
  -31.5924   -2.8233   70.9513 N   0  0  0  0  0  0  0  0  0  0  0  0
  -31.6575   -1.7129   70.8144 N   0  0  0  0  0  0  0  0  0  0  0  0
  -27.4004   -3.8792   71.3795 N   0  0  0  0  0  0  0  0  0  0  0  0
  -27.1451   -2.7352   72.0281 C   0  0  0  0  0  0  0  0  0  0  0  0
  -28.0580   -2.1910   72.8465 N   0  0  0  0  0  0  0  0  0  0  0  0
  -29.2532   -2.7718   73.0266 C   0  0  0  0  0  0  0  0  0  0  0  0
  -29.5800   -3.9541   72.3729 C   0  0  0  0  0  0  0  0  0  0  0  0
  -28.6297   -4.5298   71.5380 C   0  0  0  0  0  0  0  0  0  0  0  0
  1 11  1  0  0  0  0
  1  4  1  0  0  0  0
  2  8  1  0  0  0  0
  3 10  1  0  0  0  0
  4  5  1  0  0  0  0
  5  6  1  0  0  0  0
  7  8  2  0  0  0  0
  7 12  1  0  0  0  0
  8  9  1  0  0  0  0
  9 10  2  0  0  0  0
 10 11  1  0  0  0  0
 11 12  2  0  0  0  0
M  END
>  <CHROM.1>
94.51442222,-61.70252198,-175.86647059,-29.33589935,-3.07281185,71.97788574
-3.01164233,-0.08882103,0.43759844

>  <Name>
ligand

>  <RI>
0

>  <Rbt.Current_Directory>
/home/itssahil/PROJECTS/Mol_Feturizer/Test_systems_manuscript/rnas/4nya

>  <Rbt.Executable>
rbdock ($Id: //depot/dev/client3/rdock/2013.1/src/exe/rbdock.cxx#4 $)

>  <Rbt.Library>
libRbt.so (2013.1, Build901 2013/11/27)

>  <Rbt.Parameter_File>
/export/apps/rDock/src/rDock_2013.1_src/data/scripts/dock_solv.prm

>  <Rbt.Receptor>
prm/blind_docking_80.prm

>  <SCORE>
-0.495129

>  <SCORE.INTER>
-1.90997

>  <SCORE.INTER.CONST>
1

>  <SCORE.INTER.POLAR>
0

>  <SCORE.INTER.ROT>
3

>  <SCORE.INTER.SOLV>
9.03562

>  <SCORE.INTER.VDW>
-9.88519

>  <SCORE.INTER.norm>
-0.159164

>  <SCORE.INTRA>
1.41407

>  <SCORE.INTRA.DIHEDRAL>
-2.14275

>  <SCORE.INTRA.DIHEDRAL.0>
3.34563

>  <SCORE.INTRA.POLAR>
0

>  <SCORE.INTRA.POLAR.0>
0

>  <SCORE.INTRA.REPUL>
0

>  <SCORE.INTRA.REPUL.0>
0

>  <SCORE.INTRA.SOLV>
5.2183

>  <SCORE.INTRA.SOLV.lig_0>
-59.746

>  <SCORE.INTRA.VDW>
-0.123699

>  <SCORE.INTRA.VDW.0>
-0.691186

>  <SCORE.INTRA.norm>
0.11784

>  <SCORE.RESTR>
0.000764519

>  <SCORE.RESTR.CAVITY>
0.000764519

>  <SCORE.RESTR.norm>
6.37099e-05

>  <SCORE.SYSTEM>
0

>  <SCORE.SYSTEM.CONST>
0

>  <SCORE.SYSTEM.DIHEDRAL>
0

>  <SCORE.SYSTEM.SOLV>
0

>  <SCORE.SYSTEM.norm>
0

>  <SCORE.heavy>
12

>  <SCORE.norm>
-0.0412608

>  <RMSD>
25.847

$$$$
ligand
 OpenBabel02271912143D
libRbt.so/2013.1/901 2013/11/27
 12 12  0  0  0  0  0  0  0  0999 V2000
  -30.8922   -4.3777   72.3145 C   0  0  0  0  0  0  0  0  0  0  0  0
  -25.8777   -2.1438   71.9372 C   0  0  0  0  0  0  0  0  0  0  0  0
  -30.2438   -2.1138   73.6134 N   0  0  0  0  0  0  0  0  0  0  0  0
  -31.5074   -3.9302   71.0568 N   0  0  0  0  0  0  0  0  0  0  0  0
  -31.5440   -2.8206   70.9015 N   0  0  0  0  0  0  0  0  0  0  0  0
  -31.5831   -1.7120   70.7419 N   0  0  0  0  0  0  0  0  0  0  0  0
  -27.3871   -3.8742   71.3888 N   0  0  0  0  0  0  0  0  0  0  0  0
  -27.1305   -2.7353   72.0457 C   0  0  0  0  0  0  0  0  0  0  0  0
  -28.0457   -2.1918   72.8618 N   0  0  0  0  0  0  0  0  0  0  0  0
  -29.2447   -2.7680   73.0314 C   0  0  0  0  0  0  0  0  0  0  0  0
  -29.5730   -3.9449   72.3688 C   0  0  0  0  0  0  0  0  0  0  0  0
  -28.6204   -4.5201   71.5362 C   0  0  0  0  0  0  0  0  0  0  0  0
  1 11  1  0  0  0  0
  1  4  1  0  0  0  0
  2  8  1  0  0  0  0
  3 10  1  0  0  0  0
  4  5  1  0  0  0  0
  5  6  1  0  0  0  0
  7  8  2  0  0  0  0
  7 12  1  0  0  0  0
  8  9  1  0  0  0  0
  9 10  2  0  0  0  0
 10 11  1  0  0  0  0
 11 12  2  0  0  0  0
M  END
>  <CHROM.1>
95.56675910,-60.52620480,-176.15769265,-29.31525915,-3.06876192,71.96990805
-3.00066089,-0.09718766,0.46388666

>  <Name>
ligand

>  <RI>
0

>  <Rbt.Current_Directory>
/home/itssahil/PROJECTS/Mol_Feturizer/Test_systems_manuscript/rnas/4nya

>  <Rbt.Executable>
rbdock ($Id: //depot/dev/client3/rdock/2013.1/src/exe/rbdock.cxx#4 $)

>  <Rbt.Library>
libRbt.so (2013.1, Build901 2013/11/27)

>  <Rbt.Parameter_File>
/export/apps/rDock/src/rDock_2013.1_src/data/scripts/dock_solv.prm

>  <Rbt.Receptor>
prm/blind_docking_80.prm

>  <SCORE>
-0.383764

>  <SCORE.INTER>
-1.77479

>  <SCORE.INTER.CONST>
1

>  <SCORE.INTER.POLAR>
0

>  <SCORE.INTER.ROT>
3

>  <SCORE.INTER.SOLV>
9.45039

>  <SCORE.INTER.VDW>
-9.93333

>  <SCORE.INTER.norm>
-0.1479

>  <SCORE.INTRA>
1.39085

>  <SCORE.INTRA.DIHEDRAL>
-2.12692

>  <SCORE.INTRA.DIHEDRAL.0>
3.34563

>  <SCORE.INTRA.POLAR>
0

>  <SCORE.INTRA.POLAR.0>
0

>  <SCORE.INTRA.REPUL>
0

>  <SCORE.INTRA.REPUL.0>
0

>  <SCORE.INTRA.SOLV>
5.11249

>  <SCORE.INTRA.SOLV.lig_0>
-59.746

>  <SCORE.INTRA.VDW>
-0.101941

>  <SCORE.INTRA.VDW.0>
-0.691186

>  <SCORE.INTRA.norm>
0.115904

>  <SCORE.RESTR>
0.000184378

>  <SCORE.RESTR.CAVITY>
0.000184378

>  <SCORE.RESTR.norm>
1.53648e-05

>  <SCORE.SYSTEM>
0

>  <SCORE.SYSTEM.CONST>
0

>  <SCORE.SYSTEM.DIHEDRAL>
0

>  <SCORE.SYSTEM.SOLV>
0

>  <SCORE.SYSTEM.norm>
0

>  <SCORE.heavy>
12

>  <SCORE.norm>
-0.0319804

>  <RMSD>
25.850

$$$$
ligand
 OpenBabel02271912143D
libRbt.so/2013.1/901 2013/11/27
 12 12  0  0  0  0  0  0  0  0999 V2000
  -30.9102   -4.4347   72.2882 C   0  0  0  0  0  0  0  0  0  0  0  0
  -25.9466   -2.0825   71.9603 C   0  0  0  0  0  0  0  0  0  0  0  0
  -30.3259   -2.1609   73.6001 N   0  0  0  0  0  0  0  0  0  0  0  0
  -31.5406   -3.9577   71.0490 N   0  0  0  0  0  0  0  0  0  0  0  0
  -31.5965   -2.8444   70.9296 N   0  0  0  0  0  0  0  0  0  0  0  0
  -31.6515   -1.7309   70.8152 N   0  0  0  0  0  0  0  0  0  0  0  0
  -27.4104   -3.8459   71.3934 N   0  0  0  0  0  0  0  0  0  0  0  0
  -27.1860   -2.7036   72.0563 C   0  0  0  0  0  0  0  0  0  0  0  0
  -28.1204   -2.1846   72.8666 N   0  0  0  0  0  0  0  0  0  0  0  0
  -29.3069   -2.7893   73.0242 C   0  0  0  0  0  0  0  0  0  0  0  0
  -29.6021   -3.9713   72.3549 C   0  0  0  0  0  0  0  0  0  0  0  0
  -28.6294   -4.5210   71.5284 C   0  0  0  0  0  0  0  0  0  0  0  0
  1 11  1  0  0  0  0
  1  4  1  0  0  0  0
  2  8  1  0  0  0  0
  3 10  1  0  0  0  0
  4  5  1  0  0  0  0
  5  6  1  0  0  0  0
  7  8  2  0  0  0  0
  7 12  1  0  0  0  0
  8  9  1  0  0  0  0
  9 10  2  0  0  0  0
 10 11  1  0  0  0  0
 11 12  2  0  0  0  0
M  END
>  <CHROM.1>
93.58479161,-59.96724499,-17.15320774,-29.36391846,-3.07636982,71.97621678
-2.99289662,-0.09196251,0.43510787

>  <Name>
ligand

>  <RI>
0

>  <Rbt.Current_Directory>
/home/itssahil/PROJECTS/Mol_Feturizer/Test_systems_manuscript/rnas/4nya

>  <Rbt.Executable>
rbdock ($Id: //depot/dev/client3/rdock/2013.1/src/exe/rbdock.cxx#4 $)

>  <Rbt.Library>
libRbt.so (2013.1, Build901 2013/11/27)

>  <Rbt.Parameter_File>
/export/apps/rDock/src/rDock_2013.1_src/data/scripts/dock_solv.prm

>  <Rbt.Receptor>
prm/blind_docking_80.prm

>  <SCORE>
-0.241014

>  <SCORE.INTER>
-1.92425

>  <SCORE.INTER.CONST>
1

>  <SCORE.INTER.POLAR>
0

>  <SCORE.INTER.ROT>
3

>  <SCORE.INTER.SOLV>
9.0455

>  <SCORE.INTER.VDW>
-9.898

>  <SCORE.INTER.norm>
-0.160354

>  <SCORE.INTRA>
1.68312

>  <SCORE.INTRA.DIHEDRAL>
-1.84041

>  <SCORE.INTRA.DIHEDRAL.0>
3.34563

>  <SCORE.INTRA.POLAR>
0

>  <SCORE.INTRA.POLAR.0>
0

>  <SCORE.INTRA.REPUL>
0

>  <SCORE.INTRA.REPUL.0>
0

>  <SCORE.INTRA.SOLV>
5.40617

>  <SCORE.INTRA.SOLV.lig_0>
-59.746

>  <SCORE.INTRA.VDW>
-0.0997563

>  <SCORE.INTRA.VDW.0>
-0.691186

>  <SCORE.INTRA.norm>
0.14026

>  <SCORE.RESTR>
0.000109183

>  <SCORE.RESTR.CAVITY>
0.000109183

>  <SCORE.RESTR.norm>
9.0986e-06

>  <SCORE.SYSTEM>
0

>  <SCORE.SYSTEM.CONST>
0

>  <SCORE.SYSTEM.DIHEDRAL>
0

>  <SCORE.SYSTEM.SOLV>
0

>  <SCORE.SYSTEM.norm>
0

>  <SCORE.heavy>
12

>  <SCORE.norm>
-0.0200845

>  <RMSD>
25.855

$$$$
ligand
 OpenBabel02271912143D
libRbt.so/2013.1/901 2013/11/27
 12 12  0  0  0  0  0  0  0  0999 V2000
  -30.9034   -4.2733   72.3735 C   0  0  0  0  0  0  0  0  0  0  0  0
  -25.8853   -2.0588   71.9362 C   0  0  0  0  0  0  0  0  0  0  0  0
  -30.2602   -1.9607   73.5863 N   0  0  0  0  0  0  0  0  0  0  0  0
  -31.5175   -3.8580   71.1043 N   0  0  0  0  0  0  0  0  0  0  0  0
  -31.5935   -2.7516   70.9403 N   0  0  0  0  0  0  0  0  0  0  0  0
  -31.6645   -1.6452   70.7766 N   0  0  0  0  0  0  0  0  0  0  0  0
  -27.3931   -3.8085   71.4478 N   0  0  0  0  0  0  0  0  0  0  0  0
  -27.1391   -2.6449   72.0609 C   0  0  0  0  0  0  0  0  0  0  0  0
  -28.0582   -2.0692   72.8502 N   0  0  0  0  0  0  0  0  0  0  0  0
  -29.2585   -2.6377   73.0358 C   0  0  0  0  0  0  0  0  0  0  0  0
  -29.5842   -3.8395   72.4180 C   0  0  0  0  0  0  0  0  0  0  0  0
  -28.6276   -4.4473   71.6137 C   0  0  0  0  0  0  0  0  0  0  0  0
  1 11  1  0  0  0  0
  1  4  1  0  0  0  0
  2  8  1  0  0  0  0
  3 10  1  0  0  0  0
  4  5  1  0  0  0  0
  5  6  1  0  0  0  0
  7  8  2  0  0  0  0
  7 12  1  0  0  0  0
  8  9  1  0  0  0  0
  9 10  2  0  0  0  0
 10 11  1  0  0  0  0
 11 12  2  0  0  0  0
M  END
>  <CHROM.1>
94.74356884,-63.04534748,61.55752737,-29.33528455,-2.97425302,71.99814945
-3.01238826,-0.10086290,0.40805888

>  <Name>
ligand

>  <RI>
0

>  <Rbt.Current_Directory>
/home/itssahil/PROJECTS/Mol_Feturizer/Test_systems_manuscript/rnas/4nya

>  <Rbt.Executable>
rbdock ($Id: //depot/dev/client3/rdock/2013.1/src/exe/rbdock.cxx#4 $)

>  <Rbt.Library>
libRbt.so (2013.1, Build901 2013/11/27)

>  <Rbt.Parameter_File>
/export/apps/rDock/src/rDock_2013.1_src/data/scripts/dock_solv.prm

>  <Rbt.Receptor>
prm/blind_docking_80.prm

>  <SCORE>
-0.359436

>  <SCORE.INTER>
-1.73812

>  <SCORE.INTER.CONST>
1

>  <SCORE.INTER.POLAR>
0

>  <SCORE.INTER.ROT>
3

>  <SCORE.INTER.SOLV>
9.12168

>  <SCORE.INTER.VDW>
-9.7993

>  <SCORE.INTER.norm>
-0.144843

>  <SCORE.INTRA>
1.37868

>  <SCORE.INTRA.DIHEDRAL>
-2.13759

>  <SCORE.INTRA.DIHEDRAL.0>
3.34563

>  <SCORE.INTRA.POLAR>
0

>  <SCORE.INTRA.POLAR.0>
0

>  <SCORE.INTRA.REPUL>
0

>  <SCORE.INTRA.REPUL.0>
0

>  <SCORE.INTRA.SOLV>
5.17872

>  <SCORE.INTRA.SOLV.lig_0>
-59.746

>  <SCORE.INTRA.VDW>
-0.141885

>  <SCORE.INTRA.VDW.0>
-0.691186

>  <SCORE.INTRA.norm>
0.11489

>  <SCORE.RESTR>
0

>  <SCORE.RESTR.CAVITY>
0

>  <SCORE.RESTR.norm>
0

>  <SCORE.SYSTEM>
0

>  <SCORE.SYSTEM.CONST>
0

>  <SCORE.SYSTEM.DIHEDRAL>
0

>  <SCORE.SYSTEM.SOLV>
0

>  <SCORE.SYSTEM.norm>
0

>  <SCORE.heavy>
12

>  <SCORE.norm>
-0.029953

>  <RMSD>
25.855

$$$$
ligand
 OpenBabel02271912143D
libRbt.so/2013.1/901 2013/11/27
 12 12  0  0  0  0  0  0  0  0999 V2000
  -30.8947   -3.9562   72.5262 C   0  0  0  0  0  0  0  0  0  0  0  0
  -25.7469   -2.1241   71.8772 C   0  0  0  0  0  0  0  0  0  0  0  0
  -30.0239   -1.7111   73.7238 N   0  0  0  0  0  0  0  0  0  0  0  0
  -31.4478   -3.8262   71.1706 N   0  0  0  0  0  0  0  0  0  0  0  0
  -31.5263   -2.7798   70.7761 N   0  0  0  0  0  0  0  0  0  0  0  0
  -31.5997   -1.7334   70.3816 N   0  0  0  0  0  0  0  0  0  0  0  0
  -27.4038   -3.7496   71.4460 N   0  0  0  0  0  0  0  0  0  0  0  0
  -27.0350   -2.6147   72.0546 C   0  0  0  0  0  0  0  0  0  0  0  0
  -27.8715   -1.9789   72.8883 N   0  0  0  0  0  0  0  0  0  0  0  0
  -29.1022   -2.4566   73.1242 C   0  0  0  0  0  0  0  0  0  0  0  0
  -29.5457   -3.6241   72.5139 C   0  0  0  0  0  0  0  0  0  0  0  0
  -28.6749   -4.2947   71.6633 C   0  0  0  0  0  0  0  0  0  0  0  0
  1 11  1  0  0  0  0
  1  4  1  0  0  0  0
  2  8  1  0  0  0  0
  3 10  1  0  0  0  0
  4  5  1  0  0  0  0
  5  6  1  0  0  0  0
  7  8  2  0  0  0  0
  7 12  1  0  0  0  0
  8  9  1  0  0  0  0
  9 10  2  0  0  0  0
 10 11  1  0  0  0  0
 11 12  2  0  0  0  0
M  END
>  <CHROM.1>
110.20292936,-69.01598186,65.87990805,-29.24949433,-2.88226499,71.99515671
2.94780755,0.05726248,-2.28772981

>  <Name>
ligand

>  <RI>
0

>  <Rbt.Current_Directory>
/home/itssahil/PROJECTS/Mol_Feturizer/Test_systems_manuscript/rnas/4nya

>  <Rbt.Executable>
rbdock ($Id: //depot/dev/client3/rdock/2013.1/src/exe/rbdock.cxx#4 $)

>  <Rbt.Library>
libRbt.so (2013.1, Build901 2013/11/27)

>  <Rbt.Parameter_File>
/export/apps/rDock/src/rDock_2013.1_src/data/scripts/dock_solv.prm

>  <Rbt.Receptor>
prm/blind_docking_80.prm

>  <SCORE>
0.0590603

>  <SCORE.INTER>
-0.63648

>  <SCORE.INTER.CONST>
1

>  <SCORE.INTER.POLAR>
0

>  <SCORE.INTER.ROT>
3

>  <SCORE.INTER.SOLV>
10.8809

>  <SCORE.INTER.VDW>
-9.6513

>  <SCORE.INTER.norm>
-0.05304

>  <SCORE.INTRA>
0.694882

>  <SCORE.INTRA.DIHEDRAL>
-1.68267

>  <SCORE.INTRA.DIHEDRAL.0>
3.34563

>  <SCORE.INTRA.POLAR>
0

>  <SCORE.INTRA.POLAR.0>
0

>  <SCORE.INTRA.REPUL>
0

>  <SCORE.INTRA.REPUL.0>
0

>  <SCORE.INTRA.SOLV>
3.08279

>  <SCORE.INTRA.SOLV.lig_0>
-59.746

>  <SCORE.INTRA.VDW>
-0.00517714

>  <SCORE.INTRA.VDW.0>
-0.691186

>  <SCORE.INTRA.norm>
0.0579068

>  <SCORE.RESTR>
0.000658424

>  <SCORE.RESTR.CAVITY>
0.000658424

>  <SCORE.RESTR.norm>
5.48687e-05

>  <SCORE.SYSTEM>
0

>  <SCORE.SYSTEM.CONST>
0

>  <SCORE.SYSTEM.DIHEDRAL>
0

>  <SCORE.SYSTEM.SOLV>
0

>  <SCORE.SYSTEM.norm>
0

>  <SCORE.heavy>
12

>  <SCORE.norm>
0.00492169

>  <RMSD>
25.857

$$$$
ligand
 OpenBabel02271912143D
libRbt.so/2013.1/901 2013/11/27
 12 12  0  0  0  0  0  0  0  0999 V2000
  -30.9127   -4.2398   72.3912 C   0  0  0  0  0  0  0  0  0  0  0  0
  -25.8528   -2.1365   71.8905 C   0  0  0  0  0  0  0  0  0  0  0  0
  -30.2033   -1.9425   73.5962 N   0  0  0  0  0  0  0  0  0  0  0  0
  -31.5237   -3.8419   71.1149 N   0  0  0  0  0  0  0  0  0  0  0  0
  -31.5884   -2.7380   70.9304 N   0  0  0  0  0  0  0  0  0  0  0  0
  -31.6556   -1.6354   70.7416 N   0  0  0  0  0  0  0  0  0  0  0  0
  -27.4050   -3.8522   71.4210 N   0  0  0  0  0  0  0  0  0  0  0  0
  -27.1176   -2.6948   72.0311 C   0  0  0  0  0  0  0  0  0  0  0  0
  -28.0137   -2.0994   72.8321 N   0  0  0  0  0  0  0  0  0  0  0  0
  -29.2238   -2.6412   73.0328 C   0  0  0  0  0  0  0  0  0  0  0  0
  -29.5838   -3.8353   72.4189 C   0  0  0  0  0  0  0  0  0  0  0  0
  -28.6512   -4.4637   71.6025 C   0  0  0  0  0  0  0  0  0  0  0  0
  1 11  1  0  0  0  0
  1  4  1  0  0  0  0
  2  8  1  0  0  0  0
  3 10  1  0  0  0  0
  4  5  1  0  0  0  0
  5  6  1  0  0  0  0
  7  8  2  0  0  0  0
  7 12  1  0  0  0  0
  8  9  1  0  0  0  0
  9 10  2  0  0  0  0
 10 11  1  0  0  0  0
 11 12  2  0  0  0  0
M  END
>  <CHROM.1>
96.24093700,-63.86574775,-176.64291252,-29.32215197,-2.98488215,71.98618715
-3.02579122,-0.10054161,0.43171151

>  <Name>
ligand

>  <RI>
0

>  <Rbt.Current_Directory>
/home/itssahil/PROJECTS/Mol_Feturizer/Test_systems_manuscript/rnas/4nya

>  <Rbt.Executable>
rbdock ($Id: //depot/dev/client3/rdock/2013.1/src/exe/rbdock.cxx#4 $)

>  <Rbt.Library>
libRbt.so (2013.1, Build901 2013/11/27)

>  <Rbt.Parameter_File>
/export/apps/rDock/src/rDock_2013.1_src/data/scripts/dock_solv.prm

>  <Rbt.Receptor>
prm/blind_docking_80.prm

>  <SCORE>
-0.397764

>  <SCORE.INTER>
-1.67504

>  <SCORE.INTER.CONST>
1

>  <SCORE.INTER.POLAR>
0

>  <SCORE.INTER.ROT>
3

>  <SCORE.INTER.SOLV>
9.30951

>  <SCORE.INTER.VDW>
-9.81986

>  <SCORE.INTER.norm>
-0.139587

>  <SCORE.INTRA>
1.27646

>  <SCORE.INTRA.DIHEDRAL>
-2.10318

>  <SCORE.INTRA.DIHEDRAL.0>
3.34563

>  <SCORE.INTRA.POLAR>
0

>  <SCORE.INTRA.POLAR.0>
0

>  <SCORE.INTRA.REPUL>
0

>  <SCORE.INTRA.REPUL.0>
0

>  <SCORE.INTRA.SOLV>
4.94297

>  <SCORE.INTRA.SOLV.lig_0>
-59.746

>  <SCORE.INTRA.VDW>
-0.143439

>  <SCORE.INTRA.VDW.0>
-0.691186

>  <SCORE.INTRA.norm>
0.106372

>  <SCORE.RESTR>
0.000820275

>  <SCORE.RESTR.CAVITY>
0.000820275

>  <SCORE.RESTR.norm>
6.83562e-05

>  <SCORE.SYSTEM>
0

>  <SCORE.SYSTEM.CONST>
0

>  <SCORE.SYSTEM.DIHEDRAL>
0

>  <SCORE.SYSTEM.SOLV>
0

>  <SCORE.SYSTEM.norm>
0

>  <SCORE.heavy>
12

>  <SCORE.norm>
-0.033147

>  <RMSD>
25.860

$$$$
ligand
 OpenBabel02271912143D
libRbt.so/2013.1/901 2013/11/27
 12 12  0  0  0  0  0  0  0  0999 V2000
  -30.9157   -4.1987   72.4256 C   0  0  0  0  0  0  0  0  0  0  0  0
  -25.8439   -2.1362   71.8772 C   0  0  0  0  0  0  0  0  0  0  0  0
  -30.1798   -1.9014   73.6145 N   0  0  0  0  0  0  0  0  0  0  0  0
  -31.5093   -3.8814   71.1188 N   0  0  0  0  0  0  0  0  0  0  0  0
  -31.5642   -2.7916   70.8618 N   0  0  0  0  0  0  0  0  0  0  0  0
  -31.6141   -1.7018   70.6050 N   0  0  0  0  0  0  0  0  0  0  0  0
  -27.4126   -3.8422   71.4272 N   0  0  0  0  0  0  0  0  0  0  0  0
  -27.1118   -2.6842   72.0298 C   0  0  0  0  0  0  0  0  0  0  0  0
  -27.9973   -2.0783   72.8348 N   0  0  0  0  0  0  0  0  0  0  0  0
  -29.2099   -2.6101   73.0471 C   0  0  0  0  0  0  0  0  0  0  0  0
  -29.5836   -3.8041   72.4414 C   0  0  0  0  0  0  0  0  0  0  0  0
  -28.6619   -4.4434   71.6209 C   0  0  0  0  0  0  0  0  0  0  0  0
  1 11  1  0  0  0  0
  1  4  1  0  0  0  0
  2  8  1  0  0  0  0
  3 10  1  0  0  0  0
  4  5  1  0  0  0  0
  5  6  1  0  0  0  0
  7  8  2  0  0  0  0
  7 12  1  0  0  0  0
  8  9  1  0  0  0  0
  9 10  2  0  0  0  0
 10 11  1  0  0  0  0
 11 12  2  0  0  0  0
M  END
>  <CHROM.1>
99.94299783,-63.99827164,61.31397613,-29.31112001,-2.98191870,71.97681942
-2.99828696,-0.09544045,0.51521388

>  <Name>
ligand

>  <RI>
0

>  <Rbt.Current_Directory>
/home/itssahil/PROJECTS/Mol_Feturizer/Test_systems_manuscript/rnas/4nya

>  <Rbt.Executable>
rbdock ($Id: //depot/dev/client3/rdock/2013.1/src/exe/rbdock.cxx#4 $)

>  <Rbt.Library>
libRbt.so (2013.1, Build901 2013/11/27)

>  <Rbt.Parameter_File>
/export/apps/rDock/src/rDock_2013.1_src/data/scripts/dock_solv.prm

>  <Rbt.Receptor>
prm/blind_docking_80.prm

>  <SCORE>
-0.363628

>  <SCORE.INTER>
-1.4863

>  <SCORE.INTER.CONST>
1

>  <SCORE.INTER.POLAR>
0

>  <SCORE.INTER.ROT>
3

>  <SCORE.INTER.SOLV>
9.85476

>  <SCORE.INTER.VDW>
-9.87579

>  <SCORE.INTER.norm>
-0.123858

>  <SCORE.INTRA>
1.12261

>  <SCORE.INTRA.DIHEDRAL>
-2.02574

>  <SCORE.INTRA.DIHEDRAL.0>
3.34563

>  <SCORE.INTRA.POLAR>
0

>  <SCORE.INTRA.POLAR.0>
0

>  <SCORE.INTRA.REPUL>
0

>  <SCORE.INTRA.REPUL.0>
0

>  <SCORE.INTRA.SOLV>
4.49734

>  <SCORE.INTRA.SOLV.lig_0>
-59.746

>  <SCORE.INTRA.VDW>
-0.113192

>  <SCORE.INTRA.VDW.0>
-0.691186

>  <SCORE.INTRA.norm>
0.0935506

>  <SCORE.RESTR>
6.30594e-05

>  <SCORE.RESTR.CAVITY>
6.30594e-05

>  <SCORE.RESTR.norm>
5.25495e-06

>  <SCORE.SYSTEM>
0

>  <SCORE.SYSTEM.CONST>
0

>  <SCORE.SYSTEM.DIHEDRAL>
0

>  <SCORE.SYSTEM.SOLV>
0

>  <SCORE.SYSTEM.norm>
0

>  <SCORE.heavy>
12

>  <SCORE.norm>
-0.0303024

>  <RMSD>
25.865

$$$$
ligand
 OpenBabel02271912143D
libRbt.so/2013.1/901 2013/11/27
 12 12  0  0  0  0  0  0  0  0999 V2000
  -30.9069   -3.9546   72.5283 C   0  0  0  0  0  0  0  0  0  0  0  0
  -25.7589   -2.1357   71.8449 C   0  0  0  0  0  0  0  0  0  0  0  0
  -30.0203   -1.7155   73.7254 N   0  0  0  0  0  0  0  0  0  0  0  0
  -31.4736   -3.8040   71.1804 N   0  0  0  0  0  0  0  0  0  0  0  0
  -31.5105   -2.7564   70.7830 N   0  0  0  0  0  0  0  0  0  0  0  0
  -31.5423   -1.7090   70.3857 N   0  0  0  0  0  0  0  0  0  0  0  0
  -27.4238   -3.7551   71.4218 N   0  0  0  0  0  0  0  0  0  0  0  0
  -27.0469   -2.6231   72.0308 C   0  0  0  0  0  0  0  0  0  0  0  0
  -27.8752   -1.9872   72.8727 N   0  0  0  0  0  0  0  0  0  0  0  0
  -29.1054   -2.4620   73.1166 C   0  0  0  0  0  0  0  0  0  0  0  0
  -29.5570   -3.6264   72.5065 C   0  0  0  0  0  0  0  0  0  0  0  0
  -28.6947   -4.2971   71.6473 C   0  0  0  0  0  0  0  0  0  0  0  0
  1 11  1  0  0  0  0
  1  4  1  0  0  0  0
  2  8  1  0  0  0  0
  3 10  1  0  0  0  0
  4  5  1  0  0  0  0
  5  6  1  0  0  0  0
  7  8  2  0  0  0  0
  7 12  1  0  0  0  0
  8  9  1  0  0  0  0
  9 10  2  0  0  0  0
 10 11  1  0  0  0  0
 11 12  2  0  0  0  0
M  END
>  <CHROM.1>
109.54805917,-66.38525260,65.73850979,-29.25275864,-2.88007593,71.98672527
2.95526568,0.05031928,-2.27200684

>  <Name>
ligand

>  <RI>
0

>  <Rbt.Current_Directory>
/home/itssahil/PROJECTS/Mol_Feturizer/Test_systems_manuscript/rnas/4nya

>  <Rbt.Executable>
rbdock ($Id: //depot/dev/client3/rdock/2013.1/src/exe/rbdock.cxx#4 $)

>  <Rbt.Library>
libRbt.so (2013.1, Build901 2013/11/27)

>  <Rbt.Parameter_File>
/export/apps/rDock/src/rDock_2013.1_src/data/scripts/dock_solv.prm

>  <Rbt.Receptor>
prm/blind_docking_80.prm

>  <SCORE>
0.121247

>  <SCORE.INTER>
-0.630236

>  <SCORE.INTER.CONST>
1

>  <SCORE.INTER.POLAR>
0

>  <SCORE.INTER.ROT>
3

>  <SCORE.INTER.SOLV>
10.912

>  <SCORE.INTER.VDW>
-9.65748

>  <SCORE.INTER.norm>
-0.0525196

>  <SCORE.INTRA>
0.745204

>  <SCORE.INTRA.DIHEDRAL>
-1.7352

>  <SCORE.INTRA.DIHEDRAL.0>
3.34563

>  <SCORE.INTRA.POLAR>
0

>  <SCORE.INTRA.POLAR.0>
0

>  <SCORE.INTRA.REPUL>
0

>  <SCORE.INTRA.REPUL.0>
0

>  <SCORE.INTRA.SOLV>
3.24059

>  <SCORE.INTRA.SOLV.lig_0>
-59.746

>  <SCORE.INTRA.VDW>
-0.00749255

>  <SCORE.INTRA.VDW.0>
-0.691186

>  <SCORE.INTRA.norm>
0.0621003

>  <SCORE.RESTR>
0.00627882

>  <SCORE.RESTR.CAVITY>
0.00627882

>  <SCORE.RESTR.norm>
0.000523235

>  <SCORE.SYSTEM>
0

>  <SCORE.SYSTEM.CONST>
0

>  <SCORE.SYSTEM.DIHEDRAL>
0

>  <SCORE.SYSTEM.SOLV>
0

>  <SCORE.SYSTEM.norm>
0

>  <SCORE.heavy>
12

>  <SCORE.norm>
0.0101039

>  <RMSD>
25.867

$$$$
ligand
 OpenBabel02271912143D
libRbt.so/2013.1/901 2013/11/27
 12 12  0  0  0  0  0  0  0  0999 V2000
  -30.9499   -4.3953   72.2847 C   0  0  0  0  0  0  0  0  0  0  0  0
  -25.9603   -2.0971   71.9685 C   0  0  0  0  0  0  0  0  0  0  0  0
  -30.3486   -2.1196   73.5858 N   0  0  0  0  0  0  0  0  0  0  0  0
  -31.5656   -3.9280   71.0345 N   0  0  0  0  0  0  0  0  0  0  0  0
  -31.6032   -2.8160   70.8973 N   0  0  0  0  0  0  0  0  0  0  0  0
  -31.6434   -1.7050   70.7558 N   0  0  0  0  0  0  0  0  0  0  0  0
  -27.4396   -3.8485   71.4048 N   0  0  0  0  0  0  0  0  0  0  0  0
  -27.2067   -2.7047   72.0618 C   0  0  0  0  0  0  0  0  0  0  0  0
  -28.1398   -2.1709   72.8640 N   0  0  0  0  0  0  0  0  0  0  0  0
  -29.3333   -2.7622   73.0191 C   0  0  0  0  0  0  0  0  0  0  0  0
  -29.6374   -3.9452   72.3555 C   0  0  0  0  0  0  0  0  0  0  0  0
  -28.6662   -4.5100   71.5375 C   0  0  0  0  0  0  0  0  0  0  0  0
  1 11  1  0  0  0  0
  1  4  1  0  0  0  0
  2  8  1  0  0  0  0
  3 10  1  0  0  0  0
  4  5  1  0  0  0  0
  5  6  1  0  0  0  0
  7  8  2  0  0  0  0
  7 12  1  0  0  0  0
  8  9  1  0  0  0  0
  9 10  2  0  0  0  0
 10 11  1  0  0  0  0
 11 12  2  0  0  0  0
M  END
>  <CHROM.1>
94.01933279,-59.63337817,-175.87773388,-29.38578667,-3.05774359,71.96771180
-2.99539311,-0.10245064,0.43507324

>  <Name>
ligand

>  <RI>
0

>  <Rbt.Current_Directory>
/home/itssahil/PROJECTS/Mol_Feturizer/Test_systems_manuscript/rnas/4nya

>  <Rbt.Executable>
rbdock ($Id: //depot/dev/client3/rdock/2013.1/src/exe/rbdock.cxx#4 $)

>  <Rbt.Library>
libRbt.so (2013.1, Build901 2013/11/27)

>  <Rbt.Parameter_File>
/export/apps/rDock/src/rDock_2013.1_src/data/scripts/dock_solv.prm

>  <Rbt.Receptor>
prm/blind_docking_80.prm

>  <SCORE>
-0.381444

>  <SCORE.INTER>
-1.87577

>  <SCORE.INTER.CONST>
1

>  <SCORE.INTER.POLAR>
0

>  <SCORE.INTER.ROT>
3

>  <SCORE.INTER.SOLV>
9.22882

>  <SCORE.INTER.VDW>
-9.92679

>  <SCORE.INTER.norm>
-0.156314

>  <SCORE.INTRA>
1.49421

>  <SCORE.INTRA.DIHEDRAL>
-2.1533

>  <SCORE.INTRA.DIHEDRAL.0>
3.34563

>  <SCORE.INTRA.POLAR>
0

>  <SCORE.INTRA.POLAR.0>
0

>  <SCORE.INTRA.REPUL>
0

>  <SCORE.INTRA.REPUL.0>
0

>  <SCORE.INTRA.SOLV>
5.32947

>  <SCORE.INTRA.SOLV.lig_0>
-59.746

>  <SCORE.INTRA.VDW>
-0.0938781

>  <SCORE.INTRA.VDW.0>
-0.691186

>  <SCORE.INTRA.norm>
0.124517

>  <SCORE.RESTR>
0.000118831

>  <SCORE.RESTR.CAVITY>
0.000118831

>  <SCORE.RESTR.norm>
9.90257e-06

>  <SCORE.SYSTEM>
0

>  <SCORE.SYSTEM.CONST>
0

>  <SCORE.SYSTEM.DIHEDRAL>
0

>  <SCORE.SYSTEM.SOLV>
0

>  <SCORE.SYSTEM.norm>
0

>  <SCORE.heavy>
12

>  <SCORE.norm>
-0.031787

>  <RMSD>
25.876

$$$$
ligand
 OpenBabel02271912143D
libRbt.so/2013.1/901 2013/11/27
 12 12  0  0  0  0  0  0  0  0999 V2000
  -31.0021   -3.0364   71.2944 C   0  0  0  0  0  0  0  0  0  0  0  0
  -25.5929   -2.2074   71.8689 C   0  0  0  0  0  0  0  0  0  0  0  0
  -29.3455   -4.9872   72.1209 N   0  0  0  0  0  0  0  0  0  0  0  0
  -31.5111   -2.5204   72.5732 N   0  0  0  0  0  0  0  0  0  0  0  0
  -30.8199   -1.8361   73.1307 N   0  0  0  0  0  0  0  0  0  0  0  0
  -30.1254   -1.1556   73.6880 N   0  0  0  0  0  0  0  0  0  0  0  0
  -27.7269   -1.4031   71.2587 N   0  0  0  0  0  0  0  0  0  0  0  0
  -26.9562   -2.4097   71.6915 C   0  0  0  0  0  0  0  0  0  0  0  0
  -27.4711   -3.6318   71.8926 N   0  0  0  0  0  0  0  0  0  0  0  0
  -28.7724   -3.8739   71.6771 C   0  0  0  0  0  0  0  0  0  0  0  0
  -29.6243   -2.8671   71.2378 C   0  0  0  0  0  0  0  0  0  0  0  0
  -29.0901   -1.6042   71.0116 C   0  0  0  0  0  0  0  0  0  0  0  0
  1 11  1  0  0  0  0
  1  4  1  0  0  0  0
  2  8  1  0  0  0  0
  3 10  1  0  0  0  0
  4  5  1  0  0  0  0
  5  6  1  0  0  0  0
  7  8  2  0  0  0  0
  7 12  1  0  0  0  0
  8  9  1  0  0  0  0
  9 10  2  0  0  0  0
 10 11  1  0  0  0  0
 11 12  2  0  0  0  0
M  END
>  <CHROM.1>
91.50182905,17.11034712,-55.97189072,-29.00109954,-2.62208564,71.98037499
3.07551752,0.18260338,0.25915061

>  <Name>
ligand

>  <RI>
0

>  <Rbt.Current_Directory>
/home/itssahil/PROJECTS/Mol_Feturizer/Test_systems_manuscript/rnas/4nya

>  <Rbt.Executable>
rbdock ($Id: //depot/dev/client3/rdock/2013.1/src/exe/rbdock.cxx#4 $)

>  <Rbt.Library>
libRbt.so (2013.1, Build901 2013/11/27)

>  <Rbt.Parameter_File>
/export/apps/rDock/src/rDock_2013.1_src/data/scripts/dock_solv.prm

>  <Rbt.Receptor>
prm/blind_docking_80.prm

>  <SCORE>
1.12575

>  <SCORE.INTER>
-2.08393

>  <SCORE.INTER.CONST>
1

>  <SCORE.INTER.POLAR>
0

>  <SCORE.INTER.ROT>
3

>  <SCORE.INTER.SOLV>
10.3884

>  <SCORE.INTER.VDW>
-10.4521

>  <SCORE.INTER.norm>
-0.173661

>  <SCORE.INTRA>
3.20816

>  <SCORE.INTRA.DIHEDRAL>
-1.21547

>  <SCORE.INTRA.DIHEDRAL.0>
3.34563

>  <SCORE.INTRA.POLAR>
0

>  <SCORE.INTRA.POLAR.0>
0

>  <SCORE.INTRA.REPUL>
0

>  <SCORE.INTRA.REPUL.0>
0

>  <SCORE.INTRA.SOLV>
4.49968

>  <SCORE.INTRA.SOLV.lig_0>
-59.746

>  <SCORE.INTRA.VDW>
1.56606

>  <SCORE.INTRA.VDW.0>
-0.691186

>  <SCORE.INTRA.norm>
0.267347

>  <SCORE.RESTR>
0.00151625

>  <SCORE.RESTR.CAVITY>
0.00151625

>  <SCORE.RESTR.norm>
0.000126354

>  <SCORE.SYSTEM>
0

>  <SCORE.SYSTEM.CONST>
0

>  <SCORE.SYSTEM.DIHEDRAL>
0

>  <SCORE.SYSTEM.SOLV>
0

>  <SCORE.SYSTEM.norm>
0

>  <SCORE.heavy>
12

>  <SCORE.norm>
0.0938122

>  <RMSD>
25.914

$$$$
ligand
 OpenBabel02271912143D
libRbt.so/2013.1/901 2013/11/27
 12 12  0  0  0  0  0  0  0  0999 V2000
  -27.9285   -1.8706   71.6867 C   0  0  0  0  0  0  0  0  0  0  0  0
  -31.6810   -5.8071   72.5237 C   0  0  0  0  0  0  0  0  0  0  0  0
  -30.4957   -1.2918   72.2411 N   0  0  0  0  0  0  0  0  0  0  0  0
  -26.8457   -2.2251   72.6153 N   0  0  0  0  0  0  0  0  0  0  0  0
  -25.9154   -1.6046   72.5367 N   0  0  0  0  0  0  0  0  0  0  0  0
  -24.9831   -0.9871   72.4616 N   0  0  0  0  0  0  0  0  0  0  0  0
  -29.4690   -5.1766   71.9914 N   0  0  0  0  0  0  0  0  0  0  0  0
  -30.7285   -4.8246   72.2815 C   0  0  0  0  0  0  0  0  0  0  0  0
  -31.1003   -3.5358   72.2759 N   0  0  0  0  0  0  0  0  0  0  0  0
  -30.2180   -2.5667   71.9916 C   0  0  0  0  0  0  0  0  0  0  0  0
  -28.8946   -2.8692   71.6930 C   0  0  0  0  0  0  0  0  0  0  0  0
  -28.5105   -4.2047   71.6807 C   0  0  0  0  0  0  0  0  0  0  0  0
  1 11  1  0  0  0  0
  1  4  1  0  0  0  0
  2  8  1  0  0  0  0
  3 10  1  0  0  0  0
  4  5  1  0  0  0  0
  5  6  1  0  0  0  0
  7  8  2  0  0  0  0
  7 12  1  0  0  0  0
  8  9  1  0  0  0  0
  9 10  2  0  0  0  0
 10 11  1  0  0  0  0
 11 12  2  0  0  0  0
M  END
>  <CHROM.1>
123.47461360,167.77049408,-177.46977701,-28.88094578,-3.07101918,72.17972569
0.58110112,-0.02990763,-0.00873451

>  <Name>
ligand

>  <RI>
0

>  <Rbt.Current_Directory>
/home/itssahil/PROJECTS/Mol_Feturizer/Test_systems_manuscript/rnas/4nya

>  <Rbt.Executable>
rbdock ($Id: //depot/dev/client3/rdock/2013.1/src/exe/rbdock.cxx#4 $)

>  <Rbt.Library>
libRbt.so (2013.1, Build901 2013/11/27)

>  <Rbt.Parameter_File>
/export/apps/rDock/src/rDock_2013.1_src/data/scripts/dock_solv.prm

>  <Rbt.Receptor>
prm/blind_docking_80.prm

>  <SCORE>
-0.22074

>  <SCORE.INTER>
-1.00909

>  <SCORE.INTER.CONST>
1

>  <SCORE.INTER.POLAR>
0

>  <SCORE.INTER.ROT>
3

>  <SCORE.INTER.SOLV>
11.6769

>  <SCORE.INTER.VDW>
-10.165

>  <SCORE.INTER.norm>
-0.0840906

>  <SCORE.INTRA>
-0.683709

>  <SCORE.INTRA.DIHEDRAL>
-1.24714

>  <SCORE.INTRA.DIHEDRAL.0>
3.34563

>  <SCORE.INTRA.POLAR>
0

>  <SCORE.INTRA.POLAR.0>
0

>  <SCORE.INTRA.REPUL>
0

>  <SCORE.INTRA.REPUL.0>
0

>  <SCORE.INTRA.SOLV>
-0.833955

>  <SCORE.INTRA.SOLV.lig_0>
-59.746

>  <SCORE.INTRA.VDW>
0.356839

>  <SCORE.INTRA.VDW.0>
-0.691186

>  <SCORE.INTRA.norm>
-0.0569758

>  <SCORE.RESTR>
1.47206

>  <SCORE.RESTR.CAVITY>
1.47206

>  <SCORE.RESTR.norm>
0.122671

>  <SCORE.SYSTEM>
0

>  <SCORE.SYSTEM.CONST>
0

>  <SCORE.SYSTEM.DIHEDRAL>
0

>  <SCORE.SYSTEM.SOLV>
0

>  <SCORE.SYSTEM.norm>
0

>  <SCORE.heavy>
12

>  <SCORE.norm>
-0.018395

>  <RMSD>
25.944

$$$$
ligand
 OpenBabel02271912143D
libRbt.so/2013.1/901 2013/11/27
 12 12  0  0  0  0  0  0  0  0999 V2000
  -30.9112   -3.1513   71.2865 C   0  0  0  0  0  0  0  0  0  0  0  0
  -25.5441   -2.1072   71.9036 C   0  0  0  0  0  0  0  0  0  0  0  0
  -29.1847   -5.0344   72.1267 N   0  0  0  0  0  0  0  0  0  0  0  0
  -31.5718   -2.0336   71.9757 N   0  0  0  0  0  0  0  0  0  0  0  0
  -31.0973   -1.7072   72.9375 N   0  0  0  0  0  0  0  0  0  0  0  0
  -30.6236   -1.3855   73.9009 N   0  0  0  0  0  0  0  0  0  0  0  0
  -27.7036   -1.3887   71.2761 N   0  0  0  0  0  0  0  0  0  0  0  0
  -26.8968   -2.3636   71.7153 C   0  0  0  0  0  0  0  0  0  0  0  0
  -27.3641   -3.6053   71.9128 N   0  0  0  0  0  0  0  0  0  0  0  0
  -28.6530   -3.8991   71.6871 C   0  0  0  0  0  0  0  0  0  0  0  0
  -29.5408   -2.9272   71.2407 C   0  0  0  0  0  0  0  0  0  0  0  0
  -29.0557   -1.6440   71.0183 C   0  0  0  0  0  0  0  0  0  0  0  0
  1 11  1  0  0  0  0
  1  4  1  0  0  0  0
  2  8  1  0  0  0  0
  3 10  1  0  0  0  0
  4  5  1  0  0  0  0
  5  6  1  0  0  0  0
  7  8  2  0  0  0  0
  7 12  1  0  0  0  0
  8  9  1  0  0  0  0
  9 10  2  0  0  0  0
 10 11  1  0  0  0  0
 11 12  2  0  0  0  0
M  END
>  <CHROM.1>
127.81569921,-46.71754048,-59.29160239,-29.01390274,-2.59563762,71.93970754
3.02245311,0.14401387,0.21624324

>  <Name>
ligand

>  <RI>
0

>  <Rbt.Current_Directory>
/home/itssahil/PROJECTS/Mol_Feturizer/Test_systems_manuscript/rnas/4nya

>  <Rbt.Executable>
rbdock ($Id: //depot/dev/client3/rdock/2013.1/src/exe/rbdock.cxx#4 $)

>  <Rbt.Library>
libRbt.so (2013.1, Build901 2013/11/27)

>  <Rbt.Parameter_File>
/export/apps/rDock/src/rDock_2013.1_src/data/scripts/dock_solv.prm

>  <Rbt.Receptor>
prm/blind_docking_80.prm

>  <SCORE>
-0.381306

>  <SCORE.INTER>
-2.11427

>  <SCORE.INTER.CONST>
1

>  <SCORE.INTER.POLAR>
0

>  <SCORE.INTER.ROT>
3

>  <SCORE.INTER.SOLV>
10.9742

>  <SCORE.INTER.VDW>
-10.6676

>  <SCORE.INTER.norm>
-0.176189

>  <SCORE.INTRA>
1.33884

>  <SCORE.INTRA.DIHEDRAL>
-1.12301

>  <SCORE.INTRA.DIHEDRAL.0>
3.34563

>  <SCORE.INTRA.POLAR>
0

>  <SCORE.INTRA.POLAR.0>
0

>  <SCORE.INTRA.REPUL>
0

>  <SCORE.INTRA.REPUL.0>
0

>  <SCORE.INTRA.SOLV>
2.07816

>  <SCORE.INTRA.SOLV.lig_0>
-59.746

>  <SCORE.INTRA.VDW>
0.861262

>  <SCORE.INTRA.VDW.0>
-0.691186

>  <SCORE.INTRA.norm>
0.11157

>  <SCORE.RESTR>
0.39413

>  <SCORE.RESTR.CAVITY>
0.39413

>  <SCORE.RESTR.norm>
0.0328442

>  <SCORE.SYSTEM>
0

>  <SCORE.SYSTEM.CONST>
0

>  <SCORE.SYSTEM.DIHEDRAL>
0

>  <SCORE.SYSTEM.SOLV>
0

>  <SCORE.SYSTEM.norm>
0

>  <SCORE.heavy>
12

>  <SCORE.norm>
-0.0317755

>  <RMSD>
25.954

$$$$
ligand
 OpenBabel02271912143D
libRbt.so/2013.1/901 2013/11/27
 12 12  0  0  0  0  0  0  0  0999 V2000
  -30.9439   -3.2869   72.1703 C   0  0  0  0  0  0  0  0  0  0  0  0
  -25.6190   -1.9145   72.3716 C   0  0  0  0  0  0  0  0  0  0  0  0
  -29.2393   -4.4556   73.8912 N   0  0  0  0  0  0  0  0  0  0  0  0
  -31.6037   -2.8769   70.9225 N   0  0  0  0  0  0  0  0  0  0  0  0
  -31.5985   -1.7764   70.7088 N   0  0  0  0  0  0  0  0  0  0  0  0
  -31.5960   -0.6770   70.4911 N   0  0  0  0  0  0  0  0  0  0  0  0
  -27.7551   -1.6651   71.3975 N   0  0  0  0  0  0  0  0  0  0  0  0
  -26.9598   -2.2708   72.2892 C   0  0  0  0  0  0  0  0  0  0  0  0
  -27.4241   -3.2657   73.0597 N   0  0  0  0  0  0  0  0  0  0  0  0
  -28.6989   -3.6709   72.9654 C   0  0  0  0  0  0  0  0  0  0  0  0
  -29.5748   -3.0739   72.0663 C   0  0  0  0  0  0  0  0  0  0  0  0
  -29.0920   -2.0547   71.2541 C   0  0  0  0  0  0  0  0  0  0  0  0
  1 11  1  0  0  0  0
  1  4  1  0  0  0  0
  2  8  1  0  0  0  0
  3 10  1  0  0  0  0
  4  5  1  0  0  0  0
  5  6  1  0  0  0  0
  7  8  2  0  0  0  0
  7 12  1  0  0  0  0
  8  9  1  0  0  0  0
  9 10  2  0  0  0  0
 10 11  1  0  0  0  0
 11 12  2  0  0  0  0
M  END
>  <CHROM.1>
-164.26302801,-68.21096361,-176.56122756,-29.18238086,-2.56900275,71.95942207
2.82323093,-0.19424454,-0.69109212

>  <Name>
ligand

>  <RI>
0

>  <Rbt.Current_Directory>
/home/itssahil/PROJECTS/Mol_Feturizer/Test_systems_manuscript/rnas/4nya

>  <Rbt.Executable>
rbdock ($Id: //depot/dev/client3/rdock/2013.1/src/exe/rbdock.cxx#4 $)

>  <Rbt.Library>
libRbt.so (2013.1, Build901 2013/11/27)

>  <Rbt.Parameter_File>
/export/apps/rDock/src/rDock_2013.1_src/data/scripts/dock_solv.prm

>  <Rbt.Receptor>
prm/blind_docking_80.prm

>  <SCORE>
2.63754

>  <SCORE.INTER>
1.79947

>  <SCORE.INTER.CONST>
1

>  <SCORE.INTER.POLAR>
0

>  <SCORE.INTER.ROT>
3

>  <SCORE.INTER.SOLV>
14.8651

>  <SCORE.INTER.VDW>
-9.35537

>  <SCORE.INTER.norm>
0.149956

>  <SCORE.INTRA>
0.835529

>  <SCORE.INTRA.DIHEDRAL>
-2.14645

>  <SCORE.INTRA.DIHEDRAL.0>
3.34563

>  <SCORE.INTRA.POLAR>
0

>  <SCORE.INTRA.POLAR.0>
0

>  <SCORE.INTRA.REPUL>
0

>  <SCORE.INTRA.REPUL.0>
0

>  <SCORE.INTRA.SOLV>
0.535315

>  <SCORE.INTRA.SOLV.lig_0>
-59.746

>  <SCORE.INTRA.VDW>
1.64109

>  <SCORE.INTRA.VDW.0>
-0.691186

>  <SCORE.INTRA.norm>
0.0696274

>  <SCORE.RESTR>
0.00253485

>  <SCORE.RESTR.CAVITY>
0.00253485

>  <SCORE.RESTR.norm>
0.000211238

>  <SCORE.SYSTEM>
0

>  <SCORE.SYSTEM.CONST>
0

>  <SCORE.SYSTEM.DIHEDRAL>
0

>  <SCORE.SYSTEM.SOLV>
0

>  <SCORE.SYSTEM.norm>
0

>  <SCORE.heavy>
12

>  <SCORE.norm>
0.219795

>  <RMSD>
25.954

$$$$
ligand
 OpenBabel02271912143D
libRbt.so/2013.1/901 2013/11/27
 12 12  0  0  0  0  0  0  0  0999 V2000
  -30.9192   -3.1161   71.2367 C   0  0  0  0  0  0  0  0  0  0  0  0
  -25.5502   -2.1259   71.9230 C   0  0  0  0  0  0  0  0  0  0  0  0
  -29.2172   -5.0252   72.0682 N   0  0  0  0  0  0  0  0  0  0  0  0
  -31.5720   -2.0315   71.9838 N   0  0  0  0  0  0  0  0  0  0  0  0
  -31.0738   -1.7335   72.9428 N   0  0  0  0  0  0  0  0  0  0  0  0
  -30.5762   -1.4404   73.9032 N   0  0  0  0  0  0  0  0  0  0  0  0
  -27.6972   -1.3806   71.2837 N   0  0  0  0  0  0  0  0  0  0  0  0
  -26.9031   -2.3684   71.7175 C   0  0  0  0  0  0  0  0  0  0  0  0
  -27.3827   -3.6087   71.8928 N   0  0  0  0  0  0  0  0  0  0  0  0
  -28.6715   -3.8884   71.6500 C   0  0  0  0  0  0  0  0  0  0  0  0
  -29.5466   -2.9029   71.2081 C   0  0  0  0  0  0  0  0  0  0  0  0
  -29.0486   -1.6209   71.0085 C   0  0  0  0  0  0  0  0  0  0  0  0
  1 11  1  0  0  0  0
  1  4  1  0  0  0  0
  2  8  1  0  0  0  0
  3 10  1  0  0  0  0
  4  5  1  0  0  0  0
  5  6  1  0  0  0  0
  7  8  2  0  0  0  0
  7 12  1  0  0  0  0
  8  9  1  0  0  0  0
  9 10  2  0  0  0  0
 10 11  1  0  0  0  0
 11 12  2  0  0  0  0
M  END
>  <CHROM.1>
125.44668835,-44.25362270,-58.14599700,-29.01465068,-2.59603232,71.92663167
3.02700153,0.13810623,0.23912293

>  <Name>
ligand

>  <RI>
0

>  <Rbt.Current_Directory>
/home/itssahil/PROJECTS/Mol_Feturizer/Test_systems_manuscript/rnas/4nya

>  <Rbt.Executable>
rbdock ($Id: //depot/dev/client3/rdock/2013.1/src/exe/rbdock.cxx#4 $)

>  <Rbt.Library>
libRbt.so (2013.1, Build901 2013/11/27)

>  <Rbt.Parameter_File>
/export/apps/rDock/src/rDock_2013.1_src/data/scripts/dock_solv.prm

>  <Rbt.Receptor>
prm/blind_docking_80.prm

>  <SCORE>
-0.242519

>  <SCORE.INTER>
-2.10321

>  <SCORE.INTER.CONST>
1

>  <SCORE.INTER.POLAR>
0

>  <SCORE.INTER.ROT>
3

>  <SCORE.INTER.SOLV>
10.9783

>  <SCORE.INTER.VDW>
-10.6616

>  <SCORE.INTER.norm>
-0.175267

>  <SCORE.INTRA>
1.50445

>  <SCORE.INTRA.DIHEDRAL>
-1.12411

>  <SCORE.INTRA.DIHEDRAL.0>
3.34563

>  <SCORE.INTRA.POLAR>
0

>  <SCORE.INTRA.POLAR.0>
0

>  <SCORE.INTRA.REPUL>
0

>  <SCORE.INTRA.REPUL.0>
0

>  <SCORE.INTRA.SOLV>
2.37515

>  <SCORE.INTRA.SOLV.lig_0>
-59.746

>  <SCORE.INTRA.VDW>
0.878933

>  <SCORE.INTRA.VDW.0>
-0.691186

>  <SCORE.INTRA.norm>
0.125371

>  <SCORE.RESTR>
0.356241

>  <SCORE.RESTR.CAVITY>
0.356241

>  <SCORE.RESTR.norm>
0.0296867

>  <SCORE.SYSTEM>
0

>  <SCORE.SYSTEM.CONST>
0

>  <SCORE.SYSTEM.DIHEDRAL>
0

>  <SCORE.SYSTEM.SOLV>
0

>  <SCORE.SYSTEM.norm>
0

>  <SCORE.heavy>
12

>  <SCORE.norm>
-0.0202099

>  <RMSD>
25.968

$$$$
ligand
 OpenBabel02271912143D
libRbt.so/2013.1/901 2013/11/27
 12 12  0  0  0  0  0  0  0  0999 V2000
  -30.9278   -3.1126   71.2263 C   0  0  0  0  0  0  0  0  0  0  0  0
  -25.5592   -2.1317   71.9288 C   0  0  0  0  0  0  0  0  0  0  0  0
  -29.2377   -5.0149   72.0968 N   0  0  0  0  0  0  0  0  0  0  0  0
  -31.5788   -2.0255   71.9711 N   0  0  0  0  0  0  0  0  0  0  0  0
  -31.0963   -1.7457   72.9435 N   0  0  0  0  0  0  0  0  0  0  0  0
  -30.6176   -1.4625   73.9164 N   0  0  0  0  0  0  0  0  0  0  0  0
  -27.6996   -1.3884   71.2655 N   0  0  0  0  0  0  0  0  0  0  0  0
  -26.9117   -2.3723   71.7190 C   0  0  0  0  0  0  0  0  0  0  0  0
  -27.3969   -3.6080   71.9105 N   0  0  0  0  0  0  0  0  0  0  0  0
  -28.6854   -3.8867   71.6644 C   0  0  0  0  0  0  0  0  0  0  0  0
  -29.5542   -2.9049   71.2024 C   0  0  0  0  0  0  0  0  0  0  0  0
  -29.0503   -1.6280   70.9862 C   0  0  0  0  0  0  0  0  0  0  0  0
  1 11  1  0  0  0  0
  1  4  1  0  0  0  0
  2  8  1  0  0  0  0
  3 10  1  0  0  0  0
  4  5  1  0  0  0  0
  5  6  1  0  0  0  0
  7  8  2  0  0  0  0
  7 12  1  0  0  0  0
  8  9  1  0  0  0  0
  9 10  2  0  0  0  0
 10 11  1  0  0  0  0
 11 12  2  0  0  0  0
M  END
>  <CHROM.1>
124.55566029,-45.61967682,-178.38558404,-29.02797629,-2.59927465,71.92791149
3.03055228,0.14010915,0.22801215

>  <Name>
ligand

>  <RI>
0

>  <Rbt.Current_Directory>
/home/itssahil/PROJECTS/Mol_Feturizer/Test_systems_manuscript/rnas/4nya

>  <Rbt.Executable>
rbdock ($Id: //depot/dev/client3/rdock/2013.1/src/exe/rbdock.cxx#4 $)

>  <Rbt.Library>
libRbt.so (2013.1, Build901 2013/11/27)

>  <Rbt.Parameter_File>
/export/apps/rDock/src/rDock_2013.1_src/data/scripts/dock_solv.prm

>  <Rbt.Receptor>
prm/blind_docking_80.prm

>  <SCORE>
-0.344131

>  <SCORE.INTER>
-2.10301

>  <SCORE.INTER.CONST>
1

>  <SCORE.INTER.POLAR>
0

>  <SCORE.INTER.ROT>
3

>  <SCORE.INTER.SOLV>
10.7425

>  <SCORE.INTER.VDW>
-10.5828

>  <SCORE.INTER.norm>
-0.175251

>  <SCORE.INTRA>
1.37387

>  <SCORE.INTRA.DIHEDRAL>
-1.17698

>  <SCORE.INTRA.DIHEDRAL.0>
3.34563

>  <SCORE.INTRA.POLAR>
0

>  <SCORE.INTRA.POLAR.0>
0

>  <SCORE.INTRA.REPUL>
0

>  <SCORE.INTRA.REPUL.0>
0

>  <SCORE.INTRA.SOLV>
2.3646

>  <SCORE.INTRA.SOLV.lig_0>
-59.746

>  <SCORE.INTRA.VDW>
0.780059

>  <SCORE.INTRA.VDW.0>
-0.691186

>  <SCORE.INTRA.norm>
0.114489

>  <SCORE.RESTR>
0.385007

>  <SCORE.RESTR.CAVITY>
0.385007

>  <SCORE.RESTR.norm>
0.0320839

>  <SCORE.SYSTEM>
0

>  <SCORE.SYSTEM.CONST>
0

>  <SCORE.SYSTEM.DIHEDRAL>
0

>  <SCORE.SYSTEM.SOLV>
0

>  <SCORE.SYSTEM.norm>
0

>  <SCORE.heavy>
12

>  <SCORE.norm>
-0.0286776

>  <RMSD>
25.969

$$$$
ligand
 OpenBabel02271912143D
libRbt.so/2013.1/901 2013/11/27
 12 12  0  0  0  0  0  0  0  0999 V2000
  -30.9327   -3.1314   71.2808 C   0  0  0  0  0  0  0  0  0  0  0  0
  -25.5572   -2.1163   71.8729 C   0  0  0  0  0  0  0  0  0  0  0  0
  -29.2103   -5.0278   72.0993 N   0  0  0  0  0  0  0  0  0  0  0  0
  -31.5830   -2.0193   71.9884 N   0  0  0  0  0  0  0  0  0  0  0  0
  -31.0914   -1.6969   72.9430 N   0  0  0  0  0  0  0  0  0  0  0  0
  -30.6036   -1.3713   73.8980 N   0  0  0  0  0  0  0  0  0  0  0  0
  -27.7169   -1.3839   71.2625 N   0  0  0  0  0  0  0  0  0  0  0  0
  -26.9122   -2.3653   71.6910 C   0  0  0  0  0  0  0  0  0  0  0  0
  -27.3842   -3.6060   71.8836 N   0  0  0  0  0  0  0  0  0  0  0  0
  -28.6758   -3.8923   71.6637 C   0  0  0  0  0  0  0  0  0  0  0  0
  -29.5616   -2.9135   71.2284 C   0  0  0  0  0  0  0  0  0  0  0  0
  -29.0717   -1.6312   71.0110 C   0  0  0  0  0  0  0  0  0  0  0  0
  1 11  1  0  0  0  0
  1  4  1  0  0  0  0
  2  8  1  0  0  0  0
  3 10  1  0  0  0  0
  4  5  1  0  0  0  0
  5  6  1  0  0  0  0
  7  8  2  0  0  0  0
  7 12  1  0  0  0  0
  8  9  1  0  0  0  0
  9 10  2  0  0  0  0
 10 11  1  0  0  0  0
 11 12  2  0  0  0  0
M  END
>  <CHROM.1>
127.44660005,-45.82252348,-177.45884806,-29.02644516,-2.58809560,71.92656801
3.01669673,0.14805524,0.22505940

>  <Name>
ligand

>  <RI>
0

>  <Rbt.Current_Directory>
/home/itssahil/PROJECTS/Mol_Feturizer/Test_systems_manuscript/rnas/4nya

>  <Rbt.Executable>
rbdock ($Id: //depot/dev/client3/rdock/2013.1/src/exe/rbdock.cxx#4 $)

>  <Rbt.Library>
libRbt.so (2013.1, Build901 2013/11/27)

>  <Rbt.Parameter_File>
/export/apps/rDock/src/rDock_2013.1_src/data/scripts/dock_solv.prm

>  <Rbt.Receptor>
prm/blind_docking_80.prm

>  <SCORE>
-0.396534

>  <SCORE.INTER>
-2.17386

>  <SCORE.INTER.CONST>
1

>  <SCORE.INTER.POLAR>
0

>  <SCORE.INTER.ROT>
3

>  <SCORE.INTER.SOLV>
11.0699

>  <SCORE.INTER.VDW>
-10.7392

>  <SCORE.INTER.norm>
-0.181155

>  <SCORE.INTRA>
1.39421

>  <SCORE.INTRA.DIHEDRAL>
-1.11108

>  <SCORE.INTRA.DIHEDRAL.0>
3.34563

>  <SCORE.INTRA.POLAR>
0

>  <SCORE.INTRA.POLAR.0>
0

>  <SCORE.INTRA.REPUL>
0

>  <SCORE.INTRA.REPUL.0>
0

>  <SCORE.INTRA.SOLV>
2.12378

>  <SCORE.INTRA.SOLV.lig_0>
-59.746

>  <SCORE.INTRA.VDW>
0.887857

>  <SCORE.INTRA.VDW.0>
-0.691186

>  <SCORE.INTRA.norm>
0.116184

>  <SCORE.RESTR>
0.383119

>  <SCORE.RESTR.CAVITY>
0.383119

>  <SCORE.RESTR.norm>
0.0319266

>  <SCORE.SYSTEM>
0

>  <SCORE.SYSTEM.CONST>
0

>  <SCORE.SYSTEM.DIHEDRAL>
0

>  <SCORE.SYSTEM.SOLV>
0

>  <SCORE.SYSTEM.norm>
0

>  <SCORE.heavy>
12

>  <SCORE.norm>
-0.0330445

>  <RMSD>
25.973

$$$$
ligand
 OpenBabel02271912143D
libRbt.so/2013.1/901 2013/11/27
 12 12  0  0  0  0  0  0  0  0999 V2000
  -30.9468   -3.1119   71.2368 C   0  0  0  0  0  0  0  0  0  0  0  0
  -25.5614   -2.1672   71.8555 C   0  0  0  0  0  0  0  0  0  0  0  0
  -29.2479   -5.0399   72.0300 N   0  0  0  0  0  0  0  0  0  0  0  0
  -31.5826   -2.0196   71.9874 N   0  0  0  0  0  0  0  0  0  0  0  0
  -31.0453   -1.6898   72.9143 N   0  0  0  0  0  0  0  0  0  0  0  0
  -30.5040   -1.3589   73.8382 N   0  0  0  0  0  0  0  0  0  0  0  0
  -27.7113   -1.4009   71.2519 N   0  0  0  0  0  0  0  0  0  0  0  0
  -26.9188   -2.3979   71.6670 C   0  0  0  0  0  0  0  0  0  0  0  0
  -27.4053   -3.6359   71.8397 N   0  0  0  0  0  0  0  0  0  0  0  0
  -28.6995   -3.9041   71.6127 C   0  0  0  0  0  0  0  0  0  0  0  0
  -29.5731   -2.9087   71.1906 C   0  0  0  0  0  0  0  0  0  0  0  0
  -29.0683   -1.6290   70.9938 C   0  0  0  0  0  0  0  0  0  0  0  0
  1 11  1  0  0  0  0
  1  4  1  0  0  0  0
  2  8  1  0  0  0  0
  3 10  1  0  0  0  0
  4  5  1  0  0  0  0
  5  6  1  0  0  0  0
  7  8  2  0  0  0  0
  7 12  1  0  0  0  0
  8  9  1  0  0  0  0
  9 10  2  0  0  0  0
 10 11  1  0  0  0  0
 11 12  2  0  0  0  0
M  END
>  <CHROM.1>
126.11834120,-41.55764772,59.41184472,-29.02283791,-2.59740739,71.89288044
3.00952299,0.13835303,0.24363845

>  <Name>
ligand

>  <RI>
0

>  <Rbt.Current_Directory>
/home/itssahil/PROJECTS/Mol_Feturizer/Test_systems_manuscript/rnas/4nya

>  <Rbt.Executable>
rbdock ($Id: //depot/dev/client3/rdock/2013.1/src/exe/rbdock.cxx#4 $)

>  <Rbt.Library>
libRbt.so (2013.1, Build901 2013/11/27)

>  <Rbt.Parameter_File>
/export/apps/rDock/src/rDock_2013.1_src/data/scripts/dock_solv.prm

>  <Rbt.Receptor>
prm/blind_docking_80.prm

>  <SCORE>
-0.0124088

>  <SCORE.INTER>
-2.04874

>  <SCORE.INTER.CONST>
1

>  <SCORE.INTER.POLAR>
0

>  <SCORE.INTER.ROT>
3

>  <SCORE.INTER.SOLV>
11.4107

>  <SCORE.INTER.VDW>
-10.7694

>  <SCORE.INTER.norm>
-0.170728

>  <SCORE.INTRA>
1.75004

>  <SCORE.INTRA.DIHEDRAL>
-1.0427

>  <SCORE.INTRA.DIHEDRAL.0>
3.34563

>  <SCORE.INTRA.POLAR>
0

>  <SCORE.INTRA.POLAR.0>
0

>  <SCORE.INTRA.REPUL>
0

>  <SCORE.INTRA.REPUL.0>
0

>  <SCORE.INTRA.SOLV>
2.43638

>  <SCORE.INTRA.SOLV.lig_0>
-59.746

>  <SCORE.INTRA.VDW>
1.0532

>  <SCORE.INTRA.VDW.0>
-0.691186

>  <SCORE.INTRA.norm>
0.145836

>  <SCORE.RESTR>
0.286293

>  <SCORE.RESTR.CAVITY>
0.286293

>  <SCORE.RESTR.norm>
0.0238577

>  <SCORE.SYSTEM>
0

>  <SCORE.SYSTEM.CONST>
0

>  <SCORE.SYSTEM.DIHEDRAL>
0

>  <SCORE.SYSTEM.SOLV>
0

>  <SCORE.SYSTEM.norm>
0

>  <SCORE.heavy>
12

>  <SCORE.norm>
-0.00103406

>  <RMSD>
26.002

$$$$
ligand
 OpenBabel02271912143D
libRbt.so/2013.1/901 2013/11/27
 12 12  0  0  0  0  0  0  0  0999 V2000
  -30.8067   -3.2595   72.1653 C   0  0  0  0  0  0  0  0  0  0  0  0
  -25.5138   -1.7559   72.1215 C   0  0  0  0  0  0  0  0  0  0  0  0
  -28.9400   -4.5897   73.5721 N   0  0  0  0  0  0  0  0  0  0  0  0
  -31.5552   -2.8750   70.9601 N   0  0  0  0  0  0  0  0  0  0  0  0
  -31.5749   -1.7781   70.7296 N   0  0  0  0  0  0  0  0  0  0  0  0
  -31.5973   -0.6825   70.4950 N   0  0  0  0  0  0  0  0  0  0  0  0
  -27.7285   -1.4489   71.3638 N   0  0  0  0  0  0  0  0  0  0  0  0
  -26.8489   -2.1410   72.0997 C   0  0  0  0  0  0  0  0  0  0  0  0
  -27.2260   -3.2431   72.7647 N   0  0  0  0  0  0  0  0  0  0  0  0
  -28.4955   -3.6729   72.7194 C   0  0  0  0  0  0  0  0  0  0  0  0
  -29.4559   -2.9910   71.9814 C   0  0  0  0  0  0  0  0  0  0  0  0
  -29.0643   -1.8588   71.2770 C   0  0  0  0  0  0  0  0  0  0  0  0
  1 11  1  0  0  0  0
  1  4  1  0  0  0  0
  2  8  1  0  0  0  0
  3 10  1  0  0  0  0
  4  5  1  0  0  0  0
  5  6  1  0  0  0  0
  7  8  2  0  0  0  0
  7 12  1  0  0  0  0
  8  9  1  0  0  0  0
  9 10  2  0  0  0  0
 10 11  1  0  0  0  0
 11 12  2  0  0  0  0
M  END
>  <CHROM.1>
-156.60626893,-66.02221388,178.76404470,-29.07457565,-2.51287776,71.84768927
2.88822217,-0.18484004,-0.60241488

>  <Name>
ligand

>  <RI>
0

>  <Rbt.Current_Directory>
/home/itssahil/PROJECTS/Mol_Feturizer/Test_systems_manuscript/rnas/4nya

>  <Rbt.Executable>
rbdock ($Id: //depot/dev/client3/rdock/2013.1/src/exe/rbdock.cxx#4 $)

>  <Rbt.Library>
libRbt.so (2013.1, Build901 2013/11/27)

>  <Rbt.Parameter_File>
/export/apps/rDock/src/rDock_2013.1_src/data/scripts/dock_solv.prm

>  <Rbt.Receptor>
prm/blind_docking_80.prm

>  <SCORE>
2.46

>  <SCORE.INTER>
1.578

>  <SCORE.INTER.CONST>
1

>  <SCORE.INTER.POLAR>
0

>  <SCORE.INTER.ROT>
3

>  <SCORE.INTER.SOLV>
15.8364

>  <SCORE.INTER.VDW>
-9.8268

>  <SCORE.INTER.norm>
0.1315

>  <SCORE.INTRA>
0.836796

>  <SCORE.INTRA.DIHEDRAL>
-2.21858

>  <SCORE.INTRA.DIHEDRAL.0>
3.34563

>  <SCORE.INTRA.POLAR>
0

>  <SCORE.INTRA.POLAR.0>
0

>  <SCORE.INTRA.REPUL>
0

>  <SCORE.INTRA.REPUL.0>
0

>  <SCORE.INTRA.SOLV>
0.640604

>  <SCORE.INTRA.SOLV.lig_0>
-59.746

>  <SCORE.INTRA.VDW>
1.62578

>  <SCORE.INTRA.VDW.0>
-0.691186

>  <SCORE.INTRA.norm>
0.069733

>  <SCORE.RESTR>
0.0452058

>  <SCORE.RESTR.CAVITY>
0.0452058

>  <SCORE.RESTR.norm>
0.00376715

>  <SCORE.SYSTEM>
0

>  <SCORE.SYSTEM.CONST>
0

>  <SCORE.SYSTEM.DIHEDRAL>
0

>  <SCORE.SYSTEM.SOLV>
0

>  <SCORE.SYSTEM.norm>
0

>  <SCORE.heavy>
12

>  <SCORE.norm>
0.205

>  <RMSD>
26.031

$$$$
ligand
 OpenBabel02271912143D
libRbt.so/2013.1/901 2013/11/27
 12 12  0  0  0  0  0  0  0  0999 V2000
  -30.7427   -3.4390   71.1047 C   0  0  0  0  0  0  0  0  0  0  0  0
  -25.6098   -1.7907   72.2065 C   0  0  0  0  0  0  0  0  0  0  0  0
  -28.8870   -5.1248   72.0780 N   0  0  0  0  0  0  0  0  0  0  0  0
  -31.6013   -2.2462   71.1323 N   0  0  0  0  0  0  0  0  0  0  0  0
  -31.5409   -1.6254   72.0638 N   0  0  0  0  0  0  0  0  0  0  0  0
  -31.4839   -1.0015   72.9930 N   0  0  0  0  0  0  0  0  0  0  0  0
  -27.7757   -1.3158   71.3960 N   0  0  0  0  0  0  0  0  0  0  0  0
  -26.9014   -2.1989   71.8963 C   0  0  0  0  0  0  0  0  0  0  0  0
  -27.2351   -3.4901   72.0400 N   0  0  0  0  0  0  0  0  0  0  0  0
  -28.4559   -3.9271   71.6979 C   0  0  0  0  0  0  0  0  0  0  0  0
  -29.4093   -3.0563   71.1832 C   0  0  0  0  0  0  0  0  0  0  0  0
  -29.0607   -1.7214   71.0165 C   0  0  0  0  0  0  0  0  0  0  0  0
  1 11  1  0  0  0  0
  1  4  1  0  0  0  0
  2  8  1  0  0  0  0
  3 10  1  0  0  0  0
  4  5  1  0  0  0  0
  5  6  1  0  0  0  0
  7  8  2  0  0  0  0
  7 12  1  0  0  0  0
  8  9  1  0  0  0  0
  9 10  2  0  0  0  0
 10 11  1  0  0  0  0
 11 12  2  0  0  0  0
M  END
>  <CHROM.1>
154.31502909,-62.12832293,178.88048600,-29.06665221,-2.56585285,71.75108731
3.03740916,-0.03533951,0.10595151

>  <Name>
ligand

>  <RI>
0

>  <Rbt.Current_Directory>
/home/itssahil/PROJECTS/Mol_Feturizer/Test_systems_manuscript/rnas/4nya

>  <Rbt.Executable>
rbdock ($Id: //depot/dev/client3/rdock/2013.1/src/exe/rbdock.cxx#4 $)

>  <Rbt.Library>
libRbt.so (2013.1, Build901 2013/11/27)

>  <Rbt.Parameter_File>
/export/apps/rDock/src/rDock_2013.1_src/data/scripts/dock_solv.prm

>  <Rbt.Receptor>
prm/blind_docking_80.prm

>  <SCORE>
0.680235

>  <SCORE.INTER>
-0.988681

>  <SCORE.INTER.CONST>
1

>  <SCORE.INTER.POLAR>
0

>  <SCORE.INTER.ROT>
3

>  <SCORE.INTER.SOLV>
14.2753

>  <SCORE.INTER.VDW>
-11.0175

>  <SCORE.INTER.norm>
-0.0823901

>  <SCORE.INTRA>
1.06906

>  <SCORE.INTRA.DIHEDRAL>
-1.17404

>  <SCORE.INTRA.DIHEDRAL.0>
3.34563

>  <SCORE.INTRA.POLAR>
0

>  <SCORE.INTRA.POLAR.0>
0

>  <SCORE.INTRA.REPUL>
0

>  <SCORE.INTRA.REPUL.0>
0

>  <SCORE.INTRA.SOLV>
0.597553

>  <SCORE.INTRA.SOLV.lig_0>
-59.746

>  <SCORE.INTRA.VDW>
1.3573

>  <SCORE.INTRA.VDW.0>
-0.691186

>  <SCORE.INTRA.norm>
0.0890885

>  <SCORE.RESTR>
0.599854

>  <SCORE.RESTR.CAVITY>
0.599854

>  <SCORE.RESTR.norm>
0.0499878

>  <SCORE.SYSTEM>
0

>  <SCORE.SYSTEM.CONST>
0

>  <SCORE.SYSTEM.DIHEDRAL>
0

>  <SCORE.SYSTEM.SOLV>
0

>  <SCORE.SYSTEM.norm>
0

>  <SCORE.heavy>
12

>  <SCORE.norm>
0.0566862

>  <RMSD>
26.124

$$$$
ligand
 OpenBabel02271912143D
libRbt.so/2013.1/901 2013/11/27
 12 12  0  0  0  0  0  0  0  0999 V2000
  -30.7747   -3.5105   71.1671 C   0  0  0  0  0  0  0  0  0  0  0  0
  -25.6521   -1.7807   72.1887 C   0  0  0  0  0  0  0  0  0  0  0  0
  -28.8690   -5.1737   72.0809 N   0  0  0  0  0  0  0  0  0  0  0  0
  -31.5976   -2.4323   70.6006 N   0  0  0  0  0  0  0  0  0  0  0  0
  -31.7226   -1.5253   71.2475 N   0  0  0  0  0  0  0  0  0  0  0  0
  -31.8493   -0.6215   71.8979 N   0  0  0  0  0  0  0  0  0  0  0  0
  -27.8422   -1.3361   71.4277 N   0  0  0  0  0  0  0  0  0  0  0  0
  -26.9419   -2.2090   71.8988 C   0  0  0  0  0  0  0  0  0  0  0  0
  -27.2487   -3.5079   72.0319 N   0  0  0  0  0  0  0  0  0  0  0  0
  -28.4678   -3.9633   71.7083 C   0  0  0  0  0  0  0  0  0  0  0  0
  -29.4474   -3.1040   71.2242 C   0  0  0  0  0  0  0  0  0  0  0  0
  -29.1269   -1.7607   71.0684 C   0  0  0  0  0  0  0  0  0  0  0  0
  1 11  1  0  0  0  0
  1  4  1  0  0  0  0
  2  8  1  0  0  0  0
  3 10  1  0  0  0  0
  4  5  1  0  0  0  0
  5  6  1  0  0  0  0
  7  8  2  0  0  0  0
  7 12  1  0  0  0  0
  8  9  1  0  0  0  0
  9 10  2  0  0  0  0
 10 11  1  0  0  0  0
 11 12  2  0  0  0  0
M  END
>  <CHROM.1>
-179.08152697,-69.33124302,-55.73487149,-29.13770581,-2.56311106,71.55269509
2.97626596,-0.15275806,-0.02393374

>  <Name>
ligand

>  <RI>
0

>  <Rbt.Current_Directory>
/home/itssahil/PROJECTS/Mol_Feturizer/Test_systems_manuscript/rnas/4nya

>  <Rbt.Executable>
rbdock ($Id: //depot/dev/client3/rdock/2013.1/src/exe/rbdock.cxx#4 $)

>  <Rbt.Library>
libRbt.so (2013.1, Build901 2013/11/27)

>  <Rbt.Parameter_File>
/export/apps/rDock/src/rDock_2013.1_src/data/scripts/dock_solv.prm

>  <Rbt.Receptor>
prm/blind_docking_80.prm

>  <SCORE>
1.2665

>  <SCORE.INTER>
-0.113322

>  <SCORE.INTER.CONST>
1

>  <SCORE.INTER.POLAR>
0

>  <SCORE.INTER.ROT>
3

>  <SCORE.INTER.SOLV>
18.3238

>  <SCORE.INTER.VDW>
-11.7835

>  <SCORE.INTER.norm>
-0.00944346

>  <SCORE.INTRA>
0.936714

>  <SCORE.INTRA.DIHEDRAL>
-1.81881

>  <SCORE.INTRA.DIHEDRAL.0>
3.34563

>  <SCORE.INTRA.POLAR>
0

>  <SCORE.INTRA.POLAR.0>
0

>  <SCORE.INTRA.REPUL>
0

>  <SCORE.INTRA.REPUL.0>
0

>  <SCORE.INTRA.SOLV>
0.423394

>  <SCORE.INTRA.SOLV.lig_0>
-59.746

>  <SCORE.INTRA.VDW>
1.63442

>  <SCORE.INTRA.VDW.0>
-0.691186

>  <SCORE.INTRA.norm>
0.0780595

>  <SCORE.RESTR>
0.443109

>  <SCORE.RESTR.CAVITY>
0.443109

>  <SCORE.RESTR.norm>
0.0369257

>  <SCORE.SYSTEM>
0

>  <SCORE.SYSTEM.CONST>
0

>  <SCORE.SYSTEM.DIHEDRAL>
0

>  <SCORE.SYSTEM.SOLV>
0

>  <SCORE.SYSTEM.norm>
0

>  <SCORE.heavy>
12

>  <SCORE.norm>
0.105542

>  <RMSD>
26.314

$$$$
