@<TRIPOS>MOLECULE
4nya_rdock.pdb
 1703 1904 0 0 0
SMALL
GASTEIGER

@<TRIPOS>ATOM
      1  PA       -28.8950   -8.3540   73.9420 P.3    10  GTP10       0.2199
      2  PB       -31.4590   -9.8510   73.5600 P.3    10  GTP10       0.3052
      3  C5'      -27.0850   -9.2370   72.2780 C.3    10  GTP10       0.1812
      4  O5'      -27.8510   -8.1350   72.7510 O.3    10  GTP10      -0.3112
      5  C4'      -26.5050   -8.9340   70.9100 C.3    10  GTP10       0.1773
      6  O4'      -27.5190   -9.1620   69.8950 O.3    10  GTP10      -0.3307
      7  C3'      -26.0820   -7.4870   70.6890 C.3    10  GTP10       0.1860
      8  O3'      -24.7770   -7.2490   71.2110 O.3    10  GTP10      -0.3112
      9  C2'      -26.1100   -7.4370   69.1690 C.3    10  GTP10       0.2309
     10  O2'      -25.0370   -8.1630   68.6020 O.3    10  GTP10      -0.2156
     11  C1'      -27.4260   -8.1580   68.9000 C.3    10  GTP10       0.2408
     12  N1       -29.9190   -4.2040   66.8540 N.ar   10  GTP10      -0.1709
     13  O1A      -29.6040   -7.0790   74.1960 O.co2  10  GTP10      -0.5170
     14  O1B      -31.6050  -11.0100   72.6030 O.2    10  GTP10      -0.2719
     15  C2       -28.7490   -4.8030   66.4470 C.ar   10  GTP10       0.2606
     16  N2       -28.1600   -4.2850   65.3580 N.pl3  10  GTP10      -0.0859
     17  O2A      -28.1940   -9.0500   75.0440 O.3    10  GTP10      -0.4371
     18  O2B      -31.5830  -10.3570   74.9800 O.co2  10  GTP10      -0.7576
     19  N3       -28.1930   -5.8370   67.0640 N.ar   10  GTP10      -0.1918
     20  O3A      -30.1050   -9.2100   73.3690 O.3    10  GTP10      -0.2588
     21  O3B      -32.5380   -8.8280   73.2910 O.3    10  GTP10      -0.1531
     22  C4       -28.9100   -6.2360   68.1440 C.ar   10  GTP10       0.1723
     23  C5       -30.0860   -5.7060   68.6290 C.ar   10  GTP10       0.1748
     24  C6       -30.6700   -4.6010   67.9580 C.ar   10  GTP10       0.3023
     25  O6       -31.7130   -3.9940   68.2370 O.2    10  GTP10      -0.2633
     26  N7       -30.5080   -6.4020   69.7570 N.ar   10  GTP10      -0.2173
     27  C8       -29.5950   -7.3190   69.9300 C.ar   10  GTP10       0.1817
     28  N9       -28.5940   -7.2810   68.9870 N.ar   10  GTP10      -0.2693
     29  P        -24.4160   -5.8290   71.8660 P.3    11  G11         0.2141
     30  C5'      -23.0300   -5.3410   69.6980 C.3    11  G11         0.1812
     31  O5'      -24.0420   -4.9240   70.6040 O.3    11  G11        -0.3114
     32  C4'      -23.0390   -4.4590   68.4640 C.3    11  G11         0.1773
     33  O4'      -24.2850   -4.6320   67.7460 O.3    11  G11        -0.3307
     34  C3'      -22.9880   -2.9640   68.7300 C.3    11  G11         0.1860
     35  O3'      -21.6540   -2.5430   68.9790 O.3    11  G11        -0.3112
     36  C2'      -23.4970   -2.4340   67.3960 C.3    11  G11         0.2309
     37  O2'      -22.5180   -2.5190   66.3800 O.3    11  G11        -0.2156
     38  C1'      -24.6310   -3.4140   67.1100 C.3    11  G11         0.2408
     39  N1       -28.5520   -0.2340   66.4180 N.ar   11  G11        -0.1709
     40  C2       -27.4060   -0.3790   65.6730 C.ar   11  G11         0.2606
     41  N2       -27.2860    0.4220   64.6050 N.pl3  11  G11        -0.0859
     42  N3       -26.4450   -1.2500   65.9530 N.ar   11  G11        -0.1918
     43  C4       -26.7250   -1.9770   67.0640 C.ar   11  G11         0.1723
     44  C5       -27.8360   -1.9040   67.8730 C.ar   11  G11         0.1748
     45  C6       -28.8570   -0.9730   67.5600 C.ar   11  G11         0.3023
     46  O6       -29.9180   -0.7640   68.1640 O.2    11  G11        -0.2633
     47  N7       -27.7460   -2.8240   68.9120 N.ar   11  G11        -0.2173
     48  C8       -26.6040   -3.4210   68.7150 C.ar   11  G11         0.1817
     49  N9       -25.9280   -2.9600   67.6100 N.ar   11  G11        -0.2693
     50  OP1      -23.1370   -6.0830   72.5910 O.3    11  G11        -0.4373
     51  OP2      -25.5260   -5.1370   72.5800 O.co2  11  G11        -0.5172
     52  P        -21.5250   -1.3910   70.2090 P.3    12  A12         0.2141
     53  C5'      -21.2780    0.3620   68.2700 C.3    12  A12         0.1812
     54  O5'      -21.9170   -0.0300   69.4810 O.3    12  A12        -0.3114
     55  C4'      -22.0250    1.5110   67.6350 C.3    12  A12         0.1773
     56  O4'      -23.3140    1.0480   67.1510 O.3    12  A12        -0.3307
     57  C3'      -22.3760    2.6620   68.5630 C.3    12  A12         0.1860
     58  O3'      -21.2910    3.5660   68.7200 O.3    12  A12        -0.3112
     59  C2'      -23.5310    3.3030   67.8140 C.3    12  A12         0.2309
     60  O2'      -23.0760    4.0340   66.6960 O.3    12  A12        -0.2156
     61  C1'      -24.2840    2.0670   67.3260 C.3    12  A12         0.2408
     62  N1       -28.9590    2.7730   69.3740 N.ar   12  A12        -0.2040
     63  C2       -28.2910    3.4210   68.4130 C.ar   12  A12         0.2016
     64  N3       -27.0710    3.1860   67.9230 N.ar   12  A12        -0.2048
     65  C4       -26.5080    2.1340   68.5370 C.ar   12  A12         0.1692
     66  C5       -27.0670    1.3670   69.5420 C.ar   12  A12         0.1518
     67  C6       -28.3620    1.7190   69.9730 C.ar   12  A12         0.1919
     68  N6       -29.0250    1.0740   70.9310 N.pl3  12  A12        -0.1054
     69  N7       -26.1940    0.3640   69.9320 N.ar   12  A12        -0.2193
     70  C8       -25.1440    0.5420   69.1670 C.ar   12  A12         0.1816
     71  N9       -25.2660    1.5960   68.3000 N.ar   12  A12        -0.2693
     72  OP1      -20.0650   -1.3720   70.5200 O.2    12  A12        -0.5172
     73  OP2      -22.5070   -1.6200   71.3000 O.co2  12  A12        -0.4373
     74  P        -21.0950    4.3350   70.1200 P.3    13  C13         0.2141
     75  C5'      -22.1680    6.5030   69.1520 C.3    13  C13         0.1812
     76  O5'      -22.2230    5.4470   70.0960 O.3    13  C13        -0.3114
     77  C4'      -23.3580    7.3990   69.3200 C.3    13  C13         0.1773
     78  O4'      -24.5640    6.6590   68.9800 O.3    13  C13        -0.3307
     79  C3'      -23.6210    7.8470   70.7440 C.3    13  C13         0.1860
     80  O3'      -22.7690    8.9080   71.1380 O.3    13  C13        -0.3112
     81  C2'      -25.0850    8.2400   70.6590 C.3    13  C13         0.2309
     82  O2'      -25.2810    9.4600   69.9670 O.3    13  C13        -0.2156
     83  C1'      -25.6320    7.0930   69.8070 C.3    13  C13         0.2420
     84  N1       -26.0810    5.9550   70.6210 N.ar   13  C13        -0.2535
     85  C2       -27.3020    6.0560   71.2840 C.ar   13  C13         0.3532
     86  O2       -27.9570    7.0920   71.1530 O.2    13  C13        -0.2443
     87  N3       -27.7360    5.0220   72.0500 N.ar   13  C13        -0.1739
     88  C4       -26.9950    3.9150   72.1530 C.ar   13  C13         0.1759
     89  N4       -27.4640    2.9210   72.9020 N.pl3  13  C13        -0.1070
     90  C5       -25.7400    3.7820   71.4840 C.ar   13  C13         0.0566
     91  C6       -25.3250    4.8170   70.7350 C.ar   13  C13         0.0850
     92  OP1      -19.7780    5.0400   70.0900 O.2    13  C13        -0.5172
     93  OP2      -21.4070    3.4080   71.2360 O.co2  13  C13        -0.4373
     94  P        -22.1820    8.9300   72.6340 P.3    14  U14         0.2141
     95  C5'      -24.0250   10.6870   73.1570 C.3    14  U14         0.1812
     96  O5'      -23.3940    9.4740   73.5060 O.3    14  U14        -0.3114
     97  C4'      -25.3860   10.7660   73.7870 C.3    14  U14         0.1773
     98  O4'      -26.2330    9.6820   73.3180 O.3    14  U14        -0.3307
     99  C3'      -25.3970   10.5830   75.2810 C.3    14  U14         0.1860
    100  O3'      -24.9750   11.7700   75.9210 O.3    14  U14        -0.3112
    101  C2'      -26.8570   10.2330   75.5390 C.3    14  U14         0.2309
    102  O2'      -27.7160   11.3510   75.5450 O.3    14  U14        -0.2156
    103  C1'      -27.1700    9.3520   74.3270 C.3    14  U14         0.2420
    104  N1       -27.0460    7.9220   74.6370 N.ar   14  U14        -0.2534
    105  C2       -28.1630    7.2910   75.1130 C.ar   14  U14         0.3546
    106  O2       -29.2210    7.8680   75.2630 O.2    14  U14        -0.2443
    107  N3       -28.0010    5.9610   75.4080 N.ar   14  U14        -0.1530
    108  C4       -26.8470    5.2140   75.2710 C.ar   14  U14         0.2846
    109  O4       -26.8540    4.0180   75.5850 O.2    14  U14        -0.2650
    110  C5       -25.7280    5.9420   74.7650 C.ar   14  U14         0.0814
    111  C6       -25.8630    7.2400   74.4720 C.ar   14  U14         0.0870
    112  OP1      -21.0840    9.9250   72.7010 O.2    14  U14        -0.5172
    113  OP2      -21.9240    7.5220   73.0490 O.co2  14  U14        -0.4373
    114  P        -24.5590   11.7140   77.4640 P.3    15  C15         0.2141
    115  C5'      -26.0640   10.9390   79.4720 C.3    15  C15         0.1812
    116  O5'      -25.9570   11.5620   78.2020 O.3    15  C15        -0.3114
    117  C4'      -27.4800   10.4790   79.6770 C.3    15  C15         0.1773
    118  O4'      -27.8330    9.5920   78.5790 O.3    15  C15        -0.3307
    119  C3'      -27.7460    9.6510   80.9210 C.3    15  C15         0.1860
    120  O3'      -27.9480   10.4600   82.0750 O.3    15  C15        -0.3112
    121  C2'      -29.0060    8.9040   80.5150 C.3    15  C15         0.2309
    122  O2'      -30.1700    9.7050   80.5730 O.3    15  C15        -0.2156
    123  C1'      -28.6830    8.5670   79.0580 C.3    15  C15         0.2420
    124  N1       -27.9700    7.2880   78.9640 N.ar   15  C15        -0.2535
    125  C2       -28.6970    6.1200   79.1720 C.ar   15  C15         0.3532
    126  O2       -29.9130    6.2120   79.4300 O.2    15  C15        -0.2443
    127  N3       -28.0690    4.9250   79.0960 N.ar   15  C15        -0.1739
    128  C4       -26.7620    4.8740   78.8310 C.ar   15  C15         0.1759
    129  N4       -26.1890    3.6700   78.7760 N.pl3  15  C15        -0.1070
    130  C5       -25.9900    6.0570   78.6130 C.ar   15  C15         0.0566
    131  C6       -26.6300    7.2320   78.6880 C.ar   15  C15         0.0850
    132  OP1      -24.0020   13.0410   77.8310 O.3    15  C15        -0.4373
    133  OP2      -23.7490   10.4790   77.6790 O.co2  15  C15        -0.5172
    134  P        -27.2770   10.0200   83.4710 P.3    16  G16         0.2141
    135  C5'      -29.5150    8.8460   84.1560 C.3    16  G16         0.1812
    136  O5'      -28.1180    8.7450   83.9220 O.3    16  G16        -0.3114
    137  C4'      -30.1430    7.4750   84.1890 C.3    16  G16         0.1773
    138  O4'      -29.8290    6.7800   82.9530 O.3    16  G16        -0.3307
    139  C3'      -29.6450    6.5150   85.2560 C.3    16  G16         0.1860
    140  O3'      -30.2610    6.7940   86.5100 O.3    16  G16        -0.3112
    141  C2'      -30.1050    5.1820   84.6780 C.3    16  G16         0.2309
    142  O2'      -31.4950    4.9650   84.8490 O.3    16  G16        -0.2156
    143  C1'      -29.7970    5.3830   83.1890 C.3    16  G16         0.2408
    144  N1       -26.8830    1.2930   83.1040 N.ar   16  G16        -0.1709
    145  C2       -28.2250    1.4160   83.3540 C.ar   16  G16         0.2606
    146  N2       -28.8880    0.2940   83.6800 N.pl3  16  G16        -0.0859
    147  N3       -28.8800    2.5520   83.2920 N.ar   16  G16        -0.1918
    148  C4       -28.0820    3.5750   82.9560 C.ar   16  G16         0.1723
    149  C5       -26.7360    3.5640   82.6730 C.ar   16  G16         0.1748
    150  C6       -26.0400    2.3330   82.7450 C.ar   16  G16         0.3023
    151  O6       -24.8400    2.1130   82.5390 O.2    16  G16        -0.2633
    152  N7       -26.2880    4.8400   82.3580 N.ar   16  G16        -0.2173
    153  C8       -27.3540    5.5860   82.4690 C.ar   16  G16         0.1817
    154  N9       -28.4670    4.8800   82.8610 N.ar   16  G16        -0.2693
    155  OP1      -27.5080   11.1070   84.4490 O.3    16  G16        -0.4373
    156  OP2      -25.8900    9.5530   83.2030 O.co2  16  G16        -0.5172
    157  P        -29.4870    6.4600   87.8790 P.3    17  G17         0.2141
    158  C5'      -31.0720    4.4300   88.3190 C.3    17  G17         0.1812
    159  O5'      -29.7530    4.9060   88.1030 O.3    17  G17        -0.3114
    160  C4'      -31.0960    2.9240   88.3340 C.3    17  G17         0.1773
    161  O4'      -30.6210    2.4100   87.0550 O.3    17  G17        -0.3307
    162  C3'      -30.1980    2.2490   89.3550 C.3    17  G17         0.1860
    163  O3'      -30.7860    2.2520   90.6540 O.3    17  G17        -0.3112
    164  C2'      -30.0640    0.8610   88.7400 C.3    17  G17         0.2309
    165  O2'      -31.2470    0.1060   88.8610 O.3    17  G17        -0.2156
    166  C1'      -29.8870    1.2110   87.2590 C.3    17  G17         0.2408
    167  N1       -25.2830   -0.8400   86.5340 N.ar   17  G17        -0.1709
    168  C2       -26.4530   -1.4480   86.8750 C.ar   17  G17         0.2606
    169  N2       -26.3770   -2.7580   87.0580 N.pl3  17  G17        -0.0859
    170  N3       -27.6080   -0.8150   87.0280 N.ar   17  G17        -0.1918
    171  C4       -27.4810    0.5130   86.8120 C.ar   17  G17         0.1723
    172  C5       -26.3450    1.2210   86.4700 C.ar   17  G17         0.1748
    173  C6       -25.1240    0.5130   86.3000 C.ar   17  G17         0.3023
    174  O6       -24.0120    0.9470   85.9800 O.2    17  G17        -0.2633
    175  N7       -26.6280    2.5690   86.3380 N.ar   17  G17        -0.2173
    176  C8       -27.9070    2.6630   86.5930 C.ar   17  G17         0.1817
    177  N9       -28.4880    1.4540   86.8960 N.ar   17  G17        -0.2693
    178  OP1      -30.1870    7.1990   88.9600 O.3    17  G17        -0.4373
    179  OP2      -28.0360    6.6550   87.6850 O.co2  17  G17        -0.5172
    180  P        -29.8430    2.3480   91.9530 P.3    18  G18         0.2141
    181  C5'      -30.0240   -0.2330   91.8390 C.3    18  G18         0.1812
    182  O5'      -29.2100    0.9000   92.0190 O.3    18  G18        -0.3114
    183  C4'      -29.1720   -1.4490   91.8650 C.3    18  G18         0.1773
    184  O4'      -28.3930   -1.5470   90.6460 O.3    18  G18        -0.3307
    185  C3'      -28.1240   -1.4030   92.9490 C.3    18  G18         0.1860
    186  O3'      -28.7360   -1.7690   94.1730 O.3    18  G18        -0.3112
    187  C2'      -27.1300   -2.4370   92.4420 C.3    18  G18         0.2309
    188  O2'      -27.6270   -3.7350   92.6420 O.3    18  G18        -0.2156
    189  C1'      -27.1560   -2.1640   90.9380 C.3    18  G18         0.2408
    190  N1       -22.4350   -1.9490   89.1890 N.ar   18  G18        -0.1709
    191  C2       -23.1490   -3.0250   89.6540 C.ar   18  G18         0.2606
    192  N2       -22.5360   -4.2110   89.6210 N.pl3  18  G18        -0.0859
    193  N3       -24.3770   -2.9450   90.1160 N.ar   18  G18        -0.1918
    194  C4       -24.8470   -1.6870   90.0720 C.ar   18  G18         0.1723
    195  C5       -24.2220   -0.5480   89.6250 C.ar   18  G18         0.1748
    196  C6       -22.9070   -0.6450   89.1320 C.ar   18  G18         0.3023
    197  O6       -22.1910    0.2440   88.6830 O.2    18  G18        -0.2633
    198  N7       -25.0550    0.5490   89.7470 N.ar   18  G18        -0.2173
    199  C8       -26.1560    0.0630   90.2500 C.ar   18  G18         0.1817
    200  N9       -26.0980   -1.2920   90.4530 N.ar   18  G18        -0.2693
    201  OP1      -30.6510    2.5050   93.1800 O.3    18  G18        -0.4373
    202  OP2      -28.7350    3.2940   91.6960 O.co2  18  G18        -0.5172
    203  P        -27.9660   -1.5190   95.5480 P.3    19  G19         0.2141
    204  C5'      -27.2780   -4.0400   95.8290 C.3    19  G19         0.1812
    205  O5'      -26.8890   -2.6970   95.5700 O.3    19  G19        -0.3114
    206  C4'      -26.0550   -4.9050   95.9670 C.3    19  G19         0.1773
    207  O4'      -25.3690   -4.9420   94.6840 O.3    19  G19        -0.3307
    208  C3'      -25.0250   -4.3900   96.9590 C.3    19  G19         0.1860
    209  O3'      -25.2640   -4.9290   98.2540 O.3    19  G19        -0.3112
    210  C2'      -23.7460   -4.9760   96.4050 C.3    19  G19         0.2309
    211  O2'      -23.6830   -6.3260   96.7900 O.3    19  G19        -0.2156
    212  C1'      -23.9760   -4.8610   94.8920 C.3    19  G19         0.2408
    213  N1       -20.6680   -2.4650   91.8370 N.ar   19  G19        -0.1709
    214  C2       -20.7400   -3.8040   92.1600 C.ar   19  G19         0.2606
    215  N2       -19.8260   -4.6020   91.6040 N.pl3  19  G19        -0.0859
    216  N3       -21.6470   -4.3200   92.9740 N.ar   19  G19        -0.1918
    217  C4       -22.4910   -3.3790   93.4510 C.ar   19  G19         0.1723
    218  C5       -22.5040   -2.0250   93.1900 C.ar   19  G19         0.1748
    219  C6       -21.5300   -1.4810   92.3160 C.ar   19  G19         0.3023
    220  O6       -21.3860   -0.3110   91.9670 O.2    19  G19        -0.2633
    221  N7       -23.5260   -1.4040   93.8830 N.ar   19  G19        -0.2173
    222  C8       -24.1090   -2.3650   94.5400 C.ar   19  G19         0.1817
    223  N9       -23.5370   -3.5910   94.3220 N.ar   19  G19        -0.2693
    224  OP1      -28.9290   -1.7210   96.6410 O.3    19  G19        -0.4373
    225  OP2      -27.2230   -0.2340   95.4540 O.co2  19  G19        -0.5172
    226  P        -24.7510   -4.1350   99.5630 P.3    20  U20         0.2141
    227  C5'      -22.4980   -5.4210  100.0040 C.3    20  U20         0.1812
    228  O5'      -23.1640   -4.2680   99.5140 O.3    20  U20        -0.3114
    229  C4'      -21.0220   -5.3050   99.7220 C.3    20  U20         0.1773
    230  O4'      -20.8780   -5.0550   98.3040 O.3    20  U20        -0.3307
    231  C3'      -20.3240   -4.1120  100.3590 C.3    20  U20         0.1860
    232  O3'      -19.8690   -4.4150  101.6710 O.3    20  U20        -0.3112
    233  C2'      -19.1470   -3.8690   99.4270 C.3    20  U20         0.2309
    234  O2'      -18.0190   -4.6660   99.6960 O.3    20  U20        -0.2156
    235  C1'      -19.7320   -4.2630   98.0770 C.3    20  U20         0.2420
    236  N1       -20.1040   -3.1050   97.2640 N.ar   20  U20        -0.2534
    237  C2       -19.2480   -2.7940   96.2650 C.ar   20  U20         0.3546
    238  O2       -18.2410   -3.4430   96.0640 O.2    20  U20        -0.2443
    239  N3       -19.5970   -1.7020   95.5120 N.ar   20  U20        -0.1530
    240  C4       -20.7050   -0.9020   95.6710 C.ar   20  U20         0.2846
    241  O4       -20.8800    0.0430   94.9050 O.2    20  U20        -0.2650
    242  C5       -21.5640   -1.2900   96.7490 C.ar   20  U20         0.0814
    243  C6       -21.2410   -2.3640   97.4920 C.ar   20  U20         0.0870
    244  OP1      -25.1950   -4.8540  100.7730 O.3    20  U20        -0.4373
    245  OP2      -25.0750   -2.6900   99.4060 O.co2  20  U20        -0.5172
    246  P        -20.6850   -3.8580  102.9350 P.3    21  G21         0.2141
    247  C5'      -20.8390   -6.1410  104.1830 C.3    21  G21         0.1812
    248  O5'      -21.4850   -5.1410  103.4160 O.3    21  G21        -0.3114
    249  C4'      -21.4260   -7.4950  103.8800 C.3    21  G21         0.1773
    250  O4'      -21.1550   -7.8730  102.4940 O.3    21  G21        -0.3307
    251  C3'      -20.8070   -8.5900  104.7180 C.3    21  G21         0.1860
    252  O3'      -21.5030   -8.6440  105.9590 O.3    21  G21        -0.3112
    253  C2'      -20.9730   -9.8110  103.8170 C.3    21  G21         0.2309
    254  O2'      -22.2930  -10.2930  103.7770 O.3    21  G21        -0.2156
    255  C1'      -20.6850   -9.2090  102.4410 C.3    21  G21         0.2408
    256  N1       -16.5540  -11.9070  101.1580 N.ar   21  G21        -0.1709
    257  C2       -17.8040  -12.3530  101.5180 C.ar   21  G21         0.2606
    258  N2       -17.9790  -13.6790  101.5250 N.pl3  21  G21        -0.0859
    259  N3       -18.8130  -11.5500  101.8460 N.ar   21  G21        -0.1918
    260  C4       -18.4570  -10.2500  101.7900 C.ar   21  G21         0.1723
    261  C5       -17.2330   -9.7050  101.4460 C.ar   21  G21         0.1748
    262  C6       -16.1750  -10.5720  101.0820 C.ar   21  G21         0.3023
    263  O6       -15.0360  -10.2790  100.7180 O.2    21  G21        -0.2633
    264  N7       -17.2700   -8.3210  101.5210 N.ar   21  G21        -0.2173
    265  C8       -18.4910   -8.0490  101.8880 C.ar   21  G21         0.1817
    266  N9       -19.2710   -9.1740  102.0600 N.ar   21  G21        -0.2693
    267  OP1      -21.6620   -2.8370  102.4560 O.2    21  G21        -0.5172
    268  OP2      -19.7080   -3.4890  103.9860 O.co2  21  G21        -0.4373
    269  P        -20.6760   -8.6660  107.3430 P.3    22  C22         0.2141
    270  C5'      -20.6800  -11.2790  107.2480 C.3    22  C22         0.1812
    271  O5'      -19.9420  -10.0700  107.2720 O.3    22  C22        -0.3114
    272  C4'      -19.7340  -12.4330  107.0900 C.3    22  C22         0.1773
    273  O4'      -19.1810  -12.4350  105.7420 O.3    22  C22        -0.3307
    274  C3'      -18.5120  -12.3660  107.9890 C.3    22  C22         0.1860
    275  O3'      -18.8550  -12.8490  109.2780 O.3    22  C22        -0.3112
    276  C2'      -17.5280  -13.2580  107.2380 C.3    22  C22         0.2309
    277  O2'      -17.7400  -14.6420  107.4630 O.3    22  C22        -0.2156
    278  C1'      -17.8490  -12.9050  105.7760 C.3    22  C22         0.2420
    279  N1       -16.9960  -11.8450  105.2320 N.ar   22  C22        -0.2535
    280  C2       -15.7140  -12.1780  104.7650 C.ar   22  C22         0.3532
    281  O2       -15.3560  -13.3630  104.8000 O.2    22  C22        -0.2443
    282  N3       -14.9080  -11.1980  104.2910 N.ar   22  C22        -0.1739
    283  C4       -15.3410   -9.9370  104.2610 C.ar   22  C22         0.1759
    284  N4       -14.5230   -9.0080  103.7690 N.pl3  22  C22        -0.1070
    285  C5       -16.6400   -9.5730  104.7230 C.ar   22  C22         0.0566
    286  C6       -17.4300  -10.5500  105.1920 C.ar   22  C22         0.0850
    287  OP1      -21.6190   -8.7290  108.4870 O.3    22  C22        -0.4373
    288  OP2      -19.6380   -7.6180  107.3170 O.co2  22  C22        -0.5172
    289  P        -18.0190  -12.3780  110.5660 P.3    23  C23         0.2141
    290  C5'      -16.8010  -14.6500  110.1810 C.3    23  C23         0.1812
    291  O5'      -16.6990  -13.2740  110.5150 O.3    23  C23        -0.3114
    292  C4'      -15.4370  -15.3080  110.0830 C.3    23  C23         0.1773
    293  O4'      -14.6460  -14.7320  109.0120 O.3    23  C23        -0.3307
    294  C3'      -14.6070  -15.1460  111.3470 C.3    23  C23         0.1860
    295  O3'      -14.0870  -16.4310  111.7080 O.3    23  C23        -0.3112
    296  C2'      -13.6450  -13.9860  111.0610 C.3    23  C23         0.2309
    297  O2'      -12.3480  -14.2040  111.5530 O.3    23  C23        -0.2156
    298  C1'      -13.5420  -14.0510  109.5400 C.3    23  C23         0.2420
    299  N1       -13.2560  -12.8630  108.7300 N.ar   23  C23        -0.2535
    300  C2       -12.0360  -12.8240  108.0720 C.ar   23  C23         0.3532
    301  O2       -11.2530  -13.7770  108.2280 O.2    23  C23        -0.2443
    302  N3       -11.7340  -11.7640  107.2860 N.ar   23  C23        -0.1739
    303  C4       -12.6080  -10.7680  107.1560 C.ar   23  C23         0.1759
    304  N4       -12.2760   -9.7430  106.3670 N.pl3  23  C23        -0.1070
    305  C5       -13.8650  -10.7790  107.8280 C.ar   23  C23         0.0566
    306  C6       -14.1430  -11.8370  108.6020 C.ar   23  C23         0.0850
    307  OP1      -18.8160  -12.7860  111.7520 O.3    23  C23        -0.4373
    308  OP2      -17.6460  -10.9530  110.3940 O.co2  23  C23        -0.5172
    309  P        -13.5880  -16.7250  113.1900 P.3    24  C24         0.2141
    310  C5'      -11.7750  -18.6030  113.6080 C.3    24  C24         0.1812
    311  O5'      -12.1440  -17.3790  112.9570 O.3    24  C24        -0.3114
    312  C4'      -10.6100  -19.2920  112.8980 C.3    24  C24         0.1773
    313  O4'      -10.9510  -19.6130  111.5220 O.3    24  C24        -0.3307
    314  C3'       -9.2960  -18.5380  112.7570 C.3    24  C24         0.1860
    315  O3'       -8.5470  -18.5770  113.9630 O.3    24  C24        -0.3112
    316  C2'       -8.5880  -19.3410  111.6700 C.3    24  C24         0.2309
    317  O2'       -7.9380  -20.5010  112.1570 O.3    24  C24        -0.2156
    318  C1'       -9.7560  -19.7350  110.7630 C.3    24  C24         0.2420
    319  N1        -9.8460  -18.8830  109.5650 N.ar   24  C24        -0.2535
    320  C2        -9.5380  -19.4490  108.3290 C.ar   24  C24         0.3532
    321  O2        -9.2270  -20.6500  108.2830 O.2    24  C24        -0.2443
    322  N3        -9.5890  -18.6840  107.2180 N.ar   24  C24        -0.1739
    323  C4        -9.9360  -17.4000  107.3100 C.ar   24  C24         0.1759
    324  N4        -9.9690  -16.6890  106.1850 N.pl3  24  C24        -0.1070
    325  C5       -10.2610  -16.7940  108.5570 C.ar   24  C24         0.0566
    326  C6       -10.2060  -17.5650  109.6490 C.ar   24  C24         0.0850
    327  OP1      -14.4920  -17.7560  113.7520 O.2    24  C24        -0.5172
    328  OP2      -13.4290  -15.4290  113.8910 O.co2  24  C24        -0.4373
    329  P         -8.0360  -17.2060  114.6230 P.3    25  U25         0.2141
    330  C5'       -5.7480  -17.5420  113.3640 C.3    25  U25         0.1812
    331  O5'       -6.8700  -16.7080  113.6530 O.3    25  U25        -0.3114
    332  C4'       -4.7330  -16.8030  112.5110 C.3    25  U25         0.1773
    333  O4'       -5.3140  -16.4810  111.2150 O.3    25  U25        -0.3307
    334  C3'       -4.2380  -15.4620  113.0330 C.3    25  U25         0.1860
    335  O3'       -3.1870  -15.6210  113.9780 O.3    25  U25        -0.3112
    336  C2'       -3.7170  -14.8100  111.7590 C.3    25  U25         0.2309
    337  O2'       -2.4530  -15.3300  111.4030 O.3    25  U25        -0.2156
    338  C1'       -4.7570  -15.2680  110.7320 C.3    25  U25         0.2420
    339  N1        -5.8480  -14.3030  110.5040 N.ar   25  U25        -0.2534
    340  C2        -5.5480  -13.1470  109.8020 C.ar   25  U25         0.3546
    341  O2        -4.4350  -12.8950  109.3790 O.2    25  U25        -0.2443
    342  N3        -6.6060  -12.2920  109.6110 N.ar   25  U25        -0.1530
    343  C4        -7.9020  -12.4630  110.0380 C.ar   25  U25         0.2846
    344  O4        -8.7400  -11.5950  109.7790 O.2    25  U25        -0.2650
    345  C5        -8.1380  -13.6790  110.7600 C.ar   25  U25         0.0814
    346  C6        -7.1280  -14.5360  110.9620 C.ar   25  U25         0.0870
    347  OP1       -7.4570  -17.5590  115.9470 O.3    25  U25        -0.4373
    348  OP2       -9.1520  -16.2310  114.5500 O.co2  25  U25        -0.5172
    349  P         -2.7930  -14.3990  114.9520 P.3    26  U26         0.2141
    350  C5'       -0.7570  -13.5880  113.4920 C.3    26  U26         0.1812
    351  O5'       -2.0800  -13.3490  113.9840 O.3    26  U26        -0.3114
    352  C4'       -0.2260  -12.3760  112.7470 C.3    26  U26         0.1773
    353  O4'       -1.0150  -12.1410  111.5490 O.3    26  U26        -0.3307
    354  C3'       -0.2610  -11.0470  113.4880 C.3    26  U26         0.1860
    355  O3'        0.8610  -10.9100  114.3570 O.3    26  U26        -0.3112
    356  C2'       -0.2120  -10.0480  112.3360 C.3    26  U26         0.2309
    357  O2'        1.0890   -9.8620  111.8120 O.3    26  U26        -0.2156
    358  C1'       -1.0920  -10.7460  111.2970 C.3    26  U26         0.2420
    359  N1        -2.4950  -10.3320  111.4300 N.ar   26  U26        -0.2534
    360  C2        -2.8430   -9.0980  110.9270 C.ar   26  U26         0.3546
    361  O2        -2.0490   -8.3650  110.3720 O.2    26  U26        -0.2443
    362  N3        -4.1520   -8.7500  111.1050 N.ar   26  U26        -0.1530
    363  C4        -5.1280   -9.4880  111.7250 C.ar   26  U26         0.2846
    364  O4        -6.2600   -9.0200  111.8240 O.2    26  U26        -0.2650
    365  C5        -4.6970  -10.7620  112.2180 C.ar   26  U26         0.0814
    366  C6        -3.4270  -11.1340  112.0530 C.ar   26  U26         0.0870
    367  OP1       -1.7460  -14.8870  115.8870 O.3    26  U26        -0.4373
    368  OP2       -4.0340  -13.7880  115.5040 O.co2  26  U26        -0.5172
    369  P          0.7700   -9.9380  115.6370 P.3    27  C27         0.2141
    370  C5'        2.0220   -7.9240  114.5330 C.3    27  C27         0.1812
    371  O5'        0.8020   -8.4730  115.0140 O.3    27  C27        -0.3114
    372  C4'        1.7830   -6.5760  113.8990 C.3    27  C27         0.1773
    373  O4'        0.7760   -6.7150  112.8570 O.3    27  C27        -0.3307
    374  C3'        1.2250   -5.4880  114.8000 C.3    27  C27         0.1860
    375  O3'        2.2640   -4.8470  115.5370 O.3    27  C27        -0.3112
    376  C2'        0.6200   -4.5430  113.7730 C.3    27  C27         0.2309
    377  O2'        1.6180   -3.7930  113.1140 O.3    27  C27        -0.2156
    378  C1'       -0.0020   -5.5350  112.7870 C.3    27  C27         0.2420
    379  N1        -1.3990   -5.8760  113.1130 N.ar   27  C27        -0.2535
    380  C2        -2.4070   -4.9860  112.7440 C.ar   27  C27         0.3532
    381  O2        -2.1030   -3.9510  112.1330 O.2    27  C27        -0.2443
    382  N3        -3.6860   -5.2690  113.0570 N.ar   27  C27        -0.1739
    383  C4        -3.9820   -6.3900  113.7090 C.ar   27  C27         0.1759
    384  N4        -5.2710   -6.6130  114.0010 N.pl3  27  C27        -0.1070
    385  C5        -2.9770   -7.3240  114.0900 C.ar   27  C27         0.0566
    386  C6        -1.7110   -7.0300  113.7730 C.ar   27  C27         0.0850
    387  OP1        2.0260  -10.1240  116.4000 O.3    27  C27        -0.4373
    388  OP2       -0.5320  -10.1500  116.3090 O.co2  27  C27        -0.5172
    389  P          2.0140   -4.4190  117.0740 P.3    28  U28         0.2141
    390  C5'        0.9320   -5.7260  119.1110 C.3    28  U28         0.1812
    391  O5'        1.2020   -5.6460  117.7030 O.3    28  U28        -0.3114
    392  C4'       -0.5450   -5.9900  119.3490 C.3    28  U28         0.1773
    393  O4'       -1.2870   -4.9030  118.7610 O.3    28  U28        -0.3307
    394  C3'       -1.1150   -7.2480  118.6900 C.3    28  U28         0.1860
    395  O3'       -1.1660   -8.4320  119.5200 O.3    28  U28        -0.3112
    396  C2'       -2.5760   -6.8900  118.3880 C.3    28  U28         0.2309
    397  O2'       -3.4840   -7.3540  119.3690 O.3    28  U28        -0.2156
    398  C1'       -2.5700   -5.3650  118.4340 C.3    28  U28         0.2420
    399  N1        -3.1150   -4.6040  117.3030 N.ar   28  U28        -0.2534
    400  C2        -4.4540   -4.7800  117.0270 C.ar   28  U28         0.3546
    401  O2        -5.1330   -5.6290  117.5740 O.2    28  U28        -0.2443
    402  N3        -4.9700   -3.9250  116.0880 N.ar   28  U28        -0.1530
    403  C4        -4.2910   -2.9530  115.3910 C.ar   28  U28         0.2846
    404  O4        -4.9140   -2.2170  114.6280 O.2    28  U28        -0.2650
    405  C5        -2.8870   -2.8800  115.6800 C.ar   28  U28         0.0814
    406  C6        -2.3580   -3.6970  116.5980 C.ar   28  U28         0.0870
    407  OP1        1.1350   -3.2250  117.0680 O.2    28  U28        -0.5172
    408  OP2        3.3360   -4.3450  117.7460 O.co2  28  U28        -0.4373
    409  P         -0.7230   -8.4080  121.0890 P.3    29  G29         0.2141
    410  C5'       -2.6310   -9.3840  122.6290 C.3    29  G29         0.1812
    411  O5'       -2.0890   -8.2650  121.9130 O.3    29  G29        -0.3114
    412  C4'       -3.5790   -8.9350  123.7330 C.3    29  G29         0.1773
    413  O4'       -2.8680   -8.0970  124.6810 O.3    29  G29        -0.3307
    414  C3'       -4.8060   -8.1240  123.3300 C.3    29  G29         0.1860
    415  O3'       -5.8910   -8.9810  122.9860 O.3    29  G29        -0.3112
    416  C2'       -5.1380   -7.3710  124.6120 C.3    29  G29         0.2309
    417  O2'       -5.9160   -8.1310  125.5070 O.3    29  G29        -0.2156
    418  C1'       -3.7440   -7.1030  125.1910 C.3    29  G29         0.2408
    419  N1        -4.6580   -2.1250  125.0140 N.ar   29  G29        -0.1709
    420  C2        -5.4190   -3.1320  125.5450 C.ar   29  G29         0.2606
    421  N2        -6.5920   -2.7750  126.0780 N.pl3  29  G29        -0.0859
    422  N3        -5.0610   -4.3990  125.5500 N.ar   29  G29        -0.1918
    423  C4        -3.8610   -4.5870  124.9680 C.ar   29  G29         0.1723
    424  C5        -3.0220   -3.6510  124.4080 C.ar   29  G29         0.1748
    425  C6        -3.4200   -2.2940  124.4100 C.ar   29  G29         0.3023
    426  O6        -2.8180   -1.3140  123.9540 O.2    29  G29        -0.2633
    427  N7        -1.8720   -4.2530  123.9120 N.ar   29  G29        -0.2173
    428  C8        -2.0350   -5.5230  124.1720 C.ar   29  G29         0.1817
    429  N9        -3.2270   -5.7950  124.7990 N.ar   29  G29        -0.2693
    430  OP1        0.1450   -7.2430  121.4130 O.3    29  G29        -0.4373
    431  OP2       -0.2210   -9.7820  121.3560 O.co2  29  G29        -0.5172
    432  P         -6.8340   -8.6240  121.7330 P.3    30  C30         0.2141
    433  C5'       -8.8550   -8.0330  123.3030 C.3    30  C30         0.1812
    434  O5'       -7.9100   -7.6090  122.3230 O.3    30  C30        -0.3114
    435  C4'       -9.7260   -6.8730  123.7310 C.3    30  C30         0.1773
    436  O4'       -8.9450   -5.9120  124.4950 O.3    30  C30        -0.3307
    437  C3'      -10.3080   -6.0580  122.5920 C.3    30  C30         0.1860
    438  O3'      -11.4810   -6.6680  122.0600 O.3    30  C30        -0.3112
    439  C2'      -10.5960   -4.7190  123.2660 C.3    30  C30         0.2309
    440  O2'      -11.8020   -4.7080  123.9960 O.3    30  C30        -0.2156
    441  C1'       -9.4170   -4.5990  124.2330 C.3    30  C30         0.2420
    442  N1        -8.3180   -3.8040  123.6580 N.ar   30  C30        -0.2535
    443  C2        -8.3790   -2.4070  123.7470 C.ar   30  C30         0.3532
    444  O2        -9.3290   -1.8880  124.3400 O.2    30  C30        -0.2443
    445  N3        -7.4040   -1.6630  123.1840 N.ar   30  C30        -0.1739
    446  C4        -6.3910   -2.2610  122.5550 C.ar   30  C30         0.1759
    447  N4        -5.4590   -1.4890  121.9990 N.pl3  30  C30        -0.1070
    448  C5        -6.2900   -3.6800  122.4660 C.ar   30  C30         0.0566
    449  C6        -7.2660   -4.4080  123.0300 C.ar   30  C30         0.0850
    450  OP1       -7.5460   -9.8730  121.3610 O.3    30  C30        -0.4373
    451  OP2       -6.0200   -7.9140  120.7150 O.co2  30  C30        -0.5172
    452  P        -11.8760   -6.4180  120.5180 P.3    31  G31         0.2141
    453  C5'      -13.0620   -4.1440  121.0960 C.3    31  G31         0.1812
    454  O5'      -12.0160   -4.8330  120.4200 O.3    31  G31        -0.3114
    455  C4'      -12.9230   -2.6570  120.8820 C.3    31  G31         0.1773
    456  O4'      -11.6630   -2.2140  121.4490 O.3    31  G31        -0.3307
    457  C3'      -12.8510   -2.2280  119.4250 C.3    31  G31         0.1860
    458  O3'      -14.1520   -2.0570  118.8730 O.3    31  G31        -0.3112
    459  C2'      -12.0960   -0.9070  119.5070 C.3    31  G31         0.2309
    460  O2'      -12.9270    0.1830  119.8510 O.3    31  G31        -0.2156
    461  C1'      -11.1130   -1.1870  120.6440 C.3    31  G31         0.2408
    462  N1        -6.8500    0.1520  118.2680 N.ar   31  G31        -0.1709
    463  C2        -7.9890    0.8840  118.4860 C.ar   31  G31         0.2606
    464  N2        -7.9820    2.1490  118.0270 N.pl3  31  G31        -0.0859
    465  N3        -9.0580    0.4130  119.1120 N.ar   31  G31        -0.1918
    466  C4        -8.8870   -0.8630  119.5070 C.ar   31  G31         0.1723
    467  C5        -7.7900   -1.6760  119.3380 C.ar   31  G31         0.1748
    468  C6        -6.6560   -1.1630  118.6710 C.ar   31  G31         0.3023
    469  O6        -5.5820   -1.7260  118.4320 O.2    31  G31        -0.2633
    470  N7        -8.0160   -2.9280  119.8870 N.ar   31  G31        -0.2173
    471  C8        -9.2230   -2.8510  120.3730 C.ar   31  G31         0.1817
    472  N9        -9.8000   -1.6210  120.1880 N.ar   31  G31        -0.2693
    473  OP1      -13.2120   -7.0100  120.2360 O.3    31  G31        -0.4373
    474  OP2      -10.7000   -6.8350  119.7060 O.co2  31  G31        -0.5172
    475  P        -14.4600   -2.5840  117.3840 P.3    32  U32         0.2141
    476  C5'      -14.0170   -0.2800  116.2340 C.3    32  U32         0.1812
    477  O5'      -13.6150   -1.6290  116.4310 O.3    32  U32        -0.3114
    478  C4'      -12.8740    0.5370  115.6850 C.3    32  U32         0.1773
    479  O4'      -11.7110    0.3780  116.5430 O.3    32  U32        -0.3307
    480  C3'      -12.3640    0.1380  114.3150 C.3    32  U32         0.1860
    481  O3'      -13.2110    0.6770  113.2980 O.3    32  U32        -0.3112
    482  C2'      -10.9760    0.7690  114.3350 C.3    32  U32         0.2309
    483  O2'      -11.0210    2.1740  114.1940 O.3    32  U32        -0.2156
    484  C1'      -10.5320    0.4680  115.7660 C.3    32  U32         0.2420
    485  N1        -9.7970   -0.7970  115.9000 N.ar   32  U32        -0.2534
    486  C2        -8.4600   -0.8140  115.5290 C.ar   32  U32         0.3546
    487  O2        -7.8790    0.1580  115.0980 O.2    32  U32        -0.2443
    488  N3        -7.8300   -2.0190  115.6860 N.ar   32  U32        -0.1530
    489  C4        -8.3810   -3.1850  116.1670 C.ar   32  U32         0.2846
    490  O4        -7.6740   -4.1950  116.2560 O.2    32  U32        -0.2650
    491  C5        -9.7680   -3.0890  116.5280 C.ar   32  U32         0.0814
    492  C6       -10.4110   -1.9270  116.3840 C.ar   32  U32         0.0870
    493  OP1      -15.9010   -2.3140  117.1110 O.2    32  U32        -0.5172
    494  OP2      -13.9190   -3.9690  117.2490 O.co2  32  U32        -0.4373
    495  P        -13.6290   -0.2260  112.0230 P.3    33  G33         0.2141
    496  C5'      -12.1370    1.3560  110.5460 C.3    33  G33         0.1812
    497  O5'      -12.4540    0.0370  110.9790 O.3    33  G33        -0.3114
    498  C4'      -10.6640    1.4640  110.2230 C.3    33  G33         0.1773
    499  O4'       -9.9140    1.1770  111.4320 O.3    33  G33        -0.3307
    500  C3'      -10.0820    0.4730  109.2230 C.3    33  G33         0.1860
    501  O3'      -10.2690    0.8450  107.8610 O.3    33  G33        -0.3112
    502  C2'       -8.6120    0.5350  109.5830 C.3    33  G33         0.2309
    503  O2'       -8.0630    1.7690  109.1660 O.3    33  G33        -0.2156
    504  C1'       -8.6920    0.5370  111.1060 C.3    33  G33         0.2408
    505  N1        -5.9070   -3.4990  112.4430 N.ar   33  G33        -0.1709
    506  C2        -5.5170   -2.3420  111.8190 C.ar   33  G33         0.2606
    507  N2        -4.2000   -2.2380  111.5210 N.pl3  33  G33        -0.0859
    508  N3        -6.3450   -1.3550  111.5080 N.ar   33  G33        -0.1918
    509  C4        -7.6120   -1.6250  111.8770 C.ar   33  G33         0.1723
    510  C5        -8.1030   -2.7490  112.5020 C.ar   33  G33         0.1748
    511  C6        -7.2000   -3.8010  112.8310 C.ar   33  G33         0.3023
    512  O6        -7.4350   -4.8840  113.3870 O.2    33  G33        -0.2633
    513  N7        -9.4710   -2.6390  112.7040 N.ar   33  G33        -0.2173
    514  C8        -9.7800   -1.4710  112.2080 C.ar   33  G33         0.1817
    515  N9        -8.6990   -0.7980  111.6990 N.ar   33  G33        -0.2693
    516  OP1      -14.8780    0.3730  111.4980 O.2    33  G33        -0.5172
    517  OP2      -13.6040   -1.6730  112.3390 O.co2  33  G33        -0.4373
    518  P        -10.3010   -0.3020  106.7330 P.3    34  A34         0.2141
    519  C5'       -7.7560    0.1050  106.2130 C.3    34  A34         0.1812
    520  O5'       -8.7860   -0.7900  106.6290 O.3    34  A34        -0.3114
    521  C4'       -6.3950   -0.5160  106.4270 C.3    34  A34         0.1773
    522  O4'       -6.2160   -0.8370  107.8370 O.3    34  A34        -0.3307
    523  C3'       -6.1440   -1.8440  105.7300 C.3    34  A34         0.1860
    524  O3'       -5.7670   -1.6750  104.3740 O.3    34  A34        -0.3112
    525  C2'       -4.9860   -2.3900  106.5400 C.3    34  A34         0.2309
    526  O2'       -3.7710   -1.7470  106.2120 O.3    34  A34        -0.2156
    527  C1'       -5.4220   -2.0110  107.9550 C.3    34  A34         0.2408
    528  N1        -5.3510   -6.5630  110.2860 N.ar   34  A34        -0.2040
    529  C2        -4.3770   -5.7580  109.8490 C.ar   34  A34         0.2016
    530  N3        -4.4690   -4.5790  109.2500 N.ar   34  A34        -0.2048
    531  C4        -5.7590   -4.2240  109.1060 C.ar   34  A34         0.1692
    532  C5        -6.8700   -4.9440  109.5050 C.ar   34  A34         0.1518
    533  C6        -6.6340   -6.1750  110.1310 C.ar   34  A34         0.1919
    534  N6        -7.5990   -6.9770  110.5810 N.pl3  34  A34        -0.1054
    535  N7        -8.0370   -4.2670  109.1820 N.ar   34  A34        -0.2193
    536  C8        -7.6140   -3.1680  108.6080 C.ar   34  A34         0.1816
    537  N9        -6.2440   -3.0770  108.5300 N.ar   34  A34        -0.2693
    538  OP1      -10.6730    0.2770  105.4120 O.2    34  A34        -0.5172
    539  OP2      -11.1110   -1.4130  107.2960 O.co2  34  A34        -0.4373
    540  P         -6.2540   -2.7450  103.2790 P.3    35  A35         0.2141
    541  C5'       -3.7830   -3.6170  103.2450 C.3    35  A35         0.1812
    542  O5'       -5.1680   -3.9090  103.3640 O.3    35  A35        -0.3114
    543  C4'       -2.9570   -4.7300  103.8440 C.3    35  A35         0.1773
    544  O4'       -3.2160   -4.8300  105.2770 O.3    35  A35        -0.3307
    545  C3'       -3.2350   -6.1320  103.3330 C.3    35  A35         0.1860
    546  O3'       -2.6530   -6.3730  102.0490 O.3    35  A35        -0.3112
    547  C2'       -2.6430   -6.9750  104.4660 C.3    35  A35         0.2309
    548  O2'       -1.2270   -7.0460  104.4880 O.3    35  A35        -0.2156
    549  C1'       -3.1000   -6.1800  105.6920 C.3    35  A35         0.2408
    550  N1        -5.6260   -9.8930  108.1860 N.ar   35  A35        -0.2040
    551  C2        -4.3380   -9.7440  107.8630 C.ar   35  A35         0.2016
    552  N3        -3.7450   -8.7440  107.2140 N.ar   35  A35        -0.2048
    553  C4        -4.6430   -7.8020  106.8720 C.ar   35  A35         0.1692
    554  C5        -5.9990   -7.8220  107.1270 C.ar   35  A35         0.1518
    555  C6        -6.4990   -8.9280  107.8250 C.ar   35  A35         0.1919
    556  N6        -7.7810   -9.0760  108.1510 N.pl3  35  A35        -0.1054
    557  N7        -6.6110   -6.6860  106.6210 N.ar   35  A35        -0.2193
    558  C8        -5.6250   -6.0110  106.0780 C.ar   35  A35         0.1816
    559  N9        -4.4040   -6.6300  106.1900 N.ar   35  A35        -0.2693
    560  OP1       -6.1510   -2.0450  101.9750 O.2    35  A35        -0.5172
    561  OP2       -7.5450   -3.3410  103.6970 O.co2  35  A35        -0.4373
    562  P         -3.4530   -7.2680  100.9690 P.3    36  G36         0.2141
    563  C5'       -2.5040   -9.5390  101.8820 C.3    36  G36         0.1812
    564  O5'       -3.6260   -8.6750  101.7090 O.3    36  G36        -0.3114
    565  C4'       -2.8770  -10.7490  102.7020 C.3    36  G36         0.1773
    566  O4'       -3.3560  -10.3410  104.0070 O.3    36  G36        -0.3307
    567  C3'       -4.0000  -11.6360  102.1900 C.3    36  G36         0.1860
    568  O3'       -3.5600  -12.5350  101.1810 O.3    36  G36        -0.3112
    569  C2'       -4.3570  -12.4070  103.4470 C.3    36  G36         0.2309
    570  O2'       -3.4020  -13.3950  103.7380 O.3    36  G36        -0.2156
    571  C1'       -4.2850  -11.3050  104.4960 C.3    36  G36         0.2408
    572  N1        -9.0060  -11.5960  106.3390 N.ar   36  G36        -0.1709
    573  C2        -7.9720  -12.4790  106.4900 C.ar   36  G36         0.2606
    574  N2        -8.2310  -13.5730  107.2180 N.pl3  36  G36        -0.0859
    575  N3        -6.7690  -12.2990  105.9670 N.ar   36  G36        -0.1918
    576  C4        -6.6890  -11.1390  105.2890 C.ar   36  G36         0.1723
    577  C5        -7.6680  -10.1910  105.0960 C.ar   36  G36         0.1748
    578  C6        -8.9370  -10.4020  105.6380 C.ar   36  G36         0.3023
    579  O6        -9.9240   -9.6810  105.5530 O.2    36  G36        -0.2633
    580  N7        -7.1850   -9.1270  104.3550 N.ar   36  G36        -0.2173
    581  C8        -5.9470   -9.4430  104.1050 C.ar   36  G36         0.1817
    582  N9        -5.5840  -10.6560  104.6330 N.ar   36  G36        -0.2693
    583  OP1       -2.5810   -7.5330   99.7870 O.2    36  G36        -0.5172
    584  OP2       -4.7940   -6.6650  100.7560 O.co2  36  G36        -0.4373
    585  P         -4.5970  -13.0450  100.0820 P.3    37  G37         0.2141
    586  C5'       -5.0280  -15.1630  101.5430 C.3    37  G37         0.1812
    587  O5'       -5.5460  -14.0150  100.9020 O.3    37  G37        -0.3114
    588  C4'       -6.1180  -15.8440  102.3320 C.3    37  G37         0.1773
    589  O4'       -6.5920  -14.9690  103.3940 O.3    37  G37        -0.3307
    590  C3'       -7.3760  -16.1900  101.5530 C.3    37  G37         0.1860
    591  O3'       -7.1680  -17.3980  100.8340 O.3    37  G37        -0.3112
    592  C2'       -8.3890  -16.3340  102.6810 C.3    37  G37         0.2309
    593  O2'       -8.2360  -17.5230  103.4220 O.3    37  G37        -0.2156
    594  C1'       -7.9770  -15.1810  103.5940 C.3    37  G37         0.2408
    595  N1       -12.3550  -12.7300  104.0280 N.ar   37  G37        -0.1709
    596  C2       -11.9910  -13.9770  104.4750 C.ar   37  G37         0.2606
    597  N2       -12.9200  -14.6660  105.1320 N.pl3  37  G37        -0.0859
    598  N3       -10.8010  -14.5060  104.2890 N.ar   37  G37        -0.1918
    599  C4        -9.9830  -13.6820  103.6130 C.ar   37  G37         0.1723
    600  C5       -10.2410  -12.4210  103.1200 C.ar   37  G37         0.1748
    601  C6       -11.5330  -11.8610  103.3260 C.ar   37  G37         0.3023
    602  O6       -11.9640  -10.7620  102.9770 O.2    37  G37        -0.2633
    603  N7        -9.1200  -11.9030  102.4870 N.ar   37  G37        -0.2173
    604  C8        -8.2240  -12.8430  102.6040 C.ar   37  G37         0.1817
    605  N9        -8.6900  -13.9490  103.2780 N.ar   37  G37        -0.2693
    606  OP1       -3.8840  -13.8480   99.0580 O.2    37  G37        -0.5172
    607  OP2       -5.4190  -11.8880   99.6630 O.co2  37  G37        -0.4373
    608  P         -8.0960  -17.7540   99.5810 P.3    38  C38         0.2141
    609  C5'      -10.0330  -18.9150  100.9190 C.3    38  C38         0.1812
    610  O5'       -9.5540  -17.7660  100.2270 O.3    38  C38        -0.3114
    611  C4'      -11.5340  -18.9030  100.9590 C.3    38  C38         0.1773
    612  O4'      -11.9820  -17.8030  101.7910 O.3    38  C38        -0.3307
    613  C3'      -12.2220  -18.6490   99.6340 C.3    38  C38         0.1860
    614  O3'      -12.2970  -19.8280   98.8460 O.3    38  C38        -0.3112
    615  C2'      -13.5930  -18.1550  100.0860 C.3    38  C38         0.2309
    616  O2'      -14.4570  -19.1830  100.5080 O.3    38  C38        -0.2156
    617  C1'      -13.2210  -17.3110  101.3050 C.3    38  C38         0.2420
    618  N1       -13.0620  -15.8830  100.9830 N.ar   38  C38        -0.2535
    619  C2       -14.2030  -15.1130  100.7500 C.ar   38  C38         0.3532
    620  O2       -15.3150  -15.6470  100.8260 O.2    38  C38        -0.2443
    621  N3       -14.0690  -13.8100  100.4520 N.ar   38  C38        -0.1739
    622  C4       -12.8590  -13.2650  100.3870 C.ar   38  C38         0.1759
    623  N4       -12.7810  -11.9700  100.1040 N.pl3  38  C38        -0.1070
    624  C5       -11.6770  -14.0230  100.6140 C.ar   38  C38         0.0566
    625  C6       -11.8220  -15.3160  100.9090 C.ar   38  C38         0.0850
    626  OP1       -7.7840  -19.1440   99.1910 O.3    38  C38        -0.4373
    627  OP2       -8.0460  -16.6810   98.5490 O.co2  38  C38        -0.5172
    628  P        -12.3820  -19.7050   97.2480 P.3    39  U39         0.2141
    629  C5'      -14.9990  -20.0840   97.2720 C.3    39  U39         0.1812
    630  O5'      -13.8860  -19.2570   96.9610 O.3    39  U39        -0.3114
    631  C4'      -16.2880  -19.3550   96.9540 C.3    39  U39         0.1773
    632  O4'      -16.5150  -18.2860   97.9180 O.3    39  U39        -0.3307
    633  C3'      -16.3420  -18.6480   95.6060 C.3    39  U39         0.1860
    634  O3'      -16.6820  -19.5530   94.5700 O.3    39  U39        -0.3112
    635  C2'      -17.4630  -17.6510   95.8500 C.3    39  U39         0.2309
    636  O2'      -18.7100  -18.3020   95.8760 O.3    39  U39        -0.2156
    637  C1'      -17.1520  -17.1930   97.2730 C.3    39  U39         0.2420
    638  N1       -16.2560  -16.0220   97.3020 N.ar   39  U39        -0.2534
    639  C2       -16.8440  -14.7790   97.3920 C.ar   39  U39         0.3546
    640  O2       -18.0380  -14.6260   97.4490 O.2    39  U39        -0.2443
    641  N3       -15.9720  -13.7190   97.4050 N.ar   39  U39        -0.1530
    642  C4       -14.5960  -13.7760   97.3300 C.ar   39  U39         0.2846
    643  O4       -13.9500  -12.7330   97.3520 O.2    39  U39        -0.2650
    644  C5       -14.0580  -15.0960   97.2370 C.ar   39  U39         0.0814
    645  C6       -14.8830  -16.1480   97.2290 C.ar   39  U39         0.0870
    646  OP1      -12.1220  -21.0520   96.6890 O.2    39  U39        -0.5172
    647  OP2      -11.5450  -18.5480   96.8220 O.co2  39  U39        -0.4373
    648  P        -16.1270  -19.3160   93.0770 P.3    40  G40         0.2141
    649  C5'      -18.2680  -17.9460   92.3900 C.3    40  G40         0.1812
    650  O5'      -16.8570  -17.9930   92.5800 O.3    40  G40        -0.3114
    651  C4'      -18.7050  -16.5190   92.2420 C.3    40  G40         0.1773
    652  O4'      -18.3200  -15.7880   93.4370 O.3    40  G40        -0.3307
    653  C3'      -18.0170  -15.7470   91.1320 C.3    40  G40         0.1860
    654  O3'      -18.6210  -16.0270   89.8620 O.3    40  G40        -0.3112
    655  C2'      -18.2380  -14.3100   91.5910 C.3    40  G40         0.2309
    656  O2'      -19.5330  -13.8450   91.3170 O.3    40  G40        -0.2156
    657  C1'      -18.0900  -14.4320   93.1090 C.3    40  G40         0.2408
    658  N1       -14.9680  -10.6440   94.4200 N.ar   40  G40        -0.1709
    659  C2       -16.3340  -10.6130   94.2740 C.ar   40  G40         0.2606
    660  N2       -16.9230   -9.4030   94.4430 N.pl3  40  G40        -0.0859
    661  N3       -17.0670  -11.6880   93.9890 N.ar   40  G40        -0.1918
    662  C4       -16.3060  -12.7970   93.8780 C.ar   40  G40         0.1723
    663  C5       -14.9450  -12.9190   94.0260 C.ar   40  G40         0.1748
    664  C6       -14.1810  -11.7820   94.3020 C.ar   40  G40         0.3023
    665  O6       -12.9640  -11.7010   94.4200 O.2    40  G40        -0.2633
    666  N7       -14.5430  -14.2290   93.8400 N.ar   40  G40        -0.2173
    667  C8       -15.6430  -14.8700   93.5660 C.ar   40  G40         0.1817
    668  N9       -16.7450  -14.0570   93.5300 N.ar   40  G40        -0.2693
    669  OP1      -16.6240  -20.4530   92.2490 O.2    40  G40        -0.5172
    670  OP2      -14.6700  -19.0150   93.1020 O.co2  40  G40        -0.4373
    671  P        -17.7110  -16.1030   88.5240 P.3    41  A41         0.2141
    672  C5'      -16.4480  -14.2290   87.1810 C.3    41  A41         0.1812
    673  O5'      -17.2900  -14.5860   88.2720 O.3    41  A41        -0.3114
    674  C4'      -16.5350  -12.7400   86.8970 C.3    41  A41         0.1773
    675  O4'      -17.8460  -12.3940   86.3840 O.3    41  A41        -0.3307
    676  C3'      -16.3460  -11.7970   88.0710 C.3    41  A41         0.1860
    677  O3'      -14.9660  -11.6210   88.3330 O.3    41  A41        -0.3112
    678  C2'      -16.9820  -10.5120   87.5450 C.3    41  A41         0.2309
    679  O2'      -16.1390   -9.8210   86.6390 O.3    41  A41        -0.2156
    680  C1'      -18.1660  -11.0640   86.7520 C.3    41  A41         0.2408
    681  N1       -22.0030   -8.3880   89.0230 N.ar   41  A41        -0.2040
    682  C2       -20.8210   -7.9930   88.5240 C.ar   41  A41         0.2016
    683  N3       -19.8400   -8.7290   87.9800 N.ar   41  A41        -0.2048
    684  C4       -20.1700  -10.0370   87.9730 C.ar   41  A41         0.1692
    685  C5       -21.3450  -10.5940   88.4620 C.ar   41  A41         0.1518
    686  C6       -22.3010   -9.7130   89.0060 C.ar   41  A41         0.1919
    687  N6       -23.4720  -10.1200   89.4950 N.pl3  41  A41        -0.1054
    688  N7       -21.3390  -11.9710   88.2970 N.ar   41  A41        -0.2193
    689  C8       -20.1930  -12.2140   87.7110 C.ar   41  A41         0.1816
    690  N9       -19.4440  -11.0930   87.4620 N.ar   41  A41        -0.2693
    691  OP1      -18.5680  -16.5010   87.3800 O.2    41  A41        -0.5172
    692  OP2      -16.4940  -16.8950   88.8050 O.co2  41  A41        -0.4373
    693  P        -14.4370  -11.6550   89.8420 P.3    42  G42         0.2141
    694  C5'      -14.3570   -9.0090   89.8640 C.3    42  G42         0.1812
    695  O5'      -14.8170  -10.2280   90.4520 O.3    42  G42        -0.3114
    696  C4'      -15.1810   -7.8440   90.3810 C.3    42  G42         0.1773
    697  O4'      -16.5490   -8.0010   89.9370 O.3    42  G42        -0.3307
    698  C3'      -15.2760   -7.7420   91.8950 C.3    42  G42         0.1860
    699  O3'      -14.2200   -6.9430   92.3980 O.3    42  G42        -0.3112
    700  C2'      -16.6160   -7.0600   92.1140 C.3    42  G42         0.2309
    701  O2'      -16.5390   -5.6530   91.9810 O.3    42  G42        -0.2156
    702  C1'      -17.4440   -7.6190   90.9630 C.3    42  G42         0.2408
    703  N1       -22.1010   -9.1990   92.3000 N.ar   42  G42        -0.1709
    704  C2       -21.6040   -7.9280   92.2690 C.ar   42  G42         0.2606
    705  N2       -22.4720   -6.9610   92.5820 N.pl3  42  G42        -0.0859
    706  N3       -20.3530   -7.6310   91.9530 N.ar   42  G42        -0.1918
    707  C4       -19.6310   -8.7310   91.6630 C.ar   42  G42         0.1723
    708  C5       -20.0370  -10.0420   91.6690 C.ar   42  G42         0.1748
    709  C6       -21.3770  -10.3440   92.0070 C.ar   42  G42         0.3023
    710  O6       -21.9300  -11.4430   92.0570 O.2    42  G42        -0.2633
    711  N7       -18.9940  -10.8810   91.3190 N.ar   42  G42        -0.2173
    712  C8       -17.9890  -10.0810   91.0960 C.ar   42  G42         0.1817
    713  N9       -18.3110   -8.7600   91.2530 N.ar   42  G42        -0.2693
    714  OP1      -12.9550  -11.7800   89.7910 O.2    42  G42        -0.5172
    715  OP2      -15.2420  -12.6900   90.5450 O.co2  42  G42        -0.4373
    716  P        -13.7990   -7.0630   93.9360 P.3    43  A43         0.2141
    717  C5'      -15.5370   -5.5410   95.2150 C.3    43  A43         0.1812
    718  O5'      -15.1710   -6.8130   94.7090 O.3    43  A43        -0.3114
    719  C4'      -15.9600   -5.6810   96.6580 C.3    43  A43         0.1773
    720  O4'      -16.8050   -6.8260   96.7980 O.3    43  A43        -0.3307
    721  C3'      -14.8300   -5.8400   97.6690 C.3    43  A43         0.1860
    722  O3'      -14.8300   -4.5760   98.3430 O.3    43  A43        -0.3112
    723  C2'      -15.3050   -6.9110   98.6630 C.3    43  A43         0.2309
    724  O2'      -15.4900   -6.4070   99.9640 O.3    43  A43        -0.2156
    725  C1'      -16.6570   -7.3350   98.0900 C.3    43  A43         0.2408
    726  N1       -20.6750  -10.2640   98.8150 N.ar   43  A43        -0.2040
    727  C2       -20.4800   -8.9460   98.8660 C.ar   43  A43         0.2016
    728  N3       -19.3750   -8.2620   98.6660 N.ar   43  A43        -0.2048
    729  C4       -18.3580   -9.0920   98.3800 C.ar   43  A43         0.1692
    730  C5       -18.3990  -10.4680   98.2940 C.ar   43  A43         0.1518
    731  C6       -19.6350  -11.0700   98.5260 C.ar   43  A43         0.1919
    732  N6       -19.8450  -12.3750   98.4750 N.pl3  43  A43        -0.1054
    733  N7       -17.1530  -10.9760   97.9690 N.ar   43  A43        -0.2193
    734  C8       -16.4000   -9.9070   97.8680 C.ar   43  A43         0.1816
    735  N9       -17.0700   -8.7360   98.1020 N.ar   43  A43        -0.2693
    736  OP1      -12.8620   -5.9500   94.2310 O.3    43  A43        -0.4373
    737  OP2      -13.3760   -8.4610   94.2070 O.co2  43  A43        -0.5172
    738  P        -13.4740   -3.9010   98.8440 P.3    44  A44         0.2141
    739  C5'      -13.4890   -2.3440   96.7310 C.3    44  A44         0.1812
    740  O5'      -13.5410   -2.4690   98.1510 O.3    44  A44        -0.3114
    741  C4'      -14.2510   -1.1210   96.2850 C.3    44  A44         0.1773
    742  O4'      -15.6100   -1.2380   96.7310 O.3    44  A44        -0.3307
    743  C3'      -13.8010    0.2280   96.8390 C.3    44  A44         0.1860
    744  O3'      -12.8780    0.8080   95.9140 O.3    44  A44        -0.3112
    745  C2'      -15.0760    1.0840   96.7870 C.3    44  A44         0.2309
    746  O2'      -15.1530    1.8860   95.6230 O.3    44  A44        -0.2156
    747  C1'      -16.1860    0.0360   96.6900 C.3    44  A44         0.2408
    748  N1       -20.4240    2.5850   97.9510 N.ar   44  A44        -0.2040
    749  C2       -19.4510    2.8320   97.0600 C.ar   44  A44         0.2016
    750  N3       -18.3460    2.1430   96.8110 N.ar   44  A44        -0.2048
    751  C4       -18.2770    1.0640   97.6090 C.ar   44  A44         0.1692
    752  C5       -19.1910    0.6830   98.5730 C.ar   44  A44         0.1518
    753  C6       -20.3180    1.4960   98.7390 C.ar   44  A44         0.1919
    754  N6       -21.2810    1.2530   99.6260 N.pl3  44  A44        -0.1054
    755  N7       -18.7800   -0.4830   99.2020 N.ar   44  A44        -0.2193
    756  C8       -17.6500   -0.7780   98.6060 C.ar   44  A44         0.1816
    757  N9       -17.3030    0.1010   97.6170 N.ar   44  A44        -0.2693
    758  OP1      -12.3130   -4.6590   98.2890 O.2    44  A44        -0.5172
    759  OP2      -13.5840   -3.6890  100.3100 O.co2  44  A44        -0.4373
    760  P        -11.2960    0.7770   96.2000 P.3    45  A45         0.2141
    761  C5'      -10.9080    1.3950   93.6620 C.3    45  A45         0.1812
    762  O5'      -10.6830    0.4940   94.7490 O.3    45  A45        -0.3114
    763  C4'      -11.0160    0.6330   92.3570 C.3    45  A45         0.1773
    764  O4'      -12.0830   -0.3490   92.4800 O.3    45  A45        -0.3307
    765  C3'      -11.3910    1.4630   91.1310 C.3    45  A45         0.1860
    766  O3'      -10.2420    2.0270   90.4790 O.3    45  A45        -0.3112
    767  C2'      -12.0760    0.4170   90.2550 C.3    45  A45         0.2309
    768  O2'      -11.1650   -0.4600   89.6230 O.3    45  A45        -0.2156
    769  C1'      -12.8650   -0.3720   91.2970 C.3    45  A45         0.2408
    770  N1       -17.4060   -1.0310   93.6160 N.ar   45  A45        -0.2040
    771  C2       -16.3630   -1.8470   93.4270 C.ar   45  A45         0.2016
    772  N3       -15.2140   -1.6180   92.7910 N.ar   45  A45        -0.2048
    773  C4       -15.1840   -0.3670   92.3030 C.ar   45  A45         0.1692
    774  C5       -16.1780    0.5890   92.4120 C.ar   45  A45         0.1518
    775  C6       -17.3500    0.2190   93.1120 C.ar   45  A45         0.1919
    776  N6       -18.3950    1.0220   93.3000 N.pl3  45  A45        -0.1054
    777  N7       -15.7990    1.7600   91.7720 N.ar   45  A45        -0.2193
    778  C8       -14.6050    1.4940   91.3080 C.ar   45  A45         0.1816
    779  N9       -14.1620    0.2300   91.6080 N.ar   45  A45        -0.2693
    780  OP1      -10.9920   -0.3970   97.0560 O.3    45  A45        -0.4373
    781  OP2      -10.8740    2.1310   96.6530 O.co2  45  A45        -0.5172
    782  P        -10.1200    3.6330   90.2720 P.3    46  U46         0.2141
    783  C5'      -11.6570    2.9990   88.2270 C.3    46  U46         0.1811
    784  O5'      -10.7700    3.9290   88.8400 O.3    46  U46        -0.3114
    785  C4'      -12.9320    3.6830   87.7840 C.3    46  U46         0.1752
    786  O4'      -13.5290    4.3820   88.9100 O.3    46  U46        -0.3483
    787  C3'      -12.8100    4.7420   86.7000 C.3    46  U46         0.1839
    788  O3'      -12.7340    4.1510   85.3960 O.3    46  U46        -0.3113
    789  C2'      -14.0310    5.6300   86.9370 C.3    46  U46         0.2112
    790  O2'      -15.2280    5.1940   86.3260 O.3    46  U46        -0.2177
    791  C1'      -14.1630    5.5710   88.4620 C.3    46  U46         0.1776
    792  OP1       -8.6610    3.9110   90.1780 O.2    46  U46        -0.5172
    793  OP2      -10.9300    4.3360   91.3020 O.co2  46  U46        -0.4373
    794  P        -13.8250    3.0500   84.9290 P.3    47  A47         0.2141
    795  C5'      -13.5510    0.4960   84.4530 C.3    47  A47         0.1812
    796  O5'      -12.9620    1.7120   84.8690 O.3    47  A47        -0.3114
    797  C4'      -13.0900   -0.6370   85.3320 C.3    47  A47         0.1773
    798  O4'      -13.0310   -0.2090   86.7220 O.3    47  A47        -0.3307
    799  C3'      -14.0420   -1.8200   85.3140 C.3    47  A47         0.1860
    800  O3'      -13.7600   -2.6630   84.2080 O.3    47  A47        -0.3112
    801  C2'      -13.8050   -2.4440   86.6870 C.3    47  A47         0.2309
    802  O2'      -12.6340   -3.2290   86.7720 O.3    47  A47        -0.2156
    803  C1'      -13.6320   -1.1910   87.5520 C.3    47  A47         0.2408
    804  N1       -17.9680   -1.8740   90.2970 N.ar   47  A47        -0.2040
    805  C2       -16.9460   -2.6980   90.0330 C.ar   47  A47         0.2016
    806  N3       -15.8500   -2.4780   89.3120 N.ar   47  A47        -0.2048
    807  C4       -15.8570   -1.2300   88.8180 C.ar   47  A47         0.1692
    808  C5       -16.8410   -0.2730   89.0040 C.ar   47  A47         0.1518
    809  C6       -17.9400   -0.6270   89.7850 C.ar   47  A47         0.1919
    810  N6       -18.9540    0.1970   90.0480 N.pl3  47  A47        -0.1054
    811  N7       -16.5160    0.9010   88.3450 N.ar   47  A47        -0.2193
    812  C8       -15.3600    0.6390   87.7860 C.ar   47  A47         0.1816
    813  N9       -14.8970   -0.6310   88.0330 N.ar   47  A47        -0.2693
    814  OP1      -14.2430    3.3680   83.5410 O.2    47  A47        -0.5172
    815  OP2      -14.8640    2.8760   85.9750 O.co2  47  A47        -0.4373
    816  P        -14.8730   -2.8740   83.0620 P.3    48  C48         0.2141
    817  C5'      -15.2130   -5.1720   84.2310 C.3    48  C48         0.1812
    818  O5'      -15.7970   -3.9990   83.6890 O.3    48  C48        -0.3114
    819  C4'      -16.1310   -5.7690   85.2490 C.3    48  C48         0.1773
    820  O4'      -16.2500   -4.8680   86.3770 O.3    48  C48        -0.3307
    821  C3'      -17.5660   -5.9600   84.7890 C.3    48  C48         0.1860
    822  O3'      -17.6610   -7.1680   84.0440 O.3    48  C48        -0.3112
    823  C2'      -18.2780   -6.0650   86.1280 C.3    48  C48         0.2309
    824  O2'      -18.0300   -7.3040   86.7460 O.3    48  C48        -0.2156
    825  C1'      -17.5440   -4.9970   86.9400 C.3    48  C48         0.2420
    826  N1       -18.2150   -3.6930   86.8800 N.ar   48  C48        -0.2535
    827  C2       -19.2820   -3.4590   87.7290 C.ar   48  C48         0.3532
    828  O2       -19.6270   -4.3510   88.5050 O.2    48  C48        -0.2443
    829  N3       -19.9170   -2.2750   87.6850 N.ar   48  C48        -0.1739
    830  C4       -19.5200   -1.3410   86.8250 C.ar   48  C48         0.1759
    831  N4       -20.1870   -0.1840   86.8070 N.pl3  48  C48        -0.1070
    832  C5       -18.4270   -1.5510   85.9440 C.ar   48  C48         0.0566
    833  C6       -17.8070   -2.7300   86.0040 C.ar   48  C48         0.0850
    834  OP1      -14.2490   -3.4970   81.8650 O.2    48  C48        -0.5172
    835  OP2      -15.6790   -1.6430   82.9080 O.co2  48  C48        -0.4373
    836  P        -18.5350   -7.2290   82.6910 P.3    49  C49         0.2141
    837  C5'      -20.4280   -8.4670   84.0030 C.3    49  C49         0.1812
    838  O5'      -20.0300   -7.3550   83.2140 O.3    49  C49        -0.3114
    839  C4'      -21.6620   -8.1250   84.7920 C.3    49  C49         0.1773
    840  O4'      -21.3590   -7.0430   85.7120 O.3    49  C49        -0.3307
    841  C3'      -22.8360   -7.5720   84.0030 C.3    49  C49         0.1860
    842  O3'      -23.5540   -8.6180   83.3650 O.3    49  C49        -0.3112
    843  C2'      -23.6440   -6.9250   85.1190 C.3    49  C49         0.2309
    844  O2'      -24.3180   -7.8660   85.9170 O.3    49  C49        -0.2156
    845  C1'      -22.5360   -6.2960   85.9620 C.3    49  C49         0.2420
    846  N1       -22.3050   -4.9020   85.5710 N.ar   49  C49        -0.2535
    847  C2       -23.2090   -3.9340   86.0120 C.ar   49  C49         0.3532
    848  O2       -24.1310   -4.2730   86.7650 O.2    49  C49        -0.2443
    849  N3       -23.0600   -2.6600   85.6140 N.ar   49  C49        -0.1739
    850  C4       -22.0490   -2.3260   84.8210 C.ar   49  C49         0.1759
    851  N4       -21.9500   -1.0510   84.4600 N.pl3  49  C49        -0.1070
    852  C5       -21.0940   -3.2860   84.3700 C.ar   49  C49         0.0566
    853  C6       -21.2560   -4.5530   84.7730 C.ar   49  C49         0.0850
    854  OP1      -18.1700   -8.5220   82.0580 O.3    49  C49        -0.4373
    855  OP2      -18.4390   -5.9690   81.9050 O.co2  49  C49        -0.5172
    856  P        -24.1830   -8.3920   81.9030 P.3    50  C50         0.2141
    857  C5'      -26.5950   -8.0990   82.8380 C.3    50  C50         0.1812
    858  O5'      -25.4930   -7.5270   82.1640 O.3    50  C50        -0.3114
    859  C4'      -27.5100   -7.0270   83.3500 C.3    50  C50         0.1773
    860  O4'      -26.7670   -6.0590   84.1500 O.3    50  C50        -0.3307
    861  C3'      -28.1920   -6.1560   82.3170 C.3    50  C50         0.1860
    862  O3'      -29.3150   -6.8270   81.7780 O.3    50  C50        -0.3112
    863  C2'      -28.6470   -5.0030   83.1940 C.3    50  C50         0.2309
    864  O2'      -29.7390   -5.4200   83.9950 O.3    50  C50        -0.2156
    865  C1'      -27.4080   -4.7970   84.0740 C.3    50  C50         0.2420
    866  N1       -26.4730   -3.8360   83.4720 N.ar   50  C50        -0.2535
    867  C2       -26.8400   -2.4850   83.4180 C.ar   50  C50         0.3532
    868  O2       -27.9250   -2.1460   83.8760 O.2    50  C50        -0.2443
    869  N3       -26.0080   -1.5910   82.8610 N.ar   50  C50        -0.1739
    870  C4       -24.8390   -1.9940   82.3570 C.ar   50  C50         0.1759
    871  N4       -24.0380   -1.0630   81.8120 N.pl3  50  C50        -0.1070
    872  C5       -24.4350   -3.3660   82.3920 C.ar   50  C50         0.0566
    873  C6       -25.2750   -4.2450   82.9580 C.ar   50  C50         0.0850
    874  OP1      -24.6240   -9.7310   81.4500 O.3    50  C50        -0.4373
    875  OP2      -23.2800   -7.5890   81.0500 O.co2  50  C50        -0.5172
    876  P        -29.9610   -6.3070   80.4080 P.3    51  G51         0.2141
    877  C5'      -31.8230   -4.9320   81.6510 C.3    51  G51         0.1812
    878  O5'      -30.6770   -4.9420   80.8040 O.3    51  G51        -0.3114
    879  C4'      -32.4930   -3.5910   81.5740 C.3    51  G51         0.1773
    880  O4'      -31.6160   -2.5710   82.1060 O.3    51  G51        -0.3307
    881  C3'      -32.7590   -3.1550   80.1510 C.3    51  G51         0.1860
    882  O3'      -34.0340   -3.6210   79.7850 O.3    51  G51        -0.3112
    883  C2'      -32.7700   -1.6410   80.2490 C.3    51  G51         0.2309
    884  O2'      -34.0170   -1.1740   80.7140 O.3    51  G51        -0.2156
    885  C1'      -31.7140   -1.3970   81.3220 C.3    51  G51         0.2408
    886  N1       -28.6360    2.3430   79.8250 N.ar   51  G51        -0.1709
    887  C2       -29.9590    2.3900   80.1690 C.ar   51  G51         0.2606
    888  N2       -30.5250    3.5890   80.1300 N.pl3  51  G51        -0.0859
    889  N3       -30.6720    1.3340   80.5210 N.ar   51  G51        -0.1918
    890  C4       -29.9390    0.2010   80.5000 C.ar   51  G51         0.1723
    891  C5       -28.6130    0.0430   80.1660 C.ar   51  G51         0.1748
    892  C6       -27.8600    1.1900   79.7890 C.ar   51  G51         0.3023
    893  O6       -26.6650    1.2600   79.4520 O.2    51  G51        -0.2633
    894  N7       -28.2360   -1.2890   80.2670 N.ar   51  G51        -0.2173
    895  C8       -29.3200   -1.9040   80.6520 C.ar   51  G51         0.1817
    896  N9       -30.3840   -1.0540   80.8320 N.ar   51  G51        -0.2693
    897  OP1      -31.0270   -7.2720   79.9960 O.3    51  G51        -0.4373
    898  OP2      -28.8540   -5.9820   79.4800 O.co2  51  G51        -0.5172
    899  P        -34.4010   -3.7550   78.2450 P.3    52  U52         0.2141
    900  C5'      -35.9160   -5.8300   78.7220 C.3    52  U52         0.1812
    901  O5'      -35.8180   -4.4780   78.2870 O.3    52  U52        -0.3114
    902  C4'      -37.3280   -6.1590   79.1370 C.3    52  U52         0.1773
    903  O4'      -37.6670   -5.4270   80.3400 O.3    52  U52        -0.3307
    904  C3'      -38.3270   -5.7180   78.0780 C.3    52  U52         0.1860
    905  O3'      -39.2010   -6.7630   77.6510 O.3    52  U52        -0.3112
    906  C2'      -38.8930   -4.3760   78.5540 C.3    52  U52         0.2309
    907  O2'      -40.2880   -4.2750   78.3570 O.3    52  U52        -0.2156
    908  C1'      -38.6560   -4.4630   80.0610 C.3    52  U52         0.2420
    909  N1       -38.4090   -3.2580   80.8660 N.ar   52  U52        -0.2534
    910  C2       -39.5170   -2.5840   81.3410 C.ar   52  U52         0.3546
    911  O2       -40.6610   -2.9110   81.0580 O.2    52  U52        -0.2443
    912  N3       -39.2410   -1.5200   82.1650 N.ar   52  U52        -0.1530
    913  C4       -37.9960   -1.0620   82.5430 C.ar   52  U52         0.2846
    914  O4       -37.9130   -0.1000   83.3070 O.2    52  U52        -0.2650
    915  C5       -36.8990   -1.7900   81.9860 C.ar   52  U52         0.0814
    916  C6       -37.1380   -2.8350   81.1790 C.ar   52  U52         0.0870
    917  OP1      -33.3890   -4.6800   77.6570 O.2    52  U52        -0.5172
    918  OP2      -34.5280   -2.3690   77.7270 O.co2  52  U52        -0.4373
    919  P        -38.5890   -8.2190   77.3140 P.3    53  A53         0.2141
    920  C5'      -37.5390   -9.9730   78.9690 C.3    53  A53         0.1812
    921  O5'      -38.5080   -8.9510   78.7340 O.3    53  A53        -0.3114
    922  C4'      -37.2080  -10.0910   80.4520 C.3    53  A53         0.1773
    923  O4'      -36.6870   -8.8560   80.9850 O.3    53  A53        -0.3307
    924  C3'      -38.3280  -10.4610   81.4090 C.3    53  A53         0.1860
    925  O3'      -38.3990  -11.8890   81.4100 O.3    53  A53        -0.3112
    926  C2'      -37.8190   -9.9640   82.7740 C.3    53  A53         0.2309
    927  O2'      -37.1640  -10.9560   83.5350 O.3    53  A53        -0.2156
    928  C1'      -36.7780   -8.9120   82.3880 C.3    53  A53         0.2408
    929  N1       -39.8080   -5.1320   84.2580 N.ar   53  A53        -0.2040
    930  C2       -40.1050   -6.3510   83.7860 C.ar   53  A53         0.2016
    931  N3       -39.2920   -7.2910   83.3030 N.ar   53  A53        -0.2048
    932  C4       -38.0150   -6.8740   83.3350 C.ar   53  A53         0.1692
    933  C5       -37.5570   -5.6510   83.7930 C.ar   53  A53         0.1518
    934  C6       -38.5130   -4.7450   84.2730 C.ar   53  A53         0.1919
    935  N6       -38.2050   -3.5330   84.7400 N.pl3  53  A53        -0.1054
    936  N7       -36.1790   -5.5690   83.6810 N.ar   53  A53        -0.2193
    937  C8       -35.8390   -6.7190   83.1670 C.ar   53  A53         0.1816
    938  N9       -36.8950   -7.5610   82.9350 N.ar   53  A53        -0.2693
    939  OP1      -37.1980   -7.9620   76.8540 O.3    53  A53        -0.4373
    940  OP2      -39.5190   -8.9820   76.4380 O.co2  53  A53        -0.5172
    941  P        -39.8090  -12.6350   81.6070 P.3    54  U54         0.2141
    942  C5'      -39.0080  -13.4940   83.9750 C.3    54  U54         0.1812
    943  O5'      -39.4700  -13.7920   82.6520 O.3    54  U54        -0.3114
    944  C4'      -38.4340  -14.7400   84.6140 C.3    54  U54         0.1773
    945  O4'      -39.4030  -15.7960   84.4260 O.3    54  U54        -0.3307
    946  C3'      -37.1370  -15.2610   83.9990 C.3    54  U54         0.1860
    947  O3'      -36.0190  -14.8010   84.7670 O.3    54  U54        -0.3112
    948  C2'      -37.2300  -16.7730   84.2040 C.3    54  U54         0.2309
    949  O2'      -36.6930  -17.1880   85.4480 O.3    54  U54        -0.2156
    950  C1'      -38.7410  -17.0200   84.1980 C.3    54  U54         0.2420
    951  N1       -39.2930  -17.6300   82.9810 N.ar   54  U54        -0.2534
    952  C2       -39.3100  -19.0080   82.9200 C.ar   54  U54         0.3546
    953  O2       -38.8750  -19.7110   83.8170 O.2    54  U54        -0.2443
    954  N3       -39.8550  -19.5330   81.7740 N.ar   54  U54        -0.1530
    955  C4       -40.3710  -18.8320   80.7010 C.ar   54  U54         0.2846
    956  O4       -40.8240  -19.4510   79.7340 O.2    54  U54        -0.2650
    957  C5       -40.3120  -17.4050   80.8370 C.ar   54  U54         0.0814
    958  C6       -39.7850  -16.8670   81.9450 C.ar   54  U54         0.0870
    959  OP1      -40.1210  -13.2680   80.2990 O.2    54  U54        -0.5172
    960  OP2      -40.7860  -11.6950   82.2250 O.co2  54  U54        -0.4373
    961  P        -35.2550  -13.4450   84.3670 P.3    55  C55         0.2141
    962  C5'      -32.7810  -14.2760   84.0190 C.3    55  C55         0.1811
    963  O5'      -33.7590  -13.6800   84.8750 O.3    55  C55        -0.3114
    964  C4'      -31.4490  -14.3860   84.7300 C.3    55  C55         0.1752
    965  O4'      -30.5280  -15.1470   83.9000 O.3    55  C55        -0.3483
    966  C3'      -30.7250  -13.0720   84.9880 C.3    55  C55         0.1839
    967  O3'      -31.1820  -12.4520   86.1840 O.3    55  C55        -0.3113
    968  C2'      -29.2680  -13.5150   85.0950 C.3    55  C55         0.2112
    969  O2'      -28.9160  -14.0180   86.3730 O.3    55  C55        -0.2177
    970  C1'      -29.2130  -14.6360   84.0520 C.3    55  C55         0.1776
    971  OP1      -35.8430  -12.3430   85.1780 O.3    55  C55        -0.4373
    972  OP2      -35.2300  -13.3360   82.8800 O.co2  55  C55        -0.5172
    973  P        -31.2620  -10.8500   86.2630 P.3    56  A56         0.2141
    974  C5'      -28.7030  -10.5290   86.7800 C.3    56  A56         0.1812
    975  O5'      -30.0560  -10.4280   87.2170 O.3    56  A56        -0.3114
    976  C4'      -27.9270   -9.2940   87.1790 C.3    56  A56         0.1773
    977  O4'      -28.4960   -8.1330   86.5230 O.3    56  A56        -0.3307
    978  C3'      -27.9520   -8.9280   88.6530 C.3    56  A56         0.1860
    979  O3'      -26.9870   -9.6870   89.3760 O.3    56  A56        -0.3112
    980  C2'      -27.6100   -7.4410   88.6060 C.3    56  A56         0.2309
    981  O2'      -26.2400   -7.1680   88.3500 O.3    56  A56        -0.2156
    982  C1'      -28.3820   -7.0020   87.3680 C.3    56  A56         0.2408
    983  N1       -31.1790   -2.8310   88.4640 N.ar   56  A56        -0.2040
    984  C2       -29.8660   -3.0180   88.3290 C.ar   56  A56         0.2016
    985  N3       -29.2000   -4.1320   88.0600 N.ar   56  A56        -0.2048
    986  C4       -30.0410   -5.1730   87.9290 C.ar   56  A56         0.1692
    987  C5       -31.4160   -5.1390   88.0410 C.ar   56  A56         0.1518
    988  C6       -31.9990   -3.8950   88.3190 C.ar   56  A56         0.1919
    989  N6       -33.3070   -3.7130   88.4430 N.pl3  56  A56        -0.1054
    990  N7       -31.9580   -6.4000   87.8420 N.ar   56  A56        -0.2193
    991  C8       -30.9150   -7.1550   87.6080 C.ar   56  A56         0.1816
    992  N9       -29.7220   -6.4760   87.6330 N.ar   56  A56        -0.2693
    993  OP1      -32.5290  -10.5120   86.9480 O.3    56  A56        -0.4373
    994  OP2      -31.0010  -10.3340   84.9020 O.co2  56  A56        -0.5172
    995  P        -27.3360  -10.2250   90.8460 P.3    57  C57         0.2141
    996  C5'      -27.2940   -7.9700   92.1780 C.3    57  C57         0.1812
    997  O5'      -28.0470   -8.9810   91.5310 O.3    57  C57        -0.3114
    998  C4'      -28.2060   -6.8500   92.5880 C.3    57  C57         0.1773
    999  O4'      -29.0030   -6.4860   91.4250 O.3    57  C57        -0.3307
   1000  C3'      -29.2460   -7.1720   93.6480 C.3    57  C57         0.1860
   1001  O3'      -28.7160   -7.0630   94.9670 O.3    57  C57        -0.3112
   1002  C2'      -30.2920   -6.1050   93.3680 C.3    57  C57         0.2309
   1003  O2'      -29.9020   -4.8110   93.7990 O.3    57  C57        -0.2156
   1004  C1'      -30.3020   -6.1040   91.8400 C.3    57  C57         0.2420
   1005  N1       -31.2720   -7.0570   91.2860 N.ar   57  C57        -0.2535
   1006  C2       -32.5960   -6.6460   91.1360 C.ar   57  C57         0.3532
   1007  O2       -32.9040   -5.5020   91.4690 O.2    57  C57        -0.2443
   1008  N3       -33.5000   -7.4980   90.6340 N.ar   57  C57        -0.1739
   1009  C4       -33.1300   -8.7260   90.2760 C.ar   57  C57         0.1759
   1010  N4       -34.0720   -9.5380   89.7710 N.pl3  57  C57        -0.1070
   1011  C5       -31.7810   -9.1780   90.4190 C.ar   57  C57         0.0566
   1012  C6       -30.8970   -8.3210   90.9260 C.ar   57  C57         0.0850
   1013  OP1      -26.0660  -10.4440   91.5850 O.3    57  C57        -0.4373
   1014  OP2      -28.3320  -11.3200   90.7630 O.co2  57  C57        -0.5172
   1015  P        -29.4110   -7.8800   96.1670 P.3    58  C58         0.2141
   1016  C5'      -30.6660   -5.6940   96.8870 C.3    58  C58         0.1812
   1017  O5'      -30.7360   -7.0500   96.4510 O.3    58  C58        -0.3114
   1018  C4'      -32.0560   -5.1030   96.9730 C.3    58  C58         0.1773
   1019  O4'      -32.6870   -5.1690   95.6590 O.3    58  C58        -0.3307
   1020  C3'      -33.0430   -5.8230   97.8790 C.3    58  C58         0.1860
   1021  O3'      -32.8550   -5.4470   99.2390 O.3    58  C58        -0.3112
   1022  C2'      -34.3700   -5.3330   97.3140 C.3    58  C58         0.2309
   1023  O2'      -34.6660   -4.0030   97.6990 O.3    58  C58        -0.2156
   1024  C1'      -34.0790   -5.3640   95.8090 C.3    58  C58         0.2420
   1025  N1       -34.4220   -6.6440   95.1630 N.ar   58  C58        -0.2535
   1026  C2       -35.7660   -6.9320   94.9090 C.ar   58  C58         0.3532
   1027  O2       -36.6260   -6.1340   95.2770 O.2    58  C58        -0.2443
   1028  N3       -36.0890   -8.0700   94.2660 N.ar   58  C58        -0.1739
   1029  C4       -35.1380   -8.9120   93.8760 C.ar   58  C58         0.1759
   1030  N4       -35.5190   -9.9950   93.2030 N.pl3  58  C58        -0.1070
   1031  C5       -33.7570   -8.6690   94.1460 C.ar   58  C58         0.0566
   1032  C6       -33.4460   -7.5340   94.7920 C.ar   58  C58         0.0850
   1033  OP1      -28.6230   -7.8180   97.4150 O.3    58  C58        -0.4373
   1034  OP2      -29.8140   -9.2000   95.6280 O.co2  58  C58        -0.5172
   1035  P        -33.5610   -6.2870  100.4140 P.3    59  U59         0.2141
   1036  C5'      -35.9590   -5.2250  100.5690 C.3    59  U59         0.1812
   1037  O5'      -35.0980   -6.2090  100.0210 O.3    59  U59        -0.3114
   1038  C4'      -37.3650   -5.7520  100.5680 C.3    59  U59         0.1773
   1039  O4'      -37.6580   -6.1880   99.2200 O.3    59  U59        -0.3307
   1040  C3'      -37.5820   -6.9970  101.4200 C.3    59  U59         0.1860
   1041  O3'      -37.9450   -6.6090  102.7410 O.3    59  U59        -0.3112
   1042  C2'      -38.7550   -7.6720  100.7220 C.3    59  U59         0.2309
   1043  O2'      -39.9980   -7.0940  101.0690 O.3    59  U59        -0.2156
   1044  C1'      -38.4740   -7.3450   99.2580 C.3    59  U59         0.2420
   1045  N1       -37.8250   -8.3920   98.4630 N.ar   59  U59        -0.2534
   1046  C2       -38.6400   -9.2060   97.7130 C.ar   59  U59         0.3546
   1047  O2       -39.8390   -9.1470   97.7770 O.2    59  U59        -0.2443
   1048  N3       -37.9920  -10.0900   96.8860 N.ar   59  U59        -0.1530
   1049  C4       -36.6200  -10.2430   96.7590 C.ar   59  U59         0.2846
   1050  O4       -36.1780  -11.0250   95.9280 O.2    59  U59        -0.2650
   1051  C5       -35.8350   -9.3950   97.6170 C.ar   59  U59         0.0814
   1052  C6       -36.4530   -8.5230   98.4250 C.ar   59  U59         0.0870
   1053  OP1      -33.3370   -5.5510  101.6830 O.3    59  U59        -0.4373
   1054  OP2      -33.1670   -7.7060  100.3370 O.co2  59  U59        -0.5172
   1055  P        -37.5450   -7.5320  103.9910 P.3    60  G60         0.2141
   1056  C5'      -39.8270   -8.7600  103.6700 C.3    60  G60         0.1812
   1057  O5'      -38.4120   -8.8460  103.7730 O.3    60  G60        -0.3114
   1058  C4'      -40.3950  -10.0680  103.1880 C.3    60  G60         0.1773
   1059  O4'      -40.0350  -10.2980  101.8080 O.3    60  G60        -0.3307
   1060  C3'      -39.8890  -11.2780  103.9420 C.3    60  G60         0.1860
   1061  O3'      -40.7240  -11.4340  105.0760 O.3    60  G60        -0.3112
   1062  C2'      -40.0580  -12.4000  102.9230 C.3    60  G60         0.2309
   1063  O2'      -41.3710  -12.9240  102.8860 O.3    60  G60        -0.2156
   1064  C1'      -39.7790  -11.6720  101.6040 C.3    60  G60         0.2408
   1065  N1       -36.8290  -13.6180   97.9790 N.ar   60  G60        -0.1709
   1066  C2       -38.1360  -13.8810   98.2410 C.ar   60  G60         0.2606
   1067  N2       -38.7350  -14.7350   97.3970 N.pl3  60  G60        -0.0859
   1068  N3       -38.8040  -13.3470   99.2540 N.ar   60  G60        -0.1918
   1069  C4       -38.0280  -12.5190   99.9800 C.ar   60  G60         0.1723
   1070  C5       -36.7040  -12.2040   99.7910 C.ar   60  G60         0.1748
   1071  C6       -36.0180  -12.7830   98.7160 C.ar   60  G60         0.3023
   1072  O6       -34.8510  -12.6360   98.3880 O.2    60  G60        -0.2633
   1073  N7       -36.2600  -11.3210  100.7650 N.ar   60  G60        -0.2173
   1074  C8       -37.3100  -11.1110  101.5130 C.ar   60  G60         0.1817
   1075  N9       -38.4260  -11.7810  101.0710 N.ar   60  G60        -0.2693
   1076  OP1      -38.0590   -6.8560  105.1990 O.3    60  G60        -0.4373
   1077  OP2      -36.1070   -7.8580  103.9000 O.co2  60  G60        -0.5172
   1078  P        -40.1750  -12.1740  106.3840 P.3    61  A61         0.2141
   1079  C5'      -38.0550  -11.6680  107.8230 C.3    61  A61         0.1812
   1080  O5'      -38.6770  -11.6550  106.5420 O.3    61  A61        -0.3114
   1081  C4'      -36.5590  -11.5420  107.6980 C.3    61  A61         0.1773
   1082  O4'      -36.0310  -12.7080  107.0050 O.3    61  A61        -0.3307
   1083  C3'      -36.1330  -10.3530  106.8580 C.3    61  A61         0.1860
   1084  O3'      -35.5230   -9.2270  107.5040 O.3    61  A61        -0.3112
   1085  C2'      -35.8250  -10.8730  105.4560 C.3    61  A61         0.2309
   1086  O2'      -34.6740  -10.2990  104.8750 O.3    61  A61        -0.2156
   1087  C1'      -35.5570  -12.3560  105.7200 C.3    61  A61         0.2408
   1088  N1       -35.0290  -14.4770  101.0870 N.ar   61  A61        -0.2040
   1089  C2       -34.2510  -13.6610  101.8000 C.ar   61  A61         0.2016
   1090  N3       -34.4400  -13.1620  103.0150 N.ar   61  A61        -0.2048
   1091  C4       -35.6040  -13.5880  103.5210 C.ar   61  A61         0.1692
   1092  C5       -36.5130  -14.4330  102.9150 C.ar   61  A61         0.1518
   1093  C6       -36.1960  -14.8950  101.6300 C.ar   61  A61         0.1919
   1094  N6       -36.9750  -15.7250  100.9200 N.pl3  61  A61        -0.1054
   1095  N7       -37.5900  -14.6710  103.7510 N.ar   61  A61        -0.2193
   1096  C8       -37.3200  -13.9630  104.8220 C.ar   61  A61         0.1816
   1097  N9       -36.1410  -13.2710  104.7430 N.ar   61  A61        -0.2693
   1098  OP1      -40.1890  -13.6310  106.0780 O.2    61  A61        -0.5172
   1099  OP2      -40.9270  -11.6690  107.5610 O.co2  61  A61        -0.4373
   1100  P        -34.0250   -9.3420  108.0750 P.3    62  U62         0.2141
   1101  C5'      -32.9740  -11.5440  109.0830 C.3    62  U62         0.1812
   1102  O5'      -34.0830  -10.6460  108.9980 O.3    62  U62        -0.3114
   1103  C4'      -32.8070  -12.0170  110.5040 C.3    62  U62         0.1773
   1104  O4'      -32.6370  -10.8430  111.3200 O.3    62  U62        -0.3307
   1105  C3'      -34.0140  -12.7470  111.0870 C.3    62  U62         0.1860
   1106  O3'      -33.8240  -14.1680  111.1200 O.3    62  U62        -0.3112
   1107  C2'      -33.9840  -12.3770  112.5710 C.3    62  U62         0.2309
   1108  O2'      -33.3050  -13.3550  113.3330 O.3    62  U62        -0.2156
   1109  C1'      -33.1640  -11.0900  112.5980 C.3    62  U62         0.2420
   1110  N1       -33.8010   -9.8710  113.1100 N.ar   62  U62        -0.2534
   1111  C2       -33.8870   -9.7280  114.4880 C.ar   62  U62         0.3546
   1112  O2       -33.5300  -10.5960  115.2690 O.2    62  U62        -0.2443
   1113  N3       -34.4010   -8.5310  114.9160 N.ar   62  U62        -0.1530
   1114  C4       -34.8400   -7.4920  114.1280 C.ar   62  U62         0.2846
   1115  O4       -35.2650   -6.4690  114.6630 O.2    62  U62        -0.2650
   1116  C5       -34.7500   -7.7310  112.7140 C.ar   62  U62         0.0814
   1117  C6       -34.2530   -8.8880  112.2670 C.ar   62  U62         0.0870
   1118  OP1      -33.7860   -8.1660  108.9450 O.3    62  U62        -0.4373
   1119  OP2      -33.1090   -9.6020  106.9350 O.co2  62  U62        -0.5172
   1120  P        -33.4640  -15.0000  109.7920 P.3    63  C63         0.2141
   1121  C5'      -36.0320  -15.5240  109.7650 C.3    63  C63         0.1812
   1122  O5'      -34.8580  -15.1710  109.0460 O.3    63  C63        -0.3114
   1123  C4'      -36.8800  -16.4510  108.9340 C.3    63  C63         0.1773
   1124  O4'      -36.9420  -15.9080  107.5860 O.3    63  C63        -0.3307
   1125  C3'      -36.3260  -17.8530  108.7220 C.3    63  C63         0.1860
   1126  O3'      -36.6660  -18.7180  109.8030 O.3    63  C63        -0.3112
   1127  C2'      -37.0390  -18.2770  107.4470 C.3    63  C63         0.2309
   1128  O2'      -38.3630  -18.6920  107.6950 O.3    63  C63        -0.2156
   1129  C1'      -37.0480  -16.9700  106.6530 C.3    63  C63         0.2420
   1130  N1       -35.9290  -16.8790  105.7050 N.ar   63  C63        -0.2535
   1131  C2       -36.0200  -17.5770  104.4980 C.ar   63  C63         0.3532
   1132  O2       -37.0310  -18.2500  104.2740 O.2    63  C63        -0.2443
   1133  N3       -35.0070  -17.5040  103.6090 N.ar   63  C63        -0.1739
   1134  C4       -33.9300  -16.7710  103.8860 C.ar   63  C63         0.1759
   1135  N4       -32.9600  -16.7180  102.9700 N.pl3  63  C63        -0.1070
   1136  C5       -33.8040  -16.0540  105.1150 C.ar   63  C63         0.0566
   1137  C6       -34.8210  -16.1350  105.9880 C.ar   63  C63         0.0850
   1138  OP1      -33.0670  -16.3430  110.2840 O.3    63  C63        -0.4373
   1139  OP2      -32.5300  -14.2440  108.9240 O.co2  63  C63        -0.5172
   1140  P        -35.7030  -19.9600  110.1780 P.3    64  U64         0.2141
   1141  C5'      -37.1620  -21.8650  109.1120 C.3    64  U64         0.1812
   1142  O5'      -36.0010  -21.0460  109.0500 O.3    64  U64        -0.3114
   1143  C4'      -37.1170  -22.9190  108.0310 C.3    64  U64         0.1773
   1144  O4'      -37.1180  -22.2680  106.7330 O.3    64  U64        -0.3307
   1145  C3'      -35.8620  -23.7700  108.0040 C.3    64  U64         0.1860
   1146  O3'      -35.9320  -24.8550  108.9150 O.3    64  U64        -0.3112
   1147  C2'      -35.8350  -24.2520  106.5600 C.3    64  U64         0.2309
   1148  O2'      -36.7330  -25.3230  106.3370 O.3    64  U64        -0.2156
   1149  C1'      -36.3150  -23.0020  105.8200 C.3    64  U64         0.2420
   1150  N1       -35.2230  -22.1280  105.3590 N.ar   64  U64        -0.2534
   1151  C2       -34.6840  -22.3690  104.1070 C.ar   64  U64         0.3546
   1152  O2       -35.0860  -23.2530  103.3730 O.2    64  U64        -0.2443
   1153  N3       -33.6590  -21.5280  103.7470 N.ar   64  U64        -0.1530
   1154  C4       -33.1350  -20.4950  104.4930 C.ar   64  U64         0.2846
   1155  O4       -32.1990  -19.8460  104.0460 O.2    64  U64        -0.2650
   1156  C5       -33.7510  -20.3020  105.7650 C.ar   64  U64         0.0814
   1157  C6       -34.7470  -21.1050  106.1460 C.ar   64  U64         0.0870
   1158  OP1      -36.1760  -20.5030  111.4770 O.3    64  U64        -0.4373
   1159  OP2      -34.2850  -19.5530  110.0370 O.co2  64  U64        -0.5172
   1160  P        -34.5770  -25.5690  109.3760 P.3    65  G65         0.2141
   1161  C5'      -34.3840  -27.5450  107.6410 C.3    65  G65         0.1812
   1162  O5'      -34.0120  -26.2140  108.0290 O.3    65  G65        -0.3114
   1163  C4'      -33.5220  -28.0510  106.4910 C.3    65  G65         0.1773
   1164  O4'      -33.6740  -27.1780  105.3280 O.3    65  G65        -0.3307
   1165  C3'      -32.0130  -28.0960  106.7080 C.3    65  G65         0.1860
   1166  O3'      -31.5670  -29.2430  107.4240 O.3    65  G65        -0.3112
   1167  C2'      -31.5170  -28.1520  105.2770 C.3    65  G65         0.2309
   1168  O2'      -31.6740  -29.4430  104.7370 O.3    65  G65        -0.2156
   1169  C1'      -32.4500  -27.1360  104.6070 C.3    65  G65         0.2408
   1170  N1       -29.3440  -23.6930  102.5580 N.ar   65  G65        -0.1709
   1171  C2       -29.7840  -24.8790  102.0470 C.ar   65  G65         0.2606
   1172  N2       -29.3040  -25.2040  100.8480 N.pl3  65  G65        -0.0859
   1173  N3       -30.6330  -25.6840  102.6630 N.ar   65  G65        -0.1918
   1174  C4       -31.0130  -25.1920  103.8550 C.ar   65  G65         0.1723
   1175  C5       -30.6310  -24.0170  104.4590 C.ar   65  G65         0.1748
   1176  C6       -29.7170  -23.1630  103.7790 C.ar   65  G65         0.3023
   1177  O6       -29.2540  -22.0740  104.1390 O.2    65  G65        -0.2633
   1178  N7       -31.2390  -23.8800  105.6970 N.ar   65  G65        -0.2173
   1179  C8       -31.9690  -24.9520  105.8190 C.ar   65  G65         0.1817
   1180  N9       -31.8570  -25.8050  104.7470 N.ar   65  G65        -0.2693
   1181  OP1      -34.8860  -26.6770  110.3170 O.3    65  G65        -0.4373
   1182  OP2      -33.6700  -24.4800  109.8130 O.co2  65  G65        -0.5172
   1183  P        -30.1480  -29.2070  108.1970 P.3    66  G66         0.2141
   1184  C5'      -28.9680  -30.3900  106.1580 C.3    66  G66         0.1812
   1185  O5'      -29.0410  -29.2780  107.0460 O.3    66  G66        -0.3114
   1186  C4'      -27.9460  -30.1420  105.0620 C.3    66  G66         0.1773
   1187  O4'      -28.3840  -29.0590  104.1880 O.3    66  G66        -0.3307
   1188  C3'      -26.5520  -29.7070  105.4910 C.3    66  G66         0.1860
   1189  O3'      -25.7550  -30.8030  105.9380 O.3    66  G66        -0.3112
   1190  C2'      -26.0240  -29.1170  104.1880 C.3    66  G66         0.2309
   1191  O2'      -25.7280  -30.1120  103.2430 O.3    66  G66        -0.2156
   1192  C1'      -27.2520  -28.3550  103.6910 C.3    66  G66         0.2408
   1193  N1       -25.3930  -23.6610  103.1270 N.ar   66  G66        -0.1709
   1194  C2       -25.1510  -24.7920  102.3970 C.ar   66  G66         0.2606
   1195  N2       -24.2770  -24.6630  101.3790 N.pl3  66  G66        -0.0859
   1196  N3       -25.7150  -25.9640  102.6370 N.ar   66  G66        -0.1918
   1197  C4       -26.5490  -25.9170  103.6890 C.ar   66  G66         0.1723
   1198  C5       -26.8610  -24.8420  104.4890 C.ar   66  G66         0.1748
   1199  C6       -26.2510  -23.5790  104.2110 C.ar   66  G66         0.3023
   1200  O6       -26.4010  -22.4880  104.7940 O.2    66  G66        -0.2633
   1201  N7       -27.7740  -25.2090  105.4710 N.ar   66  G66        -0.2173
   1202  C8       -27.9940  -26.4790  105.2520 C.ar   66  G66         0.1817
   1203  N9       -27.2760  -26.9760  104.1900 N.ar   66  G66        -0.2693
   1204  OP1      -30.0810  -30.4640  108.9870 O.3    66  G66        -0.4373
   1205  OP2      -29.9900  -27.8970  108.8910 O.co2  66  G66        -0.5172
   1206  P        -24.4520  -30.5290  106.8520 P.3    67  A67         0.2141
   1207  C5'      -22.7610  -30.2050  104.8680 C.3    67  A67         0.1812
   1208  O5'      -23.4960  -29.6250  105.9450 O.3    67  A67        -0.3114
   1209  C4'      -21.9100  -29.1650  104.1800 C.3    67  A67         0.1773
   1210  O4'      -22.7590  -28.0730  103.7220 O.3    67  A67        -0.3307
   1211  C3'      -20.8640  -28.4740  105.0340 C.3    67  A67         0.1860
   1212  O3'      -19.6720  -29.2380  105.1330 O.3    67  A67        -0.3112
   1213  C2'      -20.6360  -27.1810  104.2600 C.3    67  A67         0.2309
   1214  O2'      -19.8440  -27.3690  103.0990 O.3    67  A67        -0.2156
   1215  C1'      -22.0680  -26.8410  103.8440 C.3    67  A67         0.2408
   1216  N1       -22.7410  -22.1240  105.7370 N.ar   67  A67        -0.2040
   1217  C2       -21.9430  -22.6020  104.7780 C.ar   67  A67         0.2016
   1218  N3       -21.8150  -23.8420  104.3380 N.ar   67  A67        -0.2048
   1219  C4       -22.6340  -24.6670  105.0050 C.ar   67  A67         0.1692
   1220  C5       -23.5090  -24.3270  106.0170 C.ar   67  A67         0.1518
   1221  C6       -23.5550  -22.9780  106.3870 C.ar   67  A67         0.1919
   1222  N6       -24.3600  -22.4920  107.3390 N.pl3  67  A67        -0.1054
   1223  N7       -24.1890  -25.4460  106.4760 N.ar   67  A67        -0.2193
   1224  C8       -23.7180  -26.4220  105.7400 C.ar   67  A67         0.1816
   1225  N9       -22.7770  -26.0200  104.8250 N.ar   67  A67        -0.2693
   1226  OP1      -23.7800  -31.8510  107.0270 O.2    67  A67        -0.5172
   1227  OP2      -24.8560  -29.7430  108.0530 O.co2  67  A67        -0.4373
   1228  P        -18.7660  -29.0950  106.4470 P.3    68  U68         0.2141
   1229  C5'      -17.3290  -27.1890  105.3940 C.3    68  U68         0.1812
   1230  O5'      -18.2520  -27.5920  106.3920 O.3    68  U68        -0.3114
   1231  C4'      -17.1140  -25.7040  105.4610 C.3    68  U68         0.1773
   1232  O4'      -18.4030  -25.0500  105.3750 O.3    68  U68        -0.3307
   1233  C3'      -16.5350  -25.1730  106.7610 C.3    68  U68         0.1860
   1234  O3'      -15.1150  -25.2970  106.7440 O.3    68  U68        -0.3112
   1235  C2'      -16.9720  -23.7100  106.7200 C.3    68  U68         0.2309
   1236  O2'      -16.1350  -22.8990  105.9200 O.3    68  U68        -0.2156
   1237  C1'      -18.3520  -23.8200  106.0670 C.3    68  U68         0.2420
   1238  N1       -19.4380  -23.7970  107.0480 N.ar   68  U68        -0.2534
   1239  C2       -19.9000  -22.5650  107.4460 C.ar   68  U68         0.3546
   1240  O2       -19.4740  -21.5250  106.9880 O.2    68  U68        -0.2443
   1241  N3       -20.8760  -22.5910  108.4050 N.ar   68  U68        -0.1530
   1242  C4       -21.4220  -23.6990  108.9880 C.ar   68  U68         0.2846
   1243  O4       -22.2530  -23.5560  109.8730 O.2    68  U68        -0.2650
   1244  C5       -20.9080  -24.9430  108.5060 C.ar   68  U68         0.0814
   1245  C6       -19.9580  -24.9470  107.5680 C.ar   68  U68         0.0870
   1246  OP1      -17.5460  -29.9400  106.3140 O.2    68  U68        -0.5172
   1247  OP2      -19.6650  -29.2640  107.6210 O.co2  68  U68        -0.4373
   1248  P        -14.3280  -25.6810  108.0920 P.3    69  A69         0.2141
   1249  C5'      -14.2000  -24.3490  110.3700 C.3    69  A69         0.1812
   1250  O5'      -14.3200  -24.3330  108.9470 O.3    69  A69        -0.3114
   1251  C4'      -14.3230  -22.9410  110.9210 C.3    69  A69         0.1773
   1252  O4'      -13.1880  -22.1460  110.4810 O.3    69  A69        -0.3307
   1253  C3'      -15.5670  -22.1620  110.4940 C.3    69  A69         0.1860
   1254  O3'      -16.6090  -22.3670  111.4450 O.3    69  A69        -0.3112
   1255  C2'      -15.0950  -20.7090  110.5380 C.3    69  A69         0.2309
   1256  O2'      -15.1810  -20.1470  111.8340 O.3    69  A69        -0.2156
   1257  C1'      -13.6230  -20.8390  110.1280 C.3    69  A69         0.2408
   1258  N1       -13.1980  -17.5750  106.1630 N.ar   69  A69        -0.2040
   1259  C2       -13.4960  -17.3770  107.4500 C.ar   69  A69         0.2016
   1260  N3       -13.5960  -18.2540  108.4320 N.ar   69  A69        -0.2048
   1261  C4       -13.3600  -19.4920  107.9810 C.ar   69  A69         0.1692
   1262  C5       -13.0460  -19.8540  106.6790 C.ar   69  A69         0.1518
   1263  C6       -12.9580  -18.8310  105.7410 C.ar   69  A69         0.1919
   1264  N6       -12.6490  -19.0340  104.4590 N.pl3  69  A69        -0.1054
   1265  N7       -12.8790  -21.2260  106.5720 N.ar   69  A69        -0.2193
   1266  C8       -13.0860  -21.6610  107.7930 C.ar   69  A69         0.1816
   1267  N9       -13.3750  -20.6630  108.7000 N.ar   69  A69        -0.2693
   1268  OP1      -12.9200  -26.0130  107.7130 O.2    69  A69        -0.5172
   1269  OP2      -15.1640  -26.6900  108.7920 O.co2  69  A69        -0.4373
   1270  P        -18.1470  -22.4780  110.9690 P.3    70  A70         0.2141
   1271  C5'      -18.6780  -19.9330  111.3230 C.3    70  A70         0.1812
   1272  O5'      -18.5280  -21.0290  110.4340 O.3    70  A70        -0.3114
   1273  C4'      -18.7580  -18.6430  110.5450 C.3    70  A70         0.1773
   1274  O4'      -17.4810  -18.3850  109.8950 O.3    70  A70        -0.3307
   1275  C3'      -19.7790  -18.5770  109.4120 C.3    70  A70         0.1860
   1276  O3'      -21.0720  -18.2290  109.9200 O.3    70  A70        -0.3112
   1277  C2'      -19.2090  -17.4400  108.5730 C.3    70  A70         0.2309
   1278  O2'      -19.4810  -16.1930  109.1860 O.3    70  A70        -0.2156
   1279  C1'      -17.7020  -17.6970  108.6760 C.3    70  A70         0.2408
   1280  N1       -15.9550  -17.7280  103.8420 N.ar   70  A70        -0.2040
   1281  C2       -16.4410  -16.7560  104.6070 C.ar   70  A70         0.2016
   1282  N3       -16.8900  -16.8100  105.8560 N.ar   70  A70        -0.2048
   1283  C4       -16.7970  -18.0580  106.3350 C.ar   70  A70         0.1692
   1284  C5       -16.3160  -19.1630  105.6640 C.ar   70  A70         0.1518
   1285  C6       -15.8810  -18.9710  104.3560 C.ar   70  A70         0.1919
   1286  N6       -15.3930  -19.9520  103.5950 N.pl3  70  A70        -0.1054
   1287  N7       -16.3550  -20.2850  106.4720 N.ar   70  A70        -0.2193
   1288  C8       -16.8530  -19.8400  107.5990 C.ar   70  A70         0.1816
   1289  N9       -17.1440  -18.5000  107.5870 N.ar   70  A70        -0.2693
   1290  OP1      -18.8820  -22.7260  112.2240 O.3    70  A70        -0.4373
   1291  OP2      -18.2720  -23.4280  109.8340 O.co2  70  A70        -0.5172
   1292  P        -22.4070  -18.7680  109.1960 P.3    71  U71         0.2141
   1293  C5'      -22.9280  -16.3610  108.1980 C.3    71  U71         0.1812
   1294  O5'      -22.6720  -17.7610  107.9750 O.3    71  U71        -0.3114
   1295  C4'      -22.5830  -15.5290  106.9680 C.3    71  U71         0.1773
   1296  O4'      -21.1770  -15.6810  106.6260 O.3    71  U71        -0.3307
   1297  C3'      -23.3230  -15.8470  105.6760 C.3    71  U71         0.1860
   1298  O3'      -24.5670  -15.1450  105.6250 O.3    71  U71        -0.3112
   1299  C2'      -22.3820  -15.2930  104.6050 C.3    71  U71         0.2309
   1300  O2'      -22.5550  -13.9200  104.3240 O.3    71  U71        -0.2156
   1301  C1'      -21.0040  -15.5160  105.2280 C.3    71  U71         0.2420
   1302  N1       -20.3610  -16.7120  104.6650 N.ar   71  U71        -0.2534
   1303  C2       -19.5130  -16.5390  103.5800 C.ar   71  U71         0.3546
   1304  O2       -19.2250  -15.4500  103.1310 O.2    71  U71        -0.2443
   1305  N3       -19.0120  -17.6980  103.0450 N.ar   71  U71        -0.1530
   1306  C4       -19.2490  -18.9850  103.4810 C.ar   71  U71         0.2846
   1307  O4       -18.7080  -19.9280  102.9030 O.2    71  U71        -0.2650
   1308  C5       -20.1070  -19.0820  104.6170 C.ar   71  U71         0.0814
   1309  C6       -20.6170  -17.9710  105.1630 C.ar   71  U71         0.0870
   1310  OP1      -23.4630  -18.5860  110.2130 O.3    71  U71        -0.4373
   1311  OP2      -22.1770  -20.1170  108.6260 O.co2  71  U71        -0.5172
   1312  P        -25.9120  -15.9210  105.2230 P.3    72  G72         0.2141
   1313  C5'      -25.7500  -14.5460  102.9880 C.3    72  G72         0.1812
   1314  O5'      -26.5510  -15.0820  104.0340 O.3    72  G72        -0.3114
   1315  C4'      -25.6750  -15.5080  101.8170 C.3    72  G72         0.1773
   1316  O4'      -26.9910  -15.9530  101.4130 O.3    72  G72        -0.3307
   1317  C3'      -25.0520  -14.9560  100.5430 C.3    72  G72         0.1860
   1318  O3'      -23.6480  -14.9970  100.7720 O.3    72  G72        -0.3112
   1319  C2'      -25.5880  -15.9230   99.4920 C.3    72  G72         0.2309
   1320  O2'      -24.9060  -17.1610   99.4790 O.3    72  G72        -0.2156
   1321  C1'      -27.0060  -16.1850  100.0100 C.3    72  G72         0.2408
   1322  N1       -31.2130  -13.5740  101.0030 N.ar   72  G72        -0.1709
   1323  C2       -30.4190  -14.3350  101.8360 C.ar   72  G72         0.2606
   1324  N2       -30.7860  -14.4140  103.1270 N.pl3  72  G72        -0.0859
   1325  N3       -29.3420  -14.9770  101.4360 N.ar   72  G72        -0.1918
   1326  C4       -29.1040  -14.8080  100.1200 C.ar   72  G72         0.1723
   1327  C5       -29.8260  -14.0840   99.1940 C.ar   72  G72         0.1748
   1328  C6       -30.9980  -13.3860   99.6350 C.ar   72  G72         0.3023
   1329  O6       -31.7870  -12.6810   98.9730 O.2    72  G72        -0.2633
   1330  N7       -29.2440  -14.1780   97.9340 N.ar   72  G72        -0.2173
   1331  C8       -28.1940  -14.9390   98.1200 C.ar   72  G72         0.1817
   1332  N9       -28.0510  -15.3460   99.4280 N.ar   72  G72        -0.2693
   1333  OP1      -26.8370  -15.8700  106.3760 O.3    72  G72        -0.4373
   1334  OP2      -25.5100  -17.2380  104.6740 O.co2  72  G72        -0.5172
   1335  P        -22.5940  -15.0230   99.5640 P.3    73  C73         0.2141
   1336  C5'      -20.6050  -16.7170   99.2020 C.3    73  C73         0.1812
   1337  O5'      -21.7190  -16.2910   99.9710 O.3    73  C73        -0.3114
   1338  C4'      -20.6160  -18.2240   99.0690 C.3    73  C73         0.1773
   1339  O4'      -20.4880  -18.8600  100.3760 O.3    73  C73        -0.3307
   1340  C3'      -21.9060  -18.8040   98.5210 C.3    73  C73         0.1860
   1341  O3'      -21.9500  -18.7310   97.1020 O.3    73  C73        -0.3112
   1342  C2'      -21.8270  -20.2410   98.9860 C.3    73  C73         0.2309
   1343  O2'      -21.0210  -20.9990   98.1220 O.3    73  C73        -0.2156
   1344  C1'      -21.1970  -20.0800  100.3740 C.3    73  C73         0.2420
   1345  N1       -22.2410  -19.9900  101.3910 N.ar   73  C73        -0.2535
   1346  C2       -23.0070  -21.1340  101.6750 C.ar   73  C73         0.3532
   1347  O2       -22.7250  -22.2010  101.1120 O.2    73  C73        -0.2443
   1348  N3       -24.0300  -21.0450  102.5550 N.ar   73  C73        -0.1739
   1349  C4       -24.2850  -19.8870  103.1600 C.ar   73  C73         0.1759
   1350  N4       -25.3050  -19.8450  104.0130 N.pl3  73  C73        -0.1070
   1351  C5       -23.5020  -18.7170  102.9160 C.ar   73  C73         0.0566
   1352  C6       -22.4960  -18.8150  102.0330 C.ar   73  C73         0.0850
   1353  OP1      -21.7900  -13.8030   99.7730 O.3    73  C73        -0.4373
   1354  OP2      -23.1820  -15.2670   98.2260 O.co2  73  C73        -0.5172
   1355  P        -23.3700  -18.7440   96.3560 P.3    74  C74         0.2141
   1356  C5'      -23.1720  -21.3090   95.8130 C.3    74  C74         0.1812
   1357  O5'      -23.8570  -20.2550   96.4960 O.3    74  C74        -0.3114
   1358  C4'      -23.8550  -22.6350   96.0680 C.3    74  C74         0.1773
   1359  O4'      -23.8130  -22.9520   97.4860 O.3    74  C74        -0.3307
   1360  C3'      -25.3350  -22.6900   95.7380 C.3    74  C74         0.1860
   1361  O3'      -25.5250  -22.9270   94.3550 O.3    74  C74        -0.3112
   1362  C2'      -25.8000  -23.8760   96.5680 C.3    74  C74         0.2309
   1363  O2'      -25.5250  -25.1190   95.9550 O.3    74  C74        -0.2156
   1364  C1'      -24.9500  -23.7150   97.8270 C.3    74  C74         0.2420
   1365  N1       -25.6570  -23.0310   98.9120 N.ar   74  C74        -0.2535
   1366  C2       -26.6140  -23.7410   99.6140 C.ar   74  C74         0.3532
   1367  O2       -26.8670  -24.9010   99.2620 O.2    74  C74        -0.2443
   1368  N3       -27.2450  -23.1580  100.6520 N.ar   74  C74        -0.1739
   1369  C4       -26.9640  -21.9070  100.9840 C.ar   74  C74         0.1759
   1370  N4       -27.6160  -21.3850  102.0210 N.pl3  74  C74        -0.1070
   1371  C5       -26.0020  -21.1380  100.2680 C.ar   74  C74         0.0566
   1372  C6       -25.3770  -21.7350   99.2440 C.ar   74  C74         0.0850
   1373  OP1      -23.1250  -18.5020   94.9130 O.2    74  C74        -0.5172
   1374  OP2      -24.3130  -17.8740   97.1030 O.co2  74  C74        -0.4373
   1375  P        -26.6670  -22.1250   93.5640 P.3    75  A75         0.2141
   1376  C5'      -28.5400  -23.9500   93.8500 C.3    75  A75         0.1812
   1377  O5'      -28.0380  -22.6610   94.1950 O.3    75  A75        -0.3114
   1378  C4'      -29.4840  -24.4810   94.9130 C.3    75  A75         0.1773
   1379  O4'      -28.9020  -24.3380   96.2380 O.3    75  A75        -0.3307
   1380  C3'      -30.8360  -23.8130   95.1030 C.3    75  A75         0.1860
   1381  O3'      -31.7580  -24.1490   94.0760 O.3    75  A75        -0.3112
   1382  C2'      -31.2610  -24.4000   96.4430 C.3    75  A75         0.2309
   1383  O2'      -31.6920  -25.7450   96.3660 O.3    75  A75        -0.2156
   1384  C1'      -29.9420  -24.3760   97.2060 C.3    75  A75         0.2408
   1385  N1       -31.8610  -22.1680  101.3670 N.ar   75  A75        -0.2040
   1386  C2       -32.0900  -23.3410  100.7740 C.ar   75  A75         0.2016
   1387  N3       -31.5330  -23.8520   99.6830 N.ar   75  A75        -0.2048
   1388  C4       -30.6310  -23.0050   99.1730 C.ar   75  A75         0.1692
   1389  C5       -30.2790  -21.7650   99.6660 C.ar   75  A75         0.1518
   1390  C6       -30.9370  -21.3370  100.8260 C.ar   75  A75         0.1919
   1391  N6       -30.7070  -20.1670  101.4190 N.pl3  75  A75        -0.1054
   1392  N7       -29.3060  -21.1760   98.8690 N.ar   75  A75        -0.2193
   1393  C8       -29.1010  -22.0600   97.9230 C.ar   75  A75         0.1816
   1394  N9       -29.8730  -23.1910   98.0490 N.ar   75  A75        -0.2693
   1395  OP1      -26.5530  -22.5810   92.1550 O.2    75  A75        -0.5172
   1396  OP2      -26.5620  -20.6760   93.8800 O.co2  75  A75        -0.4373
   1397  P        -32.8680  -23.0780   93.6400 P.3    76  G76         0.2141
   1398  C5'      -34.6230  -24.5830   94.9250 C.3    76  G76         0.1812
   1399  O5'      -34.0560  -23.2930   94.6930 O.3    76  G76        -0.3114
   1400  C4'      -35.4430  -24.5860   96.2030 C.3    76  G76         0.1773
   1401  O4'      -34.5940  -24.2400   97.3340 O.3    76  G76        -0.3307
   1402  C3'      -36.5880  -23.5840   96.2680 C.3    76  G76         0.1860
   1403  O3'      -37.7560  -24.1080   95.6560 O.3    76  G76        -0.3112
   1404  C2'      -36.7840  -23.4000   97.7680 C.3    76  G76         0.2309
   1405  O2'      -37.5630  -24.4360   98.3260 O.3    76  G76        -0.2156
   1406  C1'      -35.3450  -23.5000   98.2860 C.3    76  G76         0.2408
   1407  N1       -34.9180  -19.4640  101.3030 N.ar   76  G76        -0.1709
   1408  C2       -35.7820  -20.5200  101.3840 C.ar   76  G76         0.2606
   1409  N2       -36.6230  -20.5200  102.4270 N.pl3  76  G76        -0.0859
   1410  N3       -35.8170  -21.5040  100.5140 N.ar   76  G76        -0.1918
   1411  C4       -34.9040  -21.3490   99.5400 C.ar   76  G76         0.1723
   1412  C5       -33.9930  -20.3270   99.3690 C.ar   76  G76         0.1748
   1413  C6       -33.9640  -19.2830  100.3130 C.ar   76  G76         0.3023
   1414  O6       -33.2190  -18.3060  100.3540 O.2    76  G76        -0.2633
   1415  N7       -33.2170  -20.5390   98.2380 N.ar   76  G76        -0.2173
   1416  C8       -33.6620  -21.6670   97.7540 C.ar   76  G76         0.1817
   1417  N9       -34.6740  -22.2200   98.5080 N.ar   76  G76        -0.2693
   1418  OP1      -33.2990  -23.4280   92.2640 O.2    76  G76        -0.5172
   1419  OP2      -32.3240  -21.7280   93.9040 O.co2  76  G76        -0.4373
   1420  P        -38.5220  -23.2390   94.5440 P.3    77  C77         0.2141
   1421  C5'      -39.8510  -22.0690   96.4800 C.3    77  C77         0.1812
   1422  O5'      -38.9810  -21.9520   95.3590 O.3    77  C77        -0.3114
   1423  C4'      -39.8750  -20.7790   97.2650 C.3    77  C77         0.1773
   1424  O4'      -38.5990  -20.5830   97.9300 O.3    77  C77        -0.3307
   1425  C3'      -40.0640  -19.5060   96.4530 C.3    77  C77         0.1860
   1426  O3'      -41.4340  -19.2720   96.2150 O.3    77  C77        -0.3112
   1427  C2'      -39.5010  -18.4550   97.3960 C.3    77  C77         0.2309
   1428  O2'      -40.4190  -18.1560   98.4280 O.3    77  C77        -0.2156
   1429  C1'      -38.2970  -19.1960   97.9770 C.3    77  C77         0.2420
   1430  N1       -37.0660  -18.9730   97.2090 N.ar   77  C77        -0.2535
   1431  C2       -36.1590  -18.0240   97.6650 C.ar   77  C77         0.3532
   1432  O2       -36.4330  -17.3890   98.6960 O.2    77  C77        -0.2443
   1433  N3       -35.0100  -17.8200   96.9780 N.ar   77  C77        -0.1739
   1434  C4       -34.7610  -18.5220   95.8710 C.ar   77  C77         0.1759
   1435  N4       -33.6140  -18.2950   95.2260 N.pl3  77  C77        -0.1070
   1436  C5       -35.6780  -19.4920   95.3760 C.ar   77  C77         0.0566
   1437  C6       -36.8080  -19.6830   96.0700 C.ar   77  C77         0.0850
   1438  OP1      -39.7340  -23.9610   94.1020 O.3    77  C77        -0.4373
   1439  OP2      -37.5320  -22.8110   93.5360 O.co2  77  C77        -0.5172
   1440  P        -41.8990  -18.5890   94.8490 P.3    78  G78         0.2141
   1441  C5'      -41.3730  -19.2040   92.3070 C.3    78  G78         0.1812
   1442  O5'      -41.0830  -19.3630   93.7110 O.3    78  G78        -0.3114
   1443  C4'      -40.0820  -18.9610   91.5600 C.3    78  G78         0.1773
   1444  O4'      -39.5620  -17.7350   92.0910 O.3    78  G78        -0.3307
   1445  C3'      -39.0260  -20.0400   91.8060 C.3    78  G78         0.1860
   1446  O3'      -38.6510  -20.8300   90.6570 O.3    78  G78        -0.3112
   1447  C2'      -37.7310  -19.2810   92.1010 C.3    78  G78         0.2309
   1448  O2'      -36.7610  -19.4380   91.0860 O.3    78  G78        -0.2156
   1449  C1'      -38.1800  -17.8230   92.1930 C.3    78  G78         0.2408
   1450  N1       -34.3960  -15.2720   94.3000 N.ar   78  G78        -0.1709
   1451  C2       -34.4090  -16.0050   93.1440 C.ar   78  G78         0.2606
   1452  N2       -33.2600  -16.0260   92.4540 N.pl3  78  G78        -0.0859
   1453  N3       -35.4610  -16.6670   92.7080 N.ar   78  G78        -0.1918
   1454  C4       -36.5080  -16.5340   93.5440 C.ar   78  G78         0.1723
   1455  C5       -36.5870  -15.8310   94.7250 C.ar   78  G78         0.1748
   1456  C6       -35.4670  -15.1290   95.1700 C.ar   78  G78         0.3023
   1457  O6       -35.3470  -14.4410   96.1760 O.2    78  G78        -0.2633
   1458  N7       -37.8510  -15.9460   95.2820 N.ar   78  G78        -0.2173
   1459  C8       -38.5060  -16.7010   94.4410 C.ar   78  G78         0.1817
   1460  N9       -37.7540  -17.0680   93.3560 N.ar   78  G78        -0.2693
   1461  OP1      -41.4690  -17.1730   94.9240 O.3    78  G78        -0.4373
   1462  OP2      -43.3470  -18.9170   94.7200 O.co2  78  G78        -0.5172
   1463  P        -39.6900  -21.1790   89.4690 P.3    79  U79         0.2141
   1464  C5'      -39.4460  -19.1180   87.8590 C.3    79  U79         0.1812
   1465  O5'      -40.1870  -19.7860   88.8750 O.3    79  U79        -0.3114
   1466  C4'      -40.3790  -18.4830   86.8500 C.3    79  U79         0.1773
   1467  O4'      -40.8370  -19.4850   85.9080 O.3    79  U79        -0.3307
   1468  C3'      -41.6360  -17.9180   87.5090 C.3    79  U79         0.1860
   1469  O3'      -41.9590  -16.5850   87.1150 O.3    79  U79        -0.3112
   1470  C2'      -42.7280  -18.9710   87.3130 C.3    79  U79         0.2309
   1471  O2'      -43.9730  -18.3930   86.9720 O.3    79  U79        -0.2156
   1472  C1'      -42.2200  -19.7240   86.0800 C.3    79  U79         0.2420
   1473  N1       -42.4780  -21.1690   86.0230 N.ar   79  U79        -0.2534
   1474  C2       -43.1420  -21.6390   84.9000 C.ar   79  U79         0.3546
   1475  O2       -43.4890  -20.9070   83.9810 O.2    79  U79        -0.2443
   1476  N3       -43.3790  -22.9920   84.8900 N.ar   79  U79        -0.1530
   1477  C4       -43.0240  -23.9040   85.8670 C.ar   79  U79         0.2846
   1478  O4       -43.3080  -25.0930   85.7140 O.2    79  U79        -0.2650
   1479  C5       -42.3350  -23.3420   86.9940 C.ar   79  U79         0.0814
   1480  C6       -42.0920  -22.0240   87.0320 C.ar   79  U79         0.0870
   1481  OP1      -40.8420  -21.9230   90.0490 O.3    79  U79        -0.4373
   1482  OP2      -38.8820  -21.7880   88.3880 O.co2  79  U79        -0.5172
   1483  P        -41.9050  -15.3880   88.1820 P.3    80  A80         0.2141
   1484  C5'      -43.6760  -16.4230   89.8300 C.3    80  A80         0.1812
   1485  O5'      -42.3270  -16.0560   89.5670 O.3    80  A80        -0.3114
   1486  C4'      -44.1530  -15.7580   91.0950 C.3    80  A80         0.1773
   1487  O4'      -43.2400  -16.0880   92.1780 O.3    80  A80        -0.3307
   1488  C3'      -44.1570  -14.2380   91.0620 C.3    80  A80         0.1860
   1489  O3'      -45.3720  -13.7720   90.4970 O.3    80  A80        -0.3112
   1490  C2'      -44.0700  -13.8970   92.5430 C.3    80  A80         0.2309
   1491  O2'      -45.3080  -14.0740   93.1970 O.3    80  A80        -0.2156
   1492  C1'      -43.0960  -14.9670   93.0360 C.3    80  A80         0.2408
   1493  N1       -39.4330  -12.2350   95.3750 N.ar   80  A80        -0.2040
   1494  C2       -40.7360  -12.3840   95.6220 C.ar   80  A80         0.2016
   1495  N3       -41.6370  -13.0950   94.9620 N.ar   80  A80        -0.2048
   1496  C4       -41.0770  -13.7150   93.9090 C.ar   80  A80         0.1692
   1497  C5       -39.7530  -13.6520   93.5190 C.ar   80  A80         0.1518
   1498  C6       -38.8970  -12.8710   94.3100 C.ar   80  A80         0.1919
   1499  N6       -37.5920  -12.7220   94.0730 N.pl3  80  A80        -0.1054
   1500  N7       -39.5410  -14.4140   92.3770 N.ar   80  A80        -0.2193
   1501  C8       -40.7220  -14.9170   92.1110 C.ar   80  A80         0.1816
   1502  N9       -41.6950  -14.5490   93.0070 N.ar   80  A80        -0.2693
   1503  OP1      -42.9680  -14.4360   87.7610 O.2    80  A80        -0.5172
   1504  OP2      -40.4900  -14.9190   88.2800 O.co2  80  A80        -0.4373
   1505  P        -45.3730  -12.4900   89.5250 P.3    81  G81         0.2141
   1506  C5'      -46.2170  -10.6900   91.2280 C.3    81  G81         0.1812
   1507  O5'      -45.1340  -11.2660   90.5220 O.3    81  G81        -0.3114
   1508  C4'      -45.7210   -9.6580   92.2100 C.3    81  G81         0.1773
   1509  O4'      -44.8750  -10.3060   93.1980 O.3    81  G81        -0.3307
   1510  C3'      -44.8540   -8.5240   91.6850 C.3    81  G81         0.1860
   1511  O3'      -45.6040   -7.4650   91.1000 O.3    81  G81        -0.3112
   1512  C2'      -44.1920   -8.0710   92.9720 C.3    81  G81         0.2309
   1513  O2'      -45.0960   -7.4110   93.8180 O.3    81  G81        -0.2156
   1514  C1'      -43.8440   -9.4150   93.6000 C.3    81  G81         0.2408
   1515  N1       -38.7710   -9.1000   93.6610 N.ar   81  G81        -0.1709
   1516  C2       -39.6780   -8.4580   94.4440 C.ar   81  G81         0.2606
   1517  N2       -39.1590   -7.6170   95.3450 N.pl3  81  G81        -0.0859
   1518  N3       -40.9970   -8.6270   94.3530 N.ar   81  G81        -0.1918
   1519  C4       -41.3210   -9.5110   93.3910 C.ar   81  G81         0.1723
   1520  C5       -40.4820  -10.2060   92.5500 C.ar   81  G81         0.1748
   1521  C6       -39.0790  -10.0120   92.6670 C.ar   81  G81         0.3023
   1522  O6       -38.1700  -10.5400   92.0170 O.2    81  G81        -0.2633
   1523  N7       -41.2090  -11.0170   91.6880 N.ar   81  G81        -0.2173
   1524  C8       -42.4490  -10.8050   92.0180 C.ar   81  G81         0.1817
   1525  N9       -42.5890   -9.8960   93.0350 N.ar   81  G81        -0.2693
   1526  OP1      -46.7530  -12.3790   88.9840 O.3    81  G81        -0.4373
   1527  OP2      -44.2260  -12.5490   88.5830 O.co2  81  G81        -0.5172
   1528  P        -45.0300   -6.7000   89.7950 P.3    82  G82         0.2141
   1529  C5'      -44.2910   -4.8150   91.4590 C.3    82  G82         0.1812
   1530  O5'      -43.9700   -5.6650   90.3740 O.3    82  G82        -0.3114
   1531  C4'      -43.0330   -4.2550   92.0760 C.3    82  G82         0.1773
   1532  O4'      -42.2730   -5.3270   92.6960 O.3    82  G82        -0.3307
   1533  C3'      -42.0260   -3.6020   91.1350 C.3    82  G82         0.1860
   1534  O3'      -42.3570   -2.2510   90.8440 O.3    82  G82        -0.3112
   1535  C2'      -40.7720   -3.6430   91.9900 C.3    82  G82         0.2309
   1536  O2'      -40.7920   -2.6440   92.9940 O.3    82  G82        -0.2156
   1537  C1'      -40.8900   -5.0300   92.6250 C.3    82  G82         0.2408
   1538  N1       -36.4370   -6.8090   91.0230 N.ar   82  G82        -0.1709
   1539  C2       -36.7030   -5.8200   91.9150 C.ar   82  G82         0.2606
   1540  N2       -35.6370   -5.2160   92.4340 N.pl3  82  G82        -0.0859
   1541  N3       -37.9200   -5.4510   92.2700 N.ar   82  G82        -0.1918
   1542  C4       -38.8670   -6.1820   91.6460 C.ar   82  G82         0.1723
   1543  C5       -38.7050   -7.1980   90.7330 C.ar   82  G82         0.1748
   1544  C6       -37.3820   -7.5700   90.3590 C.ar   82  G82         0.3023
   1545  O6       -37.0100   -8.4320   89.5570 O.2    82  G82        -0.2633
   1546  N7       -39.9380   -7.6910   90.3200 N.ar   82  G82        -0.2173
   1547  C8       -40.8110   -6.9750   90.9780 C.ar   82  G82         0.1817
   1548  N9       -40.2290   -6.0310   91.7900 N.ar   82  G82        -0.2693
   1549  OP1      -46.1540   -5.9270   89.2090 O.3    82  G82        -0.4373
   1550  OP2      -44.2850   -7.6540   88.9400 O.co2  82  G82        -0.5172
   1551  P        -41.9980   -1.6250   89.4030 P.3    83  G83         0.2141
   1552  C5'      -39.5690   -1.0410   90.3010 C.3    83  G83         0.1812
   1553  O5'      -40.4010   -1.6710   89.3220 O.3    83  G83        -0.3114
   1554  C4'      -38.1090   -1.3260   89.9990 C.3    83  G83         0.1773
   1555  O4'      -37.8210   -2.7280   90.2540 O.3    83  G83        -0.3307
   1556  C3'      -37.7010   -1.1090   88.5440 C.3    83  G83         0.1860
   1557  O3'      -37.3100    0.2440   88.3170 O.3    83  G83        -0.3112
   1558  C2'      -36.5070   -2.0440   88.3980 C.3    83  G83         0.2309
   1559  O2'      -35.3200   -1.4960   88.9320 O.3    83  G83        -0.2156
   1560  C1'      -36.9390   -3.2220   89.2640 C.3    83  G83         0.2408
   1561  N1       -36.4080   -7.5540   86.6910 N.ar   83  G83        -0.1709
   1562  C2       -35.4500   -6.7450   87.2390 C.ar   83  G83         0.2606
   1563  N2       -34.1810   -7.1590   87.1090 N.pl3  83  G83        -0.0859
   1564  N3       -35.7150   -5.6180   87.8730 N.ar   83  G83        -0.1918
   1565  C4       -37.0340   -5.3630   87.9230 C.ar   83  G83         0.1723
   1566  C5       -38.0710   -6.1080   87.4160 C.ar   83  G83         0.1748
   1567  C6       -37.7750   -7.3120   86.7320 C.ar   83  G83         0.3023
   1568  O6       -38.5470   -8.1040   86.2090 O.2    83  G83        -0.2633
   1569  N7       -39.2890   -5.5040   87.6850 N.ar   83  G83        -0.2173
   1570  C8       -38.9720   -4.4200   88.3410 C.ar   83  G83         0.1817
   1571  N9       -37.6240   -4.2820   88.5310 N.ar   83  G83        -0.2693
   1572  OP1      -42.4490   -0.2100   89.4550 O.3    83  G83        -0.4373
   1573  OP2      -42.5100   -2.5140   88.3220 O.co2  83  G83        -0.5172
   1574  P        -38.1660    1.1660   87.3280 P.3    84  A84         0.2141
   1575  C5'      -36.1070    2.8080   87.0730 C.3    84  A84         0.1812
   1576  O5'      -37.0740    1.9520   86.4750 O.3    84  A84        -0.3114
   1577  C4'      -34.8730    2.8650   86.1950 C.3    84  A84         0.1773
   1578  O4'      -33.9390    1.8160   86.5610 O.3    84  A84        -0.3307
   1579  C3'      -35.1650    2.6470   84.7180 C.3    84  A84         0.1860
   1580  O3'      -35.5450    3.8820   84.1110 O.3    84  A84        -0.3112
   1581  C2'      -33.8520    2.0710   84.1850 C.3    84  A84         0.2309
   1582  O2'      -32.9080    3.0530   83.8090 O.3    84  A84        -0.2156
   1583  C1'      -33.3350    1.2800   85.3940 C.3    84  A84         0.2408
   1584  N1       -31.4350   -3.5040   85.1400 N.ar   84  A84        -0.2040
   1585  C2       -30.8450   -2.3100   85.2080 C.ar   84  A84         0.2016
   1586  N3       -31.3940   -1.0990   85.2860 N.ar   84  A84        -0.2048
   1587  C4       -32.7330   -1.1840   85.2880 C.ar   84  A84         0.1692
   1588  C5       -33.4870   -2.3420   85.2260 C.ar   84  A84         0.1518
   1589  C6       -32.7840   -3.5600   85.1440 C.ar   84  A84         0.1919
   1590  N6       -33.3730   -4.7550   85.0670 N.pl3  84  A84        -0.1054
   1591  N7       -34.8400   -2.0460   85.2620 N.ar   84  A84        -0.2193
   1592  C8       -34.8730   -0.7360   85.3380 C.ar   84  A84         0.1816
   1593  N9       -33.6370   -0.1500   85.3470 N.ar   84  A84        -0.2693
   1594  OP1      -38.9080    2.1010   88.2080 O.3    84  A84        -0.4373
   1595  OP2      -38.9150    0.3110   86.3640 O.co2  84  A84        -0.5172
   1596  P        -36.3970    3.8790   82.7450 P.3    85  A85         0.2141
   1597  C5'      -36.0440    2.3150   80.7120 C.3    85  A85         0.1812
   1598  O5'      -35.4750    3.0290   81.7730 O.3    85  A85        -0.3114
   1599  C4'      -36.0890    3.1850   79.5050 C.3    85  A85         0.1773
   1600  O4'      -34.7390    3.3680   78.9950 O.3    85  A85        -0.3307
   1601  C3'      -36.8550    2.4590   78.4210 C.3    85  A85         0.1860
   1602  O3'      -37.9520    3.2330   77.9580 O.3    85  A85        -0.3112
   1603  C2'      -35.8080    1.8230   77.5000 C.3    85  A85         0.2309
   1604  O2'      -36.1410    1.8390   76.1270 O.3    85  A85        -0.2156
   1605  C1'      -34.6080    2.7380   77.7420 C.3    85  A85         0.2408
   1606  N1       -29.8650    4.2070   76.5640 N.ar   85  A85        -0.2040
   1607  C2       -30.9950    4.8780   76.8000 C.ar   85  A85         0.2016
   1608  N3       -32.1940    4.4190   77.1440 N.ar   85  A85        -0.2048
   1609  C4       -32.1770    3.0810   77.2390 C.ar   85  A85         0.1692
   1610  C5       -31.0940    2.2480   77.0300 C.ar   85  A85         0.1518
   1611  C6       -29.8770    2.8610   76.6780 C.ar   85  A85         0.1919
   1612  N6       -28.7380    2.1910   76.4560 N.pl3  85  A85        -0.1054
   1613  N7       -31.4510    0.9240   77.2250 N.ar   85  A85        -0.2193
   1614  C8       -32.7280    0.9840   77.5360 C.ar   85  A85         0.1816
   1615  N9       -33.2370    2.2580   77.5390 N.ar   85  A85        -0.2693
   1616  OP1      -36.4360    5.2820   82.2530 O.2    85  A85        -0.5172
   1617  OP2      -37.6750    3.1300   82.9090 O.co2  85  A85        -0.4373
   1618  P        -38.9490    2.6530   76.8460 P.3    86  G86         0.2141
   1619  C5'      -38.7990    4.8740   75.5050 C.3    86  G86         0.1812
   1620  O5'      -38.5480    3.4830   75.5440 O.3    86  G86        -0.3114
   1621  C4'      -37.7900    5.5930   74.6400 C.3    86  G86         0.1773
   1622  O4'      -36.4640    5.6280   75.2370 O.3    86  G86        -0.3307
   1623  C3'      -37.4930    5.0940   73.2410 C.3    86  G86         0.1860
   1624  O3'      -38.5880    5.3610   72.3750 O.3    86  G86        -0.3112
   1625  C2'      -36.2960    5.9800   72.9020 C.3    86  G86         0.2309
   1626  O2'      -36.7050    7.3120   72.6500 O.3    86  G86        -0.2156
   1627  C1'      -35.5230    5.9670   74.2250 C.3    86  G86         0.2408
   1628  N1       -30.7190    4.9600   72.9420 N.ar   86  G86        -0.1709
   1629  C2       -31.4240    6.1320   72.8180 C.ar   86  G86         0.2606
   1630  N2       -30.7740    7.1570   72.2660 N.pl3  86  G86        -0.0859
   1631  N3       -32.6800    6.2830   73.2070 N.ar   86  G86        -0.1918
   1632  C4       -33.1810    5.1480   73.7360 C.ar   86  G86         0.1723
   1633  C5       -32.5620    3.9300   73.9010 C.ar   86  G86         0.1748
   1634  C6       -31.2230    3.7800   73.4800 C.ar   86  G86         0.3023
   1635  O6       -30.5130    2.7760   73.5360 O.2    86  G86        -0.2633
   1636  N7       -33.4210    3.0170   74.4880 N.ar   86  G86        -0.2173
   1637  C8       -34.5270    3.6840   74.6630 C.ar   86  G86         0.1817
   1638  N9       -34.4540    4.9760   74.2190 N.ar   86  G86        -0.2693
   1639  OP1      -40.2830    3.1150   77.3180 O.3    86  G86        -0.4373
   1640  OP2      -38.7160    1.2040   76.5690 O.co2  86  G86        -0.5172
   1641  P        -38.5980    4.7580   70.8860 P.3    87  U87         0.2141
   1642  C5'      -37.5230    6.7620   69.5870 C.3    87  U87         0.1812
   1643  O5'      -37.3710    5.4700   70.1630 O.3    87  U87        -0.3114
   1644  C4'      -36.2760    7.1460   68.8360 C.3    87  U87         0.1773
   1645  O4'      -35.1430    7.0530   69.7400 O.3    87  U87        -0.3307
   1646  C3'      -35.8820    6.2390   67.6860 C.3    87  U87         0.1860
   1647  O3'      -36.6000    6.5750   66.5080 O.3    87  U87        -0.3112
   1648  C2'      -34.3990    6.5500   67.5660 C.3    87  U87         0.2309
   1649  O2'      -34.1650    7.8290   67.0350 O.3    87  U87        -0.2156
   1650  C1'      -34.0040    6.6070   69.0350 C.3    87  U87         0.2420
   1651  N1       -33.6010    5.3030   69.5780 N.ar   87  U87        -0.2534
   1652  C2       -32.3130    4.8810   69.3200 C.ar   87  U87         0.3546
   1653  O2       -31.5310    5.5250   68.6500 O.2    87  U87        -0.2443
   1654  N3       -31.9730    3.6780   69.8700 N.ar   87  U87        -0.1530
   1655  C4       -32.7710    2.8620   70.6270 C.ar   87  U87         0.2846
   1656  O4       -32.3170    1.7950   71.0360 O.2    87  U87        -0.2650
   1657  C5       -34.1000    3.3540   70.8430 C.ar   87  U87         0.0814
   1658  C6       -34.4610    4.5310   70.3220 C.ar   87  U87         0.0870
   1659  OP1      -39.8290    5.2670   70.2470 O.2    87  U87        -0.5172
   1660  OP2      -38.3350    3.3010   70.9060 O.co2  87  U87        -0.4373
   1661  P        -37.0920    5.3130   65.5550 P.3    88  U88         0.2141
   1662  C5'      -35.0220    5.9110   64.0260 C.3    88  U88         0.1812
   1663  O5'      -35.7930    4.9210   64.7020 O.3    88  U88        -0.3114
   1664  C4'      -33.6050    5.4190   63.7730 C.3    88  U88         0.1773
   1665  O4'      -32.9270    5.2050   65.0360 O.3    88  U88        -0.3307
   1666  C3'      -33.4940    4.0800   63.0550 C.3    88  U88         0.1860
   1667  O3'      -33.5510    4.2670   61.6500 O.3    88  U88        -0.3112
   1668  C2'      -32.1070    3.6200   63.4830 C.3    88  U88         0.2309
   1669  O2'      -31.0900    4.2300   62.7160 O.3    88  U88        -0.2156
   1670  C1'      -32.0440    4.1040   64.9280 C.3    88  U88         0.2420
   1671  N1       -32.4270    3.0650   65.9330 N.ar   88  U88        -0.2534
   1672  C2       -31.4670    2.1770   66.3690 C.ar   88  U88         0.3546
   1673  O2       -30.3180    2.1980   65.9650 O.2    88  U88        -0.2443
   1674  N3       -31.9050    1.2590   67.2940 N.ar   88  U88        -0.1530
   1675  C4       -33.1810    1.1490   67.8160 C.ar   88  U88         0.2846
   1676  O4       -33.4290    0.2780   68.6440 O.2    88  U88        -0.2650
   1677  C5       -34.1290    2.1130   67.3160 C.ar   88  U88         0.0814
   1678  C6       -33.7220    3.0140   66.4130 C.ar   88  U88         0.0870
   1679  OP1      -38.1070    5.8500   64.6140 O.2    88  U88        -0.5172
   1680  OP2      -37.4400    4.1610   66.4260 O.co2  88  U88        -0.4373
   1681  P        -34.1530    3.1230   60.7100 P.3    89  CCC89       0.2141
   1682  PC       -29.0120   -1.0450   58.6000 P.3    89  CCC89       0.2142
   1683  C5'      -32.3950    1.4720   59.5770 C.3    89  CCC89       0.1812
   1684  O5'      -33.0190    1.9750   60.7600 O.3    89  CCC89      -0.3114
   1685  C4'      -31.0680    0.8150   59.9460 C.3    89  CCC89       0.1772
   1686  O4'      -30.7250    1.1720   61.2910 O.3    89  CCC89      -0.3308
   1687  C3'      -31.1460   -0.6930   59.8840 C.3    89  CCC89       0.1831
   1688  O3'      -30.5570   -1.3530   58.7800 O.3    89  CCC89      -0.3113
   1689  C2'      -30.0850   -1.0500   60.9230 C.3    89  CCC89       0.2009
   1690  O2'      -28.8440   -1.0120   60.2030 O.3    89  CCC89      -0.3093
   1691  C1'      -30.0850    0.0740   61.9410 C.3    89  CCC89       0.2391
   1692  N1       -30.8430   -0.3710   63.1160 N.ar   89  CCC89      -0.2536
   1693  O1C      -28.3050   -2.2560   58.0330 O.co2  89  CCC89      -0.5172
   1694  C2       -30.2500   -1.2720   64.0270 C.ar   89  CCC89       0.3532
   1695  O2       -29.0820   -1.6750   63.8390 O.2    89  CCC89      -0.2443
   1696  O2C      -28.8070    0.3450   58.0360 O.3    89  CCC89      -0.4373
   1697  N3       -30.9370   -1.6980   65.1100 N.ar   89  CCC89      -0.1739
   1698  C4       -32.1990   -1.2730   65.3260 C.ar   89  CCC89       0.1759
   1699  N4       -32.8800   -1.7090   66.4130 N.pl3  89  CCC89      -0.1070
   1700  C5       -32.8000   -0.3930   64.4330 C.ar   89  CCC89       0.0566
   1701  C6       -32.0960    0.0490   63.3190 C.ar   89  CCC89       0.0850
   1702  OP1      -34.2280    3.6790   59.3080 O.co2  89  CCC89      -0.5172
   1703  OP2      -35.3990    2.5870   61.3730 O.3    89  CCC89      -0.4373
@<TRIPOS>BOND
     1     1     4    1
     2     1    13    2
     3     1    17    1
     4     1    20    1
     5     2    14    2
     6     2    18    1
     7     2    20    1
     8     2    21    1
     9     3     5    1
    10     3     4    1
    11     5     6    1
    12     5     7    1
    13     6    11    1
    14     7     8    1
    15     7     9    1
    16     8    29    1
    17     9    10    1
    18     9    11    1
    19    11    28    1
    20    12    15   ar
    21    12    24   ar
    22    15    16    1
    23    15    19   ar
    24    19    22   ar
    25    22    23   ar
    26    22    28   ar
    27    23    24   ar
    28    23    26   ar
    29    24    25    2
    30    26    27   ar
    31    27    28   ar
    32  1667  1681    1
    33  1681  1684    1
    34  1681  1702    2
    35  1681  1703    1
    36  1682  1688    1
    37  1682  1690    1
    38  1682  1693    2
    39  1682  1696    1
    40  1683  1685    1
    41  1683  1684    1
    42  1685  1686    1
    43  1685  1687    1
    44  1686  1691    1
    45  1687  1688    1
    46  1687  1689    1
    47  1689  1690    1
    48  1689  1691    1
    49  1691  1692    1
    50  1692  1694   ar
    51  1692  1701   ar
    52  1694  1695    2
    53  1694  1697   ar
    54  1697  1698   ar
    55  1698  1699    1
    56  1698  1700   ar
    57  1700  1701   ar
    58  1667  1666    1
    59  1669  1668    1
    60  1666  1668    1
    61  1666  1664    1
    62  1668  1670    1
    63  1664  1662    1
    64  1664  1665    1
    65  1662  1663    1
    66    41    40    1
    67  1679  1661    2
    68  1663  1661    1
    69  1670  1665    1
    70  1670  1671    1
    71  1661  1680    1
    72  1661  1647    1
    73    40    42   ar
    74    40    39   ar
    75  1671  1672   ar
    76  1671  1678   ar
    77    42    43   ar
    78  1673  1672    2
    79  1672  1674   ar
    80    37    36    1
    81  1678  1677   ar
    82    39    45   ar
    83  1647  1646    1
    84    60    59    1
    85  1649  1648    1
    86    43    49   ar
    87    43    44   ar
    88    38    36    1
    89    38    49    1
    90    38    33    1
    91    56    61    1
    92    56    55    1
    93  1674  1675   ar
    94  1677  1675   ar
    95    61    59    1
    96    61    71    1
    97    36    34    1
    98    45    44   ar
    99    45    46    2
   100  1648  1646    1
   101  1648  1650    1
   102    49    48   ar
   103    55    53    1
   104    55    57    1
   105  1646  1644    1
   106    33    32    1
   107    59    57    1
   108  1675  1676    2
   109    44    47   ar
   110    64    63   ar
   111    64    65   ar
   112    53    54    1
   113    71    65   ar
   114    71    70   ar
   115    63    62   ar
   116    32    34    1
   117    32    30    1
   118    65    66   ar
   119    57    58    1
   120  1653  1652    2
   121    48    47   ar
   122    58    74    1
   123    34    35    1
   124  1644  1642    1
   125  1644  1645    1
   126    35    52    1
   127    78    77    1
   128    78    83    1
   129  1650  1651    1
   130  1650  1645    1
   131    75    77    1
   132    75    76    1
   133    70    69   ar
   134    77    79    1
   135  1652  1651   ar
   136  1652  1654   ar
   137    62    67   ar
   138    54    52    1
   139    66    69   ar
   140    66    67   ar
   141  1651  1658   ar
   142  1642  1643    1
   143    30    31    1
   144    83    84    1
   145    83    81    1
   146  1654  1655   ar
   147    82    81    1
   148    67    68    1
   149    92    74    2
   150    76    74    1
   151    74    93    1
   152  1643  1641    1
   153    52    72    2
   154    52    73    1
   155  1659  1641    2
   156  1658  1657   ar
   157    31    29    1
   158    84    91   ar
   159    84    85   ar
   160  1655  1657   ar
   161  1655  1656    2
   162    81    79    1
   163    91    90   ar
   164    79    80    1
   165  1641  1660    1
   166  1641  1624    1
   167    80    94    1
   168    86    85    2
   169    85    87   ar
   170    90    88   ar
   171    29    51    2
   172    29    50    1
   173    87    88   ar
   174    88    89    1
   175  1630  1629    1
   176  1624  1623    1
   177    94   112    2
   178    94   113    1
   179    94    96    1
   180  1626  1625    1
   181  1629  1628   ar
   182  1629  1631   ar
   183  1625  1623    1
   184  1625  1627    1
   185  1628  1634   ar
   186    95    96    1
   187    95    97    1
   188  1631  1632   ar
   189  1623  1621    1
   190    98    97    1
   191    98   103    1
   192  1634  1635    2
   193  1634  1633   ar
   194  1632  1633   ar
   195  1632  1638   ar
   196    97    99    1
   197  1633  1636   ar
   198  1638  1627    1
   199  1638  1637   ar
   200  1627  1622    1
   201   103   104    1
   202   103   101    1
   203   111   104   ar
   204   111   110   ar
   205  1636  1637   ar
   206   104   105   ar
   207  1621  1622    1
   208  1621  1619    1
   209   110   108   ar
   210   105   106    2
   211   105   107   ar
   212   108   107   ar
   213   108   109    2
   214    99   101    1
   215    99   100    1
   216  1619  1620    1
   217   101   102    1
   218  1620  1618    1
   219   100   114    1
   220  1604  1603    1
   221   940   919    2
   222  1612  1611    1
   223  1606  1611   ar
   224  1606  1607   ar
   225  1640  1618    2
   226  1611  1610   ar
   227  1607  1608   ar
   228  1618  1639    1
   229  1618  1602    1
   230   939   919    1
   231  1610  1613   ar
   232  1610  1609   ar
   233  1608  1609   ar
   234  1613  1614   ar
   235  1609  1615   ar
   236   919   905    1
   237   919   921    1
   238   114   133    2
   239   114   132    1
   240   114   116    1
   241  1603  1605    1
   242  1603  1601    1
   243  1614  1615   ar
   244  1615  1605    1
   245   905   904    1
   246   917   899    2
   247   918   899    1
   248  1605  1600    1
   249  1602  1601    1
   250   904   906    1
   251   904   902    1
   252   116   115    1
   253   899   901    1
   254   899   882    1
   255   901   900    1
   256   907   906    1
   257  1601  1599    1
   258   906   908    1
   259   118   123    1
   260   118   117    1
   261   130   131   ar
   262   130   128   ar
   263   131   124   ar
   264   900   902    1
   265   921   920    1
   266   129   128    1
   267   128   127   ar
   268   124   123    1
   269   124   125   ar
   270   920   922    1
   271  1600  1599    1
   272   123   121    1
   273   127   125   ar
   274   902   903    1
   275   125   126    2
   276   893   892    2
   277   115   117    1
   278   898   876    2
   279  1599  1597    1
   280   117   119    1
   281   956   955    2
   282   882   881    1
   283   892   886   ar
   284   892   891   ar
   285   886   887   ar
   286   897   876    1
   287   908   903    1
   288   908   909    1
   289   888   887    1
   290   881   883    1
   291   881   879    1
   292   891   894   ar
   293   891   890   ar
   294   887   889   ar
   295   883   884    1
   296   883   885    1
   297   894   895   ar
   298   959   941    2
   299   876   878    1
   300   876   862    1
   301   922   923    1
   302   922   924    1
   303   890   889   ar
   304   890   896   ar
   305   121   122    1
   306   121   119    1
   307   895   896   ar
   308   955   957   ar
   309   955   954   ar
   310  1597  1598    1
   311   878   877    1
   312   896   885    1
   313   957   958   ar
   314   909   916   ar
   315   909   910   ar
   316   119   120    1
   317   923   928    1
   318   875   856    2
   319   911   910    2
   320   916   915   ar
   321   885   880    1
   322   910   912   ar
   323   924   925    1
   324   924   926    1
   325   925   941    1
   326   874   856    1
   327   879   877    1
   328   879   880    1
   329   941   960    1
   330   941   943    1
   331  1598  1596    1
   332   954   952   ar
   333   862   861    1
   334   871   870    1
   335   834   816    2
   336   856   858    1
   337   856   842    1
   338   855   836    2
   339   958   951   ar
   340   915   913   ar
   341   854   836    1
   342   120   134    1
   343   858   857    1
   344   912   913   ar
   345  1616  1596    2
   346   861   863    1
   347   861   859    1
   348   870   872   ar
   349   870   869   ar
   350   152   153   ar
   351   152   149   ar
   352   928   926    1
   353   928   938    1
   354   872   873   ar
   355   153   154   ar
   356   151   150    2
   357   913   914    2
   358   943   942    1
   359   149   150   ar
   360   149   148   ar
   361   836   838    1
   362   836   822    1
   363  1596  1617    1
   364  1596  1580    1
   365   150   144   ar
   366   926   927    1
   367   857   859    1
   368   869   867   ar
   369   154   148   ar
   370   154   143    1
   371   972   961    2
   372   835   816    1
   373   952   951   ar
   374   952   953    2
   375   938   937   ar
   376   938   932   ar
   377   138   143    1
   378   138   137    1
   379   148   147   ar
   380   873   866   ar
   381   951   950    1
   382   816   818    1
   383   816   800    1
   384   144   145   ar
   385   937   936   ar
   386   143   141    1
   387   863   864    1
   388   863   865    1
   389   156   134    2
   390   838   837    1
   391   147   145   ar
   392   931   932   ar
   393   931   930   ar
   394   932   933   ar
   395   859   860    1
   396   145   146    1
   397   842   841    1
   398   867   866   ar
   399   867   868    2
   400   134   136    1
   401   134   155    1
   402   866   865    1
   403   814   794    2
   404   936   933   ar
   405   818   817    1
   406   930   929   ar
   407   933   934   ar
   408  1582  1581    1
   409   965   970    1
   410   965   964    1
   411   136   135    1
   412   942   944    1
   413  1475  1474    2
   414   946   948    1
   415   946   944    1
   416   946   947    1
   417   841   839    1
   418   841   843    1
   419   837   839    1
   420   962   964    1
   421   962   963    1
   422   822   821    1
   423   970   968    1
   424   865   860    1
   425  1580  1579    1
   426   135   137    1
   427  1581  1579    1
   428  1581  1583    1
   429   137   139    1
   430   950   948    1
   431   950   945    1
   432   948   949    1
   433   800   799    1
   434   817   819    1
   435   929   934   ar
   436   934   935    1
   437   961   947    1
   438   961   963    1
   439   961   971    1
   440   852   853   ar
   441   852   850   ar
   442   945   944    1
   443   795   796    1
   444   795   797    1
   445   851   850    1
   446   141   142    1
   447   141   139    1
   448  1579  1577    1
   449   964   966    1
   450   853   846   ar
   451   821   819    1
   452   821   823    1
   453   839   840    1
   454   850   849   ar
   455   796   794    1
   456  1476  1474   ar
   457  1476  1477   ar
   458  1474  1473   ar
   459   994   973    2
   460   794   788    1
   461   794   815    1
   462   966   968    1
   463   966   967    1
   464  1590  1589    1
   465   968   969    1
   466   843   844    1
   467   843   845    1
   468  1584  1589   ar
   469  1584  1585   ar
   470  1589  1588   ar
   471  1585  1586   ar
   472  1588  1591   ar
   473  1588  1587   ar
   474   819   820    1
   475   139   140    1
   476  1591  1592   ar
   477  1586  1587   ar
   478  1587  1593   ar
   479   799   797    1
   480   799   801    1
   481   797   798    1
   482  1592  1593   ar
   483  1593  1583    1
   484  1583  1578    1
   485   788   787    1
   486   846   845    1
   487   846   847   ar
   488   849   847   ar
   489   840   845    1
   490  1478  1477    2
   491  1477  1479   ar
   492  1467  1472    1
   493  1467  1466    1
   494   832   833   ar
   495   832   830   ar
   496   174   173    2
   497   833   826   ar
   498   847   848    2
   499  1473  1472    1
   500  1473  1480   ar
   501  1472  1470    1
   502   823   824    1
   503   823   825    1
   504   967   973    1
   505  1577  1578    1
   506  1577  1575    1
   507  1568  1567    2
   508   973   993    1
   509   973   975    1
   510   173   172   ar
   511   173   167   ar
   512   790   789    1
   513   175   172   ar
   514   175   176   ar
   515  1595  1574    2
   516   820   825    1
   517   675   680    1
   518   675   674    1
   519   172   171   ar
   520  1576  1575    1
   521  1576  1574    1
   522   140   157    1
   523   977   976    1
   524   977   982    1
   525   167   168   ar
   526   176   177   ar
   527   679   678    1
   528   801   802    1
   529   801   803    1
   530  1561  1567   ar
   531  1561  1562   ar
   532   787   789    1
   533   787   785    1
   534   798   803    1
   535  1567  1566   ar
   536   680   690    1
   537   680   678    1
   538   974   976    1
   539   974   975    1
   540   831   830    1
   541   171   177   ar
   542   171   170   ar
   543   830   829   ar
   544  1466  1468    1
   545  1466  1464    1
   546   168   170   ar
   547   168   169    1
   548   826   825    1
   549   826   827   ar
   550   177   166    1
   551   674   672    1
   552   674   676    1
   553   789   791    1
   554  1471  1470    1
   555  1479  1480   ar
   556   161   166    1
   557   161   160    1
   558  1563  1562    1
   559  1469  1468    1
   560  1469  1483    1
   561   976   978    1
   562   672   673    1
   563  1562  1564   ar
   564   166   164    1
   565  1470  1468    1
   566  1574  1594    1
   567  1574  1557    1
   568   982   992    1
   569   982   980    1
   570   691   671    2
   571  1566  1569   ar
   572  1566  1565   ar
   573   690   689   ar
   574   690   684   ar
   575   678   676    1
   576   803   813    1
   577   991   992   ar
   578   991   990   ar
   579   992   986   ar
   580  1569  1570   ar
   581   829   827   ar
   582   179   157    2
   583   689   688   ar
   584   827   828    2
   585  1503  1483    2
   586   785   783    1
   587   785   786    1
   588   812   813   ar
   589   812   811   ar
   590   990   987   ar
   591  1464  1465    1
   592  1564  1565   ar
   593   157   159    1
   594   157   178    1
   595  1565  1571   ar
   596   986   987   ar
   597   986   985   ar
   598   684   683   ar
   599   684   685   ar
   600   683   682   ar
   601   813   807   ar
   602   987   988   ar
   603   985   984   ar
   604   676   677    1
   605   159   158    1
   606  1483  1504    1
   607  1483  1485    1
   608   783   784    1
   609   673   671    1
   610   688   685   ar
   611  1557  1556    1
   612   988   989    1
   613   988   983   ar
   614   158   160    1
   615  1573  1551    2
   616   984   983   ar
   617   677   693    1
   618   160   162    1
   619  1570  1571   ar
   620   811   808   ar
   621   981   980    1
   622  1482  1463    2
   623  1558  1556    1
   624  1558  1559    1
   625  1558  1560    1
   626   791   786    1
   627   685   686   ar
   628   682   681   ar
   629   671   692    1
   630   671   654    1
   631  1571  1560    1
   632  1556  1554    1
   633  1527  1505    2
   634   980   978    1
   635   978   979    1
   636   197   196    2
   637   164   165    1
   638   164   162    1
   639   807   808   ar
   640   807   806   ar
   641   784   782    1
   642  1465  1463    1
   643  1550  1528    2
   644  1526  1505    1
   645   808   809   ar
   646   686   681   ar
   647   686   687    1
   648   196   190   ar
   649   196   195   ar
   650   190   191   ar
   651  1549  1528    1
   652  1560  1555    1
   653   806   805   ar
   654  1553  1551    1
   655  1553  1552    1
   656   162   163    1
   657   979   995    1
   658  1551  1572    1
   659  1551  1534    1
   660  1463  1481    1
   661  1463  1446    1
   662  1505  1489    1
   663  1505  1507    1
   664  1545  1544    2
   665  1485  1484    1
   666   192   191    1
   667   768   767    1
   668   195   198   ar
   669   195   194   ar
   670   191   193   ar
   671   198   199   ar
   672  1010  1009    1
   673   809   810    1
   674   809   804   ar
   675   714   693    2
   676  1528  1530    1
   677  1528  1511    1
   678  1484  1486    1
   679   693   695    1
   680   693   715    1
   681   654   653    1
   682   694   696    1
   683   694   695    1
   684   697   696    1
   685   697   702    1
   686  1554  1555    1
   687  1554  1552    1
   688   805   804   ar
   689   194   193   ar
   690   194   200   ar
   691   792   782    2
   692   199   200   ar
   693   767   765    1
   694   767   769    1
   695   782   766    1
   696   782   793    1
   697  1009  1011   ar
   698  1009  1008   ar
   699  1546  1543   ar
   700  1546  1547   ar
   701  1544  1543   ar
   702  1544  1538   ar
   703  1530  1529    1
   704   696   698    1
   705  1011  1012   ar
   706   200   189    1
   707   766   765    1
   708  1489  1488    1
   709  1507  1506    1
   710  1008  1006   ar
   711   184   189    1
   712   184   183    1
   713   163   180    1
   714  1446  1445    1
   715  1543  1542   ar
   716  1014   995    2
   717  1534  1533    1
   718   995   997    1
   719   995  1013    1
   720  1012  1005   ar
   721   189   187    1
   722   702   713    1
   723   702   700    1
   724  1547  1548   ar
   725  1538  1539   ar
   726  1488  1486    1
   727  1488  1490    1
   728  1448  1447    1
   729  1486  1487    1
   730   712   713   ar
   731   712   711   ar
   732  1511  1510    1
   733   765   763    1
   734   653   655    1
   735   653   651    1
   736  1533  1535    1
   737  1533  1531    1
   738  1006  1005   ar
   739  1006  1007    2
   740  1506  1508    1
   741   713   707   ar
   742  1005  1004    1
   743   769   779    1
   744   769   764    1
   745   778   779   ar
   746   778   777   ar
   747   656   655    1
   748   711   708   ar
   749   999  1004    1
   750   999   998    1
   751  1529  1531    1
   752   997   996    1
   753  1443  1445    1
   754  1443  1444    1
   755  1443  1441    1
   756   655   657    1
   757   215   214    1
   758   779   773   ar
   759  1542  1548   ar
   760  1542  1541   ar
   761   707   708   ar
   762   707   706   ar
   763   708   709   ar
   764  1510  1508    1
   765  1510  1512    1
   766  1523  1524   ar
   767  1523  1520   ar
   768   202   180    2
   769   777   774   ar
   770  1548  1537    1
   771  1445  1447    1
   772   213   214   ar
   773   213   219   ar
   774   181   183    1
   775   181   182    1
   776  1004  1002    1
   777   183   185    1
   778   698   700    1
   779   698   699    1
   780  1539  1541   ar
   781  1539  1540    1
   782   706   704   ar
   783   180   182    1
   784   180   201    1
   785   220   219    2
   786   701   700    1
   787  1535  1537    1
   788  1535  1536    1
   789   709   710    2
   790   709   703   ar
   791  1522  1521    2
   792  1524  1525   ar
   793  1531  1532    1
   794  1444  1449    1
   795  1447  1449    1
   796  1501  1500   ar
   797  1501  1502   ar
   798  1395  1375    2
   799   214   216   ar
   800  1487  1492    1
   801   996   998    1
   802  1449  1460    1
   803  1508  1509    1
   804   651   649    1
   805   651   652    1
   806   669   648    2
   807  1418  1397    2
   808   704   703   ar
   809   704   705    1
   810   773   774   ar
   811   773   772   ar
   812  1441  1442    1
   813   219   218   ar
   814   763   764    1
   815   763   761    1
   816  1500  1497   ar
   817   649   650    1
   818   699   716    1
   819   774   775   ar
   820   187   188    1
   821   187   185    1
   822  1452  1451    1
   823  1490  1492    1
   824  1490  1491    1
   825  1520  1521   ar
   826  1520  1519   ar
   827   650   648    1
   828   998  1000    1
   829  1537  1532    1
   830  1521  1515   ar
   831  1453  1451   ar
   832  1453  1454   ar
   833   772   771   ar
   834   185   186    1
   835  1512  1514    1
   836  1512  1513    1
   837   216   217   ar
   838  1502  1492    1
   839  1502  1496   ar
   840  1525  1519   ar
   841  1525  1514    1
   842   648   670    1
   843   648   634    1
   844   657   652    1
   845   657   668    1
   846   775   776    1
   847   775   770   ar
   848  1451  1450   ar
   849   218   217   ar
   850   218   221   ar
   851  1509  1514    1
   852  1030  1029    1
   853  1460  1454   ar
   854  1460  1459   ar
   855  1002  1000    1
   856  1002  1003    1
   857  1519  1518   ar
   858   771   770   ar
   859   217   223   ar
   860  1497  1496   ar
   861  1497  1498   ar
   862   668   667   ar
   863   668   662   ar
   864  1439  1420    2
   865  1454  1455   ar
   866  1375  1396    1
   867  1375  1377    1
   868  1375  1361    1
   869   667   666   ar
   870  1397  1419    1
   871  1397  1381    1
   872  1397  1399    1
   873  1000  1001    1
   874  1515  1516   ar
   875   761   762    1
   876  1442  1440    1
   877   666   663   ar
   878  1376  1377    1
   879  1376  1378    1
   880  1029  1031   ar
   881  1029  1028   ar
   882   662   661   ar
   883   662   663   ar
   884   221   222   ar
   885  1496  1495   ar
   886   716   737    2
   887   716   736    1
   888   716   718    1
   889   661   659   ar
   890   663   664   ar
   891  1499  1498    1
   892  1381  1380    1
   893  1438  1420    1
   894  1031  1032   ar
   895   186   203    1
   896  1028  1026   ar
   897   659   658   ar
   898   659   660    1
   899  1450  1456   ar
   900   664   658   ar
   901   664   665    2
   902  1498  1493   ar
   903   223   222   ar
   904   223   212    1
   905  1518  1516   ar
   906  1361  1360    1
   907  1459  1458   ar
   908  1516  1517    1
   909  1420  1422    1
   910  1420  1403    1
   911   634   633    1
   912   207   212    1
   913   207   206    1
   914  1399  1398    1
   915   718   717    1
   916  1462  1440    2
   917  1455  1456   ar
   918  1455  1458   ar
   919   762   760    1
   920  1032  1025   ar
   921  1440  1461    1
   922  1440  1426    1
   923   212   210    1
   924   241   240    2
   925  1026  1025   ar
   926  1026  1027    2
   927  1378  1380    1
   928  1378  1379    1
   929  1373  1355    2
   930  1398  1400    1
   931  1495  1494   ar
   932  1001  1015    1
   933  1380  1382    1
   934  1025  1024    1
   935  1456  1457    2
   936   717   719    1
   937  1435  1434    1
   938  1422  1421    1
   939  1493  1494   ar
   940  1436  1434   ar
   941  1436  1437   ar
   942   225   203    2
   943   239   240   ar
   944   239   237   ar
   945   203   205    1
   946   203   224    1
   947   205   204    1
   948   633   635    1
   949   633   631    1
   950   746   745    1
   951  1034  1015    2
   952  1403  1402    1
   953  1019  1024    1
   954  1019  1018    1
   955   240   242   ar
   956  1360  1358    1
   957  1360  1362    1
   958  1024  1022    1
   959  1356  1358    1
   960  1356  1357    1
   961   204   206    1
   962   635   636    1
   963   635   637    1
   964  1434  1433   ar
   965   744   760    1
   966   744   743    1
   967  1050  1049    2
   968  1363  1362    1
   969   206   208    1
   970   238   237    2
   971  1358  1359    1
   972  1437  1430   ar
   973  1015  1017    1
   974  1015  1033    1
   975   760   781    2
   976   760   780    1
   977  1400  1402    1
   978  1400  1401    1
   979  1426  1425    1
   980  1379  1384    1
   981   237   236   ar
   982  1402  1404    1
   983   741   739    1
   984   741   742    1
   985   741   743    1
   986  1355  1357    1
   987  1355  1341    1
   988  1355  1374    1
   989  1383  1382    1
   990   210   211    1
   991   210   208    1
   992  1382  1384    1
   993  1017  1016    1
   994  1425  1423    1
   995  1425  1427    1
   996  1421  1423    1
   997  1362  1364    1
   998   719   720    1
   999   719   721    1
  1000   646   628    2
  1001   747   742    1
  1002   747   745    1
  1003   747   757    1
  1004   739   740    1
  1005   242   243   ar
  1006  1049  1048   ar
  1007  1049  1051   ar
  1008   745   743    1
  1009   720   725    1
  1010   750   749   ar
  1011   750   751   ar
  1012   647   628    1
  1013  1048  1046   ar
  1014  1016  1018    1
  1015   631   629    1
  1016   631   632    1
  1017   208   209    1
  1018   630   628    1
  1019   630   629    1
  1020  1018  1020    1
  1021  1433  1431   ar
  1022   749   748   ar
  1023  1341  1340    1
  1024  1384  1394    1
  1025  1430  1431   ar
  1026  1430  1429    1
  1027   645   644   ar
  1028   645   638   ar
  1029   644   642   ar
  1030   628   614    1
  1031   236   243   ar
  1032   236   235    1
  1033  1423  1424    1
  1034   637   638    1
  1035   637   632    1
  1036   638   639   ar
  1037  1022  1023    1
  1038  1022  1020    1
  1039   642   643    2
  1040   642   641   ar
  1041  1401  1406    1
  1042   639   641   ar
  1043   639   640    2
  1044  1427  1429    1
  1045  1427  1428    1
  1046  1067  1066    1
  1047  1359  1364    1
  1048   751   757   ar
  1049   751   752   ar
  1050   757   756   ar
  1051  1051  1052   ar
  1052  1431  1432    2
  1053   721   722    1
  1054   721   723    1
  1055  1046  1047    2
  1056  1046  1045   ar
  1057  1416  1415   ar
  1058  1416  1417   ar
  1059  1404  1406    1
  1060  1404  1405    1
  1061  1364  1365    1
  1062   734   733   ar
  1063   734   735   ar
  1064  1020  1021    1
  1065  1393  1394   ar
  1066  1393  1392   ar
  1067  1424  1429    1
  1068  1330  1331   ar
  1069  1330  1327   ar
  1070   748   753   ar
  1071   733   730   ar
  1072  1065  1066   ar
  1073  1065  1071   ar
  1074  1394  1388   ar
  1075   235   230    1
  1076   235   233    1
  1077   725   735    1
  1078   725   723    1
  1079   735   729   ar
  1080  1331  1332   ar
  1081  1343  1342    1
  1082   740   738    1
  1083  1354  1335    2
  1084  1415  1412   ar
  1085  1066  1068   ar
  1086   209   226    1
  1087  1406  1417    1
  1088   758   738    2
  1089   730   729   ar
  1090   730   731   ar
  1091   230   229    1
  1092   722   738    1
  1093   729   728   ar
  1094  1072  1071    2
  1095  1052  1045   ar
  1096  1045  1044    1
  1097   732   731    1
  1098  1417  1411   ar
  1099  1340  1342    1
  1100  1340  1338    1
  1101   731   726   ar
  1102   627   608    2
  1103   752   753   ar
  1104   752   755   ar
  1105   756   755   ar
  1106   723   724    1
  1107   728   727   ar
  1108  1071  1070   ar
  1109   753   754    1
  1110   726   727   ar
  1111   738   759    1
  1112   614   613    1
  1113  1392  1389   ar
  1114  1365  1372   ar
  1115  1365  1366   ar
  1116  1329  1328    2
  1117  1342  1344    1
  1118   606   585    2
  1119  1338  1336    1
  1120  1338  1339    1
  1121  1388  1389   ar
  1122  1388  1387   ar
  1123   626   608    1
  1124  1327  1328   ar
  1125  1327  1326   ar
  1126  1336  1337    1
  1127  1039  1044    1
  1128  1039  1038    1
  1129  1021  1035    1
  1130  1372  1371   ar
  1131  1068  1069   ar
  1132  1044  1042    1
  1133  1367  1366    2
  1134  1412  1411   ar
  1135  1412  1413   ar
  1136   245   226    2
  1137   233   234    1
  1138   233   231    1
  1139  1332  1321    1
  1140  1332  1326   ar
  1141  1320  1319    1
  1142  1319  1321    1
  1143  1319  1317    1
  1144   228   226    1
  1145   228   227    1
  1146  1411  1410   ar
  1147   226   244    1
  1148  1335  1353    1
  1149  1335  1337    1
  1150  1335  1318    1
  1151   608   610    1
  1152   608   591    1
  1153  1366  1368   ar
  1154   613   615    1
  1155   613   611    1
  1156  1328  1322   ar
  1157   607   585    1
  1158  1389  1390   ar
  1159  1387  1386   ar
  1160   229   227    1
  1161   229   231    1
  1162   583   562    2
  1163  1070  1069   ar
  1164  1070  1073   ar
  1165  1069  1075   ar
  1166  1321  1316    1
  1167  1037  1035    1
  1168  1037  1036    1
  1169   585   587    1
  1170   585   568    1
  1171   615   616    1
  1172   615   617    1
  1173   623   622    1
  1174  1326  1325   ar
  1175   610   609    1
  1176  1371  1369   ar
  1177  1413  1414    2
  1178  1413  1407   ar
  1179  1054  1035    2
  1180   231   232    1
  1181  1344  1339    1
  1182  1344  1345    1
  1183   622   621   ar
  1184   622   624   ar
  1185  1035  1053    1
  1186   621   619   ar
  1187  1410  1408   ar
  1188  1317  1318    1
  1189  1317  1315    1
  1190  1038  1036    1
  1191  1038  1040    1
  1192   624   625   ar
  1193  1368  1369   ar
  1194   263   262    2
  1195  1042  1043    1
  1196  1042  1040    1
  1197   619   620    2
  1198   619   618   ar
  1199   584   562    1
  1200  1073  1074   ar
  1201  1386  1385   ar
  1202  1390  1385   ar
  1203  1390  1391    1
  1204   591   590    1
  1205  1172  1171    1
  1206   587   586    1
  1207   625   618   ar
  1208   609   611    1
  1209  1094  1093    1
  1210   611   612    1
  1211   562   564    1
  1212   562   546    1
  1213   618   617    1
  1214  1369  1370    1
  1215  1322  1323   ar
  1216  1075  1074   ar
  1217  1075  1064    1
  1218   262   256   ar
  1219   262   261   ar
  1220  1088  1093   ar
  1221  1088  1089   ar
  1222  1347  1346    2
  1223   256   257   ar
  1224   568   567    1
  1225  1407  1408   ar
  1226   617   612    1
  1227  1195  1194    1
  1228  1408  1409    1
  1229  1345  1346   ar
  1230  1345  1352   ar
  1231  1316  1315    1
  1232  1040  1041    1
  1233  1325  1323   ar
  1234   261   264   ar
  1235   261   260   ar
  1236   257   258    1
  1237   257   259   ar
  1238   264   265   ar
  1239   586   588    1
  1240   590   588    1
  1241   590   592    1
  1242  1064  1059    1
  1243  1064  1062    1
  1244  1093  1092   ar
  1245   232   246    1
  1246  1346  1348   ar
  1247   564   563    1
  1248   260   259   ar
  1249   260   266   ar
  1250  1089  1090   ar
  1251  1059  1058    1
  1252  1315  1313    1
  1253  1323  1324    1
  1254   563   565    1
  1255   265   266   ar
  1256   560   540    2
  1257  1352  1351   ar
  1258  1171  1170   ar
  1259  1171  1173   ar
  1260   546   545    1
  1261   266   255    1
  1262   567   565    1
  1263   567   569    1
  1264   588   589    1
  1265  1194  1196   ar
  1266  1194  1193   ar
  1267   255   250    1
  1268   255   253    1
  1269   267   246    2
  1270   603   604   ar
  1271   603   600   ar
  1272   250   249    1
  1273  1348  1349   ar
  1274  1170  1176   ar
  1275   604   605   ar
  1276  1196  1197   ar
  1277  1173  1174   ar
  1278   592   593    1
  1279   592   594    1
  1280   565   566    1
  1281  1041  1055    1
  1282  1063  1062    1
  1283  1307  1306    2
  1284  1092  1091   ar
  1285  1092  1095   ar
  1286  1351  1349   ar
  1287  1062  1060    1
  1288   246   248    1
  1289   246   268    1
  1290  1135  1134    1
  1291   602   601    2
  1292  1313  1314    1
  1293  1090  1091   ar
  1294  1305  1306   ar
  1295  1305  1303   ar
  1296  1214  1213    1
  1297   600   601   ar
  1298   600   599   ar
  1299  1193  1199   ar
  1300  1304  1303    2
  1301  1349  1350    1
  1302  1058  1056    1
  1303  1058  1060    1
  1304  1191  1190    1
  1305   541   542    1
  1306   541   543    1
  1307   605   594    1
  1308   605   599   ar
  1309   540   542    1
  1310   540   561    1
  1311   540   524    1
  1312   601   595   ar
  1313   545   543    1
  1314   545   547    1
  1315  1152  1151    2
  1316   589   594    1
  1317   248   247    1
  1318   569   570    1
  1319   569   571    1
  1320  1306  1308   ar
  1321  1091  1097   ar
  1322  1303  1302   ar
  1323  1286  1285    1
  1324  1133  1134   ar
  1325  1133  1131   ar
  1326   599   598   ar
  1327  1056  1057    1
  1328  1197  1203   ar
  1329  1197  1198   ar
  1330  1192  1187    1
  1331  1192  1190    1
  1332  1192  1203    1
  1333  1210  1215    1
  1334  1210  1209    1
  1335  1153  1151   ar
  1336  1153  1154   ar
  1337  1095  1096   ar
  1338   284   283    1
  1339  1057  1055    1
  1340   254   253    1
  1341  1176  1177    2
  1342  1176  1175   ar
  1343   253   251    1
  1344  1280  1285   ar
  1345  1280  1281   ar
  1346  1215  1213    1
  1347  1215  1225    1
  1348   543   544    1
  1349  1174  1175   ar
  1350  1174  1180   ar
  1351   249   247    1
  1352   249   251    1
  1353  1134  1136   ar
  1354  1077  1055    2
  1355  1060  1061    1
  1356  1055  1076    1
  1357   566   571    1
  1358   595   596   ar
  1359  1314  1312    1
  1360  1155  1154    2
  1361   581   580   ar
  1362   581   582   ar
  1363  1151  1150   ar
  1364  1209  1207    1
  1365  1209  1211    1
  1366  1187  1186    1
  1367  1190  1188    1
  1368  1203  1202   ar
  1369  1199  1198   ar
  1370  1199  1200    2
  1371  1213  1211    1
  1372   283   282   ar
  1373   283   285   ar
  1374  1132  1131    2
  1375   598   596   ar
  1376   282   280   ar
  1377  1300  1299    1
  1378  1218  1217   ar
  1379  1218  1219   ar
  1380   580   577   ar
  1381  1285  1284   ar
  1382   524   523    1
  1383  1175  1178   ar
  1384  1264  1263    1
  1385   547   548    1
  1386   547   549    1
  1387   596   597    1
  1388  1198  1201   ar
  1389  1154  1156   ar
  1390   571   582    1
  1391  1131  1130   ar
  1392  1299  1301    1
  1393  1299  1297    1
  1394  1169  1180    1
  1395  1169  1167    1
  1396  1169  1164    1
  1397  1281  1282   ar
  1398  1308  1309   ar
  1399   582   576   ar
  1400  1302  1309   ar
  1401  1302  1301    1
  1402  1334  1312    2
  1403   251   252    1
  1404   285   286   ar
  1405  1168  1167    1
  1406  1097  1096   ar
  1407  1097  1087    1
  1408  1180  1179   ar
  1409   280   281    2
  1410   280   279   ar
  1411  1217  1216   ar
  1412  1225  1219   ar
  1413  1225  1224   ar
  1414  1207  1208    1
  1415  1086  1085    1
  1416  1219  1220   ar
  1417  1211  1212    1
  1418  1186  1188    1
  1419  1186  1184    1
  1420  1061  1078    1
  1421   577   576   ar
  1422   577   578   ar
  1423  1136  1137   ar
  1424  1212  1228    1
  1425   286   279   ar
  1426  1312  1298    1
  1427  1312  1333    1
  1428  1301  1296    1
  1429   279   278    1
  1430  1202  1201   ar
  1431   544   549    1
  1432  1167  1165    1
  1433   576   575   ar
  1434  1164  1163    1
  1435  1150  1149    1
  1436  1150  1157   ar
  1437  1232  1231    1
  1438  1232  1237    1
  1439  1229  1231    1
  1440  1229  1230    1
  1441   538   518    2
  1442  1085  1087    1
  1443  1085  1083    1
  1444  1231  1233    1
  1445  1188  1189    1
  1446   579   578    2
  1447  1298  1297    1
  1448   578   572   ar
  1449  1284  1283   ar
  1450  1284  1287   ar
  1451  1297  1295    1
  1452   549   559    1
  1453  1178  1179   ar
  1454  1130  1137   ar
  1455  1130  1129    1
  1456  1087  1082    1
  1457   523   521    1
  1458   523   525    1
  1459  1216  1221   ar
  1460  1224  1223   ar
  1461  1263  1258   ar
  1462  1263  1262   ar
  1463   273   278    1
  1464   273   272    1
  1465  1156  1157   ar
  1466   278   276    1
  1467  1149  1147    1
  1468  1149  1144    1
  1469  1282  1283   ar
  1470  1236  1235    1
  1471  1189  1206    1
  1472  1208  1206    1
  1473   252   269    1
  1474   575   573   ar
  1475  1220  1221   ar
  1476  1220  1223   ar
  1477  1237  1235    1
  1478  1237  1238    1
  1479   558   559   ar
  1480   558   557   ar
  1481  1098  1078    2
  1482  1184  1185    1
  1483  1258  1259   ar
  1484   324   323    1
  1485   559   553   ar
  1486   526   525    1
  1487   519   521    1
  1488   519   520    1
  1489  1246  1228    2
  1490  1283  1289   ar
  1491  1148  1147    1
  1492   572   573   ar
  1493   304   303    1
  1494  1078  1080    1
  1495  1078  1099    1
  1496  1221  1222    1
  1497  1230  1228    1
  1498   521   522    1
  1499  1228  1247    1
  1500  1287  1288   ar
  1501   573   574    1
  1502  1163  1165    1
  1503  1163  1161    1
  1504   525   527    1
  1505  1080  1079    1
  1506  1147  1145    1
  1507  1265  1262   ar
  1508  1265  1266   ar
  1509   557   554   ar
  1510  1296  1295    1
  1511   520   518    1
  1512  1129  1127    1
  1513  1129  1124    1
  1514  1262  1261   ar
  1515  1165  1166    1
  1516  1235  1233    1
  1517   518   539    1
  1518   518   501    1
  1519  1144  1143    1
  1520  1234  1233    1
  1521  1234  1248    1
  1522  1206  1226    2
  1523  1206  1227    1
  1524  1083  1084    1
  1525  1083  1081    1
  1526   553   554   ar
  1527   553   552   ar
  1528  1119  1100    2
  1529  1295  1293    1
  1530  1240  1239    2
  1531  1082  1081    1
  1532  1185  1183    1
  1533  1238  1239   ar
  1534  1238  1245   ar
  1535   272   270    1
  1536   272   274    1
  1537   554   555   ar
  1538   303   302   ar
  1539   303   305   ar
  1540   552   551   ar
  1541   322   323   ar
  1542   322   320   ar
  1543   276   277    1
  1544   276   274    1
  1545   270   271    1
  1546   271   269    1
  1547   302   300   ar
  1548   323   325   ar
  1549   288   269    2
  1550   269   287    1
  1551  1166  1183    1
  1552  1239  1241   ar
  1553  1127  1128    1
  1554  1127  1125    1
  1555  1259  1260   ar
  1556  1084  1100    1
  1557  1245  1244   ar
  1558  1124  1123    1
  1559  1289  1288   ar
  1560  1289  1279    1
  1561  1161  1162    1
  1562  1081  1079    1
  1563  1268  1248    2
  1564  1266  1267   ar
  1565   555   556    1
  1566   555   550   ar
  1567   305   306   ar
  1568   522   527    1
  1569   501   500    1
  1570   551   550   ar
  1571   527   537    1
  1572  1294  1293    1
  1573  1294  1292    1
  1574  1261  1260   ar
  1575  1261  1267   ar
  1576   274   275    1
  1577  1145  1143    1
  1578  1145  1146    1
  1579  1162  1160    1
  1580  1143  1141    1
  1581   300   301    2
  1582   300   299   ar
  1583  1100  1118    1
  1584  1100  1102    1
  1585  1248  1269    1
  1586  1248  1250    1
  1587  1183  1205    2
  1588  1183  1204    1
  1589   321   320    2
  1590   320   319   ar
  1591  1241  1242   ar
  1592  1244  1242   ar
  1593   537   536   ar
  1594   537   531   ar
  1595   325   326   ar
  1596  1277  1279    1
  1597  1277  1278    1
  1598  1277  1275    1
  1599   306   299   ar
  1600   536   535   ar
  1601  1311  1292    2
  1602  1279  1274    1
  1603  1267  1257    1
  1604  1125  1123    1
  1605  1125  1126    1
  1606   299   298    1
  1607  1146  1160    1
  1608  1139  1120    2
  1609  1123  1121    1
  1610  1250  1249    1
  1611  1242  1243    2
  1612  1102  1101    1
  1613   293   298    1
  1614   293   292    1
  1615  1122  1121    1
  1616  1122  1120    1
  1617  1142  1141    1
  1618  1142  1140    1
  1619  1101  1103    1
  1620   531   530   ar
  1621   531   532   ar
  1622   503   502    1
  1623   535   532   ar
  1624  1292  1276    1
  1625  1292  1310    1
  1626   500   502    1
  1627   500   498    1
  1628   530   529   ar
  1629   275   289    1
  1630  1160  1182    2
  1631  1160  1181    1
  1632   341   340    2
  1633  1275  1276    1
  1634  1275  1273    1
  1635   532   533   ar
  1636   298   296    1
  1637   319   326   ar
  1638   319   318    1
  1639   502   504    1
  1640   342   340   ar
  1641   342   343   ar
  1642   344   343    2
  1643  1120  1138    1
  1644  1120  1106    1
  1645   340   339   ar
  1646  1126  1140    1
  1647  1291  1270    2
  1648   529   528   ar
  1649  1274  1273    1
  1650  1159  1140    2
  1651   343   345   ar
  1652   292   290    1
  1653   292   294    1
  1654  1257  1252    1
  1655  1257  1255    1
  1656   533   528   ar
  1657   533   534    1
  1658  1140  1158    1
  1659   290   291    1
  1660   498   496    1
  1661   498   499    1
  1662  1249  1251    1
  1663   361   360    2
  1664   308   289    2
  1665  1272  1270    1
  1666  1272  1271    1
  1667  1252  1251    1
  1668  1253  1255    1
  1669  1253  1251    1
  1670  1253  1254    1
  1671   339   338    1
  1672   339   346   ar
  1673  1103  1105    1
  1674  1103  1104    1
  1675   291   289    1
  1676  1255  1256    1
  1677  1273  1271    1
  1678   496   497    1
  1679   289   307    1
  1680   338   333    1
  1681   338   336    1
  1682   345   346   ar
  1683   318   313    1
  1684   318   316    1
  1685   360   362   ar
  1686   360   359   ar
  1687  1270  1254    1
  1688  1270  1290    1
  1689   497   495    1
  1690   296   294    1
  1691   296   297    1
  1692  1105  1106    1
  1693  1105  1107    1
  1694   362   363   ar
  1695   504   499    1
  1696   504   515    1
  1697   333   332    1
  1698   358   359    1
  1699   358   353    1
  1700   358   356    1
  1701  1104  1109    1
  1702   294   295    1
  1703   337   336    1
  1704   359   366   ar
  1705   516   495    2
  1706   508   506   ar
  1707   508   509   ar
  1708   507   506    1
  1709   313   312    1
  1710   353   352    1
  1711   316   317    1
  1712   316   314    1
  1713   515   509   ar
  1714   515   514   ar
  1715   295   309    1
  1716   363   364    2
  1717   363   365   ar
  1718   336   334    1
  1719   357   356    1
  1720   506   505   ar
  1721   509   510   ar
  1722   495   517    1
  1723   495   481    1
  1724   366   365   ar
  1725   381   380    2
  1726   514   513   ar
  1727  1117  1116   ar
  1728  1117  1110   ar
  1729   356   354    1
  1730   505   511   ar
  1731   510   513   ar
  1732   510   511   ar
  1733   332   334    1
  1734   332   330    1
  1735  1107  1109    1
  1736  1107  1108    1
  1737  1109  1110    1
  1738  1116  1114   ar
  1739   380   382   ar
  1740   380   379   ar
  1741   352   354    1
  1742   352   350    1
  1743   314   312    1
  1744   314   315    1
  1745   378   373    1
  1746   378   379    1
  1747   378   376    1
  1748   511   512    2
  1749   373   372    1
  1750   312   310    1
  1751   311   309    1
  1752   311   310    1
  1753   334   335    1
  1754   382   383   ar
  1755  1110  1111   ar
  1756   379   386   ar
  1757   377   376    1
  1758   309   327    2
  1759   309   328    1
  1760   481   480    1
  1761   330   331    1
  1762   354   355    1
  1763   350   351    1
  1764   331   329    1
  1765   383   384    1
  1766   383   385   ar
  1767   376   374    1
  1768   386   385   ar
  1769   372   370    1
  1770   372   374    1
  1771   315   329    1
  1772   335   349    1
  1773   351   349    1
  1774  1114  1115    2
  1775  1114  1113   ar
  1776   483   482    1
  1777   480   482    1
  1778   480   478    1
  1779   482   484    1
  1780   355   369    1
  1781  1111  1113   ar
  1782  1111  1112    2
  1783   370   371    1
  1784   348   329    2
  1785   329   347    1
  1786   404   403    2
  1787   374   375    1
  1788   349   368    2
  1789   349   367    1
  1790   371   369    1
  1791   487   486    2
  1792   403   405   ar
  1793   403   402   ar
  1794   486   488   ar
  1795   486   485   ar
  1796   375   389    1
  1797   369   388    2
  1798   369   387    1
  1799   405   406   ar
  1800   478   476    1
  1801   478   479    1
  1802   488   489   ar
  1803   484   485    1
  1804   484   479    1
  1805   485   492   ar
  1806   402   400   ar
  1807   489   490    2
  1808   489   491   ar
  1809   476   477    1
  1810   492   491   ar
  1811   477   475    1
  1812   406   399   ar
  1813   400   399   ar
  1814   400   401    2
  1815   407   389    2
  1816   389   391    1
  1817   389   408    1
  1818   493   475    2
  1819   494   475    1
  1820   399   398    1
  1821   475   458    1
  1822   391   390    1
  1823   464   463    1
  1824   462   463   ar
  1825   462   468   ar
  1826   396   398    1
  1827   396   394    1
  1828   396   397    1
  1829   469   468    2
  1830   398   393    1
  1831   463   465   ar
  1832   468   467   ar
  1833   394   392    1
  1834   394   395    1
  1835   393   392    1
  1836   458   457    1
  1837   390   392    1
  1838   465   466   ar
  1839   467   466   ar
  1840   467   470   ar
  1841   457   459    1
  1842   457   455    1
  1843   459   460    1
  1844   459   461    1
  1845   466   472   ar
  1846   395   409    1
  1847   474   452    2
  1848   470   471   ar
  1849   472   471   ar
  1850   472   461    1
  1851   473   452    1
  1852   454   452    1
  1853   454   453    1
  1854   452   438    1
  1855   461   456    1
  1856   451   432    2
  1857   455   453    1
  1858   455   456    1
  1859   409   431    2
  1860   409   430    1
  1861   409   411    1
  1862   450   432    1
  1863   432   434    1
  1864   432   415    1
  1865   411   410    1
  1866   447   446    1
  1867   438   437    1
  1868   434   433    1
  1869   448   446   ar
  1870   448   449   ar
  1871   446   445   ar
  1872   437   439    1
  1873   437   435    1
  1874   410   412    1
  1875   415   414    1
  1876   449   442   ar
  1877   445   443   ar
  1878   439   440    1
  1879   439   441    1
  1880   433   435    1
  1881   414   412    1
  1882   414   416    1
  1883   442   443   ar
  1884   442   441    1
  1885   435   436    1
  1886   412   413    1
  1887   443   444    2
  1888   427   428   ar
  1889   427   424   ar
  1890   426   425    2
  1891   428   429   ar
  1892   441   436    1
  1893   424   425   ar
  1894   424   423   ar
  1895   425   419   ar
  1896   416   418    1
  1897   416   417    1
  1898   413   418    1
  1899   429   423   ar
  1900   429   418    1
  1901   423   422   ar
  1902   419   420   ar
  1903   420   422   ar
  1904   420   421    1
