ligand
 OpenBabel02271912153D
libRbt.so/2013.1/901 2013/11/27
 27 29  0  0  0  0  0  0  0  0999 V2000
   13.6930   -3.8699   10.4184 N   0  0  0  0  0  0  0  0  0  0  0  0
   13.8518   -4.9313   11.4601 C   0  0  2  0  0  0  0  0  0  0  0  0
   15.0790   -4.6517   12.3559 C   0  0  0  0  0  0  0  0  0  0  0  0
   15.8253   -5.5660   12.7188 O   0  0  0  0  0  0  0  0  0  0  0  0
   13.9342   -6.2962   10.7849 C   0  0  0  0  0  0  0  0  0  0  0  0
   12.5911   -6.8826   10.3832 C   0  0  0  0  0  0  0  0  0  0  0  0
   12.7277   -8.5010    9.5714 S   0  0  2  0  0  0  0  0  0  0  0  0
   13.4806   -9.4823   10.9003 C   0  0  0  0  0  0  0  0  0  0  0  0
   14.0771   -8.3677    8.3877 C   0  0  0  0  0  0  0  0  0  0  0  0
   13.5375   -7.8123    7.0835 C   0  0  1  0  0  0  0  0  0  0  0  0
   12.8722   -6.5704    7.2547 O   0  0  0  0  0  0  0  0  0  0  0  0
   14.6422   -7.5883    6.0798 C   0  0  1  0  0  0  0  0  0  0  0  0
   14.9262   -8.7617    5.3733 O   0  0  0  0  0  0  0  0  0  0  0  0
   14.0295   -6.5390    5.2029 C   0  0  1  0  0  0  0  0  0  0  0  0
   13.2688   -7.1677    4.1889 O   0  0  0  0  0  0  0  0  0  0  0  0
   13.1223   -5.7492    6.1375 C   0  0  2  0  0  0  0  0  0  0  0  0
   15.3662   -3.5076   12.7532 O   0  0  0  0  0  0  0  0  0  0  0  0
   17.5226   -3.1067    7.3677 N   0  0  0  0  0  0  0  0  0  0  0  0
   17.4092   -4.4278    6.9596 C   0  0  0  0  0  0  0  0  0  0  0  0
   16.1662   -4.9851    6.6842 N   0  0  0  0  0  0  0  0  0  0  0  0
   15.0631   -4.2233    6.7984 C   0  0  0  0  0  0  0  0  0  0  0  0
   15.1660   -2.8867    7.1940 C   0  0  0  0  0  0  0  0  0  0  0  0
   16.3940   -2.3252    7.4917 C   0  0  0  0  0  0  0  0  0  0  0  0
   16.4853   -1.0611    7.8768 N   0  0  0  0  0  0  0  0  0  0  0  0
   13.9355   -2.3627    7.2124 N   0  0  0  0  0  0  0  0  0  0  0  0
   13.0617   -3.3234    6.8390 C   0  0  0  0  0  0  0  0  0  0  0  0
   13.7440   -4.4845    6.5732 N   0  0  0  0  0  0  0  0  0  0  0  0
  2  1  1  6  0  0  0
  2  3  1  0  0  0  0
  2  5  1  0  0  0  0
  3  4  1  0  0  0  0
  3 17  1  0  0  0  0
  5  6  1  0  0  0  0
  7  6  1  1  0  0  0
  7  8  1  0  0  0  0
  7  9  1  0  0  0  0
 10  9  1  1  0  0  0
 10 11  1  0  0  0  0
 10 12  1  0  0  0  0
 11 16  1  0  0  0  0
 12 13  1  6  0  0  0
 12 14  1  0  0  0  0
 14 15  1  6  0  0  0
 14 16  1  0  0  0  0
 16 27  1  1  0  0  0
 18 19  2  0  0  0  0
 18 23  1  0  0  0  0
 19 20  1  0  0  0  0
 20 21  2  0  0  0  0
 21 22  1  0  0  0  0
 21 27  1  0  0  0  0
 22 23  2  0  0  0  0
 22 25  1  0  0  0  0
 23 24  1  0  0  0  0
 25 26  2  0  0  0  0
 26 27  1  0  0  0  0
M  END
>  <CHROM.1>
-139.61163874,-80.47506838,179.55935892,61.90511133,-86.11055201,55.78650790
85.42267126,14.41287470,-5.60432896,8.32147167,0.51202884,1.15117397,1.52379773

>  <Name>
ligand

>  <RI>
0

>  <Rbt.Current_Directory>
/home/itssahil/PROJECTS/Mol_Feturizer/Test_systems_manuscript/rnas/2ydh

>  <Rbt.Executable>
rbdock ($Id: //depot/dev/client3/rdock/2013.1/src/exe/rbdock.cxx#4 $)

>  <Rbt.Library>
libRbt.so (2013.1, Build901 2013/11/27)

>  <Rbt.Parameter_File>
/export/apps/rDock/src/rDock_2013.1_src/data/scripts/dock_solv.prm

>  <Rbt.Receptor>
prm/pocket_docking_2.prm

>  <SCORE>
-16.9791

>  <SCORE.INTER>
-16.9013

>  <SCORE.INTER.CONST>
1

>  <SCORE.INTER.POLAR>
0

>  <SCORE.INTER.ROT>
7

>  <SCORE.INTER.SOLV>
20.7649

>  <SCORE.INTER.VDW>
-26.4558

>  <SCORE.INTER.norm>
-0.625974

>  <SCORE.INTRA>
-0.0777641

>  <SCORE.INTRA.DIHEDRAL>
-3.93452

>  <SCORE.INTRA.DIHEDRAL.0>
9.75037

>  <SCORE.INTRA.POLAR>
0

>  <SCORE.INTRA.POLAR.0>
0

>  <SCORE.INTRA.REPUL>
0

>  <SCORE.INTRA.REPUL.0>
0

>  <SCORE.INTRA.SOLV>
-0.0479993

>  <SCORE.INTRA.SOLV.lig_0>
-48.4279

>  <SCORE.INTRA.VDW>
1.91349

>  <SCORE.INTRA.VDW.0>
-4.69037

>  <SCORE.INTRA.norm>
-0.00288015

>  <SCORE.RESTR>
0

>  <SCORE.RESTR.CAVITY>
0

>  <SCORE.RESTR.norm>
0

>  <SCORE.SYSTEM>
0

>  <SCORE.SYSTEM.CONST>
0

>  <SCORE.SYSTEM.DIHEDRAL>
0

>  <SCORE.SYSTEM.SOLV>
0

>  <SCORE.SYSTEM.norm>
0

>  <SCORE.heavy>
27

>  <SCORE.norm>
-0.628854

>  <RMSD>
0.657

$$$$
ligand
 OpenBabel02271912153D
libRbt.so/2013.1/901 2013/11/27
 27 29  0  0  0  0  0  0  0  0999 V2000
   13.4913   -4.3274   10.9442 N   0  0  0  0  0  0  0  0  0  0  0  0
   14.2122   -5.2199   11.9036 C   0  0  2  0  0  0  0  0  0  0  0  0
   15.6760   -4.7642   12.0940 C   0  0  0  0  0  0  0  0  0  0  0  0
   16.5345   -5.5398   12.5254 O   0  0  0  0  0  0  0  0  0  0  0  0
   14.1196   -6.6635   11.4208 C   0  0  0  0  0  0  0  0  0  0  0  0
   12.7927   -7.0286   10.7765 C   0  0  0  0  0  0  0  0  0  0  0  0
   12.8947   -8.4859    9.6982 S   0  0  2  0  0  0  0  0  0  0  0  0
   13.7360   -9.6605   10.7973 C   0  0  0  0  0  0  0  0  0  0  0  0
   14.1683   -8.1310    8.4768 C   0  0  0  0  0  0  0  0  0  0  0  0
   13.5057   -7.6930    7.1846 C   0  0  1  0  0  0  0  0  0  0  0  0
   12.8314   -6.4507    7.3126 O   0  0  0  0  0  0  0  0  0  0  0  0
   14.5139   -7.5372    6.0723 C   0  0  1  0  0  0  0  0  0  0  0  0
   14.7605   -8.7609    5.4412 O   0  0  0  0  0  0  0  0  0  0  0  0
   13.8052   -6.5729    5.1708 C   0  0  1  0  0  0  0  0  0  0  0  0
   12.9727   -7.2940    4.2823 O   0  0  0  0  0  0  0  0  0  0  0  0
   12.9659   -5.7214    6.1147 C   0  0  2  0  0  0  0  0  0  0  0  0
   16.0528   -3.6076   11.8301 O   0  0  0  0  0  0  0  0  0  0  0  0
   17.1426   -3.0523    7.9286 N   0  0  0  0  0  0  0  0  0  0  0  0
   16.9811   -4.4279    7.8480 C   0  0  0  0  0  0  0  0  0  0  0  0
   15.8051   -4.9804    7.3548 N   0  0  0  0  0  0  0  0  0  0  0  0
   14.8208   -4.1656    6.9337 C   0  0  0  0  0  0  0  0  0  0  0  0
   14.9778   -2.7781    6.9957 C   0  0  0  0  0  0  0  0  0  0  0  0
   16.1338   -2.2147    7.5038 C   0  0  0  0  0  0  0  0  0  0  0  0
   16.2735   -0.8992    7.5707 N   0  0  0  0  0  0  0  0  0  0  0  0
   13.8689   -2.2119    6.5069 N   0  0  0  0  0  0  0  0  0  0  0  0
   13.0202   -3.1961    6.1366 C   0  0  0  0  0  0  0  0  0  0  0  0
   13.5960   -4.4162    6.3896 N   0  0  0  0  0  0  0  0  0  0  0  0
  2  1  1  6  0  0  0
  2  3  1  0  0  0  0
  2  5  1  0  0  0  0
  3  4  1  0  0  0  0
  3 17  1  0  0  0  0
  5  6  1  0  0  0  0
  7  6  1  1  0  0  0
  7  8  1  0  0  0  0
  7  9  1  0  0  0  0
 10  9  1  1  0  0  0
 10 11  1  0  0  0  0
 10 12  1  0  0  0  0
 11 16  1  0  0  0  0
 12 13  1  6  0  0  0
 12 14  1  0  0  0  0
 14 15  1  6  0  0  0
 14 16  1  0  0  0  0
 16 27  1  1  0  0  0
 18 19  2  0  0  0  0
 18 23  1  0  0  0  0
 19 20  1  0  0  0  0
 20 21  2  0  0  0  0
 21 22  1  0  0  0  0
 21 27  1  0  0  0  0
 22 23  2  0  0  0  0
 22 25  1  0  0  0  0
 23 24  1  0  0  0  0
 25 26  2  0  0  0  0
 26 27  1  0  0  0  0
M  END
>  <CHROM.1>
-159.48932942,-36.76659688,159.01289989,50.05250870,-99.97359853,66.38983446
59.91081207,14.41773054,-5.61895469,8.36366563,-2.28582426,-1.15345074,-1.19646074

>  <Name>
ligand

>  <RI>
0

>  <Rbt.Current_Directory>
/home/itssahil/PROJECTS/Mol_Feturizer/Test_systems_manuscript/rnas/2ydh

>  <Rbt.Executable>
rbdock ($Id: //depot/dev/client3/rdock/2013.1/src/exe/rbdock.cxx#4 $)

>  <Rbt.Library>
libRbt.so (2013.1, Build901 2013/11/27)

>  <Rbt.Parameter_File>
/export/apps/rDock/src/rDock_2013.1_src/data/scripts/dock_solv.prm

>  <Rbt.Receptor>
prm/pocket_docking_2.prm

>  <SCORE>
-12.0159

>  <SCORE.INTER>
-13.9884

>  <SCORE.INTER.CONST>
1

>  <SCORE.INTER.POLAR>
0

>  <SCORE.INTER.ROT>
7

>  <SCORE.INTER.SOLV>
21.1598

>  <SCORE.INTER.VDW>
-24.6455

>  <SCORE.INTER.norm>
-0.518088

>  <SCORE.INTRA>
1.9725

>  <SCORE.INTRA.DIHEDRAL>
-0.686523

>  <SCORE.INTRA.DIHEDRAL.0>
9.75037

>  <SCORE.INTRA.POLAR>
0

>  <SCORE.INTRA.POLAR.0>
0

>  <SCORE.INTRA.REPUL>
0

>  <SCORE.INTRA.REPUL.0>
0

>  <SCORE.INTRA.SOLV>
-0.315675

>  <SCORE.INTRA.SOLV.lig_0>
-48.4279

>  <SCORE.INTRA.VDW>
2.4736

>  <SCORE.INTRA.VDW.0>
-4.69037

>  <SCORE.INTRA.norm>
0.0730557

>  <SCORE.RESTR>
0

>  <SCORE.RESTR.CAVITY>
0

>  <SCORE.RESTR.norm>
0

>  <SCORE.SYSTEM>
0

>  <SCORE.SYSTEM.CONST>
0

>  <SCORE.SYSTEM.DIHEDRAL>
0

>  <SCORE.SYSTEM.SOLV>
0

>  <SCORE.SYSTEM.norm>
0

>  <SCORE.heavy>
27

>  <SCORE.norm>
-0.445032

>  <RMSD>
0.694

$$$$
ligand
 OpenBabel02271912153D
libRbt.so/2013.1/901 2013/11/27
 27 29  0  0  0  0  0  0  0  0999 V2000
   14.2132   -3.3485   10.3754 N   0  0  0  0  0  0  0  0  0  0  0  0
   13.7492   -4.5269   11.1708 C   0  0  2  0  0  0  0  0  0  0  0  0
   14.8313   -4.9801   12.1759 C   0  0  0  0  0  0  0  0  0  0  0  0
   14.5243   -5.4293   13.2843 O   0  0  0  0  0  0  0  0  0  0  0  0
   13.3414   -5.6498   10.2229 C   0  0  0  0  0  0  0  0  0  0  0  0
   12.9456   -6.9445   10.9130 C   0  0  0  0  0  0  0  0  0  0  0  0
   12.6378   -8.3100    9.7565 S   0  0  2  0  0  0  0  0  0  0  0  0
   13.0608   -9.7357   10.7978 C   0  0  0  0  0  0  0  0  0  0  0  0
   13.9919   -8.2918    8.5708 C   0  0  0  0  0  0  0  0  0  0  0  0
   13.4859   -7.7417    7.2510 C   0  0  1  0  0  0  0  0  0  0  0  0
   12.8553   -6.4783    7.3940 O   0  0  0  0  0  0  0  0  0  0  0  0
   14.6096   -7.5661    6.2589 C   0  0  1  0  0  0  0  0  0  0  0  0
   14.8681   -8.7584    5.5746 O   0  0  0  0  0  0  0  0  0  0  0  0
   14.0396   -6.5135    5.3577 C   0  0  1  0  0  0  0  0  0  0  0  0
   13.2738   -7.1357    4.3434 O   0  0  0  0  0  0  0  0  0  0  0  0
   13.1439   -5.6827    6.2676 C   0  0  2  0  0  0  0  0  0  0  0  0
   16.0477   -4.9095   11.9212 O   0  0  0  0  0  0  0  0  0  0  0  0
   17.6203   -3.0994    7.3387 N   0  0  0  0  0  0  0  0  0  0  0  0
   17.4757   -4.4138    6.9191 C   0  0  0  0  0  0  0  0  0  0  0  0
   16.2164   -4.9554    6.6910 N   0  0  0  0  0  0  0  0  0  0  0  0
   15.1271   -4.1845    6.8627 C   0  0  0  0  0  0  0  0  0  0  0  0
   15.2608   -2.8543    7.2705 C   0  0  0  0  0  0  0  0  0  0  0  0
   16.5062   -2.3087    7.5216 C   0  0  0  0  0  0  0  0  0  0  0  0
   16.6271   -1.0507    7.9184 N   0  0  0  0  0  0  0  0  0  0  0  0
   14.0377   -2.3186    7.3491 N   0  0  0  0  0  0  0  0  0  0  0  0
   13.1386   -3.2658    7.0018 C   0  0  0  0  0  0  0  0  0  0  0  0
   13.7969   -4.4299    6.6919 N   0  0  0  0  0  0  0  0  0  0  0  0
  2  1  1  6  0  0  0
  2  3  1  0  0  0  0
  2  5  1  0  0  0  0
  3  4  1  0  0  0  0
  3 17  1  0  0  0  0
  5  6  1  0  0  0  0
  7  6  1  1  0  0  0
  7  8  1  0  0  0  0
  7  9  1  0  0  0  0
 10  9  1  1  0  0  0
 10 11  1  0  0  0  0
 10 12  1  0  0  0  0
 11 16  1  0  0  0  0
 12 13  1  6  0  0  0
 12 14  1  0  0  0  0
 14 15  1  6  0  0  0
 14 16  1  0  0  0  0
 16 27  1  1  0  0  0
 18 19  2  0  0  0  0
 18 23  1  0  0  0  0
 19 20  1  0  0  0  0
 20 21  2  0  0  0  0
 21 22  1  0  0  0  0
 21 27  1  0  0  0  0
 22 23  2  0  0  0  0
 22 25  1  0  0  0  0
 23 24  1  0  0  0  0
 25 26  2  0  0  0  0
 26 27  1  0  0  0  0
M  END
>  <CHROM.1>
145.12002971,175.71937455,-173.84667546,151.81516215,-105.70196331,53.72635541
89.22855307,14.38400236,-5.58291270,8.37071851,-0.33724486,1.12201803,1.43257224

>  <Name>
ligand

>  <RI>
0

>  <Rbt.Current_Directory>
/home/itssahil/PROJECTS/Mol_Feturizer/Test_systems_manuscript/rnas/2ydh

>  <Rbt.Executable>
rbdock ($Id: //depot/dev/client3/rdock/2013.1/src/exe/rbdock.cxx#4 $)

>  <Rbt.Library>
libRbt.so (2013.1, Build901 2013/11/27)

>  <Rbt.Parameter_File>
/export/apps/rDock/src/rDock_2013.1_src/data/scripts/dock_solv.prm

>  <Rbt.Receptor>
prm/pocket_docking_2.prm

>  <SCORE>
-16.4733

>  <SCORE.INTER>
-16.5141

>  <SCORE.INTER.CONST>
1

>  <SCORE.INTER.POLAR>
0

>  <SCORE.INTER.ROT>
7

>  <SCORE.INTER.SOLV>
20.6378

>  <SCORE.INTER.VDW>
-26.1554

>  <SCORE.INTER.norm>
-0.611634

>  <SCORE.INTRA>
0.0407805

>  <SCORE.INTRA.DIHEDRAL>
-1.96096

>  <SCORE.INTRA.DIHEDRAL.0>
9.75037

>  <SCORE.INTRA.POLAR>
0

>  <SCORE.INTRA.POLAR.0>
0

>  <SCORE.INTRA.REPUL>
0

>  <SCORE.INTRA.REPUL.0>
0

>  <SCORE.INTRA.SOLV>
0.598174

>  <SCORE.INTRA.SOLV.lig_0>
-48.4279

>  <SCORE.INTRA.VDW>
0.722175

>  <SCORE.INTRA.VDW.0>
-4.69037

>  <SCORE.INTRA.norm>
0.00151039

>  <SCORE.RESTR>
0

>  <SCORE.RESTR.CAVITY>
0

>  <SCORE.RESTR.norm>
0

>  <SCORE.SYSTEM>
0

>  <SCORE.SYSTEM.CONST>
0

>  <SCORE.SYSTEM.DIHEDRAL>
0

>  <SCORE.SYSTEM.SOLV>
0

>  <SCORE.SYSTEM.norm>
0

>  <SCORE.heavy>
27

>  <SCORE.norm>
-0.610123

>  <RMSD>
0.697

$$$$
ligand
 OpenBabel02271912153D
libRbt.so/2013.1/901 2013/11/27
 27 29  0  0  0  0  0  0  0  0999 V2000
   13.4729   -4.2802   10.2615 N   0  0  0  0  0  0  0  0  0  0  0  0
   13.5144   -5.1044   11.5087 C   0  0  2  0  0  0  0  0  0  0  0  0
   14.6908   -4.6807   12.4161 C   0  0  0  0  0  0  0  0  0  0  0  0
   15.1777   -3.5485   12.3420 O   0  0  0  0  0  0  0  0  0  0  0  0
   13.5800   -6.5822   11.1381 C   0  0  0  0  0  0  0  0  0  0  0  0
   12.3447   -7.1090   10.4270 C   0  0  0  0  0  0  0  0  0  0  0  0
   12.6347   -8.6682    9.5429 S   0  0  2  0  0  0  0  0  0  0  0  0
   13.3922   -9.6653   10.8573 C   0  0  0  0  0  0  0  0  0  0  0  0
   14.0255   -8.3789    8.4375 C   0  0  0  0  0  0  0  0  0  0  0  0
   13.5086   -7.8040    7.1326 C   0  0  1  0  0  0  0  0  0  0  0  0
   12.8455   -6.5618    7.3100 O   0  0  0  0  0  0  0  0  0  0  0  0
   14.6297   -7.5712    6.1493 C   0  0  1  0  0  0  0  0  0  0  0  0
   14.9202   -8.7363    5.4318 O   0  0  0  0  0  0  0  0  0  0  0  0
   14.0349   -6.5080    5.2771 C   0  0  1  0  0  0  0  0  0  0  0  0
   13.2877   -7.1201    4.2430 O   0  0  0  0  0  0  0  0  0  0  0  0
   13.1162   -5.7270    6.2078 C   0  0  2  0  0  0  0  0  0  0  0  0
   15.1999   -5.4524   13.2496 O   0  0  0  0  0  0  0  0  0  0  0  0
   17.5259   -3.0338    7.2849 N   0  0  0  0  0  0  0  0  0  0  0  0
   17.4165   -4.3339    6.8132 C   0  0  0  0  0  0  0  0  0  0  0  0
   16.1712   -4.9097    6.5911 N   0  0  0  0  0  0  0  0  0  0  0  0
   15.0606   -4.1857    6.8205 C   0  0  0  0  0  0  0  0  0  0  0  0
   15.1584   -2.8698    7.2813 C   0  0  0  0  0  0  0  0  0  0  0  0
   16.3901   -2.2914    7.5268 C   0  0  0  0  0  0  0  0  0  0  0  0
   16.4773   -1.0475    7.9739 N   0  0  0  0  0  0  0  0  0  0  0  0
   13.9199   -2.3815    7.4108 N   0  0  0  0  0  0  0  0  0  0  0  0
   13.0457   -3.3446    7.0442 C   0  0  0  0  0  0  0  0  0  0  0  0
   13.7359   -4.4707    6.6700 N   0  0  0  0  0  0  0  0  0  0  0  0
  2  1  1  6  0  0  0
  2  3  1  0  0  0  0
  2  5  1  0  0  0  0
  3  4  1  0  0  0  0
  3 17  1  0  0  0  0
  5  6  1  0  0  0  0
  7  6  1  1  0  0  0
  7  8  1  0  0  0  0
  7  9  1  0  0  0  0
 10  9  1  1  0  0  0
 10 11  1  0  0  0  0
 10 12  1  0  0  0  0
 11 16  1  0  0  0  0
 12 13  1  6  0  0  0
 12 14  1  0  0  0  0
 14 15  1  6  0  0  0
 14 16  1  0  0  0  0
 16 27  1  1  0  0  0
 18 19  2  0  0  0  0
 18 23  1  0  0  0  0
 19 20  1  0  0  0  0
 20 21  2  0  0  0  0
 21 22  1  0  0  0  0
 21 27  1  0  0  0  0
 22 23  2  0  0  0  0
 22 25  1  0  0  0  0
 23 24  1  0  0  0  0
 25 26  2  0  0  0  0
 26 27  1  0  0  0  0
M  END
>  <CHROM.1>
23.91797028,-65.21995037,161.66672457,51.55110407,-86.60218668,61.09413095
91.00242675,14.31043636,-5.64579087,8.36595594,-2.80619056,-1.14249422,-1.74916324

>  <Name>
ligand

>  <RI>
0

>  <Rbt.Current_Directory>
/home/itssahil/PROJECTS/Mol_Feturizer/Test_systems_manuscript/rnas/2ydh

>  <Rbt.Executable>
rbdock ($Id: //depot/dev/client3/rdock/2013.1/src/exe/rbdock.cxx#4 $)

>  <Rbt.Library>
libRbt.so (2013.1, Build901 2013/11/27)

>  <Rbt.Parameter_File>
/export/apps/rDock/src/rDock_2013.1_src/data/scripts/dock_solv.prm

>  <Rbt.Receptor>
prm/pocket_docking_3.prm

>  <SCORE>
-17.6905

>  <SCORE.INTER>
-18.168

>  <SCORE.INTER.CONST>
1

>  <SCORE.INTER.POLAR>
0

>  <SCORE.INTER.ROT>
7

>  <SCORE.INTER.SOLV>
19.4707

>  <SCORE.INTER.VDW>
-26.8689

>  <SCORE.INTER.norm>
-0.672888

>  <SCORE.INTRA>
0.467645

>  <SCORE.INTRA.DIHEDRAL>
-4.40354

>  <SCORE.INTRA.DIHEDRAL.0>
9.75037

>  <SCORE.INTRA.POLAR>
0

>  <SCORE.INTRA.POLAR.0>
0

>  <SCORE.INTRA.REPUL>
0

>  <SCORE.INTRA.REPUL.0>
0

>  <SCORE.INTRA.SOLV>
1.13202

>  <SCORE.INTRA.SOLV.lig_0>
-48.4279

>  <SCORE.INTRA.VDW>
2.1034

>  <SCORE.INTRA.VDW.0>
-4.69037

>  <SCORE.INTRA.norm>
0.0173202

>  <SCORE.RESTR>
0.00979526

>  <SCORE.RESTR.CAVITY>
0.00979526

>  <SCORE.RESTR.norm>
0.000362787

>  <SCORE.SYSTEM>
0

>  <SCORE.SYSTEM.CONST>
0

>  <SCORE.SYSTEM.DIHEDRAL>
0

>  <SCORE.SYSTEM.SOLV>
0

>  <SCORE.SYSTEM.norm>
0

>  <SCORE.heavy>
27

>  <SCORE.norm>
-0.655205

>  <RMSD>
0.728

$$$$
ligand
 OpenBabel02271912153D
libRbt.so/2013.1/901 2013/11/27
 27 29  0  0  0  0  0  0  0  0999 V2000
   14.5944   -3.3812   10.7151 N   0  0  0  0  0  0  0  0  0  0  0  0
   13.9436   -4.5161   11.4397 C   0  0  2  0  0  0  0  0  0  0  0  0
   14.8546   -5.0514   12.5667 C   0  0  0  0  0  0  0  0  0  0  0  0
   16.0782   -4.8896   12.5288 O   0  0  0  0  0  0  0  0  0  0  0  0
   13.5666   -5.6056   10.4415 C   0  0  0  0  0  0  0  0  0  0  0  0
   13.1628   -6.9272   11.0738 C   0  0  0  0  0  0  0  0  0  0  0  0
   12.6352   -8.1719    9.8617 S   0  0  2  0  0  0  0  0  0  0  0  0
   12.8583   -9.6952   10.8237 C   0  0  0  0  0  0  0  0  0  0  0  0
   13.9566   -8.2947    8.6457 C   0  0  0  0  0  0  0  0  0  0  0  0
   13.4580   -7.7573    7.3178 C   0  0  1  0  0  0  0  0  0  0  0  0
   12.8304   -6.4907    7.4445 O   0  0  0  0  0  0  0  0  0  0  0  0
   14.5866   -7.5955    6.3289 C   0  0  1  0  0  0  0  0  0  0  0  0
   14.8448   -8.7957    5.6586 O   0  0  0  0  0  0  0  0  0  0  0  0
   14.0236   -6.5510    5.4140 C   0  0  1  0  0  0  0  0  0  0  0  0
   13.2606   -7.1819    4.4030 O   0  0  0  0  0  0  0  0  0  0  0  0
   13.1263   -5.7080    6.3110 C   0  0  2  0  0  0  0  0  0  0  0  0
   14.4046   -5.6675   13.5503 O   0  0  0  0  0  0  0  0  0  0  0  0
   17.6111   -3.0848    7.2403 N   0  0  0  0  0  0  0  0  0  0  0  0
   17.4654   -4.3959    6.8110 C   0  0  0  0  0  0  0  0  0  0  0  0
   16.2043   -4.9496    6.6249 N   0  0  0  0  0  0  0  0  0  0  0  0
   15.1138   -4.1936    6.8475 C   0  0  0  0  0  0  0  0  0  0  0  0
   15.2481   -2.8667    7.2656 C   0  0  0  0  0  0  0  0  0  0  0  0
   16.4960   -2.3094    7.4752 C   0  0  0  0  0  0  0  0  0  0  0  0
   16.6179   -1.0547    7.8820 N   0  0  0  0  0  0  0  0  0  0  0  0
   14.0230   -2.3463    7.3974 N   0  0  0  0  0  0  0  0  0  0  0  0
   13.1220   -3.3000    7.0736 C   0  0  0  0  0  0  0  0  0  0  0  0
   13.7809   -4.4526    6.7248 N   0  0  0  0  0  0  0  0  0  0  0  0
  2  1  1  6  0  0  0
  2  3  1  0  0  0  0
  2  5  1  0  0  0  0
  3  4  1  0  0  0  0
  3 17  1  0  0  0  0
  5  6  1  0  0  0  0
  7  6  1  1  0  0  0
  7  8  1  0  0  0  0
  7  9  1  0  0  0  0
 10  9  1  1  0  0  0
 10 11  1  0  0  0  0
 10 12  1  0  0  0  0
 11 16  1  0  0  0  0
 12 13  1  6  0  0  0
 12 14  1  0  0  0  0
 14 15  1  6  0  0  0
 14 16  1  0  0  0  0
 16 27  1  1  0  0  0
 18 19  2  0  0  0  0
 18 23  1  0  0  0  0
 19 20  1  0  0  0  0
 20 21  2  0  0  0  0
 21 22  1  0  0  0  0
 21 27  1  0  0  0  0
 22 23  2  0  0  0  0
 22 25  1  0  0  0  0
 23 24  1  0  0  0  0
 25 26  2  0  0  0  0
 26 27  1  0  0  0  0
M  END
>  <CHROM.1>
-23.73559022,167.94370972,176.89558448,159.28115424,-112.32645594,49.17372310
92.11733656,14.39837424,-5.58979109,8.47405824,-2.41954690,-1.11209228,-1.66844479

>  <Name>
ligand

>  <RI>
0

>  <Rbt.Current_Directory>
/home/itssahil/PROJECTS/Mol_Feturizer/Test_systems_manuscript/rnas/2ydh

>  <Rbt.Executable>
rbdock ($Id: //depot/dev/client3/rdock/2013.1/src/exe/rbdock.cxx#4 $)

>  <Rbt.Library>
libRbt.so (2013.1, Build901 2013/11/27)

>  <Rbt.Parameter_File>
/export/apps/rDock/src/rDock_2013.1_src/data/scripts/dock_solv.prm

>  <Rbt.Receptor>
prm/pocket_docking_5.prm

>  <SCORE>
-16.5107

>  <SCORE.INTER>
-16.8689

>  <SCORE.INTER.CONST>
1

>  <SCORE.INTER.POLAR>
0

>  <SCORE.INTER.ROT>
7

>  <SCORE.INTER.SOLV>
20.5954

>  <SCORE.INTER.VDW>
-26.3777

>  <SCORE.INTER.norm>
-0.624774

>  <SCORE.INTRA>
0.358192

>  <SCORE.INTRA.DIHEDRAL>
-1.38107

>  <SCORE.INTRA.DIHEDRAL.0>
9.75037

>  <SCORE.INTRA.POLAR>
0

>  <SCORE.INTRA.POLAR.0>
0

>  <SCORE.INTRA.REPUL>
0

>  <SCORE.INTRA.REPUL.0>
0

>  <SCORE.INTRA.SOLV>
-0.336322

>  <SCORE.INTRA.SOLV.lig_0>
-48.4279

>  <SCORE.INTRA.VDW>
1.21689

>  <SCORE.INTRA.VDW.0>
-4.69037

>  <SCORE.INTRA.norm>
0.0132664

>  <SCORE.RESTR>
0

>  <SCORE.RESTR.CAVITY>
0

>  <SCORE.RESTR.norm>
0

>  <SCORE.SYSTEM>
0

>  <SCORE.SYSTEM.CONST>
0

>  <SCORE.SYSTEM.DIHEDRAL>
0

>  <SCORE.SYSTEM.SOLV>
0

>  <SCORE.SYSTEM.norm>
0

>  <SCORE.heavy>
27

>  <SCORE.norm>
-0.611507

>  <RMSD>
0.746

$$$$
ligand
 OpenBabel02271912153D
libRbt.so/2013.1/901 2013/11/27
 27 29  0  0  0  0  0  0  0  0999 V2000
   13.6772   -4.1371   10.5002 N   0  0  0  0  0  0  0  0  0  0  0  0
   13.6902   -5.1155   11.6312 C   0  0  2  0  0  0  0  0  0  0  0  0
   14.8623   -4.8330   12.5971 C   0  0  0  0  0  0  0  0  0  0  0  0
   15.3708   -5.7385   13.2650 O   0  0  0  0  0  0  0  0  0  0  0  0
   13.7361   -6.5343   11.0739 C   0  0  0  0  0  0  0  0  0  0  0  0
   12.4115   -7.0397   10.5269 C   0  0  0  0  0  0  0  0  0  0  0  0
   12.5686   -8.5734    9.5677 S   0  0  2  0  0  0  0  0  0  0  0  0
   13.2442   -9.6917   10.8282 C   0  0  0  0  0  0  0  0  0  0  0  0
   13.9756   -8.3477    8.4681 C   0  0  0  0  0  0  0  0  0  0  0  0
   13.4896   -7.7571    7.1583 C   0  0  1  0  0  0  0  0  0  0  0  0
   12.8738   -6.4897    7.3281 O   0  0  0  0  0  0  0  0  0  0  0  0
   14.6251   -7.5705    6.1817 C   0  0  1  0  0  0  0  0  0  0  0  0
   14.8751   -8.7479    5.4692 O   0  0  0  0  0  0  0  0  0  0  0  0
   14.0774   -6.4876    5.3029 C   0  0  1  0  0  0  0  0  0  0  0  0
   13.3138   -7.0734    4.2655 O   0  0  0  0  0  0  0  0  0  0  0  0
   13.1836   -5.6691    6.2256 C   0  0  2  0  0  0  0  0  0  0  0  0
   15.3394   -3.6935   12.7494 O   0  0  0  0  0  0  0  0  0  0  0  0
   17.6889   -3.1270    7.2739 N   0  0  0  0  0  0  0  0  0  0  0  0
   17.5326   -4.4201    6.7962 C   0  0  0  0  0  0  0  0  0  0  0  0
   16.2672   -4.9538    6.5833 N   0  0  0  0  0  0  0  0  0  0  0  0
   15.1830   -4.1954    6.8275 C   0  0  0  0  0  0  0  0  0  0  0  0
   15.3280   -2.8861    7.2946 C   0  0  0  0  0  0  0  0  0  0  0  0
   16.5802   -2.3494    7.5311 C   0  0  0  0  0  0  0  0  0  0  0  0
   16.7123   -1.1117    7.9841 N   0  0  0  0  0  0  0  0  0  0  0  0
   14.1074   -2.3585    7.4389 N   0  0  0  0  0  0  0  0  0  0  0  0
   13.1988   -3.2905    7.0757 C   0  0  0  0  0  0  0  0  0  0  0  0
   13.8483   -4.4363    6.6885 N   0  0  0  0  0  0  0  0  0  0  0  0
  2  1  1  6  0  0  0
  2  3  1  0  0  0  0
  2  5  1  0  0  0  0
  3  4  1  0  0  0  0
  3 17  1  0  0  0  0
  5  6  1  0  0  0  0
  7  6  1  1  0  0  0
  7  8  1  0  0  0  0
  7  9  1  0  0  0  0
 10  9  1  1  0  0  0
 10 11  1  0  0  0  0
 10 12  1  0  0  0  0
 11 16  1  0  0  0  0
 12 13  1  6  0  0  0
 12 14  1  0  0  0  0
 14 15  1  6  0  0  0
 14 16  1  0  0  0  0
 16 27  1  1  0  0  0
 18 19  2  0  0  0  0
 18 23  1  0  0  0  0
 19 20  1  0  0  0  0
 20 21  2  0  0  0  0
 21 22  1  0  0  0  0
 21 27  1  0  0  0  0
 22 23  2  0  0  0  0
 22 25  1  0  0  0  0
 23 24  1  0  0  0  0
 25 26  2  0  0  0  0
 26 27  1  0  0  0  0
M  END
>  <CHROM.1>
-152.18617145,-76.51165429,167.98984479,60.60199812,-90.42898089,60.85167122
92.10438718,14.39247750,-5.65141926,8.41394349,-2.54978136,-1.10697047,-1.69830737

>  <Name>
ligand

>  <RI>
0

>  <Rbt.Current_Directory>
/home/itssahil/PROJECTS/Mol_Feturizer/Test_systems_manuscript/rnas/2ydh

>  <Rbt.Executable>
rbdock ($Id: //depot/dev/client3/rdock/2013.1/src/exe/rbdock.cxx#4 $)

>  <Rbt.Library>
libRbt.so (2013.1, Build901 2013/11/27)

>  <Rbt.Parameter_File>
/export/apps/rDock/src/rDock_2013.1_src/data/scripts/dock_solv.prm

>  <Rbt.Receptor>
prm/pocket_docking_4.prm

>  <SCORE>
-17.8621

>  <SCORE.INTER>
-18.1944

>  <SCORE.INTER.CONST>
1

>  <SCORE.INTER.POLAR>
0

>  <SCORE.INTER.ROT>
7

>  <SCORE.INTER.SOLV>
19.9714

>  <SCORE.INTER.VDW>
-27.0534

>  <SCORE.INTER.norm>
-0.673867

>  <SCORE.INTRA>
0.332296

>  <SCORE.INTRA.DIHEDRAL>
-3.5882

>  <SCORE.INTRA.DIHEDRAL.0>
9.75037

>  <SCORE.INTRA.POLAR>
0

>  <SCORE.INTRA.POLAR.0>
0

>  <SCORE.INTRA.REPUL>
0

>  <SCORE.INTRA.REPUL.0>
0

>  <SCORE.INTRA.SOLV>
0.0967851

>  <SCORE.INTRA.SOLV.lig_0>
-48.4279

>  <SCORE.INTRA.VDW>
2.078

>  <SCORE.INTRA.VDW.0>
-4.69037

>  <SCORE.INTRA.norm>
0.0123073

>  <SCORE.RESTR>
0

>  <SCORE.RESTR.CAVITY>
0

>  <SCORE.RESTR.norm>
0

>  <SCORE.SYSTEM>
0

>  <SCORE.SYSTEM.CONST>
0

>  <SCORE.SYSTEM.DIHEDRAL>
0

>  <SCORE.SYSTEM.SOLV>
0

>  <SCORE.SYSTEM.norm>
0

>  <SCORE.heavy>
27

>  <SCORE.norm>
-0.66156

>  <RMSD>
0.754

$$$$
ligand
 OpenBabel02271912153D
libRbt.so/2013.1/901 2013/11/27
 27 29  0  0  0  0  0  0  0  0999 V2000
   13.4745   -3.9925   10.8568 N   0  0  0  0  0  0  0  0  0  0  0  0
   14.0053   -5.0600   11.7597 C   0  0  2  0  0  0  0  0  0  0  0  0
   15.4400   -4.7293   12.2279 C   0  0  0  0  0  0  0  0  0  0  0  0
   16.2990   -4.3447   11.4287 O   0  0  0  0  0  0  0  0  0  0  0  0
   13.9305   -6.4079   11.0503 C   0  0  0  0  0  0  0  0  0  0  0  0
   12.5485   -6.7724   10.5341 C   0  0  0  0  0  0  0  0  0  0  0  0
   12.5225   -8.3165    9.5791 S   0  0  2  0  0  0  0  0  0  0  0  0
   13.0673   -9.5026   10.8409 C   0  0  0  0  0  0  0  0  0  0  0  0
   13.9426   -8.2592    8.4746 C   0  0  0  0  0  0  0  0  0  0  0  0
   13.5053   -7.6962    7.1358 C   0  0  1  0  0  0  0  0  0  0  0  0
   12.8993   -6.4184    7.2547 O   0  0  0  0  0  0  0  0  0  0  0  0
   14.6733   -7.5464    6.1918 C   0  0  1  0  0  0  0  0  0  0  0  0
   14.9320   -8.7439    5.5168 O   0  0  0  0  0  0  0  0  0  0  0  0
   14.1664   -6.4799    5.2695 C   0  0  1  0  0  0  0  0  0  0  0  0
   13.4292   -7.0830    4.2230 O   0  0  0  0  0  0  0  0  0  0  0  0
   13.2534   -5.6289    6.1427 C   0  0  2  0  0  0  0  0  0  0  0  0
   15.7942   -4.8389   13.4161 O   0  0  0  0  0  0  0  0  0  0  0  0
   17.7487   -3.1275    7.3235 N   0  0  0  0  0  0  0  0  0  0  0  0
   17.5920   -4.4333    6.8819 C   0  0  0  0  0  0  0  0  0  0  0  0
   16.3288   -4.9530    6.6257 N   0  0  0  0  0  0  0  0  0  0  0  0
   15.2481   -4.1689    6.7918 C   0  0  0  0  0  0  0  0  0  0  0  0
   15.3943   -2.8470    7.2216 C   0  0  0  0  0  0  0  0  0  0  0  0
   16.6433   -2.3234    7.5007 C   0  0  0  0  0  0  0  0  0  0  0  0
   16.7759   -1.0734    7.9183 N   0  0  0  0  0  0  0  0  0  0  0  0
   14.1780   -2.2947    7.2889 N   0  0  0  0  0  0  0  0  0  0  0  0
   13.2711   -3.2234    6.9132 C   0  0  0  0  0  0  0  0  0  0  0  0
   13.9174   -4.3922    6.5962 N   0  0  0  0  0  0  0  0  0  0  0  0
  2  1  1  6  0  0  0
  2  3  1  0  0  0  0
  2  5  1  0  0  0  0
  3  4  1  0  0  0  0
  3 17  1  0  0  0  0
  5  6  1  0  0  0  0
  7  6  1  1  0  0  0
  7  8  1  0  0  0  0
  7  9  1  0  0  0  0
 10  9  1  1  0  0  0
 10 11  1  0  0  0  0
 10 12  1  0  0  0  0
 11 16  1  0  0  0  0
 12 13  1  6  0  0  0
 12 14  1  0  0  0  0
 14 15  1  6  0  0  0
 14 16  1  0  0  0  0
 16 27  1  1  0  0  0
 18 19  2  0  0  0  0
 18 23  1  0  0  0  0
 19 20  1  0  0  0  0
 20 21  2  0  0  0  0
 21 22  1  0  0  0  0
 21 27  1  0  0  0  0
 22 23  2  0  0  0  0
 22 25  1  0  0  0  0
 23 24  1  0  0  0  0
 25 26  2  0  0  0  0
 26 27  1  0  0  0  0
M  END
>  <CHROM.1>
-46.28661072,-54.80866020,175.31341827,61.85015054,-93.79561590,56.28615660
90.98100123,14.50751072,-5.56844363,8.35131679,-2.84618547,-1.06344322,-1.62503627

>  <Name>
ligand

>  <RI>
0

>  <Rbt.Current_Directory>
/home/itssahil/PROJECTS/Mol_Feturizer/Test_systems_manuscript/rnas/2ydh

>  <Rbt.Executable>
rbdock ($Id: //depot/dev/client3/rdock/2013.1/src/exe/rbdock.cxx#4 $)

>  <Rbt.Library>
libRbt.so (2013.1, Build901 2013/11/27)

>  <Rbt.Parameter_File>
/export/apps/rDock/src/rDock_2013.1_src/data/scripts/dock_solv.prm

>  <Rbt.Receptor>
prm/pocket_docking_2.prm

>  <SCORE>
-16.0238

>  <SCORE.INTER>
-15.3783

>  <SCORE.INTER.CONST>
1

>  <SCORE.INTER.POLAR>
0

>  <SCORE.INTER.ROT>
7

>  <SCORE.INTER.SOLV>
21.5786

>  <SCORE.INTER.VDW>
-25.7118

>  <SCORE.INTER.norm>
-0.569568

>  <SCORE.INTRA>
-0.650696

>  <SCORE.INTRA.DIHEDRAL>
-4.49274

>  <SCORE.INTRA.DIHEDRAL.0>
9.75037

>  <SCORE.INTRA.POLAR>
0

>  <SCORE.INTRA.POLAR.0>
0

>  <SCORE.INTRA.REPUL>
0

>  <SCORE.INTRA.REPUL.0>
0

>  <SCORE.INTRA.SOLV>
-0.703607

>  <SCORE.INTRA.SOLV.lig_0>
-48.4279

>  <SCORE.INTRA.VDW>
1.94748

>  <SCORE.INTRA.VDW.0>
-4.69037

>  <SCORE.INTRA.norm>
-0.0240999

>  <SCORE.RESTR>
0.00523271

>  <SCORE.RESTR.CAVITY>
0.00523271

>  <SCORE.RESTR.norm>
0.000193804

>  <SCORE.SYSTEM>
0

>  <SCORE.SYSTEM.CONST>
0

>  <SCORE.SYSTEM.DIHEDRAL>
0

>  <SCORE.SYSTEM.SOLV>
0

>  <SCORE.SYSTEM.norm>
0

>  <SCORE.heavy>
27

>  <SCORE.norm>
-0.593474

>  <RMSD>
0.766

$$$$
ligand
 OpenBabel02271912153D
libRbt.so/2013.1/901 2013/11/27
 27 29  0  0  0  0  0  0  0  0999 V2000
   13.7965   -3.4951   11.4944 N   0  0  0  0  0  0  0  0  0  0  0  0
   13.9342   -4.9840   11.4629 C   0  0  2  0  0  0  0  0  0  0  0  0
   15.3691   -5.4175   11.8367 C   0  0  0  0  0  0  0  0  0  0  0  0
   15.9123   -6.3750   11.2773 O   0  0  0  0  0  0  0  0  0  0  0  0
   13.5180   -5.5028   10.0906 C   0  0  0  0  0  0  0  0  0  0  0  0
   12.3198   -6.4372   10.1070 C   0  0  0  0  0  0  0  0  0  0  0  0
   12.7610   -8.1762    9.8275 S   0  0  2  0  0  0  0  0  0  0  0  0
   13.6601   -8.5467   11.3604 C   0  0  0  0  0  0  0  0  0  0  0  0
   14.0810   -8.1792    8.6038 C   0  0  0  0  0  0  0  0  0  0  0  0
   13.5179   -7.7324    7.2681 C   0  0  1  0  0  0  0  0  0  0  0  0
   12.8496   -6.4830    7.3498 O   0  0  0  0  0  0  0  0  0  0  0  0
   14.6052   -7.5861    6.2317 C   0  0  1  0  0  0  0  0  0  0  0  0
   14.8834   -8.8116    5.6174 O   0  0  0  0  0  0  0  0  0  0  0  0
   13.9736   -6.6130    5.2834 C   0  0  1  0  0  0  0  0  0  0  0  0
   13.1996   -7.3239    4.3359 O   0  0  0  0  0  0  0  0  0  0  0  0
   13.0777   -5.7537    6.1662 C   0  0  2  0  0  0  0  0  0  0  0  0
   16.0344   -4.8332   12.7115 O   0  0  0  0  0  0  0  0  0  0  0  0
   17.1994   -3.1312    8.1646 N   0  0  0  0  0  0  0  0  0  0  0  0
   17.0391   -4.5044    8.0494 C   0  0  0  0  0  0  0  0  0  0  0  0
   15.8783   -5.0442    7.5085 N   0  0  0  0  0  0  0  0  0  0  0  0
   14.9081   -4.2189    7.0751 C   0  0  0  0  0  0  0  0  0  0  0  0
   15.0645   -2.8334    7.1719 C   0  0  0  0  0  0  0  0  0  0  0  0
   16.2049   -2.2829    7.7273 C   0  0  0  0  0  0  0  0  0  0  0  0
   16.3438   -0.9694    7.8268 N   0  0  0  0  0  0  0  0  0  0  0  0
   13.9717   -2.2550    6.6617 N   0  0  0  0  0  0  0  0  0  0  0  0
   13.1338   -3.2295    6.2443 C   0  0  0  0  0  0  0  0  0  0  0  0
   13.7004   -4.4558    6.4885 N   0  0  0  0  0  0  0  0  0  0  0  0
  2  1  1  6  0  0  0
  2  3  1  0  0  0  0
  2  5  1  0  0  0  0
  3  4  1  0  0  0  0
  3 17  1  0  0  0  0
  5  6  1  0  0  0  0
  7  6  1  1  0  0  0
  7  8  1  0  0  0  0
  7  9  1  0  0  0  0
 10  9  1  1  0  0  0
 10 11  1  0  0  0  0
 10 12  1  0  0  0  0
 11 16  1  0  0  0  0
 12 13  1  6  0  0  0
 12 14  1  0  0  0  0
 14 15  1  6  0  0  0
 14 16  1  0  0  0  0
 16 27  1  1  0  0  0
 18 19  2  0  0  0  0
 18 23  1  0  0  0  0
 19 20  1  0  0  0  0
 20 21  2  0  0  0  0
 21 22  1  0  0  0  0
 21 27  1  0  0  0  0
 22 23  2  0  0  0  0
 22 25  1  0  0  0  0
 23 24  1  0  0  0  0
 25 26  2  0  0  0  0
 26 27  1  0  0  0  0
M  END
>  <CHROM.1>
-142.77885264,-117.88840664,-106.26362052,68.59025473,-68.68717178,54.19004245
62.59744078,14.38337981,-5.58565685,8.39373335,-0.23920651,1.16102804,1.78506850

>  <Name>
ligand

>  <RI>
0

>  <Rbt.Current_Directory>
/home/itssahil/PROJECTS/Mol_Feturizer/Test_systems_manuscript/rnas/2ydh

>  <Rbt.Executable>
rbdock ($Id: //depot/dev/client3/rdock/2013.1/src/exe/rbdock.cxx#4 $)

>  <Rbt.Library>
libRbt.so (2013.1, Build901 2013/11/27)

>  <Rbt.Parameter_File>
/export/apps/rDock/src/rDock_2013.1_src/data/scripts/dock_solv.prm

>  <Rbt.Receptor>
prm/pocket_docking_2.prm

>  <SCORE>
-8.72902

>  <SCORE.INTER>
-11.9288

>  <SCORE.INTER.CONST>
1

>  <SCORE.INTER.POLAR>
0

>  <SCORE.INTER.ROT>
7

>  <SCORE.INTER.SOLV>
23.1722

>  <SCORE.INTER.VDW>
-23.9433

>  <SCORE.INTER.norm>
-0.441809

>  <SCORE.INTRA>
2.84399

>  <SCORE.INTRA.DIHEDRAL>
4.69776

>  <SCORE.INTRA.DIHEDRAL.0>
9.75037

>  <SCORE.INTRA.POLAR>
0

>  <SCORE.INTRA.POLAR.0>
0

>  <SCORE.INTRA.REPUL>
0

>  <SCORE.INTRA.REPUL.0>
0

>  <SCORE.INTRA.SOLV>
-1.01472

>  <SCORE.INTRA.SOLV.lig_0>
-48.4279

>  <SCORE.INTRA.VDW>
1.00247

>  <SCORE.INTRA.VDW.0>
-4.69037

>  <SCORE.INTRA.norm>
0.105333

>  <SCORE.RESTR>
0.355832

>  <SCORE.RESTR.CAVITY>
0.355832

>  <SCORE.RESTR.norm>
0.013179

>  <SCORE.SYSTEM>
0

>  <SCORE.SYSTEM.CONST>
0

>  <SCORE.SYSTEM.DIHEDRAL>
0

>  <SCORE.SYSTEM.SOLV>
0

>  <SCORE.SYSTEM.norm>
0

>  <SCORE.heavy>
27

>  <SCORE.norm>
-0.323297

>  <RMSD>
0.786

$$$$
ligand
 OpenBabel02271912153D
libRbt.so/2013.1/901 2013/11/27
 27 29  0  0  0  0  0  0  0  0999 V2000
   15.4180   -3.7713   10.4226 N   0  0  0  0  0  0  0  0  0  0  0  0
   14.4118   -4.7518   10.9354 C   0  0  2  0  0  0  0  0  0  0  0  0
   14.6302   -5.0381   12.4377 C   0  0  0  0  0  0  0  0  0  0  0  0
   13.9459   -5.8756   13.0335 O   0  0  0  0  0  0  0  0  0  0  0  0
   14.4691   -6.0234   10.0955 C   0  0  0  0  0  0  0  0  0  0  0  0
   13.2267   -6.8937   10.1842 C   0  0  0  0  0  0  0  0  0  0  0  0
   13.4934   -8.5892    9.5915 S   0  0  2  0  0  0  0  0  0  0  0  0
   14.6126   -9.2222   10.8730 C   0  0  0  0  0  0  0  0  0  0  0  0
   14.5826   -8.4670    8.1638 C   0  0  0  0  0  0  0  0  0  0  0  0
   13.7772   -8.0008    6.9660 C   0  0  1  0  0  0  0  0  0  0  0  0
   13.0293   -6.8256    7.2372 O   0  0  0  0  0  0  0  0  0  0  0  0
   14.6679   -7.6966    5.7863 C   0  0  1  0  0  0  0  0  0  0  0  0
   14.9447   -8.8548    5.0523 O   0  0  0  0  0  0  0  0  0  0  0  0
   13.8137   -6.7352    5.0176 C   0  0  1  0  0  0  0  0  0  0  0  0
   12.9593   -7.4611    4.1542 O   0  0  0  0  0  0  0  0  0  0  0  0
   13.0031   -6.0133    6.0863 C   0  0  2  0  0  0  0  0  0  0  0  0
   15.4911   -4.4420   13.1106 O   0  0  0  0  0  0  0  0  0  0  0  0
   17.1600   -3.1344    7.5997 N   0  0  0  0  0  0  0  0  0  0  0  0
   17.0978   -4.5080    7.4154 C   0  0  0  0  0  0  0  0  0  0  0  0
   15.9141   -5.1224    7.0246 N   0  0  0  0  0  0  0  0  0  0  0  0
   14.8218   -4.3681    6.8053 C   0  0  0  0  0  0  0  0  0  0  0  0
   14.8762   -2.9815    6.9730 C   0  0  0  0  0  0  0  0  0  0  0  0
   16.0412   -2.3592    7.3820 C   0  0  0  0  0  0  0  0  0  0  0  0
   16.0848   -1.0461    7.5500 N   0  0  0  0  0  0  0  0  0  0  0  0
   13.6715   -2.4797    6.6798 N   0  0  0  0  0  0  0  0  0  0  0  0
   12.8612   -3.5032    6.3305 C   0  0  0  0  0  0  0  0  0  0  0  0
   13.5595   -4.6832    6.3978 N   0  0  0  0  0  0  0  0  0  0  0  0
  2  1  1  6  0  0  0
  2  3  1  0  0  0  0
  2  5  1  0  0  0  0
  3  4  1  0  0  0  0
  3 17  1  0  0  0  0
  5  6  1  0  0  0  0
  7  6  1  1  0  0  0
  7  8  1  0  0  0  0
  7  9  1  0  0  0  0
 10  9  1  1  0  0  0
 10 11  1  0  0  0  0
 10 12  1  0  0  0  0
 11 16  1  0  0  0  0
 12 13  1  6  0  0  0
 12 14  1  0  0  0  0
 14 15  1  6  0  0  0
 14 16  1  0  0  0  0
 16 27  1  1  0  0  0
 18 19  2  0  0  0  0
 18 23  1  0  0  0  0
 19 20  1  0  0  0  0
 20 21  2  0  0  0  0
 21 22  1  0  0  0  0
 21 27  1  0  0  0  0
 22 23  2  0  0  0  0
 22 25  1  0  0  0  0
 23 24  1  0  0  0  0
 25 26  2  0  0  0  0
 26 27  1  0  0  0  0
M  END
>  <CHROM.1>
-176.15193471,-160.25272803,-163.14152739,68.09505949,-77.25621411,51.85976897
62.59153276,14.47114093,-5.73374779,8.22975471,-1.17497176,-1.27149596,-1.35714093

>  <Name>
ligand

>  <RI>
0

>  <Rbt.Current_Directory>
/home/itssahil/PROJECTS/Mol_Feturizer/Test_systems_manuscript/rnas/2ydh

>  <Rbt.Executable>
rbdock ($Id: //depot/dev/client3/rdock/2013.1/src/exe/rbdock.cxx#4 $)

>  <Rbt.Library>
libRbt.so (2013.1, Build901 2013/11/27)

>  <Rbt.Parameter_File>
/export/apps/rDock/src/rDock_2013.1_src/data/scripts/dock_solv.prm

>  <Rbt.Receptor>
prm/pocket_docking_2.prm

>  <SCORE>
-16.7459

>  <SCORE.INTER>
-15.925

>  <SCORE.INTER.CONST>
1

>  <SCORE.INTER.POLAR>
0

>  <SCORE.INTER.ROT>
7

>  <SCORE.INTER.SOLV>
17.7313

>  <SCORE.INTER.VDW>
-24.7938

>  <SCORE.INTER.norm>
-0.589816

>  <SCORE.INTRA>
-0.820814

>  <SCORE.INTRA.DIHEDRAL>
-3.16567

>  <SCORE.INTRA.DIHEDRAL.0>
9.75037

>  <SCORE.INTRA.POLAR>
0

>  <SCORE.INTRA.POLAR.0>
0

>  <SCORE.INTRA.REPUL>
0

>  <SCORE.INTRA.REPUL.0>
0

>  <SCORE.INTRA.SOLV>
0.960796

>  <SCORE.INTRA.SOLV.lig_0>
-48.4279

>  <SCORE.INTRA.VDW>
0.281621

>  <SCORE.INTRA.VDW.0>
-4.69037

>  <SCORE.INTRA.norm>
-0.0304005

>  <SCORE.RESTR>
0

>  <SCORE.RESTR.CAVITY>
0

>  <SCORE.RESTR.norm>
0

>  <SCORE.SYSTEM>
0

>  <SCORE.SYSTEM.CONST>
0

>  <SCORE.SYSTEM.DIHEDRAL>
0

>  <SCORE.SYSTEM.SOLV>
0

>  <SCORE.SYSTEM.norm>
0

>  <SCORE.heavy>
27

>  <SCORE.norm>
-0.620217

>  <RMSD>
0.857

$$$$
ligand
 OpenBabel02271912153D
libRbt.so/2013.1/901 2013/11/27
 27 29  0  0  0  0  0  0  0  0999 V2000
   13.4674   -4.5272   10.3216 N   0  0  0  0  0  0  0  0  0  0  0  0
   13.7848   -4.8015   11.7572 C   0  0  2  0  0  0  0  0  0  0  0  0
   15.1983   -4.2950   12.1206 C   0  0  0  0  0  0  0  0  0  0  0  0
   16.0165   -4.0031   11.2430 O   0  0  0  0  0  0  0  0  0  0  0  0
   13.6205   -6.2916   12.0371 C   0  0  0  0  0  0  0  0  0  0  0  0
   14.2284   -7.2016   10.9829 C   0  0  0  0  0  0  0  0  0  0  0  0
   13.1109   -7.5357    9.5913 S   0  0  2  0  0  0  0  0  0  0  0  0
   12.0576   -8.8290   10.3077 C   0  0  0  0  0  0  0  0  0  0  0  0
   14.0677   -8.4562    8.3759 C   0  0  0  0  0  0  0  0  0  0  0  0
   13.6648   -8.0050    6.9850 C   0  0  1  0  0  0  0  0  0  0  0  0
   12.9245   -6.7943    6.9986 O   0  0  0  0  0  0  0  0  0  0  0  0
   14.8714   -7.7765    6.1076 C   0  0  1  0  0  0  0  0  0  0  0  0
   15.2957   -8.9700    5.5140 O   0  0  0  0  0  0  0  0  0  0  0  0
   14.3203   -6.8134    5.1008 C   0  0  1  0  0  0  0  0  0  0  0  0
   13.7199   -7.5388    4.0446 O   0  0  0  0  0  0  0  0  0  0  0  0
   13.2689   -6.0241    5.8703 C   0  0  2  0  0  0  0  0  0  0  0  0
   15.5758   -4.1641   13.2994 O   0  0  0  0  0  0  0  0  0  0  0  0
   17.3653   -3.0632    7.3904 N   0  0  0  0  0  0  0  0  0  0  0  0
   17.3682   -4.4067    7.0445 C   0  0  0  0  0  0  0  0  0  0  0  0
   16.1932   -5.0511    6.6766 N   0  0  0  0  0  0  0  0  0  0  0  0
   15.0435   -4.3533    6.6389 C   0  0  0  0  0  0  0  0  0  0  0  0
   15.0306   -2.9955    6.9705 C   0  0  0  0  0  0  0  0  0  0  0  0
   16.1883   -2.3468    7.3590 C   0  0  0  0  0  0  0  0  0  0  0  0
   16.1690   -1.0625    7.6828 N   0  0  0  0  0  0  0  0  0  0  0  0
   13.7775   -2.5470    6.8378 N   0  0  0  0  0  0  0  0  0  0  0  0
   13.0015   -3.5758    6.4310 C   0  0  0  0  0  0  0  0  0  0  0  0
   13.7712   -4.7046    6.2974 N   0  0  0  0  0  0  0  0  0  0  0  0
  2  1  1  6  0  0  0
  2  3  1  0  0  0  0
  2  5  1  0  0  0  0
  3  4  1  0  0  0  0
  3 17  1  0  0  0  0
  5  6  1  0  0  0  0
  7  6  1  1  0  0  0
  7  8  1  0  0  0  0
  7  9  1  0  0  0  0
 10  9  1  1  0  0  0
 10 11  1  0  0  0  0
 10 12  1  0  0  0  0
 11 16  1  0  0  0  0
 12 13  1  6  0  0  0
 12 14  1  0  0  0  0
 14 15  1  6  0  0  0
 14 16  1  0  0  0  0
 16 27  1  1  0  0  0
 18 19  2  0  0  0  0
 18 23  1  0  0  0  0
 19 20  1  0  0  0  0
 20 21  2  0  0  0  0
 21 22  1  0  0  0  0
 21 27  1  0  0  0  0
 22 23  2  0  0  0  0
 22 25  1  0  0  0  0
 23 24  1  0  0  0  0
 25 26  2  0  0  0  0
 26 27  1  0  0  0  0
M  END
>  <CHROM.1>
-15.24761476,44.78487207,-85.97401332,-80.25412818,-142.47863156,14.56982371
86.66654227,14.47384075,-5.57994043,8.24661924,1.34105630,1.14029824,1.40778745

>  <Name>
ligand

>  <RI>
0

>  <Rbt.Current_Directory>
/home/itssahil/PROJECTS/Mol_Feturizer/Test_systems_manuscript/rnas/2ydh

>  <Rbt.Executable>
rbdock ($Id: //depot/dev/client3/rdock/2013.1/src/exe/rbdock.cxx#4 $)

>  <Rbt.Library>
libRbt.so (2013.1, Build901 2013/11/27)

>  <Rbt.Parameter_File>
/export/apps/rDock/src/rDock_2013.1_src/data/scripts/dock_solv.prm

>  <Rbt.Receptor>
prm/pocket_docking_2.prm

>  <SCORE>
-9.76691

>  <SCORE.INTER>
-15.3639

>  <SCORE.INTER.CONST>
1

>  <SCORE.INTER.POLAR>
0

>  <SCORE.INTER.ROT>
7

>  <SCORE.INTER.SOLV>
18.8916

>  <SCORE.INTER.VDW>
-24.8064

>  <SCORE.INTER.norm>
-0.569033

>  <SCORE.INTRA>
5.59698

>  <SCORE.INTRA.DIHEDRAL>
5.1855

>  <SCORE.INTRA.DIHEDRAL.0>
9.75037

>  <SCORE.INTRA.POLAR>
0

>  <SCORE.INTRA.POLAR.0>
0

>  <SCORE.INTRA.REPUL>
0.0730328

>  <SCORE.INTRA.REPUL.0>
0

>  <SCORE.INTRA.SOLV>
1.06565

>  <SCORE.INTRA.SOLV.lig_0>
-48.4279

>  <SCORE.INTRA.VDW>
2.10624

>  <SCORE.INTRA.VDW.0>
-4.69037

>  <SCORE.INTRA.norm>
0.207295

>  <SCORE.RESTR>
0

>  <SCORE.RESTR.CAVITY>
0

>  <SCORE.RESTR.norm>
0

>  <SCORE.SYSTEM>
0

>  <SCORE.SYSTEM.CONST>
0

>  <SCORE.SYSTEM.DIHEDRAL>
0

>  <SCORE.SYSTEM.SOLV>
0

>  <SCORE.SYSTEM.norm>
0

>  <SCORE.heavy>
27

>  <SCORE.norm>
-0.361737

>  <RMSD>
0.871

$$$$
ligand
 OpenBabel02271912153D
libRbt.so/2013.1/901 2013/11/27
 27 29  0  0  0  0  0  0  0  0999 V2000
   15.0861   -3.9848   10.8776 N   0  0  0  0  0  0  0  0  0  0  0  0
   14.0172   -4.9607   11.2540 C   0  0  2  0  0  0  0  0  0  0  0  0
   14.1967   -5.4478   12.7091 C   0  0  0  0  0  0  0  0  0  0  0  0
   15.1034   -5.0071   13.4220 O   0  0  0  0  0  0  0  0  0  0  0  0
   14.0126   -6.1166   10.2592 C   0  0  0  0  0  0  0  0  0  0  0  0
   12.7551   -6.9692   10.2898 C   0  0  0  0  0  0  0  0  0  0  0  0
   12.9824   -8.6112    9.5488 S   0  0  2  0  0  0  0  0  0  0  0  0
   13.8974   -9.4541   10.8710 C   0  0  0  0  0  0  0  0  0  0  0  0
   14.2404   -8.4283    8.2745 C   0  0  0  0  0  0  0  0  0  0  0  0
   13.5972   -7.8629    7.0226 C   0  0  1  0  0  0  0  0  0  0  0  0
   12.9256   -6.6359    7.2623 O   0  0  0  0  0  0  0  0  0  0  0  0
   14.6213   -7.6040    5.9446 C   0  0  1  0  0  0  0  0  0  0  0  0
   14.8724   -8.7614    5.2001 O   0  0  0  0  0  0  0  0  0  0  0  0
   13.9285   -6.5528    5.1322 C   0  0  1  0  0  0  0  0  0  0  0  0
   13.1060   -7.1796    4.1663 O   0  0  0  0  0  0  0  0  0  0  0  0
   13.0792   -5.7936    6.1434 C   0  0  2  0  0  0  0  0  0  0  0  0
   13.4489   -6.3001   13.2226 O   0  0  0  0  0  0  0  0  0  0  0  0
   17.4969   -3.1609    7.3313 N   0  0  0  0  0  0  0  0  0  0  0  0
   17.3740   -4.4898    6.9524 C   0  0  0  0  0  0  0  0  0  0  0  0
   16.1274   -5.0428    6.6847 N   0  0  0  0  0  0  0  0  0  0  0  0
   15.0303   -4.2695    6.7775 C   0  0  0  0  0  0  0  0  0  0  0  0
   15.1430   -2.9253    7.1435 C   0  0  0  0  0  0  0  0  0  0  0  0
   16.3745   -2.3675    7.4334 C   0  0  0  0  0  0  0  0  0  0  0  0
   16.4751   -1.0959    7.7904 N   0  0  0  0  0  0  0  0  0  0  0  0
   13.9169   -2.3907    7.1455 N   0  0  0  0  0  0  0  0  0  0  0  0
   13.0363   -3.3523    6.7902 C   0  0  0  0  0  0  0  0  0  0  0  0
   13.7099   -4.5247    6.5532 N   0  0  0  0  0  0  0  0  0  0  0  0
  2  1  1  6  0  0  0
  2  3  1  0  0  0  0
  2  5  1  0  0  0  0
  3  4  1  0  0  0  0
  3 17  1  0  0  0  0
  5  6  1  0  0  0  0
  7  6  1  1  0  0  0
  7  8  1  0  0  0  0
  7  9  1  0  0  0  0
 10  9  1  1  0  0  0
 10 11  1  0  0  0  0
 10 12  1  0  0  0  0
 11 16  1  0  0  0  0
 12 13  1  6  0  0  0
 12 14  1  0  0  0  0
 14 15  1  6  0  0  0
 14 16  1  0  0  0  0
 16 27  1  1  0  0  0
 18 19  2  0  0  0  0
 18 23  1  0  0  0  0
 19 20  1  0  0  0  0
 20 21  2  0  0  0  0
 21 22  1  0  0  0  0
 21 27  1  0  0  0  0
 22 23  2  0  0  0  0
 22 25  1  0  0  0  0
 23 24  1  0  0  0  0
 25 26  2  0  0  0  0
 26 27  1  0  0  0  0
M  END
>  <CHROM.1>
2.26048812,-163.95087251,-160.37499669,76.18538265,-80.72878986,56.06384479
80.27662375,14.36563520,-5.75401239,8.33107331,-2.08209886,-1.17336373,-1.67162399

>  <Name>
ligand

>  <RI>
0

>  <Rbt.Current_Directory>
/home/itssahil/PROJECTS/Mol_Feturizer/Test_systems_manuscript/rnas/2ydh

>  <Rbt.Executable>
rbdock ($Id: //depot/dev/client3/rdock/2013.1/src/exe/rbdock.cxx#4 $)

>  <Rbt.Library>
libRbt.so (2013.1, Build901 2013/11/27)

>  <Rbt.Parameter_File>
/export/apps/rDock/src/rDock_2013.1_src/data/scripts/dock_solv.prm

>  <Rbt.Receptor>
prm/pocket_docking_7.prm

>  <SCORE>
-17.1075

>  <SCORE.INTER>
-16.4646

>  <SCORE.INTER.CONST>
1

>  <SCORE.INTER.POLAR>
0

>  <SCORE.INTER.ROT>
7

>  <SCORE.INTER.SOLV>
18.189

>  <SCORE.INTER.VDW>
-25.306

>  <SCORE.INTER.norm>
-0.609798

>  <SCORE.INTRA>
-0.642959

>  <SCORE.INTRA.DIHEDRAL>
-2.45141

>  <SCORE.INTRA.DIHEDRAL.0>
9.75037

>  <SCORE.INTRA.POLAR>
0

>  <SCORE.INTRA.POLAR.0>
0

>  <SCORE.INTRA.REPUL>
0

>  <SCORE.INTRA.REPUL.0>
0

>  <SCORE.INTRA.SOLV>
-1.23798

>  <SCORE.INTRA.SOLV.lig_0>
-48.4279

>  <SCORE.INTRA.VDW>
1.20174

>  <SCORE.INTRA.VDW.0>
-4.69037

>  <SCORE.INTRA.norm>
-0.0238133

>  <SCORE.RESTR>
0

>  <SCORE.RESTR.CAVITY>
0

>  <SCORE.RESTR.norm>
0

>  <SCORE.SYSTEM>
0

>  <SCORE.SYSTEM.CONST>
0

>  <SCORE.SYSTEM.DIHEDRAL>
0

>  <SCORE.SYSTEM.SOLV>
0

>  <SCORE.SYSTEM.norm>
0

>  <SCORE.heavy>
27

>  <SCORE.norm>
-0.633611

>  <RMSD>
0.947

$$$$
ligand
 OpenBabel02271912153D
libRbt.so/2013.1/901 2013/11/27
 27 29  0  0  0  0  0  0  0  0999 V2000
   14.3001   -5.2318   10.1685 N   0  0  0  0  0  0  0  0  0  0  0  0
   14.3799   -5.5114   11.6355 C   0  0  2  0  0  0  0  0  0  0  0  0
   15.3124   -4.5034   12.3435 C   0  0  0  0  0  0  0  0  0  0  0  0
   15.9584   -3.6711   11.6995 O   0  0  0  0  0  0  0  0  0  0  0  0
   14.8243   -6.9538   11.8535 C   0  0  0  0  0  0  0  0  0  0  0  0
   13.7608   -7.9943   11.5445 C   0  0  0  0  0  0  0  0  0  0  0  0
   12.9149   -7.7093    9.9634 S   0  0  2  0  0  0  0  0  0  0  0  0
   11.8181   -9.1546    9.9024 C   0  0  0  0  0  0  0  0  0  0  0  0
   14.1084   -8.0845    8.6693 C   0  0  0  0  0  0  0  0  0  0  0  0
   13.5279   -7.6776    7.3283 C   0  0  1  0  0  0  0  0  0  0  0  0
   12.8560   -6.4286    7.3826 O   0  0  0  0  0  0  0  0  0  0  0  0
   14.6023   -7.5571    6.2753 C   0  0  1  0  0  0  0  0  0  0  0  0
   14.8777   -8.7986    5.6926 O   0  0  0  0  0  0  0  0  0  0  0  0
   13.9560   -6.6134    5.3075 C   0  0  1  0  0  0  0  0  0  0  0  0
   13.1735   -7.3533    4.3897 O   0  0  0  0  0  0  0  0  0  0  0  0
   13.0675   -5.7323    6.1762 C   0  0  2  0  0  0  0  0  0  0  0  0
   15.4587   -4.4867   13.5795 O   0  0  0  0  0  0  0  0  0  0  0  0
   17.2706   -3.0388    7.8902 N   0  0  0  0  0  0  0  0  0  0  0  0
   17.1253   -4.4147    7.7879 C   0  0  0  0  0  0  0  0  0  0  0  0
   15.9398   -4.9745    7.3268 N   0  0  0  0  0  0  0  0  0  0  0  0
   14.9295   -4.1660    6.9582 C   0  0  0  0  0  0  0  0  0  0  0  0
   15.0695   -2.7779    7.0424 C   0  0  0  0  0  0  0  0  0  0  0  0
   16.2354   -2.2078    7.5193 C   0  0  0  0  0  0  0  0  0  0  0  0
   16.3593   -0.8919    7.6075 N   0  0  0  0  0  0  0  0  0  0  0  0
   13.9357   -2.2184    6.6058 N   0  0  0  0  0  0  0  0  0  0  0  0
   13.0876   -3.2074    6.2469 C   0  0  0  0  0  0  0  0  0  0  0  0
   13.6892   -4.4238    6.4542 N   0  0  0  0  0  0  0  0  0  0  0  0
  2  1  1  6  0  0  0
  2  3  1  0  0  0  0
  2  5  1  0  0  0  0
  3  4  1  0  0  0  0
  3 17  1  0  0  0  0
  5  6  1  0  0  0  0
  7  6  1  1  0  0  0
  7  8  1  0  0  0  0
  7  9  1  0  0  0  0
 10  9  1  1  0  0  0
 10 11  1  0  0  0  0
 10 12  1  0  0  0  0
 11 16  1  0  0  0  0
 12 13  1  6  0  0  0
 12 14  1  0  0  0  0
 14 15  1  6  0  0  0
 14 16  1  0  0  0  0
 16 27  1  1  0  0  0
 18 19  2  0  0  0  0
 18 23  1  0  0  0  0
 19 20  1  0  0  0  0
 20 21  2  0  0  0  0
 21 22  1  0  0  0  0
 21 27  1  0  0  0  0
 22 23  2  0  0  0  0
 22 25  1  0  0  0  0
 23 24  1  0  0  0  0
 25 26  2  0  0  0  0
 26 27  1  0  0  0  0
M  END
>  <CHROM.1>
-5.31988163,-73.28886273,46.73628902,177.16431409,-172.01181784,41.90844380
66.17654192,14.43913503,-5.57695925,8.45456214,-1.59868023,-1.11920254,-1.35821752

>  <Name>
ligand

>  <RI>
0

>  <Rbt.Current_Directory>
/home/itssahil/PROJECTS/Mol_Feturizer/Test_systems_manuscript/rnas/2ydh

>  <Rbt.Executable>
rbdock ($Id: //depot/dev/client3/rdock/2013.1/src/exe/rbdock.cxx#4 $)

>  <Rbt.Library>
libRbt.so (2013.1, Build901 2013/11/27)

>  <Rbt.Parameter_File>
/export/apps/rDock/src/rDock_2013.1_src/data/scripts/dock_solv.prm

>  <Rbt.Receptor>
prm/pocket_docking_2.prm

>  <SCORE>
-12.9078

>  <SCORE.INTER>
-14.2242

>  <SCORE.INTER.CONST>
1

>  <SCORE.INTER.POLAR>
0

>  <SCORE.INTER.ROT>
7

>  <SCORE.INTER.SOLV>
16.7081

>  <SCORE.INTER.VDW>
-23.3188

>  <SCORE.INTER.norm>
-0.526821

>  <SCORE.INTRA>
1.31642

>  <SCORE.INTRA.DIHEDRAL>
-3.57683

>  <SCORE.INTRA.DIHEDRAL.0>
9.75037

>  <SCORE.INTRA.POLAR>
0

>  <SCORE.INTRA.POLAR.0>
0

>  <SCORE.INTRA.REPUL>
0.0416472

>  <SCORE.INTRA.REPUL.0>
0

>  <SCORE.INTRA.SOLV>
3.68319

>  <SCORE.INTRA.SOLV.lig_0>
-48.4279

>  <SCORE.INTRA.VDW>
1.055

>  <SCORE.INTRA.VDW.0>
-4.69037

>  <SCORE.INTRA.norm>
0.0487562

>  <SCORE.RESTR>
0

>  <SCORE.RESTR.CAVITY>
0

>  <SCORE.RESTR.norm>
0

>  <SCORE.SYSTEM>
0

>  <SCORE.SYSTEM.CONST>
0

>  <SCORE.SYSTEM.DIHEDRAL>
0

>  <SCORE.SYSTEM.SOLV>
0

>  <SCORE.SYSTEM.norm>
0

>  <SCORE.heavy>
27

>  <SCORE.norm>
-0.478065

>  <RMSD>
0.959

$$$$
ligand
 OpenBabel02271912153D
libRbt.so/2013.1/901 2013/11/27
 27 29  0  0  0  0  0  0  0  0999 V2000
   12.5100   -5.8826   11.7706 N   0  0  0  0  0  0  0  0  0  0  0  0
   13.7015   -5.9300   12.6731 C   0  0  2  0  0  0  0  0  0  0  0  0
   14.6773   -4.7721   12.3667 C   0  0  0  0  0  0  0  0  0  0  0  0
   14.4963   -4.0240   11.4012 O   0  0  0  0  0  0  0  0  0  0  0  0
   14.3744   -7.2932   12.5536 C   0  0  0  0  0  0  0  0  0  0  0  0
   14.9469   -7.5950   11.1788 C   0  0  0  0  0  0  0  0  0  0  0  0
   13.6761   -7.7664    9.8932 S   0  0  2  0  0  0  0  0  0  0  0  0
   12.8806   -9.3143   10.4097 C   0  0  0  0  0  0  0  0  0  0  0  0
   14.5323   -8.2636    8.3900 C   0  0  0  0  0  0  0  0  0  0  0  0
   13.7199   -7.8197    7.1885 C   0  0  1  0  0  0  0  0  0  0  0  0
   13.0220   -6.6062    7.4217 O   0  0  0  0  0  0  0  0  0  0  0  0
   14.5965   -7.6013    5.9795 C   0  0  1  0  0  0  0  0  0  0  0  0
   14.8146   -8.8000    5.2924 O   0  0  0  0  0  0  0  0  0  0  0  0
   13.7627   -6.6424    5.1856 C   0  0  1  0  0  0  0  0  0  0  0  0
   12.8640   -7.3722    4.3719 O   0  0  0  0  0  0  0  0  0  0  0  0
   13.0019   -5.8444    6.2367 C   0  0  2  0  0  0  0  0  0  0  0  0
   15.6816   -4.5453   13.0662 O   0  0  0  0  0  0  0  0  0  0  0  0
   17.1442   -3.0723    7.9732 N   0  0  0  0  0  0  0  0  0  0  0  0
   17.0025   -4.4515    7.9263 C   0  0  0  0  0  0  0  0  0  0  0  0
   15.8334   -5.0327    7.4501 N   0  0  0  0  0  0  0  0  0  0  0  0
   14.8362   -4.2427    7.0124 C   0  0  0  0  0  0  0  0  0  0  0  0
   14.9732   -2.8520    7.0404 C   0  0  0  0  0  0  0  0  0  0  0  0
   16.1222   -2.2598    7.5314 C   0  0  0  0  0  0  0  0  0  0  0  0
   16.2430   -0.9412    7.5661 N   0  0  0  0  0  0  0  0  0  0  0  0
   13.8549   -2.3138    6.5415 N   0  0  0  0  0  0  0  0  0  0  0  0
   13.0196   -3.3188    6.1976 C   0  0  0  0  0  0  0  0  0  0  0  0
   13.6137   -4.5241    6.4782 N   0  0  0  0  0  0  0  0  0  0  0  0
  2  1  1  6  0  0  0
  2  3  1  0  0  0  0
  2  5  1  0  0  0  0
  3  4  1  0  0  0  0
  3 17  1  0  0  0  0
  5  6  1  0  0  0  0
  7  6  1  1  0  0  0
  7  8  1  0  0  0  0
  7  9  1  0  0  0  0
 10  9  1  1  0  0  0
 10 11  1  0  0  0  0
 10 12  1  0  0  0  0
 11 16  1  0  0  0  0
 12 13  1  6  0  0  0
 12 14  1  0  0  0  0
 14 15  1  6  0  0  0
 14 16  1  0  0  0  0
 16 27  1  1  0  0  0
 18 19  2  0  0  0  0
 18 23  1  0  0  0  0
 19 20  1  0  0  0  0
 20 21  2  0  0  0  0
 21 22  1  0  0  0  0
 21 27  1  0  0  0  0
 22 23  2  0  0  0  0
 22 25  1  0  0  0  0
 23 24  1  0  0  0  0
 25 26  2  0  0  0  0
 26 27  1  0  0  0  0
M  END
>  <CHROM.1>
-6.50138216,63.90289776,-66.51472615,-68.78003659,-154.10963698,32.99635605
53.16386127,14.38286575,-5.69643836,8.50693178,1.66224845,1.22767190,1.72246171

>  <Name>
ligand

>  <RI>
0

>  <Rbt.Current_Directory>
/home/itssahil/PROJECTS/Mol_Feturizer/Test_systems_manuscript/rnas/2ydh

>  <Rbt.Executable>
rbdock ($Id: //depot/dev/client3/rdock/2013.1/src/exe/rbdock.cxx#4 $)

>  <Rbt.Library>
libRbt.so (2013.1, Build901 2013/11/27)

>  <Rbt.Parameter_File>
/export/apps/rDock/src/rDock_2013.1_src/data/scripts/dock_solv.prm

>  <Rbt.Receptor>
prm/pocket_docking_2.prm

>  <SCORE>
-12.3156

>  <SCORE.INTER>
-13.7728

>  <SCORE.INTER.CONST>
1

>  <SCORE.INTER.POLAR>
0

>  <SCORE.INTER.ROT>
7

>  <SCORE.INTER.SOLV>
19.3648

>  <SCORE.INTER.VDW>
-23.9035

>  <SCORE.INTER.norm>
-0.510104

>  <SCORE.INTRA>
1.45389

>  <SCORE.INTRA.DIHEDRAL>
-1.68276

>  <SCORE.INTRA.DIHEDRAL.0>
9.75037

>  <SCORE.INTRA.POLAR>
0

>  <SCORE.INTRA.POLAR.0>
0

>  <SCORE.INTRA.REPUL>
0

>  <SCORE.INTRA.REPUL.0>
0

>  <SCORE.INTRA.SOLV>
1.3688

>  <SCORE.INTRA.SOLV.lig_0>
-48.4279

>  <SCORE.INTRA.VDW>
1.61087

>  <SCORE.INTRA.VDW.0>
-4.69037

>  <SCORE.INTRA.norm>
0.0538478

>  <SCORE.RESTR>
0.0033528

>  <SCORE.RESTR.CAVITY>
0.0033528

>  <SCORE.RESTR.norm>
0.000124178

>  <SCORE.SYSTEM>
0

>  <SCORE.SYSTEM.CONST>
0

>  <SCORE.SYSTEM.DIHEDRAL>
0

>  <SCORE.SYSTEM.SOLV>
0

>  <SCORE.SYSTEM.norm>
0

>  <SCORE.heavy>
27

>  <SCORE.norm>
-0.456132

>  <RMSD>
1.135

$$$$
ligand
 OpenBabel02271912153D
libRbt.so/2013.1/901 2013/11/27
 27 29  0  0  0  0  0  0  0  0999 V2000
   14.4841   -5.0341   13.0183 N   0  0  0  0  0  0  0  0  0  0  0  0
   14.9646   -5.2529   11.6190 C   0  0  2  0  0  0  0  0  0  0  0  0
   15.3322   -3.9139   10.9418 C   0  0  0  0  0  0  0  0  0  0  0  0
   16.5008   -3.5164   10.9070 O   0  0  0  0  0  0  0  0  0  0  0  0
   13.9067   -6.0208   10.8337 C   0  0  0  0  0  0  0  0  0  0  0  0
   13.6446   -7.4293   11.3403 C   0  0  0  0  0  0  0  0  0  0  0  0
   13.0403   -8.5557   10.0507 S   0  0  2  0  0  0  0  0  0  0  0  0
   13.4445  -10.1634   10.7908 C   0  0  0  0  0  0  0  0  0  0  0  0
   14.2173   -8.4573    8.6924 C   0  0  0  0  0  0  0  0  0  0  0  0
   13.5113   -7.9134    7.4650 C   0  0  1  0  0  0  0  0  0  0  0  0
   12.8414   -6.6887    7.7206 O   0  0  0  0  0  0  0  0  0  0  0  0
   14.4814   -7.6607    6.3368 C   0  0  1  0  0  0  0  0  0  0  0  0
   14.7069   -8.8257    5.5961 O   0  0  0  0  0  0  0  0  0  0  0  0
   13.7423   -6.6257    5.5446 C   0  0  1  0  0  0  0  0  0  0  0  0
   12.8806   -7.2715    4.6267 O   0  0  0  0  0  0  0  0  0  0  0  0
   12.9351   -5.8599    6.5850 C   0  0  2  0  0  0  0  0  0  0  0  0
   14.4784   -3.1799   10.4113 O   0  0  0  0  0  0  0  0  0  0  0  0
   17.3864   -3.1242    7.3337 N   0  0  0  0  0  0  0  0  0  0  0  0
   17.2573   -4.4494    6.9441 C   0  0  0  0  0  0  0  0  0  0  0  0
   16.0037   -5.0327    6.8036 N   0  0  0  0  0  0  0  0  0  0  0  0
   14.9036   -4.2924    7.0317 C   0  0  0  0  0  0  0  0  0  0  0  0
   15.0207   -2.9519    7.4100 C   0  0  0  0  0  0  0  0  0  0  0  0
   16.2617   -2.3646    7.5741 C   0  0  0  0  0  0  0  0  0  0  0  0
   16.3676   -1.0969    7.9434 N   0  0  0  0  0  0  0  0  0  0  0  0
   13.7888   -2.4523    7.5571 N   0  0  0  0  0  0  0  0  0  0  0  0
   12.8999   -3.4321    7.2814 C   0  0  0  0  0  0  0  0  0  0  0  0
   13.5737   -4.5808    6.9484 N   0  0  0  0  0  0  0  0  0  0  0  0
  2  1  1  1  0  0  0
  2  3  1  0  0  0  0
  2  5  1  0  0  0  0
  3  4  1  0  0  0  0
  3 17  1  0  0  0  0
  5  6  1  0  0  0  0
  7  6  1  1  0  0  0
  7  8  1  0  0  0  0
  7  9  1  0  0  0  0
 10  9  1  1  0  0  0
 10 11  1  0  0  0  0
 10 12  1  0  0  0  0
 11 16  1  0  0  0  0
 12 13  1  6  0  0  0
 12 14  1  0  0  0  0
 14 15  1  6  0  0  0
 14 16  1  0  0  0  0
 16 27  1  1  0  0  0
 18 19  2  0  0  0  0
 18 23  1  0  0  0  0
 19 20  1  0  0  0  0
 20 21  2  0  0  0  0
 21 22  1  0  0  0  0
 21 27  1  0  0  0  0
 22 23  2  0  0  0  0
 22 25  1  0  0  0  0
 23 24  1  0  0  0  0
 25 26  2  0  0  0  0
 26 27  1  0  0  0  0
M  END
>  <CHROM.1>
97.00909324,-64.48683592,-153.04119257,159.42328276,-117.21143021,53.25961129
84.46339724,14.44600670,-5.62412683,8.44310429,-0.10907950,1.18421716,1.63317374

>  <Name>
ligand

>  <RI>
0

>  <Rbt.Current_Directory>
/home/itssahil/PROJECTS/Mol_Feturizer/Test_systems_manuscript/rnas/2ydh

>  <Rbt.Executable>
rbdock ($Id: //depot/dev/client3/rdock/2013.1/src/exe/rbdock.cxx#4 $)

>  <Rbt.Library>
libRbt.so (2013.1, Build901 2013/11/27)

>  <Rbt.Parameter_File>
/export/apps/rDock/src/rDock_2013.1_src/data/scripts/dock_solv.prm

>  <Rbt.Receptor>
prm/pocket_docking_2.prm

>  <SCORE>
-12.7852

>  <SCORE.INTER>
-12.6544

>  <SCORE.INTER.CONST>
1

>  <SCORE.INTER.POLAR>
0

>  <SCORE.INTER.ROT>
7

>  <SCORE.INTER.SOLV>
20.2984

>  <SCORE.INTER.VDW>
-23.4691

>  <SCORE.INTER.norm>
-0.468682

>  <SCORE.INTRA>
-0.130744

>  <SCORE.INTRA.DIHEDRAL>
0.500306

>  <SCORE.INTRA.DIHEDRAL.0>
9.75037

>  <SCORE.INTRA.POLAR>
0

>  <SCORE.INTRA.POLAR.0>
0

>  <SCORE.INTRA.REPUL>
0

>  <SCORE.INTRA.REPUL.0>
0

>  <SCORE.INTRA.SOLV>
-0.358862

>  <SCORE.INTRA.SOLV.lig_0>
-48.4279

>  <SCORE.INTRA.VDW>
-0.201466

>  <SCORE.INTRA.VDW.0>
-4.69037

>  <SCORE.INTRA.norm>
-0.00484239

>  <SCORE.RESTR>
0

>  <SCORE.RESTR.CAVITY>
0

>  <SCORE.RESTR.norm>
0

>  <SCORE.SYSTEM>
0

>  <SCORE.SYSTEM.CONST>
0

>  <SCORE.SYSTEM.DIHEDRAL>
0

>  <SCORE.SYSTEM.SOLV>
0

>  <SCORE.SYSTEM.norm>
0

>  <SCORE.heavy>
27

>  <SCORE.norm>
-0.473525

>  <RMSD>
1.154

$$$$
ligand
 OpenBabel02271912153D
libRbt.so/2013.1/901 2013/11/27
 27 29  0  0  0  0  0  0  0  0999 V2000
   13.1223   -6.6474   13.2010 N   0  0  0  0  0  0  0  0  0  0  0  0
   13.9981   -6.4459   12.0056 C   0  0  2  0  0  0  0  0  0  0  0  0
   14.9656   -5.2604   12.2189 C   0  0  0  0  0  0  0  0  0  0  0  0
   15.5257   -4.7144   11.2635 O   0  0  0  0  0  0  0  0  0  0  0  0
   13.1296   -6.2607   10.7659 C   0  0  0  0  0  0  0  0  0  0  0  0
   12.1240   -7.3751   10.5288 C   0  0  0  0  0  0  0  0  0  0  0  0
   12.8695   -8.8809    9.8405 S   0  0  2  0  0  0  0  0  0  0  0  0
   13.8515   -9.4491   11.2578 C   0  0  0  0  0  0  0  0  0  0  0  0
   14.1433   -8.3413    8.6889 C   0  0  0  0  0  0  0  0  0  0  0  0
   13.4805   -7.8078    7.4332 C   0  0  1  0  0  0  0  0  0  0  0  0
   12.8482   -6.5545    7.6421 O   0  0  0  0  0  0  0  0  0  0  0  0
   14.4806   -7.6191    6.3187 C   0  0  1  0  0  0  0  0  0  0  0  0
   14.6804   -8.8109    5.6143 O   0  0  0  0  0  0  0  0  0  0  0  0
   13.7931   -6.5818    5.4842 C   0  0  1  0  0  0  0  0  0  0  0  0
   12.9279   -7.2231    4.5664 O   0  0  0  0  0  0  0  0  0  0  0  0
   12.9926   -5.7609    6.4869 C   0  0  2  0  0  0  0  0  0  0  0  0
   15.2268   -4.8096   13.3493 O   0  0  0  0  0  0  0  0  0  0  0  0
   17.5197   -3.1590    7.2577 N   0  0  0  0  0  0  0  0  0  0  0  0
   17.3527   -4.4895    6.9020 C   0  0  0  0  0  0  0  0  0  0  0  0
   16.0828   -5.0334    6.7502 N   0  0  0  0  0  0  0  0  0  0  0  0
   15.0046   -4.2496    6.9335 C   0  0  0  0  0  0  0  0  0  0  0  0
   15.1603   -2.9038    7.2772 C   0  0  0  0  0  0  0  0  0  0  0  0
   16.4173   -2.3549    7.4524 C   0  0  0  0  0  0  0  0  0  0  0  0
   16.5595   -1.0816    7.7888 N   0  0  0  0  0  0  0  0  0  0  0  0
   13.9437   -2.3583    7.3833 N   0  0  0  0  0  0  0  0  0  0  0  0
   13.0273   -3.3146    7.1152 C   0  0  0  0  0  0  0  0  0  0  0  0
   13.6675   -4.4946    6.8289 N   0  0  0  0  0  0  0  0  0  0  0  0
  2  1  1  1  0  0  0
  2  3  1  0  0  0  0
  2  5  1  0  0  0  0
  3  4  1  0  0  0  0
  3 17  1  0  0  0  0
  5  6  1  0  0  0  0
  7  6  1  1  0  0  0
  7  8  1  0  0  0  0
  7  9  1  0  0  0  0
 10  9  1  1  0  0  0
 10 11  1  0  0  0  0
 10 12  1  0  0  0  0
 11 16  1  0  0  0  0
 12 13  1  6  0  0  0
 12 14  1  0  0  0  0
 14 15  1  6  0  0  0
 14 16  1  0  0  0  0
 16 27  1  1  0  0  0
 18 19  2  0  0  0  0
 18 23  1  0  0  0  0
 19 20  1  0  0  0  0
 20 21  2  0  0  0  0
 21 22  1  0  0  0  0
 21 27  1  0  0  0  0
 22 23  2  0  0  0  0
 22 25  1  0  0  0  0
 23 24  1  0  0  0  0
 25 26  2  0  0  0  0
 26 27  1  0  0  0  0
M  END
>  <CHROM.1>
-161.54744776,-54.40121180,-76.82331503,68.97851237,-73.98747759,72.00968655
84.36184885,14.30693401,-5.85183951,8.55599780,-2.35352696,-1.12014014,-1.57702255

>  <Name>
ligand

>  <RI>
0

>  <Rbt.Current_Directory>
/home/itssahil/PROJECTS/Mol_Feturizer/Test_systems_manuscript/rnas/2ydh

>  <Rbt.Executable>
rbdock ($Id: //depot/dev/client3/rdock/2013.1/src/exe/rbdock.cxx#4 $)

>  <Rbt.Library>
libRbt.so (2013.1, Build901 2013/11/27)

>  <Rbt.Parameter_File>
/export/apps/rDock/src/rDock_2013.1_src/data/scripts/dock_solv.prm

>  <Rbt.Receptor>
prm/pocket_docking_7.prm

>  <SCORE>
-15.4874

>  <SCORE.INTER>
-16.1529

>  <SCORE.INTER.CONST>
1

>  <SCORE.INTER.POLAR>
0

>  <SCORE.INTER.ROT>
7

>  <SCORE.INTER.SOLV>
18.3042

>  <SCORE.INTER.VDW>
-25.1367

>  <SCORE.INTER.norm>
-0.598256

>  <SCORE.INTRA>
0.665472

>  <SCORE.INTRA.DIHEDRAL>
-4.277

>  <SCORE.INTRA.DIHEDRAL.0>
9.75037

>  <SCORE.INTRA.POLAR>
0

>  <SCORE.INTRA.POLAR.0>
0

>  <SCORE.INTRA.REPUL>
0

>  <SCORE.INTRA.REPUL.0>
0

>  <SCORE.INTRA.SOLV>
0.829273

>  <SCORE.INTRA.SOLV.lig_0>
-48.4279

>  <SCORE.INTRA.VDW>
2.38933

>  <SCORE.INTRA.VDW.0>
-4.69037

>  <SCORE.INTRA.norm>
0.0246471

>  <SCORE.RESTR>
0

>  <SCORE.RESTR.CAVITY>
0

>  <SCORE.RESTR.norm>
0

>  <SCORE.SYSTEM>
0

>  <SCORE.SYSTEM.CONST>
0

>  <SCORE.SYSTEM.DIHEDRAL>
0

>  <SCORE.SYSTEM.SOLV>
0

>  <SCORE.SYSTEM.norm>
0

>  <SCORE.heavy>
27

>  <SCORE.norm>
-0.573609

>  <RMSD>
1.159

$$$$
ligand
 OpenBabel02271912153D
libRbt.so/2013.1/901 2013/11/27
 27 29  0  0  0  0  0  0  0  0999 V2000
   14.4777   -5.7753   13.5278 N   0  0  0  0  0  0  0  0  0  0  0  0
   15.2464   -5.5507   12.2648 C   0  0  2  0  0  0  0  0  0  0  0  0
   15.7633   -4.0973   12.1797 C   0  0  0  0  0  0  0  0  0  0  0  0
   15.4992   -3.2738   13.0610 O   0  0  0  0  0  0  0  0  0  0  0  0
   14.3757   -5.9201   11.0685 C   0  0  0  0  0  0  0  0  0  0  0  0
   13.7282   -7.2918   11.1601 C   0  0  0  0  0  0  0  0  0  0  0  0
   12.7852   -7.7416    9.6750 S   0  0  2  0  0  0  0  0  0  0  0  0
   12.1245   -9.3578   10.1719 C   0  0  0  0  0  0  0  0  0  0  0  0
   13.9928   -8.1956    8.4198 C   0  0  0  0  0  0  0  0  0  0  0  0
   13.4853   -7.7502    7.0616 C   0  0  1  0  0  0  0  0  0  0  0  0
   12.8010   -6.5081    7.1169 O   0  0  0  0  0  0  0  0  0  0  0  0
   14.6162   -7.5894    6.0752 C   0  0  1  0  0  0  0  0  0  0  0  0
   14.9343   -8.8099    5.4705 O   0  0  0  0  0  0  0  0  0  0  0  0
   14.0174   -6.6197    5.1024 C   0  0  1  0  0  0  0  0  0  0  0  0
   13.2940   -7.3354    4.1192 O   0  0  0  0  0  0  0  0  0  0  0  0
   13.0741   -5.7725    5.9467 C   0  0  2  0  0  0  0  0  0  0  0  0
   16.4566   -3.6921   11.2287 O   0  0  0  0  0  0  0  0  0  0  0  0
   17.2070   -3.0973    7.8497 N   0  0  0  0  0  0  0  0  0  0  0  0
   17.0885   -4.4683    7.6741 C   0  0  0  0  0  0  0  0  0  0  0  0
   15.9188   -5.0245    7.1700 N   0  0  0  0  0  0  0  0  0  0  0  0
   14.8978   -4.2161    6.8319 C   0  0  0  0  0  0  0  0  0  0  0  0
   15.0109   -2.8320    6.9901 C   0  0  0  0  0  0  0  0  0  0  0  0
   16.1607   -2.2668    7.5103 C   0  0  0  0  0  0  0  0  0  0  0  0
   16.2590   -0.9553    7.6685 N   0  0  0  0  0  0  0  0  0  0  0  0
   13.8719   -2.2709    6.5696 N   0  0  0  0  0  0  0  0  0  0  0  0
   13.0464   -3.2549    6.1493 C   0  0  0  0  0  0  0  0  0  0  0  0
   13.6682   -4.4694    6.3002 N   0  0  0  0  0  0  0  0  0  0  0  0
  2  1  1  1  0  0  0
  2  3  1  0  0  0  0
  2  5  1  0  0  0  0
  3  4  1  0  0  0  0
  3 17  1  0  0  0  0
  5  6  1  0  0  0  0
  7  6  1  1  0  0  0
  7  8  1  0  0  0  0
  7  9  1  0  0  0  0
 10  9  1  1  0  0  0
 10 11  1  0  0  0  0
 10 12  1  0  0  0  0
 11 16  1  0  0  0  0
 12 13  1  6  0  0  0
 12 14  1  0  0  0  0
 14 15  1  6  0  0  0
 14 16  1  0  0  0  0
 16 27  1  1  0  0  0
 18 19  2  0  0  0  0
 18 23  1  0  0  0  0
 19 20  1  0  0  0  0
 20 21  2  0  0  0  0
 21 22  1  0  0  0  0
 21 27  1  0  0  0  0
 22 23  2  0  0  0  0
 22 25  1  0  0  0  0
 23 24  1  0  0  0  0
 25 26  2  0  0  0  0
 26 27  1  0  0  0  0
M  END
>  <CHROM.1>
-2.04555343,-50.71326682,-176.35526901,-177.74711139,-144.80738042,37.10682579
69.07235671,14.47923125,-5.51437182,8.40108200,0.95720339,1.12088221,1.73598540

>  <Name>
ligand

>  <RI>
0

>  <Rbt.Current_Directory>
/home/itssahil/PROJECTS/Mol_Feturizer/Test_systems_manuscript/rnas/2ydh

>  <Rbt.Executable>
rbdock ($Id: //depot/dev/client3/rdock/2013.1/src/exe/rbdock.cxx#4 $)

>  <Rbt.Library>
libRbt.so (2013.1, Build901 2013/11/27)

>  <Rbt.Parameter_File>
/export/apps/rDock/src/rDock_2013.1_src/data/scripts/dock_solv.prm

>  <Rbt.Receptor>
prm/pocket_docking_2.prm

>  <SCORE>
-12.0745

>  <SCORE.INTER>
-12.6939

>  <SCORE.INTER.CONST>
1

>  <SCORE.INTER.POLAR>
0

>  <SCORE.INTER.ROT>
7

>  <SCORE.INTER.SOLV>
21.5733

>  <SCORE.INTER.VDW>
-23.9204

>  <SCORE.INTER.norm>
-0.470146

>  <SCORE.INTRA>
0.61944

>  <SCORE.INTRA.DIHEDRAL>
-0.85846

>  <SCORE.INTRA.DIHEDRAL.0>
9.75037

>  <SCORE.INTRA.POLAR>
0

>  <SCORE.INTRA.POLAR.0>
0

>  <SCORE.INTRA.REPUL>
0

>  <SCORE.INTRA.REPUL.0>
0

>  <SCORE.INTRA.SOLV>
-0.664376

>  <SCORE.INTRA.SOLV.lig_0>
-48.4279

>  <SCORE.INTRA.VDW>
1.38086

>  <SCORE.INTRA.VDW.0>
-4.69037

>  <SCORE.INTRA.norm>
0.0229422

>  <SCORE.RESTR>
0

>  <SCORE.RESTR.CAVITY>
0

>  <SCORE.RESTR.norm>
0

>  <SCORE.SYSTEM>
0

>  <SCORE.SYSTEM.CONST>
0

>  <SCORE.SYSTEM.DIHEDRAL>
0

>  <SCORE.SYSTEM.SOLV>
0

>  <SCORE.SYSTEM.norm>
0

>  <SCORE.heavy>
27

>  <SCORE.norm>
-0.447204

>  <RMSD>
1.172

$$$$
ligand
 OpenBabel02271912153D
libRbt.so/2013.1/901 2013/11/27
 27 29  0  0  0  0  0  0  0  0999 V2000
   16.6513   -4.4644   10.6366 N   0  0  0  0  0  0  0  0  0  0  0  0
   15.1679   -4.5264   10.4564 C   0  0  2  0  0  0  0  0  0  0  0  0
   14.4361   -3.8432   11.6330 C   0  0  0  0  0  0  0  0  0  0  0  0
   13.3366   -3.3044   11.4737 O   0  0  0  0  0  0  0  0  0  0  0  0
   14.7387   -5.9791   10.2805 C   0  0  0  0  0  0  0  0  0  0  0  0
   13.2350   -6.1884   10.2154 C   0  0  0  0  0  0  0  0  0  0  0  0
   12.7647   -7.8607    9.6868 S   0  0  2  0  0  0  0  0  0  0  0  0
   13.3417   -8.8371   11.1043 C   0  0  0  0  0  0  0  0  0  0  0  0
   13.9289   -8.3371    8.3994 C   0  0  0  0  0  0  0  0  0  0  0  0
   13.4640   -7.7621    7.0751 C   0  0  1  0  0  0  0  0  0  0  0  0
   12.8136   -6.5095    7.2239 O   0  0  0  0  0  0  0  0  0  0  0  0
   14.6203   -7.5511    6.1284 C   0  0  1  0  0  0  0  0  0  0  0  0
   14.9174   -8.7243    5.4269 O   0  0  0  0  0  0  0  0  0  0  0  0
   14.0704   -6.4843    5.2314 C   0  0  1  0  0  0  0  0  0  0  0  0
   13.3490   -7.0912    4.1762 O   0  0  0  0  0  0  0  0  0  0  0  0
   13.1329   -5.6848    6.1271 C   0  0  2  0  0  0  0  0  0  0  0  0
   14.9164   -3.7997   12.7804 O   0  0  0  0  0  0  0  0  0  0  0  0
   17.5426   -3.0544    7.3496 N   0  0  0  0  0  0  0  0  0  0  0  0
   17.4297   -4.3562    6.8836 C   0  0  0  0  0  0  0  0  0  0  0  0
   16.1844   -4.9137    6.6191 N   0  0  0  0  0  0  0  0  0  0  0  0
   15.0779   -4.1702    6.8013 C   0  0  0  0  0  0  0  0  0  0  0  0
   15.1799   -2.8524    7.2560 C   0  0  0  0  0  0  0  0  0  0  0  0
   16.4108   -2.2920    7.5434 C   0  0  0  0  0  0  0  0  0  0  0  0
   16.5015   -1.0463    7.9845 N   0  0  0  0  0  0  0  0  0  0  0  0
   13.9455   -2.3433    7.3353 N   0  0  0  0  0  0  0  0  0  0  0  0
   13.0701   -3.2951    6.9431 C   0  0  0  0  0  0  0  0  0  0  0  0
   13.7553   -4.4350    6.6032 N   0  0  0  0  0  0  0  0  0  0  0  0
  2  1  1  1  0  0  0
  2  3  1  0  0  0  0
  2  5  1  0  0  0  0
  3  4  1  0  0  0  0
  3 17  1  0  0  0  0
  5  6  1  0  0  0  0
  7  6  1  1  0  0  0
  7  8  1  0  0  0  0
  7  9  1  0  0  0  0
 10  9  1  1  0  0  0
 10 11  1  0  0  0  0
 10 12  1  0  0  0  0
 11 16  1  0  0  0  0
 12 13  1  6  0  0  0
 12 14  1  0  0  0  0
 14 15  1  6  0  0  0
 14 16  1  0  0  0  0
 16 27  1  1  0  0  0
 18 19  2  0  0  0  0
 18 23  1  0  0  0  0
 19 20  1  0  0  0  0
 20 21  2  0  0  0  0
 21 22  1  0  0  0  0
 21 27  1  0  0  0  0
 22 23  2  0  0  0  0
 22 25  1  0  0  0  0
 23 24  1  0  0  0  0
 25 26  2  0  0  0  0
 26 27  1  0  0  0  0
M  END
>  <CHROM.1>
150.41885029,174.65816216,168.77799810,67.35615459,-83.13902846,33.27308840
90.71119537,14.47115527,-5.36341306,8.23044811,0.76998134,1.11691947,1.32646813

>  <Name>
ligand

>  <RI>
0

>  <Rbt.Current_Directory>
/home/itssahil/PROJECTS/Mol_Feturizer/Test_systems_manuscript/rnas/2ydh

>  <Rbt.Executable>
rbdock ($Id: //depot/dev/client3/rdock/2013.1/src/exe/rbdock.cxx#4 $)

>  <Rbt.Library>
libRbt.so (2013.1, Build901 2013/11/27)

>  <Rbt.Parameter_File>
/export/apps/rDock/src/rDock_2013.1_src/data/scripts/dock_solv.prm

>  <Rbt.Receptor>
prm/pocket_docking_2.prm

>  <SCORE>
-14.5926

>  <SCORE.INTER>
-14.3166

>  <SCORE.INTER.CONST>
1

>  <SCORE.INTER.POLAR>
0

>  <SCORE.INTER.ROT>
7

>  <SCORE.INTER.SOLV>
16.8305

>  <SCORE.INTER.VDW>
-23.4213

>  <SCORE.INTER.norm>
-0.530245

>  <SCORE.INTRA>
-0.712043

>  <SCORE.INTRA.DIHEDRAL>
-2.65497

>  <SCORE.INTRA.DIHEDRAL.0>
9.75037

>  <SCORE.INTRA.POLAR>
0

>  <SCORE.INTRA.POLAR.0>
0

>  <SCORE.INTRA.REPUL>
0

>  <SCORE.INTRA.REPUL.0>
0

>  <SCORE.INTRA.SOLV>
-0.589345

>  <SCORE.INTRA.SOLV.lig_0>
-48.4279

>  <SCORE.INTRA.VDW>
0.910114

>  <SCORE.INTRA.VDW.0>
-4.69037

>  <SCORE.INTRA.norm>
-0.026372

>  <SCORE.RESTR>
0.436091

>  <SCORE.RESTR.CAVITY>
0.436091

>  <SCORE.RESTR.norm>
0.0161515

>  <SCORE.SYSTEM>
0

>  <SCORE.SYSTEM.CONST>
0

>  <SCORE.SYSTEM.DIHEDRAL>
0

>  <SCORE.SYSTEM.SOLV>
0

>  <SCORE.SYSTEM.norm>
0

>  <SCORE.heavy>
27

>  <SCORE.norm>
-0.540465

>  <RMSD>
1.212

$$$$
ligand
 OpenBabel02271912153D
libRbt.so/2013.1/901 2013/11/27
 27 29  0  0  0  0  0  0  0  0999 V2000
   14.2331   -6.0325   13.5709 N   0  0  0  0  0  0  0  0  0  0  0  0
   14.5052   -5.7778   12.1225 C   0  0  2  0  0  0  0  0  0  0  0  0
   14.9294   -4.3112   11.8863 C   0  0  0  0  0  0  0  0  0  0  0  0
   15.4891   -3.6584   12.7724 O   0  0  0  0  0  0  0  0  0  0  0  0
   13.2780   -6.1587   11.3013 C   0  0  0  0  0  0  0  0  0  0  0  0
   13.5738   -6.5121    9.8532 C   0  0  0  0  0  0  0  0  0  0  0  0
   13.5602   -8.2993    9.5327 S   0  0  2  0  0  0  0  0  0  0  0  0
   14.6737   -8.8851   10.8413 C   0  0  0  0  0  0  0  0  0  0  0  0
   14.5469   -8.5611    8.0502 C   0  0  0  0  0  0  0  0  0  0  0  0
   13.7789   -8.0461    6.8479 C   0  0  1  0  0  0  0  0  0  0  0  0
   13.0142   -6.8882    7.1458 O   0  0  0  0  0  0  0  0  0  0  0  0
   14.7066   -7.6846    5.7137 C   0  0  1  0  0  0  0  0  0  0  0  0
   15.0158   -8.8072    4.9386 O   0  0  0  0  0  0  0  0  0  0  0  0
   13.8720   -6.6943    4.9601 C   0  0  1  0  0  0  0  0  0  0  0  0
   13.0521   -7.3854    4.0369 O   0  0  0  0  0  0  0  0  0  0  0  0
   13.0210   -6.0254    6.0319 C   0  0  2  0  0  0  0  0  0  0  0  0
   14.7248   -3.7246   10.8076 O   0  0  0  0  0  0  0  0  0  0  0  0
   17.2242   -3.0844    7.2738 N   0  0  0  0  0  0  0  0  0  0  0  0
   17.1970   -4.4290    6.9333 C   0  0  0  0  0  0  0  0  0  0  0  0
   15.9969   -5.0675    6.6442 N   0  0  0  0  0  0  0  0  0  0  0  0
   14.8512   -4.3628    6.6784 C   0  0  0  0  0  0  0  0  0  0  0  0
   14.8676   -3.0040    7.0053 C   0  0  0  0  0  0  0  0  0  0  0  0
   16.0517   -2.3610    7.3158 C   0  0  0  0  0  0  0  0  0  0  0  0
   16.0609   -1.0756    7.6357 N   0  0  0  0  0  0  0  0  0  0  0  0
   13.6112   -2.5483    6.9522 N   0  0  0  0  0  0  0  0  0  0  0  0
   12.8046   -3.5737    6.6000 C   0  0  0  0  0  0  0  0  0  0  0  0
   13.5575   -4.7076    6.4211 N   0  0  0  0  0  0  0  0  0  0  0  0
  2  1  1  1  0  0  0
  2  3  1  0  0  0  0
  2  5  1  0  0  0  0
  3  4  1  0  0  0  0
  3 17  1  0  0  0  0
  5  6  1  0  0  0  0
  7  6  1  1  0  0  0
  7  8  1  0  0  0  0
  7  9  1  0  0  0  0
 10  9  1  1  0  0  0
 10 11  1  0  0  0  0
 10 12  1  0  0  0  0
 11 16  1  0  0  0  0
 12 13  1  6  0  0  0
 12 14  1  0  0  0  0
 14 15  1  6  0  0  0
 14 16  1  0  0  0  0
 16 27  1  1  0  0  0
 18 19  2  0  0  0  0
 18 23  1  0  0  0  0
 19 20  1  0  0  0  0
 20 21  2  0  0  0  0
 21 22  1  0  0  0  0
 21 27  1  0  0  0  0
 22 23  2  0  0  0  0
 22 25  1  0  0  0  0
 23 24  1  0  0  0  0
 25 26  2  0  0  0  0
 26 27  1  0  0  0  0
M  END
>  <CHROM.1>
27.54249259,-155.47159563,102.64158044,-51.15564005,-71.79571429,35.38598283
74.17352989,14.46347227,-5.66281160,8.23510874,1.28984140,1.27696234,1.61362333

>  <Name>
ligand

>  <RI>
0

>  <Rbt.Current_Directory>
/home/itssahil/PROJECTS/Mol_Feturizer/Test_systems_manuscript/rnas/2ydh

>  <Rbt.Executable>
rbdock ($Id: //depot/dev/client3/rdock/2013.1/src/exe/rbdock.cxx#4 $)

>  <Rbt.Library>
libRbt.so (2013.1, Build901 2013/11/27)

>  <Rbt.Parameter_File>
/export/apps/rDock/src/rDock_2013.1_src/data/scripts/dock_solv.prm

>  <Rbt.Receptor>
prm/pocket_docking_2.prm

>  <SCORE>
-11.9696

>  <SCORE.INTER>
-15.4439

>  <SCORE.INTER.CONST>
1

>  <SCORE.INTER.POLAR>
0

>  <SCORE.INTER.ROT>
7

>  <SCORE.INTER.SOLV>
20.3171

>  <SCORE.INTER.VDW>
-25.335

>  <SCORE.INTER.norm>
-0.571996

>  <SCORE.INTRA>
3.45938

>  <SCORE.INTRA.DIHEDRAL>
2.45318

>  <SCORE.INTRA.DIHEDRAL.0>
9.75037

>  <SCORE.INTRA.POLAR>
0

>  <SCORE.INTRA.POLAR.0>
0

>  <SCORE.INTRA.REPUL>
0

>  <SCORE.INTRA.REPUL.0>
0

>  <SCORE.INTRA.SOLV>
-0.626263

>  <SCORE.INTRA.SOLV.lig_0>
-48.4279

>  <SCORE.INTRA.VDW>
2.54592

>  <SCORE.INTRA.VDW.0>
-4.69037

>  <SCORE.INTRA.norm>
0.128125

>  <SCORE.RESTR>
0.0149378

>  <SCORE.RESTR.CAVITY>
0.0149378

>  <SCORE.RESTR.norm>
0.000553254

>  <SCORE.SYSTEM>
0

>  <SCORE.SYSTEM.CONST>
0

>  <SCORE.SYSTEM.DIHEDRAL>
0

>  <SCORE.SYSTEM.SOLV>
0

>  <SCORE.SYSTEM.norm>
0

>  <SCORE.heavy>
27

>  <SCORE.norm>
-0.443318

>  <RMSD>
1.216

$$$$
ligand
 OpenBabel02271912153D
libRbt.so/2013.1/901 2013/11/27
 27 29  0  0  0  0  0  0  0  0999 V2000
   12.6959   -5.1746   11.8767 N   0  0  0  0  0  0  0  0  0  0  0  0
   14.1557   -5.2917   12.1800 C   0  0  2  0  0  0  0  0  0  0  0  0
   14.9040   -3.9884   11.8222 C   0  0  0  0  0  0  0  0  0  0  0  0
   15.8034   -3.5501   12.5458 O   0  0  0  0  0  0  0  0  0  0  0  0
   14.7300   -6.5012   11.4498 C   0  0  0  0  0  0  0  0  0  0  0  0
   14.6016   -6.4433    9.9368 C   0  0  0  0  0  0  0  0  0  0  0  0
   12.9879   -7.0136    9.3304 S   0  0  2  0  0  0  0  0  0  0  0  0
   12.3133   -7.7764   10.8332 C   0  0  0  0  0  0  0  0  0  0  0  0
   13.3094   -8.4465    8.2896 C   0  0  0  0  0  0  0  0  0  0  0  0
   13.5149   -7.9830    6.8601 C   0  0  1  0  0  0  0  0  0  0  0  0
   12.8896   -6.7365    6.5969 O   0  0  0  0  0  0  0  0  0  0  0  0
   14.9804   -7.8203    6.5378 C   0  0  1  0  0  0  0  0  0  0  0  0
   15.5474   -9.0367    6.1436 O   0  0  0  0  0  0  0  0  0  0  0  0
   14.9221   -6.8359    5.4096 C   0  0  1  0  0  0  0  0  0  0  0  0
   14.7568   -7.5358    4.1910 O   0  0  0  0  0  0  0  0  0  0  0  0
   13.6910   -5.9907    5.7100 C   0  0  2  0  0  0  0  0  0  0  0  0
   14.6354   -3.3248   10.8040 O   0  0  0  0  0  0  0  0  0  0  0  0
   17.4589   -2.7691    7.5219 N   0  0  0  0  0  0  0  0  0  0  0  0
   17.6127   -4.0315    6.9675 C   0  0  0  0  0  0  0  0  0  0  0  0
   16.5097   -4.7653    6.5474 N   0  0  0  0  0  0  0  0  0  0  0  0
   15.2802   -4.2318    6.6652 C   0  0  0  0  0  0  0  0  0  0  0  0
   15.1138   -2.9547    7.2082 C   0  0  0  0  0  0  0  0  0  0  0  0
   16.2002   -2.2221    7.6498 C   0  0  0  0  0  0  0  0  0  0  0  0
   16.0365   -1.0166    8.1738 N   0  0  0  0  0  0  0  0  0  0  0  0
   13.8082   -2.6647    7.1966 N   0  0  0  0  0  0  0  0  0  0  0  0
   13.1470   -3.7150    6.6619 C   0  0  0  0  0  0  0  0  0  0  0  0
   14.0452   -4.6958    6.3214 N   0  0  0  0  0  0  0  0  0  0  0  0
  2  1  1  6  0  0  0
  2  3  1  0  0  0  0
  2  5  1  0  0  0  0
  3  4  1  0  0  0  0
  3 17  1  0  0  0  0
  5  6  1  0  0  0  0
  7  6  1  1  0  0  0
  7  8  1  0  0  0  0
  7  9  1  0  0  0  0
 10  9  1  1  0  0  0
 10 11  1  0  0  0  0
 10 12  1  0  0  0  0
 11 16  1  0  0  0  0
 12 13  1  6  0  0  0
 12 14  1  0  0  0  0
 14 15  1  6  0  0  0
 14 16  1  0  0  0  0
 16 27  1  1  0  0  0
 18 19  2  0  0  0  0
 18 23  1  0  0  0  0
 19 20  1  0  0  0  0
 20 21  2  0  0  0  0
 21 22  1  0  0  0  0
 21 27  1  0  0  0  0
 22 23  2  0  0  0  0
 22 25  1  0  0  0  0
 23 24  1  0  0  0  0
 25 26  2  0  0  0  0
 26 27  1  0  0  0  0
M  END
>  <CHROM.1>
140.46676783,60.29197541,-83.83406947,-12.09244724,-90.35783215,-24.31707650
116.19803085,14.55523695,-5.41960838,8.27918067,1.44102721,1.09711491,1.12652409

>  <Name>
ligand

>  <RI>
0

>  <Rbt.Current_Directory>
/home/itssahil/PROJECTS/Mol_Feturizer/Test_systems_manuscript/rnas/2ydh

>  <Rbt.Executable>
rbdock ($Id: //depot/dev/client3/rdock/2013.1/src/exe/rbdock.cxx#4 $)

>  <Rbt.Library>
libRbt.so (2013.1, Build901 2013/11/27)

>  <Rbt.Parameter_File>
/export/apps/rDock/src/rDock_2013.1_src/data/scripts/dock_solv.prm

>  <Rbt.Receptor>
prm/pocket_docking_2.prm

>  <SCORE>
-0.936128

>  <SCORE.INTER>
-10.342

>  <SCORE.INTER.CONST>
1

>  <SCORE.INTER.POLAR>
0

>  <SCORE.INTER.ROT>
7

>  <SCORE.INTER.SOLV>
19.9478

>  <SCORE.INTER.VDW>
-21.8106

>  <SCORE.INTER.norm>
-0.383036

>  <SCORE.INTRA>
9.3585

>  <SCORE.INTRA.DIHEDRAL>
4.39392

>  <SCORE.INTRA.DIHEDRAL.0>
9.75037

>  <SCORE.INTRA.POLAR>
0

>  <SCORE.INTRA.POLAR.0>
0

>  <SCORE.INTRA.REPUL>
0

>  <SCORE.INTRA.REPUL.0>
0

>  <SCORE.INTRA.SOLV>
2.07696

>  <SCORE.INTRA.SOLV.lig_0>
-48.4279

>  <SCORE.INTRA.VDW>
6.12306

>  <SCORE.INTRA.VDW.0>
-4.69037

>  <SCORE.INTRA.norm>
0.346611

>  <SCORE.RESTR>
0.0473454

>  <SCORE.RESTR.CAVITY>
0.0473454

>  <SCORE.RESTR.norm>
0.00175353

>  <SCORE.SYSTEM>
0

>  <SCORE.SYSTEM.CONST>
0

>  <SCORE.SYSTEM.DIHEDRAL>
0

>  <SCORE.SYSTEM.SOLV>
0

>  <SCORE.SYSTEM.norm>
0

>  <SCORE.heavy>
27

>  <SCORE.norm>
-0.0346714

>  <RMSD>
1.217

$$$$
ligand
 OpenBabel02271912153D
libRbt.so/2013.1/901 2013/11/27
 27 29  0  0  0  0  0  0  0  0999 V2000
   16.3175   -4.8456   10.6877 N   0  0  0  0  0  0  0  0  0  0  0  0
   15.0820   -5.3932   11.3283 C   0  0  2  0  0  0  0  0  0  0  0  0
   14.9016   -4.8332   12.7568 C   0  0  0  0  0  0  0  0  0  0  0  0
   14.2479   -5.4478   13.6050 O   0  0  0  0  0  0  0  0  0  0  0  0
   15.1356   -6.9172   11.3129 C   0  0  0  0  0  0  0  0  0  0  0  0
   13.7876   -7.5969   11.4861 C   0  0  0  0  0  0  0  0  0  0  0  0
   12.7957   -7.6234    9.9655 S   0  0  2  0  0  0  0  0  0  0  0  0
   11.8767   -9.1729   10.1892 C   0  0  0  0  0  0  0  0  0  0  0  0
   13.9231   -8.0414    8.6261 C   0  0  0  0  0  0  0  0  0  0  0  0
   13.4233   -7.4059    7.3427 C   0  0  1  0  0  0  0  0  0  0  0  0
   12.8620   -6.1199    7.5550 O   0  0  0  0  0  0  0  0  0  0  0  0
   14.5371   -7.2426    6.3373 C   0  0  1  0  0  0  0  0  0  0  0  0
   14.7211   -8.4139    5.5951 O   0  0  0  0  0  0  0  0  0  0  0  0
   14.0069   -6.1219    5.4960 C   0  0  1  0  0  0  0  0  0  0  0  0
   13.1921   -6.6567    4.4702 O   0  0  0  0  0  0  0  0  0  0  0  0
   13.1718   -5.2891    6.4601 C   0  0  2  0  0  0  0  0  0  0  0  0
   15.3956   -3.7477   13.1134 O   0  0  0  0  0  0  0  0  0  0  0  0
   17.7974   -2.8758    7.2596 N   0  0  0  0  0  0  0  0  0  0  0  0
   17.5769   -4.1402    6.7329 C   0  0  0  0  0  0  0  0  0  0  0  0
   16.2880   -4.6422    6.5984 N   0  0  0  0  0  0  0  0  0  0  0  0
   15.2426   -3.8801    6.9681 C   0  0  0  0  0  0  0  0  0  0  0  0
   15.4513   -2.5987    7.4860 C   0  0  0  0  0  0  0  0  0  0  0  0
   16.7291   -2.0948    7.6452 C   0  0  0  0  0  0  0  0  0  0  0  0
   16.9222   -0.8841    8.1466 N   0  0  0  0  0  0  0  0  0  0  0  0
   14.2573   -2.0598    7.7559 N   0  0  0  0  0  0  0  0  0  0  0  0
   13.3037   -2.9575    7.4229 C   0  0  0  0  0  0  0  0  0  0  0  0
   13.8965   -4.0922    6.9274 N   0  0  0  0  0  0  0  0  0  0  0  0
  2  1  1  1  0  0  0
  2  3  1  0  0  0  0
  2  5  1  0  0  0  0
  3  4  1  0  0  0  0
  3 17  1  0  0  0  0
  5  6  1  0  0  0  0
  7  6  1  1  0  0  0
  7  8  1  0  0  0  0
  7  9  1  0  0  0  0
 10  9  1  1  0  0  0
 10 11  1  0  0  0  0
 10 12  1  0  0  0  0
 11 16  1  0  0  0  0
 12 13  1  6  0  0  0
 12 14  1  0  0  0  0
 14 15  1  6  0  0  0
 14 16  1  0  0  0  0
 16 27  1  1  0  0  0
 18 19  2  0  0  0  0
 18 23  1  0  0  0  0
 19 20  1  0  0  0  0
 20 21  2  0  0  0  0
 21 22  1  0  0  0  0
 21 27  1  0  0  0  0
 22 23  2  0  0  0  0
 22 25  1  0  0  0  0
 23 24  1  0  0  0  0
 25 26  2  0  0  0  0
 26 27  1  0  0  0  0
M  END
>  <CHROM.1>
-155.68335420,-160.21846047,78.94692575,148.73924466,-150.61924401,37.30574004
95.79344937,14.56935042,-5.41109084,8.59785676,-2.19437569,-1.04118344,-1.52767817

>  <Name>
ligand

>  <RI>
0

>  <Rbt.Current_Directory>
/home/itssahil/PROJECTS/Mol_Feturizer/Test_systems_manuscript/rnas/2ydh

>  <Rbt.Executable>
rbdock ($Id: //depot/dev/client3/rdock/2013.1/src/exe/rbdock.cxx#4 $)

>  <Rbt.Library>
libRbt.so (2013.1, Build901 2013/11/27)

>  <Rbt.Parameter_File>
/export/apps/rDock/src/rDock_2013.1_src/data/scripts/dock_solv.prm

>  <Rbt.Receptor>
prm/pocket_docking_2.prm

>  <SCORE>
-12.2538

>  <SCORE.INTER>
-15.1751

>  <SCORE.INTER.CONST>
1

>  <SCORE.INTER.POLAR>
0

>  <SCORE.INTER.ROT>
7

>  <SCORE.INTER.SOLV>
16.8912

>  <SCORE.INTER.VDW>
-24.0138

>  <SCORE.INTER.norm>
-0.562042

>  <SCORE.INTRA>
2.53567

>  <SCORE.INTRA.DIHEDRAL>
2.12653

>  <SCORE.INTRA.DIHEDRAL.0>
9.75037

>  <SCORE.INTRA.POLAR>
0

>  <SCORE.INTRA.POLAR.0>
0

>  <SCORE.INTRA.REPUL>
0

>  <SCORE.INTRA.REPUL.0>
0

>  <SCORE.INTRA.SOLV>
-1.18263

>  <SCORE.INTRA.SOLV.lig_0>
-48.4279

>  <SCORE.INTRA.VDW>
2.06372

>  <SCORE.INTRA.VDW.0>
-4.69037

>  <SCORE.INTRA.norm>
0.0939139

>  <SCORE.RESTR>
0.385647

>  <SCORE.RESTR.CAVITY>
0.385647

>  <SCORE.RESTR.norm>
0.0142832

>  <SCORE.SYSTEM>
0

>  <SCORE.SYSTEM.CONST>
0

>  <SCORE.SYSTEM.DIHEDRAL>
0

>  <SCORE.SYSTEM.SOLV>
0

>  <SCORE.SYSTEM.norm>
0

>  <SCORE.heavy>
27

>  <SCORE.norm>
-0.453845

>  <RMSD>
1.229

$$$$
ligand
 OpenBabel02271912153D
libRbt.so/2013.1/901 2013/11/27
 27 29  0  0  0  0  0  0  0  0999 V2000
   14.7591   -5.5103   12.8038 N   0  0  0  0  0  0  0  0  0  0  0  0
   15.1551   -5.2396   11.3873 C   0  0  2  0  0  0  0  0  0  0  0  0
   14.3844   -4.0285   10.8164 C   0  0  0  0  0  0  0  0  0  0  0  0
   14.5858   -3.6293    9.6654 O   0  0  0  0  0  0  0  0  0  0  0  0
   14.9443   -6.4982   10.5524 C   0  0  0  0  0  0  0  0  0  0  0  0
   13.4970   -6.9490   10.4464 C   0  0  0  0  0  0  0  0  0  0  0  0
   13.2973   -8.5217    9.5611 S   0  0  2  0  0  0  0  0  0  0  0  0
   14.1208   -9.6617   10.7090 C   0  0  0  0  0  0  0  0  0  0  0  0
   14.4481   -8.4800    8.1776 C   0  0  0  0  0  0  0  0  0  0  0  0
   13.7155   -7.9994    6.9395 C   0  0  1  0  0  0  0  0  0  0  0  0
   13.0047   -6.7913    7.1624 O   0  0  0  0  0  0  0  0  0  0  0  0
   14.6686   -7.7481    5.7966 C   0  0  1  0  0  0  0  0  0  0  0  0
   14.9300   -8.9270    5.0905 O   0  0  0  0  0  0  0  0  0  0  0  0
   13.8886   -6.7645    4.9787 C   0  0  1  0  0  0  0  0  0  0  0  0
   13.0441   -7.4680    4.0876 O   0  0  0  0  0  0  0  0  0  0  0  0
   13.0619   -5.9954    6.0012 C   0  0  2  0  0  0  0  0  0  0  0  0
   13.5395   -3.4030   11.4829 O   0  0  0  0  0  0  0  0  0  0  0  0
   17.2633   -3.2631    7.6570 N   0  0  0  0  0  0  0  0  0  0  0  0
   17.1538   -4.6356    7.4869 C   0  0  0  0  0  0  0  0  0  0  0  0
   15.9639   -5.2079    7.0530 N   0  0  0  0  0  0  0  0  0  0  0  0
   14.9133   -4.4139    6.7777 C   0  0  0  0  0  0  0  0  0  0  0  0
   15.0162   -3.0284    6.9307 C   0  0  0  0  0  0  0  0  0  0  0  0
   16.1870   -2.4472    7.3818 C   0  0  0  0  0  0  0  0  0  0  0  0
   16.2762   -1.1346    7.5356 N   0  0  0  0  0  0  0  0  0  0  0  0
   13.8463   -2.4832    6.5799 N   0  0  0  0  0  0  0  0  0  0  0  0
   13.0111   -3.4785    6.2085 C   0  0  0  0  0  0  0  0  0  0  0  0
   13.6577   -4.6842    6.3202 N   0  0  0  0  0  0  0  0  0  0  0  0
  2  1  1  1  0  0  0
  2  3  1  0  0  0  0
  2  5  1  0  0  0  0
  3  4  1  0  0  0  0
  3 17  1  0  0  0  0
  5  6  1  0  0  0  0
  7  6  1  1  0  0  0
  7  8  1  0  0  0  0
  7  9  1  0  0  0  0
 10  9  1  1  0  0  0
 10 11  1  0  0  0  0
 10 12  1  0  0  0  0
 11 16  1  0  0  0  0
 12 13  1  6  0  0  0
 12 14  1  0  0  0  0
 14 15  1  6  0  0  0
 14 16  1  0  0  0  0
 16 27  1  1  0  0  0
 18 19  2  0  0  0  0
 18 23  1  0  0  0  0
 19 20  1  0  0  0  0
 20 21  2  0  0  0  0
 21 22  1  0  0  0  0
 21 27  1  0  0  0  0
 22 23  2  0  0  0  0
 22 25  1  0  0  0  0
 23 24  1  0  0  0  0
 25 26  2  0  0  0  0
 26 27  1  0  0  0  0
M  END
>  <CHROM.1>
178.79060208,63.88586993,-175.30044391,66.25496394,-95.31424662,51.28430856
62.67220068,14.44227080,-5.70123825,8.07671730,0.17522274,1.29775477,1.62860912

>  <Name>
ligand

>  <RI>
0

>  <Rbt.Current_Directory>
/home/itssahil/PROJECTS/Mol_Feturizer/Test_systems_manuscript/rnas/2ydh

>  <Rbt.Executable>
rbdock ($Id: //depot/dev/client3/rdock/2013.1/src/exe/rbdock.cxx#4 $)

>  <Rbt.Library>
libRbt.so (2013.1, Build901 2013/11/27)

>  <Rbt.Parameter_File>
/export/apps/rDock/src/rDock_2013.1_src/data/scripts/dock_solv.prm

>  <Rbt.Receptor>
prm/pocket_docking_2.prm

>  <SCORE>
-16.2368

>  <SCORE.INTER>
-14.4988

>  <SCORE.INTER.CONST>
1

>  <SCORE.INTER.POLAR>
0

>  <SCORE.INTER.ROT>
7

>  <SCORE.INTER.SOLV>
18.6727

>  <SCORE.INTER.VDW>
-24.1567

>  <SCORE.INTER.norm>
-0.536992

>  <SCORE.INTRA>
-1.73803

>  <SCORE.INTRA.DIHEDRAL>
-3.84268

>  <SCORE.INTRA.DIHEDRAL.0>
9.75037

>  <SCORE.INTRA.POLAR>
0

>  <SCORE.INTRA.POLAR.0>
0

>  <SCORE.INTRA.REPUL>
0

>  <SCORE.INTRA.REPUL.0>
0

>  <SCORE.INTRA.SOLV>
-0.380218

>  <SCORE.INTRA.SOLV.lig_0>
-48.4279

>  <SCORE.INTRA.VDW>
0.373418

>  <SCORE.INTRA.VDW.0>
-4.69037

>  <SCORE.INTRA.norm>
-0.0643716

>  <SCORE.RESTR>
0

>  <SCORE.RESTR.CAVITY>
0

>  <SCORE.RESTR.norm>
0

>  <SCORE.SYSTEM>
0

>  <SCORE.SYSTEM.CONST>
0

>  <SCORE.SYSTEM.DIHEDRAL>
0

>  <SCORE.SYSTEM.SOLV>
0

>  <SCORE.SYSTEM.norm>
0

>  <SCORE.heavy>
27

>  <SCORE.norm>
-0.601363

>  <RMSD>
1.296

$$$$
ligand
 OpenBabel02271912153D
libRbt.so/2013.1/901 2013/11/27
 27 29  0  0  0  0  0  0  0  0999 V2000
   15.3727   -6.6266   11.0271 N   0  0  0  0  0  0  0  0  0  0  0  0
   14.0834   -5.8728   10.9487 C   0  0  2  0  0  0  0  0  0  0  0  0
   14.2589   -4.4187   11.4400 C   0  0  0  0  0  0  0  0  0  0  0  0
   13.7002   -3.4794   10.8654 O   0  0  0  0  0  0  0  0  0  0  0  0
   13.0113   -6.6183   11.7364 C   0  0  0  0  0  0  0  0  0  0  0  0
   11.9542   -7.2935   10.8786 C   0  0  0  0  0  0  0  0  0  0  0  0
   12.5585   -8.7826   10.0334 S   0  0  2  0  0  0  0  0  0  0  0  0
   13.4458   -9.6027   11.3882 C   0  0  0  0  0  0  0  0  0  0  0  0
   13.9058   -8.2529    8.9638 C   0  0  0  0  0  0  0  0  0  0  0  0
   13.3254   -7.6666    7.6910 C   0  0  1  0  0  0  0  0  0  0  0  0
   12.7452   -6.3878    7.8961 O   0  0  0  0  0  0  0  0  0  0  0  0
   14.3815   -7.5080    6.6245 C   0  0  1  0  0  0  0  0  0  0  0  0
   14.5549   -8.6960    5.9068 O   0  0  0  0  0  0  0  0  0  0  0  0
   13.7819   -6.4245    5.7809 C   0  0  1  0  0  0  0  0  0  0  0  0
   12.9283   -7.0073    4.8146 O   0  0  0  0  0  0  0  0  0  0  0  0
   12.9781   -5.5827    6.7636 C   0  0  2  0  0  0  0  0  0  0  0  0
   14.9669   -4.1288   12.4219 O   0  0  0  0  0  0  0  0  0  0  0  0
   17.5782   -3.0382    7.2366 N   0  0  0  0  0  0  0  0  0  0  0  0
   17.3608   -4.3211    6.7553 C   0  0  0  0  0  0  0  0  0  0  0  0
   16.0795   -4.8574    6.7073 N   0  0  0  0  0  0  0  0  0  0  0  0
   15.0376   -4.1112    7.1169 C   0  0  0  0  0  0  0  0  0  0  0  0
   15.2423   -2.8119    7.5896 C   0  0  0  0  0  0  0  0  0  0  0  0
   16.5137   -2.2733    7.6629 C   0  0  0  0  0  0  0  0  0  0  0  0
   16.7038   -1.0453    8.1218 N   0  0  0  0  0  0  0  0  0  0  0  0
   14.0520   -2.2949    7.9138 N   0  0  0  0  0  0  0  0  0  0  0  0
   13.1045   -3.2239    7.6584 C   0  0  0  0  0  0  0  0  0  0  0  0
   13.6972   -4.3567    7.1585 N   0  0  0  0  0  0  0  0  0  0  0  0
  2  1  1  1  0  0  0
  2  3  1  0  0  0  0
  2  5  1  0  0  0  0
  3  4  1  0  0  0  0
  3 17  1  0  0  0  0
  5  6  1  0  0  0  0
  7  6  1  1  0  0  0
  7  8  1  0  0  0  0
  7  9  1  0  0  0  0
 10  9  1  1  0  0  0
 10 11  1  0  0  0  0
 10 12  1  0  0  0  0
 11 16  1  0  0  0  0
 12 13  1  6  0  0  0
 12 14  1  0  0  0  0
 14 15  1  6  0  0  0
 14 16  1  0  0  0  0
 16 27  1  1  0  0  0
 18 19  2  0  0  0  0
 18 23  1  0  0  0  0
 19 20  1  0  0  0  0
 20 21  2  0  0  0  0
 21 22  1  0  0  0  0
 21 27  1  0  0  0  0
 22 23  2  0  0  0  0
 22 25  1  0  0  0  0
 23 24  1  0  0  0  0
 25 26  2  0  0  0  0
 26 27  1  0  0  0  0
M  END
>  <CHROM.1>
140.01031393,-108.15799657,73.48311205,45.36080725,-80.70385089,73.24363677
96.13004861,14.22581023,-5.65541580,8.58758610,-2.98993541,-1.12648854,-1.82780889

>  <Name>
ligand

>  <RI>
0

>  <Rbt.Current_Directory>
/home/itssahil/PROJECTS/Mol_Feturizer/Test_systems_manuscript/rnas/2ydh

>  <Rbt.Executable>
rbdock ($Id: //depot/dev/client3/rdock/2013.1/src/exe/rbdock.cxx#4 $)

>  <Rbt.Library>
libRbt.so (2013.1, Build901 2013/11/27)

>  <Rbt.Parameter_File>
/export/apps/rDock/src/rDock_2013.1_src/data/scripts/dock_solv.prm

>  <Rbt.Receptor>
prm/pocket_docking_3.prm

>  <SCORE>
-15.2743

>  <SCORE.INTER>
-17.9561

>  <SCORE.INTER.CONST>
1

>  <SCORE.INTER.POLAR>
0

>  <SCORE.INTER.ROT>
7

>  <SCORE.INTER.SOLV>
15.7063

>  <SCORE.INTER.VDW>
-25.4728

>  <SCORE.INTER.norm>
-0.665041

>  <SCORE.INTRA>
2.68182

>  <SCORE.INTRA.DIHEDRAL>
0.509364

>  <SCORE.INTRA.DIHEDRAL.0>
9.75037

>  <SCORE.INTRA.POLAR>
0

>  <SCORE.INTRA.POLAR.0>
0

>  <SCORE.INTRA.REPUL>
0

>  <SCORE.INTRA.REPUL.0>
0

>  <SCORE.INTRA.SOLV>
2.3134

>  <SCORE.INTRA.SOLV.lig_0>
-48.4279

>  <SCORE.INTRA.VDW>
1.27044

>  <SCORE.INTRA.VDW.0>
-4.69037

>  <SCORE.INTRA.norm>
0.0993267

>  <SCORE.RESTR>
0

>  <SCORE.RESTR.CAVITY>
0

>  <SCORE.RESTR.norm>
0

>  <SCORE.SYSTEM>
0

>  <SCORE.SYSTEM.CONST>
0

>  <SCORE.SYSTEM.DIHEDRAL>
0

>  <SCORE.SYSTEM.SOLV>
0

>  <SCORE.SYSTEM.norm>
0

>  <SCORE.heavy>
27

>  <SCORE.norm>
-0.565714

>  <RMSD>
1.302

$$$$
ligand
 OpenBabel02271912153D
libRbt.so/2013.1/901 2013/11/27
 27 29  0  0  0  0  0  0  0  0999 V2000
   14.3213   -5.8382   12.1859 N   0  0  0  0  0  0  0  0  0  0  0  0
   14.1063   -5.8167   10.7060 C   0  0  2  0  0  0  0  0  0  0  0  0
   14.5316   -4.4597   10.1023 C   0  0  0  0  0  0  0  0  0  0  0  0
   15.6910   -4.2648    9.7250 O   0  0  0  0  0  0  0  0  0  0  0  0
   12.6496   -6.1486   10.4002 C   0  0  0  0  0  0  0  0  0  0  0  0
   12.1957   -7.5105   10.8986 C   0  0  0  0  0  0  0  0  0  0  0  0
   12.5948   -8.8635    9.7554 S   0  0  2  0  0  0  0  0  0  0  0  0
   13.3806  -10.0429   10.8900 C   0  0  0  0  0  0  0  0  0  0  0  0
   13.9898   -8.3028    8.7658 C   0  0  0  0  0  0  0  0  0  0  0  0
   13.4804   -7.8248    7.4194 C   0  0  1  0  0  0  0  0  0  0  0  0
   12.7928   -6.5863    7.5062 O   0  0  0  0  0  0  0  0  0  0  0  0
   14.6104   -7.6360    6.4369 C   0  0  1  0  0  0  0  0  0  0  0  0
   14.9316   -8.8401    5.8015 O   0  0  0  0  0  0  0  0  0  0  0  0
   14.0085   -6.6438    5.4891 C   0  0  1  0  0  0  0  0  0  0  0  0
   13.2866   -7.3365    4.4885 O   0  0  0  0  0  0  0  0  0  0  0  0
   13.0634   -5.8208    6.3549 C   0  0  2  0  0  0  0  0  0  0  0  0
   13.7373   -3.5099    9.9745 O   0  0  0  0  0  0  0  0  0  0  0  0
   17.4081   -2.9859    7.3275 N   0  0  0  0  0  0  0  0  0  0  0  0
   17.3284   -4.3171    6.9449 C   0  0  0  0  0  0  0  0  0  0  0  0
   16.0970   -4.9277    6.7394 N   0  0  0  0  0  0  0  0  0  0  0  0
   14.9709   -4.2084    6.8967 C   0  0  0  0  0  0  0  0  0  0  0  0
   15.0389   -2.8624    7.2671 C   0  0  0  0  0  0  0  0  0  0  0  0
   16.2562   -2.2478    7.4956 C   0  0  0  0  0  0  0  0  0  0  0  0
   16.3151   -0.9748    7.8571 N   0  0  0  0  0  0  0  0  0  0  0  0
   13.7906   -2.3872    7.3386 N   0  0  0  0  0  0  0  0  0  0  0  0
   12.9391   -3.3879    7.0229 C   0  0  0  0  0  0  0  0  0  0  0  0
   13.6540   -4.5253    6.7408 N   0  0  0  0  0  0  0  0  0  0  0  0
  2  1  1  1  0  0  0
  2  3  1  0  0  0  0
  2  5  1  0  0  0  0
  3  4  1  0  0  0  0
  3 17  1  0  0  0  0
  5  6  1  0  0  0  0
  7  6  1  1  0  0  0
  7  8  1  0  0  0  0
  7  9  1  0  0  0  0
 10  9  1  1  0  0  0
 10 11  1  0  0  0  0
 10 12  1  0  0  0  0
 11 16  1  0  0  0  0
 12 13  1  6  0  0  0
 12 14  1  0  0  0  0
 14 15  1  6  0  0  0
 14 16  1  0  0  0  0
 16 27  1  1  0  0  0
 18 19  2  0  0  0  0
 18 23  1  0  0  0  0
 19 20  1  0  0  0  0
 20 21  2  0  0  0  0
 21 22  1  0  0  0  0
 21 27  1  0  0  0  0
 22 23  2  0  0  0  0
 22 25  1  0  0  0  0
 23 24  1  0  0  0  0
 25 26  2  0  0  0  0
 26 27  1  0  0  0  0
M  END
>  <CHROM.1>
88.83726466,-59.74435045,-84.11997240,130.35757227,-100.00571721,72.51736737
90.55272698,14.23021780,-5.71814827,8.18782425,3.09416063,-1.16567964,-1.95577432

>  <Name>
ligand

>  <RI>
0

>  <Rbt.Current_Directory>
/home/itssahil/PROJECTS/Mol_Feturizer/Test_systems_manuscript/rnas/2ydh

>  <Rbt.Executable>
rbdock ($Id: //depot/dev/client3/rdock/2013.1/src/exe/rbdock.cxx#4 $)

>  <Rbt.Library>
libRbt.so (2013.1, Build901 2013/11/27)

>  <Rbt.Parameter_File>
/export/apps/rDock/src/rDock_2013.1_src/data/scripts/dock_solv.prm

>  <Rbt.Receptor>
prm/pocket_docking_3.prm

>  <SCORE>
-16.1808

>  <SCORE.INTER>
-16.8278

>  <SCORE.INTER.CONST>
1

>  <SCORE.INTER.POLAR>
0

>  <SCORE.INTER.ROT>
7

>  <SCORE.INTER.SOLV>
16.9734

>  <SCORE.INTER.VDW>
-25.143

>  <SCORE.INTER.norm>
-0.623253

>  <SCORE.INTRA>
0.647045

>  <SCORE.INTRA.DIHEDRAL>
1.86788

>  <SCORE.INTRA.DIHEDRAL.0>
9.75037

>  <SCORE.INTRA.POLAR>
0

>  <SCORE.INTRA.POLAR.0>
0

>  <SCORE.INTRA.REPUL>
0

>  <SCORE.INTRA.REPUL.0>
0

>  <SCORE.INTRA.SOLV>
0.471657

>  <SCORE.INTRA.SOLV.lig_0>
-48.4279

>  <SCORE.INTRA.VDW>
-0.522726

>  <SCORE.INTRA.VDW.0>
-4.69037

>  <SCORE.INTRA.norm>
0.0239646

>  <SCORE.RESTR>
0

>  <SCORE.RESTR.CAVITY>
0

>  <SCORE.RESTR.norm>
0

>  <SCORE.SYSTEM>
0

>  <SCORE.SYSTEM.CONST>
0

>  <SCORE.SYSTEM.DIHEDRAL>
0

>  <SCORE.SYSTEM.SOLV>
0

>  <SCORE.SYSTEM.norm>
0

>  <SCORE.heavy>
27

>  <SCORE.norm>
-0.599288

>  <RMSD>
1.307

$$$$
ligand
 OpenBabel02271912153D
libRbt.so/2013.1/901 2013/11/27
 27 29  0  0  0  0  0  0  0  0999 V2000
   13.3425   -6.2750   12.0204 N   0  0  0  0  0  0  0  0  0  0  0  0
   14.5941   -5.5886   11.5741 C   0  0  2  0  0  0  0  0  0  0  0  0
   14.8174   -4.2756   12.3570 C   0  0  0  0  0  0  0  0  0  0  0  0
   15.4498   -4.2650   13.4175 O   0  0  0  0  0  0  0  0  0  0  0  0
   14.5350   -5.3550   10.0683 C   0  0  0  0  0  0  0  0  0  0  0  0
   15.1815   -6.4490    9.2350 C   0  0  0  0  0  0  0  0  0  0  0  0
   14.1789   -7.9591    9.1297 S   0  0  2  0  0  0  0  0  0  0  0  0
   14.9706   -8.9792   10.4057 C   0  0  0  0  0  0  0  0  0  0  0  0
   14.6724   -8.7967    7.6148 C   0  0  0  0  0  0  0  0  0  0  0  0
   13.8512   -8.2549    6.4604 C   0  0  1  0  0  0  0  0  0  0  0  0
   13.0568   -7.1398    6.8338 O   0  0  0  0  0  0  0  0  0  0  0  0
   14.7313   -7.8092    5.3182 C   0  0  1  0  0  0  0  0  0  0  0  0
   15.0550   -8.8836    4.4830 O   0  0  0  0  0  0  0  0  0  0  0  0
   13.8409   -6.8159    4.6359 C   0  0  1  0  0  0  0  0  0  0  0  0
   13.0175   -7.4928    3.7053 O   0  0  0  0  0  0  0  0  0  0  0  0
   13.0004   -6.2273    5.7618 C   0  0  2  0  0  0  0  0  0  0  0  0
   14.3715   -3.1821   11.9636 O   0  0  0  0  0  0  0  0  0  0  0  0
   17.0995   -3.2739    7.2893 N   0  0  0  0  0  0  0  0  0  0  0  0
   17.1023   -4.6149    6.9340 C   0  0  0  0  0  0  0  0  0  0  0  0
   15.9265   -5.2577    6.5654 N   0  0  0  0  0  0  0  0  0  0  0  0
   14.7762   -4.5605    6.5363 C   0  0  0  0  0  0  0  0  0  0  0  0
   14.7634   -3.2051    6.8774 C   0  0  0  0  0  0  0  0  0  0  0  0
   15.9218   -2.5581    7.2666 C   0  0  0  0  0  0  0  0  0  0  0  0
   15.9026   -1.2762    7.5995 N   0  0  0  0  0  0  0  0  0  0  0  0
   13.5095   -2.7566    6.7519 N   0  0  0  0  0  0  0  0  0  0  0  0
   12.7330   -3.7831    6.3404 C   0  0  0  0  0  0  0  0  0  0  0  0
   13.5031   -4.9104    6.1965 N   0  0  0  0  0  0  0  0  0  0  0  0
  2  1  1  1  0  0  0
  2  3  1  0  0  0  0
  2  5  1  0  0  0  0
  3  4  1  0  0  0  0
  3 17  1  0  0  0  0
  5  6  1  0  0  0  0
  7  6  1  6  0  0  0
  7  8  1  0  0  0  0
  7  9  1  0  0  0  0
 10  9  1  1  0  0  0
 10 11  1  0  0  0  0
 10 12  1  0  0  0  0
 11 16  1  0  0  0  0
 12 13  1  6  0  0  0
 12 14  1  0  0  0  0
 14 15  1  6  0  0  0
 14 16  1  0  0  0  0
 16 27  1  1  0  0  0
 18 19  2  0  0  0  0
 18 23  1  0  0  0  0
 19 20  1  0  0  0  0
 20 21  2  0  0  0  0
 21 22  1  0  0  0  0
 21 27  1  0  0  0  0
 22 23  2  0  0  0  0
 22 25  1  0  0  0  0
 23 24  1  0  0  0  0
 25 26  2  0  0  0  0
 26 27  1  0  0  0  0
M  END
>  <CHROM.1>
89.31234972,-93.43028346,75.24526064,-98.35542815,-87.04914817,7.56803496
68.34437464,14.55516485,-5.72555984,7.98986016,0.91051141,1.37075570,1.80940437

>  <Name>
ligand

>  <RI>
0

>  <Rbt.Current_Directory>
/home/itssahil/PROJECTS/Mol_Feturizer/Test_systems_manuscript/rnas/2ydh

>  <Rbt.Executable>
rbdock ($Id: //depot/dev/client3/rdock/2013.1/src/exe/rbdock.cxx#4 $)

>  <Rbt.Library>
libRbt.so (2013.1, Build901 2013/11/27)

>  <Rbt.Parameter_File>
/export/apps/rDock/src/rDock_2013.1_src/data/scripts/dock_solv.prm

>  <Rbt.Receptor>
prm/pocket_docking_2.prm

>  <SCORE>
-8.19373

>  <SCORE.INTER>
-12.7443

>  <SCORE.INTER.CONST>
1

>  <SCORE.INTER.POLAR>
0

>  <SCORE.INTER.ROT>
7

>  <SCORE.INTER.SOLV>
18.1569

>  <SCORE.INTER.VDW>
-22.8151

>  <SCORE.INTER.norm>
-0.472011

>  <SCORE.INTRA>
4.06651

>  <SCORE.INTRA.DIHEDRAL>
6.10154

>  <SCORE.INTRA.DIHEDRAL.0>
9.75037

>  <SCORE.INTRA.POLAR>
0

>  <SCORE.INTRA.POLAR.0>
0

>  <SCORE.INTRA.REPUL>
0

>  <SCORE.INTRA.REPUL.0>
0

>  <SCORE.INTRA.SOLV>
0.916753

>  <SCORE.INTRA.SOLV.lig_0>
-48.4279

>  <SCORE.INTRA.VDW>
0.557361

>  <SCORE.INTRA.VDW.0>
-4.69037

>  <SCORE.INTRA.norm>
0.150611

>  <SCORE.RESTR>
0.484044

>  <SCORE.RESTR.CAVITY>
0.484044

>  <SCORE.RESTR.norm>
0.0179275

>  <SCORE.SYSTEM>
0

>  <SCORE.SYSTEM.CONST>
0

>  <SCORE.SYSTEM.DIHEDRAL>
0

>  <SCORE.SYSTEM.SOLV>
0

>  <SCORE.SYSTEM.norm>
0

>  <SCORE.heavy>
27

>  <SCORE.norm>
-0.303472

>  <RMSD>
1.313

$$$$
ligand
 OpenBabel02271912153D
libRbt.so/2013.1/901 2013/11/27
 27 29  0  0  0  0  0  0  0  0999 V2000
   12.6327   -5.1460   11.9690 N   0  0  0  0  0  0  0  0  0  0  0  0
   13.9899   -5.1597   11.3411 C   0  0  2  0  0  0  0  0  0  0  0  0
   14.1203   -4.0494   10.2748 C   0  0  0  0  0  0  0  0  0  0  0  0
   13.2728   -3.9151    9.3869 O   0  0  0  0  0  0  0  0  0  0  0  0
   14.2679   -6.5437   10.7641 C   0  0  0  0  0  0  0  0  0  0  0  0
   13.0321   -7.2860   10.2837 C   0  0  0  0  0  0  0  0  0  0  0  0
   13.4119   -8.8705    9.4825 S   0  0  2  0  0  0  0  0  0  0  0  0
   14.4876   -9.6307   10.7317 C   0  0  0  0  0  0  0  0  0  0  0  0
   14.5713   -8.5076    8.1543 C   0  0  0  0  0  0  0  0  0  0  0  0
   13.8042   -7.9674    6.9624 C   0  0  1  0  0  0  0  0  0  0  0  0
   13.1235   -6.7573    7.2564 O   0  0  0  0  0  0  0  0  0  0  0  0
   14.7210   -7.6879    5.7965 C   0  0  1  0  0  0  0  0  0  0  0  0
   14.9362   -8.8427    5.0371 O   0  0  0  0  0  0  0  0  0  0  0  0
   13.9304   -6.6607    5.0451 C   0  0  1  0  0  0  0  0  0  0  0  0
   13.0426   -7.3152    4.1587 O   0  0  0  0  0  0  0  0  0  0  0  0
   13.1540   -5.9182    6.1251 C   0  0  2  0  0  0  0  0  0  0  0  0
   15.0760   -3.2520   10.2576 O   0  0  0  0  0  0  0  0  0  0  0  0
   17.5174   -3.2895    7.5071 N   0  0  0  0  0  0  0  0  0  0  0  0
   17.3869   -4.6465    7.2499 C   0  0  0  0  0  0  0  0  0  0  0  0
   16.1555   -5.1926    6.9080 N   0  0  0  0  0  0  0  0  0  0  0  0
   15.0827   -4.3867    6.8083 C   0  0  0  0  0  0  0  0  0  0  0  0
   15.2048   -3.0155    7.0501 C   0  0  0  0  0  0  0  0  0  0  0  0
   16.4192   -2.4620    7.4119 C   0  0  0  0  0  0  0  0  0  0  0  0
   16.5276   -1.1637    7.6508 N   0  0  0  0  0  0  0  0  0  0  0  0
   14.0046   -2.4531    6.8703 N   0  0  0  0  0  0  0  0  0  0  0  0
   13.1316   -3.4235    6.5206 C   0  0  0  0  0  0  0  0  0  0  0  0
   13.7840   -4.6303    6.4722 N   0  0  0  0  0  0  0  0  0  0  0  0
  2  1  1  6  0  0  0
  2  3  1  0  0  0  0
  2  5  1  0  0  0  0
  3  4  1  0  0  0  0
  3 17  1  0  0  0  0
  5  6  1  0  0  0  0
  7  6  1  1  0  0  0
  7  8  1  0  0  0  0
  7  9  1  0  0  0  0
 10  9  1  1  0  0  0
 10 11  1  0  0  0  0
 10 12  1  0  0  0  0
 11 16  1  0  0  0  0
 12 13  1  6  0  0  0
 12 14  1  0  0  0  0
 14 15  1  6  0  0  0
 14 16  1  0  0  0  0
 16 27  1  1  0  0  0
 18 19  2  0  0  0  0
 18 23  1  0  0  0  0
 19 20  1  0  0  0  0
 20 21  2  0  0  0  0
 21 22  1  0  0  0  0
 21 27  1  0  0  0  0
 22 23  2  0  0  0  0
 22 25  1  0  0  0  0
 23 24  1  0  0  0  0
 25 26  2  0  0  0  0
 26 27  1  0  0  0  0
M  END
>  <CHROM.1>
-50.53114928,30.58230001,175.36327670,50.95966220,-79.66864724,61.63033356
67.50045504,14.39359568,-5.70992821,7.99123188,2.85716034,-1.25044129,-2.00802140

>  <Name>
ligand

>  <RI>
0

>  <Rbt.Current_Directory>
/home/itssahil/PROJECTS/Mol_Feturizer/Test_systems_manuscript/rnas/2ydh

>  <Rbt.Executable>
rbdock ($Id: //depot/dev/client3/rdock/2013.1/src/exe/rbdock.cxx#4 $)

>  <Rbt.Library>
libRbt.so (2013.1, Build901 2013/11/27)

>  <Rbt.Parameter_File>
/export/apps/rDock/src/rDock_2013.1_src/data/scripts/dock_solv.prm

>  <Rbt.Receptor>
prm/pocket_docking_2.prm

>  <SCORE>
-13.6287

>  <SCORE.INTER>
-12.1913

>  <SCORE.INTER.CONST>
1

>  <SCORE.INTER.POLAR>
0

>  <SCORE.INTER.ROT>
7

>  <SCORE.INTER.SOLV>
20.8177

>  <SCORE.INTER.VDW>
-23.3335

>  <SCORE.INTER.norm>
-0.451531

>  <SCORE.INTRA>
-1.45045

>  <SCORE.INTRA.DIHEDRAL>
-3.35435

>  <SCORE.INTRA.DIHEDRAL.0>
9.75037

>  <SCORE.INTRA.POLAR>
0

>  <SCORE.INTRA.POLAR.0>
0

>  <SCORE.INTRA.REPUL>
0

>  <SCORE.INTRA.REPUL.0>
0

>  <SCORE.INTRA.SOLV>
-0.0993987

>  <SCORE.INTRA.SOLV.lig_0>
-48.4279

>  <SCORE.INTRA.VDW>
0.276429

>  <SCORE.INTRA.VDW.0>
-4.69037

>  <SCORE.INTRA.norm>
-0.0537203

>  <SCORE.RESTR>
0.0131206

>  <SCORE.RESTR.CAVITY>
0.0131206

>  <SCORE.RESTR.norm>
0.00048595

>  <SCORE.SYSTEM>
0

>  <SCORE.SYSTEM.CONST>
0

>  <SCORE.SYSTEM.DIHEDRAL>
0

>  <SCORE.SYSTEM.SOLV>
0

>  <SCORE.SYSTEM.norm>
0

>  <SCORE.heavy>
27

>  <SCORE.norm>
-0.504765

>  <RMSD>
1.325

$$$$
ligand
 OpenBabel02271912153D
libRbt.so/2013.1/901 2013/11/27
 27 29  0  0  0  0  0  0  0  0999 V2000
   12.2673   -5.8847   11.9203 N   0  0  0  0  0  0  0  0  0  0  0  0
   13.3191   -6.6321   12.6763 C   0  0  2  0  0  0  0  0  0  0  0  0
   14.5053   -5.7103   13.0369 C   0  0  0  0  0  0  0  0  0  0  0  0
   14.6585   -4.6200   12.4780 O   0  0  0  0  0  0  0  0  0  0  0  0
   13.7620   -7.8448   11.8646 C   0  0  0  0  0  0  0  0  0  0  0  0
   14.3300   -7.5129   10.4948 C   0  0  0  0  0  0  0  0  0  0  0  0
   14.8333   -8.9802    9.5511 S   0  0  2  0  0  0  0  0  0  0  0  0
   16.3372   -9.4587   10.4481 C   0  0  0  0  0  0  0  0  0  0  0  0
   15.4980   -8.3812    7.9893 C   0  0  0  0  0  0  0  0  0  0  0  0
   14.3538   -7.9039    7.1156 C   0  0  1  0  0  0  0  0  0  0  0  0
   13.6290   -6.8349    7.7040 O   0  0  0  0  0  0  0  0  0  0  0  0
   14.8482   -7.4186    5.7747 C   0  0  1  0  0  0  0  0  0  0  0  0
   14.9899   -8.4809    4.8757 O   0  0  0  0  0  0  0  0  0  0  0  0
   13.7425   -6.4893    5.3763 C   0  0  1  0  0  0  0  0  0  0  0  0
   12.7342   -7.2258    4.7107 O   0  0  0  0  0  0  0  0  0  0  0  0
   13.2175   -5.9400    6.6966 C   0  0  2  0  0  0  0  0  0  0  0  0
   15.3540   -6.0216   13.8925 O   0  0  0  0  0  0  0  0  0  0  0  0
   17.4093   -2.7954    7.3281 N   0  0  0  0  0  0  0  0  0  0  0  0
   17.3990   -4.1503    7.0301 C   0  0  0  0  0  0  0  0  0  0  0  0
   16.2015   -4.8451    6.9094 N   0  0  0  0  0  0  0  0  0  0  0  0
   15.0391   -4.1859    7.0661 C   0  0  0  0  0  0  0  0  0  0  0  0
   15.0364   -2.8176    7.3515 C   0  0  0  0  0  0  0  0  0  0  0  0
   16.2205   -2.1183    7.4954 C   0  0  0  0  0  0  0  0  0  0  0  0
   16.2129   -0.8239    7.7767 N   0  0  0  0  0  0  0  0  0  0  0  0
   13.7643   -2.4143    7.4420 N   0  0  0  0  0  0  0  0  0  0  0  0
   12.9660   -3.4818    7.2204 C   0  0  0  0  0  0  0  0  0  0  0  0
   13.7398   -4.5900    6.9804 N   0  0  0  0  0  0  0  0  0  0  0  0
  2  1  1  6  0  0  0
  2  3  1  0  0  0  0
  2  5  1  0  0  0  0
  3  4  1  0  0  0  0
  3 17  1  0  0  0  0
  5  6  1  0  0  0  0
  7  6  1  1  0  0  0
  7  8  1  0  0  0  0
  7  9  1  0  0  0  0
 10  9  1  1  0  0  0
 10 11  1  0  0  0  0
 10 12  1  0  0  0  0
 11 16  1  0  0  0  0
 12 13  1  6  0  0  0
 12 14  1  0  0  0  0
 14 15  1  1  0  0  0
 14 16  1  0  0  0  0
 16 27  1  1  0  0  0
 18 19  2  0  0  0  0
 18 23  1  0  0  0  0
 19 20  1  0  0  0  0
 20 21  2  0  0  0  0
 21 22  1  0  0  0  0
 21 27  1  0  0  0  0
 22 23  2  0  0  0  0
 22 25  1  0  0  0  0
 23 24  1  0  0  0  0
 25 26  2  0  0  0  0
 26 27  1  0  0  0  0
M  END
>  <CHROM.1>
-15.81730711,59.16535428,-179.49611920,-72.80101678,-73.54879885,61.04976086
61.98117496,14.67548829,-5.91885181,8.57085362,-2.08572208,-1.40109866,-1.62646163

>  <Name>
ligand

>  <RI>
0

>  <Rbt.Current_Directory>
/home/itssahil/PROJECTS/Mol_Feturizer/Test_systems_manuscript/rnas/2ydh

>  <Rbt.Executable>
rbdock ($Id: //depot/dev/client3/rdock/2013.1/src/exe/rbdock.cxx#4 $)

>  <Rbt.Library>
libRbt.so (2013.1, Build901 2013/11/27)

>  <Rbt.Parameter_File>
/export/apps/rDock/src/rDock_2013.1_src/data/scripts/dock_solv.prm

>  <Rbt.Receptor>
prm/pocket_docking_5.prm

>  <SCORE>
-14.9259

>  <SCORE.INTER>
-12.961

>  <SCORE.INTER.CONST>
1

>  <SCORE.INTER.POLAR>
0

>  <SCORE.INTER.ROT>
7

>  <SCORE.INTER.SOLV>
19.7837

>  <SCORE.INTER.VDW>
-23.5019

>  <SCORE.INTER.norm>
-0.480038

>  <SCORE.INTRA>
-1.96488

>  <SCORE.INTRA.DIHEDRAL>
-6.51848

>  <SCORE.INTRA.DIHEDRAL.0>
9.75037

>  <SCORE.INTRA.POLAR>
0

>  <SCORE.INTRA.POLAR.0>
0

>  <SCORE.INTRA.REPUL>
0

>  <SCORE.INTRA.REPUL.0>
0

>  <SCORE.INTRA.SOLV>
-0.70809

>  <SCORE.INTRA.SOLV.lig_0>
-48.4279

>  <SCORE.INTRA.VDW>
1.6484

>  <SCORE.INTRA.VDW.0>
-4.69037

>  <SCORE.INTRA.norm>
-0.0727735

>  <SCORE.RESTR>
0

>  <SCORE.RESTR.CAVITY>
0

>  <SCORE.RESTR.norm>
0

>  <SCORE.SYSTEM>
0

>  <SCORE.SYSTEM.CONST>
0

>  <SCORE.SYSTEM.DIHEDRAL>
0

>  <SCORE.SYSTEM.SOLV>
0

>  <SCORE.SYSTEM.norm>
0

>  <SCORE.heavy>
27

>  <SCORE.norm>
-0.552811

>  <RMSD>
1.349

$$$$
ligand
 OpenBabel02271912153D
libRbt.so/2013.1/901 2013/11/27
 27 29  0  0  0  0  0  0  0  0999 V2000
   13.8688   -4.4863   10.6595 N   0  0  0  0  0  0  0  0  0  0  0  0
   13.1343   -5.6615   11.2218 C   0  0  2  0  0  0  0  0  0  0  0  0
   13.5544   -5.9319   12.6837 C   0  0  0  0  0  0  0  0  0  0  0  0
   12.9628   -6.7682   13.3731 O   0  0  0  0  0  0  0  0  0  0  0  0
   13.3594   -6.8757   10.3270 C   0  0  0  0  0  0  0  0  0  0  0  0
   14.8160   -7.2764   10.1631 C   0  0  0  0  0  0  0  0  0  0  0  0
   15.0305   -8.9035    9.3862 S   0  0  2  0  0  0  0  0  0  0  0  0
   16.5301   -9.4843   10.2285 C   0  0  0  0  0  0  0  0  0  0  0  0
   15.6280   -8.5986    7.7159 C   0  0  0  0  0  0  0  0  0  0  0  0
   14.4647   -8.1596    6.8472 C   0  0  1  0  0  0  0  0  0  0  0  0
   13.7146   -7.1070    7.4333 O   0  0  0  0  0  0  0  0  0  0  0  0
   14.9359   -7.6705    5.4994 C   0  0  1  0  0  0  0  0  0  0  0  0
   15.1008   -8.7349    4.6069 O   0  0  0  0  0  0  0  0  0  0  0  0
   13.8019   -6.7752    5.1026 C   0  0  1  0  0  0  0  0  0  0  0  0
   12.8099   -7.5443    4.4494 O   0  0  0  0  0  0  0  0  0  0  0  0
   13.2711   -6.2313    6.4227 C   0  0  2  0  0  0  0  0  0  0  0  0
   14.4930   -5.3236   13.2299 O   0  0  0  0  0  0  0  0  0  0  0  0
   17.3651   -3.0301    7.3449 N   0  0  0  0  0  0  0  0  0  0  0  0
   17.3892   -4.3981    7.1159 C   0  0  0  0  0  0  0  0  0  0  0  0
   16.2128   -5.1064    6.9015 N   0  0  0  0  0  0  0  0  0  0  0  0
   15.0393   -4.4483    6.8984 C   0  0  0  0  0  0  0  0  0  0  0  0
   15.0036   -3.0676    7.1129 C   0  0  0  0  0  0  0  0  0  0  0  0
   16.1641   -2.3537    7.3486 C   0  0  0  0  0  0  0  0  0  0  0  0
   16.1241   -1.0471    7.5622 N   0  0  0  0  0  0  0  0  0  0  0  0
   13.7286   -2.6691    7.0451 N   0  0  0  0  0  0  0  0  0  0  0  0
   12.9606   -3.7519    6.7923 C   0  0  0  0  0  0  0  0  0  0  0  0
   13.7576   -4.8652    6.6932 N   0  0  0  0  0  0  0  0  0  0  0  0
  2  1  1  6  0  0  0
  2  3  1  0  0  0  0
  2  5  1  0  0  0  0
  3  4  1  0  0  0  0
  3 17  1  0  0  0  0
  5  6  1  0  0  0  0
  7  6  1  1  0  0  0
  7  8  1  0  0  0  0
  7  9  1  0  0  0  0
 10  9  1  1  0  0  0
 10 11  1  0  0  0  0
 10 12  1  0  0  0  0
 11 16  1  0  0  0  0
 12 13  1  6  0  0  0
 12 14  1  0  0  0  0
 14 15  1  1  0  0  0
 14 16  1  0  0  0  0
 16 27  1  1  0  0  0
 18 19  2  0  0  0  0
 18 23  1  0  0  0  0
 19 20  1  0  0  0  0
 20 21  2  0  0  0  0
 21 22  1  0  0  0  0
 21 27  1  0  0  0  0
 22 23  2  0  0  0  0
 22 25  1  0  0  0  0
 23 24  1  0  0  0  0
 25 26  2  0  0  0  0
 26 27  1  0  0  0  0
M  END
>  <CHROM.1>
172.22839784,58.99614027,168.14366379,-146.51394441,-77.40883079,50.27512031
54.78966139,14.63737859,-6.01627896,8.24809394,-2.57114994,-1.42513238,-2.27208742

>  <Name>
ligand

>  <RI>
0

>  <Rbt.Current_Directory>
/home/itssahil/PROJECTS/Mol_Feturizer/Test_systems_manuscript/rnas/2ydh

>  <Rbt.Executable>
rbdock ($Id: //depot/dev/client3/rdock/2013.1/src/exe/rbdock.cxx#4 $)

>  <Rbt.Library>
libRbt.so (2013.1, Build901 2013/11/27)

>  <Rbt.Parameter_File>
/export/apps/rDock/src/rDock_2013.1_src/data/scripts/dock_solv.prm

>  <Rbt.Receptor>
prm/pocket_docking_5.prm

>  <SCORE>
-14.2059

>  <SCORE.INTER>
-13.5145

>  <SCORE.INTER.CONST>
1

>  <SCORE.INTER.POLAR>
0

>  <SCORE.INTER.ROT>
7

>  <SCORE.INTER.SOLV>
18.1494

>  <SCORE.INTER.VDW>
-23.3261

>  <SCORE.INTER.norm>
-0.500537

>  <SCORE.INTRA>
-0.691454

>  <SCORE.INTRA.DIHEDRAL>
-2.1704

>  <SCORE.INTRA.DIHEDRAL.0>
9.75037

>  <SCORE.INTRA.POLAR>
0

>  <SCORE.INTRA.POLAR.0>
0

>  <SCORE.INTRA.REPUL>
0

>  <SCORE.INTRA.REPUL.0>
0

>  <SCORE.INTRA.SOLV>
-0.380753

>  <SCORE.INTRA.SOLV.lig_0>
-48.4279

>  <SCORE.INTRA.VDW>
0.584123

>  <SCORE.INTRA.VDW.0>
-4.69037

>  <SCORE.INTRA.norm>
-0.0256094

>  <SCORE.RESTR>
0

>  <SCORE.RESTR.CAVITY>
0

>  <SCORE.RESTR.norm>
0

>  <SCORE.SYSTEM>
0

>  <SCORE.SYSTEM.CONST>
0

>  <SCORE.SYSTEM.DIHEDRAL>
0

>  <SCORE.SYSTEM.SOLV>
0

>  <SCORE.SYSTEM.norm>
0

>  <SCORE.heavy>
27

>  <SCORE.norm>
-0.526146

>  <RMSD>
1.358

$$$$
ligand
 OpenBabel02271912153D
libRbt.so/2013.1/901 2013/11/27
 27 29  0  0  0  0  0  0  0  0999 V2000
   15.8339   -5.2789   11.3038 N   0  0  0  0  0  0  0  0  0  0  0  0
   14.5193   -5.4753   10.6183 C   0  0  2  0  0  0  0  0  0  0  0  0
   13.7602   -4.1371   10.4778 C   0  0  0  0  0  0  0  0  0  0  0  0
   13.5909   -3.3948   11.4499 O   0  0  0  0  0  0  0  0  0  0  0  0
   13.7044   -6.5198   11.3738 C   0  0  0  0  0  0  0  0  0  0  0  0
   12.4027   -6.9144   10.6963 C   0  0  0  0  0  0  0  0  0  0  0  0
   12.5418   -8.4243    9.6974 S   0  0  2  0  0  0  0  0  0  0  0  0
   13.1966   -9.5850   10.9301 C   0  0  0  0  0  0  0  0  0  0  0  0
   13.9560   -8.1897    8.6089 C   0  0  0  0  0  0  0  0  0  0  0  0
   13.4624   -7.7410    7.2467 C   0  0  1  0  0  0  0  0  0  0  0  0
   12.7823   -6.4963    7.2972 O   0  0  0  0  0  0  0  0  0  0  0  0
   14.6027   -7.5834    6.2707 C   0  0  1  0  0  0  0  0  0  0  0  0
   14.9217   -8.8045    5.6675 O   0  0  0  0  0  0  0  0  0  0  0  0
   14.0164   -6.6104    5.2936 C   0  0  1  0  0  0  0  0  0  0  0  0
   13.2991   -7.3223    4.3032 O   0  0  0  0  0  0  0  0  0  0  0  0
   13.0688   -5.7605    6.1304 C   0  0  2  0  0  0  0  0  0  0  0  0
   13.2850   -3.7521    9.3937 O   0  0  0  0  0  0  0  0  0  0  0  0
   17.3506   -3.0400    7.5877 N   0  0  0  0  0  0  0  0  0  0  0  0
   17.2542   -4.3989    7.3252 C   0  0  0  0  0  0  0  0  0  0  0  0
   16.0407   -4.9710    6.9625 N   0  0  0  0  0  0  0  0  0  0  0  0
   14.9521   -4.1888    6.8477 C   0  0  0  0  0  0  0  0  0  0  0  0
   15.0400   -2.8159    7.0948 C   0  0  0  0  0  0  0  0  0  0  0  0
   16.2360   -2.2368    7.4771 C   0  0  0  0  0  0  0  0  0  0  0  0
   16.3118   -0.9370    7.7208 N   0  0  0  0  0  0  0  0  0  0  0  0
   13.8307   -2.2796    6.8974 N   0  0  0  0  0  0  0  0  0  0  0  0
   12.9850   -3.2681    6.5315 C   0  0  0  0  0  0  0  0  0  0  0  0
   13.6646   -4.4600    6.4906 N   0  0  0  0  0  0  0  0  0  0  0  0
  2  1  1  1  0  0  0
  2  3  1  0  0  0  0
  2  5  1  0  0  0  0
  3  4  1  0  0  0  0
  3 17  1  0  0  0  0
  5  6  1  0  0  0  0
  7  6  1  1  0  0  0
  7  8  1  0  0  0  0
  7  9  1  0  0  0  0
 10  9  1  1  0  0  0
 10 11  1  0  0  0  0
 10 12  1  0  0  0  0
 11 16  1  0  0  0  0
 12 13  1  6  0  0  0
 12 14  1  0  0  0  0
 14 15  1  6  0  0  0
 14 16  1  0  0  0  0
 16 27  1  1  0  0  0
 18 19  2  0  0  0  0
 18 23  1  0  0  0  0
 19 20  1  0  0  0  0
 20 21  2  0  0  0  0
 21 22  1  0  0  0  0
 21 27  1  0  0  0  0
 22 23  2  0  0  0  0
 22 25  1  0  0  0  0
 23 24  1  0  0  0  0
 25 26  2  0  0  0  0
 26 27  1  0  0  0  0
M  END
>  <CHROM.1>
-50.77931240,-174.03525377,96.32041000,54.87685547,-98.27477605,62.09250218
79.66226672,14.19744551,-5.56417243,8.16043476,0.04767338,1.18769681,1.22422341

>  <Name>
ligand

>  <RI>
0

>  <Rbt.Current_Directory>
/home/itssahil/PROJECTS/Mol_Feturizer/Test_systems_manuscript/rnas/2ydh

>  <Rbt.Executable>
rbdock ($Id: //depot/dev/client3/rdock/2013.1/src/exe/rbdock.cxx#4 $)

>  <Rbt.Library>
libRbt.so (2013.1, Build901 2013/11/27)

>  <Rbt.Parameter_File>
/export/apps/rDock/src/rDock_2013.1_src/data/scripts/dock_solv.prm

>  <Rbt.Receptor>
prm/pocket_docking_2.prm

>  <SCORE>
-17.7711

>  <SCORE.INTER>
-16.8926

>  <SCORE.INTER.CONST>
1

>  <SCORE.INTER.POLAR>
0

>  <SCORE.INTER.ROT>
7

>  <SCORE.INTER.SOLV>
16.3006

>  <SCORE.INTER.VDW>
-24.962

>  <SCORE.INTER.norm>
-0.625653

>  <SCORE.INTRA>
-0.894185

>  <SCORE.INTRA.DIHEDRAL>
-0.61942

>  <SCORE.INTRA.DIHEDRAL.0>
9.75037

>  <SCORE.INTRA.POLAR>
0

>  <SCORE.INTRA.POLAR.0>
0

>  <SCORE.INTRA.REPUL>
0

>  <SCORE.INTRA.REPUL.0>
0

>  <SCORE.INTRA.SOLV>
-1.06233

>  <SCORE.INTRA.SOLV.lig_0>
-48.4279

>  <SCORE.INTRA.VDW>
-0.0533081

>  <SCORE.INTRA.VDW.0>
-4.69037

>  <SCORE.INTRA.norm>
-0.0331179

>  <SCORE.RESTR>
0.015723

>  <SCORE.RESTR.CAVITY>
0.015723

>  <SCORE.RESTR.norm>
0.000582333

>  <SCORE.SYSTEM>
0

>  <SCORE.SYSTEM.CONST>
0

>  <SCORE.SYSTEM.DIHEDRAL>
0

>  <SCORE.SYSTEM.SOLV>
0

>  <SCORE.SYSTEM.norm>
0

>  <SCORE.heavy>
27

>  <SCORE.norm>
-0.658189

>  <RMSD>
1.368

$$$$
ligand
 OpenBabel02271912153D
libRbt.so/2013.1/901 2013/11/27
 27 29  0  0  0  0  0  0  0  0999 V2000
   15.8769   -6.0650   11.5143 N   0  0  0  0  0  0  0  0  0  0  0  0
   14.6469   -6.0596   10.6636 C   0  0  2  0  0  0  0  0  0  0  0  0
   14.3212   -4.6337   10.1663 C   0  0  0  0  0  0  0  0  0  0  0  0
   14.9549   -3.6556   10.5744 O   0  0  0  0  0  0  0  0  0  0  0  0
   13.4885   -6.6732   11.4429 C   0  0  0  0  0  0  0  0  0  0  0  0
   12.2915   -7.0615   10.5911 C   0  0  0  0  0  0  0  0  0  0  0  0
   12.5565   -8.5781    9.6285 S   0  0  2  0  0  0  0  0  0  0  0  0
   13.2456   -9.6709   10.9038 C   0  0  0  0  0  0  0  0  0  0  0  0
   13.9858   -8.2740    8.5774 C   0  0  0  0  0  0  0  0  0  0  0  0
   13.5091   -7.7705    7.2284 C   0  0  1  0  0  0  0  0  0  0  0  0
   12.8374   -6.5236    7.3193 O   0  0  0  0  0  0  0  0  0  0  0  0
   14.6603   -7.5846    6.2702 C   0  0  1  0  0  0  0  0  0  0  0  0
   14.9767   -8.7844    5.6244 O   0  0  0  0  0  0  0  0  0  0  0  0
   14.0909   -6.5710    5.3251 C   0  0  1  0  0  0  0  0  0  0  0  0
   13.3786   -7.2396    4.3014 O   0  0  0  0  0  0  0  0  0  0  0  0
   13.1409   -5.7463    6.1840 C   0  0  2  0  0  0  0  0  0  0  0  0
   13.4132   -4.4060    9.3460 O   0  0  0  0  0  0  0  0  0  0  0  0
   17.4807   -3.0516    7.5118 N   0  0  0  0  0  0  0  0  0  0  0  0
   17.3860   -4.3875    7.1497 C   0  0  0  0  0  0  0  0  0  0  0  0
   16.1568   -4.9570    6.8394 N   0  0  0  0  0  0  0  0  0  0  0  0
   15.0497   -4.1932    6.8740 C   0  0  0  0  0  0  0  0  0  0  0  0
   15.1346   -2.8423    7.2226 C   0  0  0  0  0  0  0  0  0  0  0  0
   16.3477   -2.2678    7.5544 C   0  0  0  0  0  0  0  0  0  0  0  0
   16.4215   -0.9898    7.8947 N   0  0  0  0  0  0  0  0  0  0  0  0
   13.9046   -2.3199    7.1649 N   0  0  0  0  0  0  0  0  0  0  0  0
   13.0486   -3.2956    6.7890 C   0  0  0  0  0  0  0  0  0  0  0  0
   13.7422   -4.4649    6.5991 N   0  0  0  0  0  0  0  0  0  0  0  0
  2  1  1  1  0  0  0
  2  3  1  0  0  0  0
  2  5  1  0  0  0  0
  3  4  1  0  0  0  0
  3 17  1  0  0  0  0
  5  6  1  0  0  0  0
  7  6  1  1  0  0  0
  7  8  1  0  0  0  0
  7  9  1  0  0  0  0
 10  9  1  1  0  0  0
 10 11  1  0  0  0  0
 10 12  1  0  0  0  0
 11 16  1  0  0  0  0
 12 13  1  6  0  0  0
 12 14  1  0  0  0  0
 14 15  1  6  0  0  0
 14 16  1  0  0  0  0
 16 27  1  1  0  0  0
 18 19  2  0  0  0  0
 18 23  1  0  0  0  0
 19 20  1  0  0  0  0
 20 21  2  0  0  0  0
 21 22  1  0  0  0  0
 21 27  1  0  0  0  0
 22 23  2  0  0  0  0
 22 25  1  0  0  0  0
 23 24  1  0  0  0  0
 25 26  2  0  0  0  0
 26 27  1  0  0  0  0
M  END
>  <CHROM.1>
-6.93718619,-164.72901675,75.45707932,47.26093287,-93.52103006,63.48642155
85.54659822,14.32377847,-5.69637492,8.13648163,-2.93871392,-1.15488684,-1.68655839

>  <Name>
ligand

>  <RI>
0

>  <Rbt.Current_Directory>
/home/itssahil/PROJECTS/Mol_Feturizer/Test_systems_manuscript/rnas/2ydh

>  <Rbt.Executable>
rbdock ($Id: //depot/dev/client3/rdock/2013.1/src/exe/rbdock.cxx#4 $)

>  <Rbt.Library>
libRbt.so (2013.1, Build901 2013/11/27)

>  <Rbt.Parameter_File>
/export/apps/rDock/src/rDock_2013.1_src/data/scripts/dock_solv.prm

>  <Rbt.Receptor>
prm/pocket_docking_2.prm

>  <SCORE>
-17.8038

>  <SCORE.INTER>
-16.0019

>  <SCORE.INTER.CONST>
1

>  <SCORE.INTER.POLAR>
0

>  <SCORE.INTER.ROT>
7

>  <SCORE.INTER.SOLV>
15.7888

>  <SCORE.INTER.VDW>
-24.1975

>  <SCORE.INTER.norm>
-0.592664

>  <SCORE.INTRA>
-1.80188

>  <SCORE.INTRA.DIHEDRAL>
-3.12337

>  <SCORE.INTRA.DIHEDRAL.0>
9.75037

>  <SCORE.INTRA.POLAR>
0

>  <SCORE.INTRA.POLAR.0>
0

>  <SCORE.INTRA.REPUL>
0

>  <SCORE.INTRA.REPUL.0>
0

>  <SCORE.INTRA.SOLV>
-0.522018

>  <SCORE.INTRA.SOLV.lig_0>
-48.4279

>  <SCORE.INTRA.VDW>
0.0208105

>  <SCORE.INTRA.VDW.0>
-4.69037

>  <SCORE.INTRA.norm>
-0.0667363

>  <SCORE.RESTR>
0

>  <SCORE.RESTR.CAVITY>
0

>  <SCORE.RESTR.norm>
0

>  <SCORE.SYSTEM>
0

>  <SCORE.SYSTEM.CONST>
0

>  <SCORE.SYSTEM.DIHEDRAL>
0

>  <SCORE.SYSTEM.SOLV>
0

>  <SCORE.SYSTEM.norm>
0

>  <SCORE.heavy>
27

>  <SCORE.norm>
-0.6594

>  <RMSD>
1.390

$$$$
ligand
 OpenBabel02271912153D
libRbt.so/2013.1/901 2013/11/27
 27 29  0  0  0  0  0  0  0  0999 V2000
   15.7710   -5.6580   11.4893 N   0  0  0  0  0  0  0  0  0  0  0  0
   14.4535   -5.7788   10.7920 C   0  0  2  0  0  0  0  0  0  0  0  0
   13.8521   -4.3871   10.4951 C   0  0  0  0  0  0  0  0  0  0  0  0
   13.4045   -4.1108    9.3779 O   0  0  0  0  0  0  0  0  0  0  0  0
   13.5147   -6.6424   11.6277 C   0  0  0  0  0  0  0  0  0  0  0  0
   12.2718   -7.1154   10.8925 C   0  0  0  0  0  0  0  0  0  0  0  0
   12.5669   -8.5672    9.8427 S   0  0  2  0  0  0  0  0  0  0  0  0
   13.3619   -9.6863   11.0306 C   0  0  0  0  0  0  0  0  0  0  0  0
   13.9332   -8.1405    8.7512 C   0  0  0  0  0  0  0  0  0  0  0  0
   13.3765   -7.7085    7.4080 C   0  0  1  0  0  0  0  0  0  0  0  0
   12.7541   -6.4342    7.4612 O   0  0  0  0  0  0  0  0  0  0  0  0
   14.4606   -7.6286    6.3610 C   0  0  1  0  0  0  0  0  0  0  0  0
   14.6901   -8.8789    5.7773 O   0  0  0  0  0  0  0  0  0  0  0  0
   13.8573   -6.6583    5.3917 C   0  0  1  0  0  0  0  0  0  0  0  0
   13.0513   -7.3652    4.4682 O   0  0  0  0  0  0  0  0  0  0  0  0
   12.9995   -5.7445    6.2574 C   0  0  2  0  0  0  0  0  0  0  0  0
   13.7961   -3.4890   11.3551 O   0  0  0  0  0  0  0  0  0  0  0  0
   17.3850   -3.2122    7.7452 N   0  0  0  0  0  0  0  0  0  0  0  0
   17.2009   -4.5790    7.5952 C   0  0  0  0  0  0  0  0  0  0  0  0
   15.9702   -5.0946    7.2065 N   0  0  0  0  0  0  0  0  0  0  0  0
   14.9525   -4.2511    6.9554 C   0  0  0  0  0  0  0  0  0  0  0  0
   15.1302   -2.8711    7.0884 C   0  0  0  0  0  0  0  0  0  0  0  0
   16.3428   -2.3456    7.4949 C   0  0  0  0  0  0  0  0  0  0  0  0
   16.5031   -1.0377    7.6300 N   0  0  0  0  0  0  0  0  0  0  0  0
   13.9784   -2.2709    6.7686 N   0  0  0  0  0  0  0  0  0  0  0  0
   13.0824   -3.2263    6.4360 C   0  0  0  0  0  0  0  0  0  0  0  0
   13.6707   -4.4620    6.5415 N   0  0  0  0  0  0  0  0  0  0  0  0
  2  1  1  1  0  0  0
  2  3  1  0  0  0  0
  2  5  1  0  0  0  0
  3  4  1  0  0  0  0
  3 17  1  0  0  0  0
  5  6  1  0  0  0  0
  7  6  1  1  0  0  0
  7  8  1  0  0  0  0
  7  9  1  0  0  0  0
 10  9  1  1  0  0  0
 10 11  1  0  0  0  0
 10 12  1  0  0  0  0
 11 16  1  0  0  0  0
 12 13  1  6  0  0  0
 12 14  1  0  0  0  0
 14 15  1  6  0  0  0
 14 16  1  0  0  0  0
 16 27  1  1  0  0  0
 18 19  2  0  0  0  0
 18 23  1  0  0  0  0
 19 20  1  0  0  0  0
 20 21  2  0  0  0  0
 21 22  1  0  0  0  0
 21 27  1  0  0  0  0
 22 23  2  0  0  0  0
 22 25  1  0  0  0  0
 23 24  1  0  0  0  0
 25 26  2  0  0  0  0
 26 27  1  0  0  0  0
M  END
>  <CHROM.1>
132.25811008,-166.19759088,81.17414270,51.93373137,-98.37073572,72.14434718
71.72525967,14.18771306,-5.66860405,8.25724010,-2.91071006,-1.17451515,-1.71355880

>  <Name>
ligand

>  <RI>
0

>  <Rbt.Current_Directory>
/home/itssahil/PROJECTS/Mol_Feturizer/Test_systems_manuscript/rnas/2ydh

>  <Rbt.Executable>
rbdock ($Id: //depot/dev/client3/rdock/2013.1/src/exe/rbdock.cxx#4 $)

>  <Rbt.Library>
libRbt.so (2013.1, Build901 2013/11/27)

>  <Rbt.Parameter_File>
/export/apps/rDock/src/rDock_2013.1_src/data/scripts/dock_solv.prm

>  <Rbt.Receptor>
prm/pocket_docking_2.prm

>  <SCORE>
-18.1442

>  <SCORE.INTER>
-16.7649

>  <SCORE.INTER.CONST>
1

>  <SCORE.INTER.POLAR>
0

>  <SCORE.INTER.ROT>
7

>  <SCORE.INTER.SOLV>
16.256

>  <SCORE.INTER.VDW>
-24.8619

>  <SCORE.INTER.norm>
-0.620922

>  <SCORE.INTRA>
-1.39545

>  <SCORE.INTRA.DIHEDRAL>
-1.65411

>  <SCORE.INTRA.DIHEDRAL.0>
9.75037

>  <SCORE.INTRA.POLAR>
0

>  <SCORE.INTRA.POLAR.0>
0

>  <SCORE.INTRA.REPUL>
0

>  <SCORE.INTRA.REPUL.0>
0

>  <SCORE.INTRA.SOLV>
-0.756654

>  <SCORE.INTRA.SOLV.lig_0>
-48.4279

>  <SCORE.INTRA.VDW>
-0.190062

>  <SCORE.INTRA.VDW.0>
-4.69037

>  <SCORE.INTRA.norm>
-0.0516832

>  <SCORE.RESTR>
0.0161704

>  <SCORE.RESTR.CAVITY>
0.0161704

>  <SCORE.RESTR.norm>
0.000598903

>  <SCORE.SYSTEM>
0

>  <SCORE.SYSTEM.CONST>
0

>  <SCORE.SYSTEM.DIHEDRAL>
0

>  <SCORE.SYSTEM.SOLV>
0

>  <SCORE.SYSTEM.norm>
0

>  <SCORE.heavy>
27

>  <SCORE.norm>
-0.672006

>  <RMSD>
1.398

$$$$
ligand
 OpenBabel02271912153D
libRbt.so/2013.1/901 2013/11/27
 27 29  0  0  0  0  0  0  0  0999 V2000
   15.5104   -5.9337   12.0385 N   0  0  0  0  0  0  0  0  0  0  0  0
   14.3491   -6.0020   11.0986 C   0  0  2  0  0  0  0  0  0  0  0  0
   13.9158   -4.5896   10.6470 C   0  0  0  0  0  0  0  0  0  0  0  0
   13.4753   -4.3904    9.5108 O   0  0  0  0  0  0  0  0  0  0  0  0
   13.2073   -6.7683   11.7580 C   0  0  0  0  0  0  0  0  0  0  0  0
   12.0759   -7.1466   10.8167 C   0  0  0  0  0  0  0  0  0  0  0  0
   12.4657   -8.5718    9.7613 S   0  0  2  0  0  0  0  0  0  0  0  0
   13.1865   -9.7072   10.9807 C   0  0  0  0  0  0  0  0  0  0  0  0
   13.9021   -8.1059    8.7819 C   0  0  0  0  0  0  0  0  0  0  0  0
   13.4362   -7.6072    7.4273 C   0  0  1  0  0  0  0  0  0  0  0  0
   12.8203   -6.3307    7.4997 O   0  0  0  0  0  0  0  0  0  0  0  0
   14.5860   -7.4899    6.4568 C   0  0  1  0  0  0  0  0  0  0  0  0
   14.8442   -8.7142    5.8314 O   0  0  0  0  0  0  0  0  0  0  0  0
   14.0531   -6.4702    5.4969 C   0  0  1  0  0  0  0  0  0  0  0  0
   13.3035   -7.1260    4.4918 O   0  0  0  0  0  0  0  0  0  0  0  0
   13.1475   -5.5888    6.3474 C   0  0  2  0  0  0  0  0  0  0  0  0
   13.9943   -3.5982   11.3955 O   0  0  0  0  0  0  0  0  0  0  0  0
   17.6326   -3.0205    7.4178 N   0  0  0  0  0  0  0  0  0  0  0  0
   17.4797   -4.3500    7.0523 C   0  0  0  0  0  0  0  0  0  0  0  0
   16.2187   -4.8844    6.8162 N   0  0  0  0  0  0  0  0  0  0  0  0
   15.1367   -4.0924    6.9268 C   0  0  0  0  0  0  0  0  0  0  0  0
   15.2793   -2.7475    7.2795 C   0  0  0  0  0  0  0  0  0  0  0  0
   16.5258   -2.2079    7.5381 C   0  0  0  0  0  0  0  0  0  0  0  0
   16.6549   -0.9354    7.8827 N   0  0  0  0  0  0  0  0  0  0  0  0
   14.0625   -2.1927    7.3039 N   0  0  0  0  0  0  0  0  0  0  0  0
   13.1587   -3.1423    6.9756 C   0  0  0  0  0  0  0  0  0  0  0  0
   13.8077   -4.3274    6.7333 N   0  0  0  0  0  0  0  0  0  0  0  0
  2  1  1  1  0  0  0
  2  3  1  0  0  0  0
  2  5  1  0  0  0  0
  3  4  1  0  0  0  0
  3 17  1  0  0  0  0
  5  6  1  0  0  0  0
  7  6  1  1  0  0  0
  7  8  1  0  0  0  0
  7  9  1  0  0  0  0
 10  9  1  1  0  0  0
 10 11  1  0  0  0  0
 10 12  1  0  0  0  0
 11 16  1  0  0  0  0
 12 13  1  6  0  0  0
 12 14  1  0  0  0  0
 14 15  1  6  0  0  0
 14 16  1  0  0  0  0
 16 27  1  1  0  0  0
 18 19  2  0  0  0  0
 18 23  1  0  0  0  0
 19 20  1  0  0  0  0
 20 21  2  0  0  0  0
 21 22  1  0  0  0  0
 21 27  1  0  0  0  0
 22 23  2  0  0  0  0
 22 25  1  0  0  0  0
 23 24  1  0  0  0  0
 25 26  2  0  0  0  0
 26 27  1  0  0  0  0
M  END
>  <CHROM.1>
145.96527260,-168.47634961,77.44160272,45.77044310,-96.48804271,72.24734085
89.20656388,14.24858955,-5.62513985,8.32415410,-2.98461769,-1.13156882,-1.86691827

>  <Name>
ligand

>  <RI>
0

>  <Rbt.Current_Directory>
/home/itssahil/PROJECTS/Mol_Feturizer/Test_systems_manuscript/rnas/2ydh

>  <Rbt.Executable>
rbdock ($Id: //depot/dev/client3/rdock/2013.1/src/exe/rbdock.cxx#4 $)

>  <Rbt.Library>
libRbt.so (2013.1, Build901 2013/11/27)

>  <Rbt.Parameter_File>
/export/apps/rDock/src/rDock_2013.1_src/data/scripts/dock_solv.prm

>  <Rbt.Receptor>
prm/pocket_docking_2.prm

>  <SCORE>
-18.532

>  <SCORE.INTER>
-17.7462

>  <SCORE.INTER.CONST>
1

>  <SCORE.INTER.POLAR>
0

>  <SCORE.INTER.ROT>
7

>  <SCORE.INTER.SOLV>
16.4207

>  <SCORE.INTER.VDW>
-25.5711

>  <SCORE.INTER.norm>
-0.657268

>  <SCORE.INTRA>
-0.785737

>  <SCORE.INTRA.DIHEDRAL>
-2.3715

>  <SCORE.INTRA.DIHEDRAL.0>
9.75037

>  <SCORE.INTRA.POLAR>
0

>  <SCORE.INTRA.POLAR.0>
0

>  <SCORE.INTRA.REPUL>
0

>  <SCORE.INTRA.REPUL.0>
0

>  <SCORE.INTRA.SOLV>
-0.726251

>  <SCORE.INTRA.SOLV.lig_0>
-48.4279

>  <SCORE.INTRA.VDW>
0.763139

>  <SCORE.INTRA.VDW.0>
-4.69037

>  <SCORE.INTRA.norm>
-0.0291014

>  <SCORE.RESTR>
0

>  <SCORE.RESTR.CAVITY>
0

>  <SCORE.RESTR.norm>
0

>  <SCORE.SYSTEM>
0

>  <SCORE.SYSTEM.CONST>
0

>  <SCORE.SYSTEM.DIHEDRAL>
0

>  <SCORE.SYSTEM.SOLV>
0

>  <SCORE.SYSTEM.norm>
0

>  <SCORE.heavy>
27

>  <SCORE.norm>
-0.68637

>  <RMSD>
1.408

$$$$
ligand
 OpenBabel02271912153D
libRbt.so/2013.1/901 2013/11/27
 27 29  0  0  0  0  0  0  0  0999 V2000
   16.3947   -4.6197   10.6675 N   0  0  0  0  0  0  0  0  0  0  0  0
   15.6280   -5.6559   11.4259 C   0  0  2  0  0  0  0  0  0  0  0  0
   15.3667   -5.2012   12.8791 C   0  0  0  0  0  0  0  0  0  0  0  0
   15.2729   -4.0038   13.1657 O   0  0  0  0  0  0  0  0  0  0  0  0
   16.3751   -6.9840   11.3667 C   0  0  0  0  0  0  0  0  0  0  0  0
   16.4495   -7.6039    9.9813 C   0  0  0  0  0  0  0  0  0  0  0  0
   14.8197   -7.8895    9.2335 S   0  0  2  0  0  0  0  0  0  0  0  0
   14.2115   -9.2561   10.2623 C   0  0  0  0  0  0  0  0  0  0  0  0
   15.1158   -8.7051    7.6565 C   0  0  0  0  0  0  0  0  0  0  0  0
   14.1018   -8.2072    6.6444 C   0  0  1  0  0  0  0  0  0  0  0  0
   13.3236   -7.1284    7.1391 O   0  0  0  0  0  0  0  0  0  0  0  0
   14.7730   -7.7263    5.3810 C   0  0  1  0  0  0  0  0  0  0  0  0
   15.0134   -8.7883    4.5029 O   0  0  0  0  0  0  0  0  0  0  0  0
   13.7427   -6.7784    4.8474 C   0  0  1  0  0  0  0  0  0  0  0  0
   12.8177   -7.4969    4.0534 O   0  0  0  0  0  0  0  0  0  0  0  0
   13.0598   -6.2244    6.0912 C   0  0  2  0  0  0  0  0  0  0  0  0
   15.2455   -6.0095   13.8178 O   0  0  0  0  0  0  0  0  0  0  0  0
   17.1669   -3.1722    7.3853 N   0  0  0  0  0  0  0  0  0  0  0  0
   17.1718   -4.5301    7.1012 C   0  0  0  0  0  0  0  0  0  0  0  0
   15.9937   -5.1978    6.7887 N   0  0  0  0  0  0  0  0  0  0  0  0
   14.8386   -4.5093    6.7441 C   0  0  0  0  0  0  0  0  0  0  0  0
   14.8233   -3.1379    7.0134 C   0  0  0  0  0  0  0  0  0  0  0  0
   15.9844   -2.4651    7.3466 C   0  0  0  0  0  0  0  0  0  0  0  0
   15.9630   -1.1674    7.6118 N   0  0  0  0  0  0  0  0  0  0  0  0
   13.5645   -2.7035    6.8875 N   0  0  0  0  0  0  0  0  0  0  0  0
   12.7872   -3.7545    6.5451 C   0  0  0  0  0  0  0  0  0  0  0  0
   13.5618   -4.8836    6.4466 N   0  0  0  0  0  0  0  0  0  0  0  0
  2  1  1  1  0  0  0
  2  3  1  0  0  0  0
  2  5  1  0  0  0  0
  3  4  1  0  0  0  0
  3 17  1  0  0  0  0
  5  6  1  0  0  0  0
  7  6  1  1  0  0  0
  7  8  1  0  0  0  0
  7  9  1  0  0  0  0
 10  9  1  1  0  0  0
 10 11  1  0  0  0  0
 10 12  1  0  0  0  0
 11 16  1  0  0  0  0
 12 13  1  6  0  0  0
 12 14  1  0  0  0  0
 14 15  1  6  0  0  0
 14 16  1  0  0  0  0
 16 27  1  1  0  0  0
 18 19  2  0  0  0  0
 18 23  1  0  0  0  0
 19 20  1  0  0  0  0
 20 21  2  0  0  0  0
 21 22  1  0  0  0  0
 21 27  1  0  0  0  0
 22 23  2  0  0  0  0
 22 25  1  0  0  0  0
 23 24  1  0  0  0  0
 25 26  2  0  0  0  0
 26 27  1  0  0  0  0
M  END
>  <CHROM.1>
28.65303938,-66.46047166,-57.35852836,-70.61679270,-143.71086390,7.79575438
59.63133240,14.92571105,-5.87129735,8.20016705,-0.45650342,-1.30087745,-0.64357839

>  <Name>
ligand

>  <RI>
0

>  <Rbt.Current_Directory>
/home/itssahil/PROJECTS/Mol_Feturizer/Test_systems_manuscript/rnas/2ydh

>  <Rbt.Executable>
rbdock ($Id: //depot/dev/client3/rdock/2013.1/src/exe/rbdock.cxx#4 $)

>  <Rbt.Library>
libRbt.so (2013.1, Build901 2013/11/27)

>  <Rbt.Parameter_File>
/export/apps/rDock/src/rDock_2013.1_src/data/scripts/dock_solv.prm

>  <Rbt.Receptor>
prm/pocket_docking_3.prm

>  <SCORE>
-11.1453

>  <SCORE.INTER>
-14.2413

>  <SCORE.INTER.CONST>
1

>  <SCORE.INTER.POLAR>
0

>  <SCORE.INTER.ROT>
7

>  <SCORE.INTER.SOLV>
16.6625

>  <SCORE.INTER.VDW>
-23.315

>  <SCORE.INTER.norm>
-0.527455

>  <SCORE.INTRA>
3.09597

>  <SCORE.INTRA.DIHEDRAL>
2.26268

>  <SCORE.INTRA.DIHEDRAL.0>
9.75037

>  <SCORE.INTRA.POLAR>
0

>  <SCORE.INTRA.POLAR.0>
0

>  <SCORE.INTRA.REPUL>
0

>  <SCORE.INTRA.REPUL.0>
0

>  <SCORE.INTRA.SOLV>
0.290581

>  <SCORE.INTRA.SOLV.lig_0>
-48.4279

>  <SCORE.INTRA.VDW>
1.81934

>  <SCORE.INTRA.VDW.0>
-4.69037

>  <SCORE.INTRA.norm>
0.114666

>  <SCORE.RESTR>
1.41307e-05

>  <SCORE.RESTR.CAVITY>
1.41307e-05

>  <SCORE.RESTR.norm>
5.23361e-07

>  <SCORE.SYSTEM>
0

>  <SCORE.SYSTEM.CONST>
0

>  <SCORE.SYSTEM.DIHEDRAL>
0

>  <SCORE.SYSTEM.SOLV>
0

>  <SCORE.SYSTEM.norm>
0

>  <SCORE.heavy>
27

>  <SCORE.norm>
-0.412789

>  <RMSD>
1.420

$$$$
ligand
 OpenBabel02271912153D
libRbt.so/2013.1/901 2013/11/27
 27 29  0  0  0  0  0  0  0  0999 V2000
   15.7459   -4.0007   12.5416 N   0  0  0  0  0  0  0  0  0  0  0  0
   14.7266   -5.0224   12.9336 C   0  0  2  0  0  0  0  0  0  0  0  0
   15.3788   -6.1896   13.7077 C   0  0  0  0  0  0  0  0  0  0  0  0
   14.9506   -6.5413   14.8112 O   0  0  0  0  0  0  0  0  0  0  0  0
   13.9855   -5.5026   11.6903 C   0  0  0  0  0  0  0  0  0  0  0  0
   13.0556   -6.6810   11.9268 C   0  0  0  0  0  0  0  0  0  0  0  0
   12.2534   -7.2784   10.4114 S   0  0  2  0  0  0  0  0  0  0  0  0
   11.6561   -8.9014   10.9634 C   0  0  0  0  0  0  0  0  0  0  0  0
   13.5753   -7.7275    9.2752 C   0  0  0  0  0  0  0  0  0  0  0  0
   13.1271   -7.4367    7.8556 C   0  0  1  0  0  0  0  0  0  0  0  0
   12.5595   -6.1432    7.7183 O   0  0  0  0  0  0  0  0  0  0  0  0
   14.2796   -7.5201    6.8847 C   0  0  1  0  0  0  0  0  0  0  0  0
   14.4911   -8.8379    6.4661 O   0  0  0  0  0  0  0  0  0  0  0  0
   13.7843   -6.6494    5.7705 C   0  0  1  0  0  0  0  0  0  0  0  0
   13.0097   -7.4303    4.8803 O   0  0  0  0  0  0  0  0  0  0  0  0
   12.9132   -5.6094    6.4633 C   0  0  2  0  0  0  0  0  0  0  0  0
   16.3569   -6.8185   13.2637 O   0  0  0  0  0  0  0  0  0  0  0  0
   17.1860   -3.0550    8.2173 N   0  0  0  0  0  0  0  0  0  0  0  0
   16.9326   -4.4183    8.2590 C   0  0  0  0  0  0  0  0  0  0  0  0
   15.7427   -4.9383    7.7637 N   0  0  0  0  0  0  0  0  0  0  0  0
   14.8359   -4.1058    7.2207 C   0  0  0  0  0  0  0  0  0  0  0  0
   15.0864   -2.7321    7.1592 C   0  0  0  0  0  0  0  0  0  0  0  0
   16.2565   -2.1986    7.6673 C   0  0  0  0  0  0  0  0  0  0  0  0
   16.4846   -0.8947    7.6166 N   0  0  0  0  0  0  0  0  0  0  0  0
   14.0410   -2.1449    6.5663 N   0  0  0  0  0  0  0  0  0  0  0  0
   13.1421   -3.1030    6.2498 C   0  0  0  0  0  0  0  0  0  0  0  0
   13.6205   -4.3277    6.6442 N   0  0  0  0  0  0  0  0  0  0  0  0
  2  1  1  6  0  0  0
  2  3  1  0  0  0  0
  2  5  1  0  0  0  0
  3  4  1  0  0  0  0
  3 17  1  0  0  0  0
  5  6  1  0  0  0  0
  7  6  1  1  0  0  0
  7  8  1  0  0  0  0
  7  9  1  0  0  0  0
 10  9  1  1  0  0  0
 10 11  1  0  0  0  0
 10 12  1  0  0  0  0
 11 16  1  0  0  0  0
 12 13  1  6  0  0  0
 12 14  1  0  0  0  0
 14 15  1  6  0  0  0
 14 16  1  0  0  0  0
 16 27  1  1  0  0  0
 18 19  2  0  0  0  0
 18 23  1  0  0  0  0
 19 20  1  0  0  0  0
 20 21  2  0  0  0  0
 21 22  1  0  0  0  0
 21 27  1  0  0  0  0
 22 23  2  0  0  0  0
 22 25  1  0  0  0  0
 23 24  1  0  0  0  0
 25 26  2  0  0  0  0
 26 27  1  0  0  0  0
M  END
>  <CHROM.1>
126.86914189,171.95703002,-177.13593075,164.22594840,-146.51145251,47.93669545
65.77547088,14.28495950,-5.59181762,9.03929665,-1.59673005,-0.99928851,-1.26284919

>  <Name>
ligand

>  <RI>
0

>  <Rbt.Current_Directory>
/home/itssahil/PROJECTS/Mol_Feturizer/Test_systems_manuscript/rnas/2ydh

>  <Rbt.Executable>
rbdock ($Id: //depot/dev/client3/rdock/2013.1/src/exe/rbdock.cxx#4 $)

>  <Rbt.Library>
libRbt.so (2013.1, Build901 2013/11/27)

>  <Rbt.Parameter_File>
/export/apps/rDock/src/rDock_2013.1_src/data/scripts/dock_solv.prm

>  <Rbt.Receptor>
prm/pocket_docking_4.prm

>  <SCORE>
-15.4798

>  <SCORE.INTER>
-15.1449

>  <SCORE.INTER.CONST>
1

>  <SCORE.INTER.POLAR>
0

>  <SCORE.INTER.ROT>
7

>  <SCORE.INTER.SOLV>
22.83

>  <SCORE.INTER.VDW>
-25.9733

>  <SCORE.INTER.norm>
-0.560923

>  <SCORE.INTRA>
-0.334919

>  <SCORE.INTRA.DIHEDRAL>
-2.26937

>  <SCORE.INTRA.DIHEDRAL.0>
9.75037

>  <SCORE.INTRA.POLAR>
0

>  <SCORE.INTRA.POLAR.0>
0

>  <SCORE.INTRA.REPUL>
0

>  <SCORE.INTRA.REPUL.0>
0

>  <SCORE.INTRA.SOLV>
-1.48412

>  <SCORE.INTRA.SOLV.lig_0>
-48.4279

>  <SCORE.INTRA.VDW>
1.54182

>  <SCORE.INTRA.VDW.0>
-4.69037

>  <SCORE.INTRA.norm>
-0.0124044

>  <SCORE.RESTR>
0

>  <SCORE.RESTR.CAVITY>
0

>  <SCORE.RESTR.norm>
0

>  <SCORE.SYSTEM>
0

>  <SCORE.SYSTEM.CONST>
0

>  <SCORE.SYSTEM.DIHEDRAL>
0

>  <SCORE.SYSTEM.SOLV>
0

>  <SCORE.SYSTEM.norm>
0

>  <SCORE.heavy>
27

>  <SCORE.norm>
-0.573327

>  <RMSD>
1.425

$$$$
ligand
 OpenBabel02271912153D
libRbt.so/2013.1/901 2013/11/27
 27 29  0  0  0  0  0  0  0  0999 V2000
   15.5502   -5.9980   12.0367 N   0  0  0  0  0  0  0  0  0  0  0  0
   14.3726   -6.0741   11.1179 C   0  0  2  0  0  0  0  0  0  0  0  0
   13.9525   -4.6681   10.6351 C   0  0  0  0  0  0  0  0  0  0  0  0
   14.0673   -3.6812   11.3683 O   0  0  0  0  0  0  0  0  0  0  0  0
   13.2308   -6.8051   11.8163 C   0  0  0  0  0  0  0  0  0  0  0  0
   12.0651   -7.1647   10.9102 C   0  0  0  0  0  0  0  0  0  0  0  0
   12.4045   -8.5866    9.8332 S   0  0  2  0  0  0  0  0  0  0  0  0
   13.1398   -9.7433   11.0235 C   0  0  0  0  0  0  0  0  0  0  0  0
   13.8214   -8.1343    8.8194 C   0  0  0  0  0  0  0  0  0  0  0  0
   13.3278   -7.6292    7.4771 C   0  0  1  0  0  0  0  0  0  0  0  0
   12.7279   -6.3461    7.5655 O   0  0  0  0  0  0  0  0  0  0  0  0
   14.4546   -7.5235    6.4787 C   0  0  1  0  0  0  0  0  0  0  0  0
   14.6839   -8.7499    5.8463 O   0  0  0  0  0  0  0  0  0  0  0  0
   13.9094   -6.4971    5.5330 C   0  0  1  0  0  0  0  0  0  0  0  0
   13.1282   -7.1436    4.5461 O   0  0  0  0  0  0  0  0  0  0  0  0
   13.0347   -5.6067    6.4061 C   0  0  2  0  0  0  0  0  0  0  0  0
   13.4795   -4.4673    9.5014 O   0  0  0  0  0  0  0  0  0  0  0  0
   17.5739   -3.0835    7.3483 N   0  0  0  0  0  0  0  0  0  0  0  0
   17.3977   -4.4100    6.9823 C   0  0  0  0  0  0  0  0  0  0  0  0
   16.1252   -4.9320    6.7830 N   0  0  0  0  0  0  0  0  0  0  0  0
   15.0543   -4.1308    6.9300 C   0  0  0  0  0  0  0  0  0  0  0  0
   15.2200   -2.7887    7.2836 C   0  0  0  0  0  0  0  0  0  0  0  0
   16.4788   -2.2615    7.5059 C   0  0  0  0  0  0  0  0  0  0  0  0
   16.6301   -0.9918    7.8515 N   0  0  0  0  0  0  0  0  0  0  0  0
   14.0096   -2.2231    7.3477 N   0  0  0  0  0  0  0  0  0  0  0  0
   13.0876   -3.1631    7.0435 C   0  0  0  0  0  0  0  0  0  0  0  0
   13.7180   -4.3529    6.7765 N   0  0  0  0  0  0  0  0  0  0  0  0
  2  1  1  1  0  0  0
  2  3  1  0  0  0  0
  2  5  1  0  0  0  0
  3  4  1  0  0  0  0
  3 17  1  0  0  0  0
  5  6  1  0  0  0  0
  7  6  1  1  0  0  0
  7  8  1  0  0  0  0
  7  9  1  0  0  0  0
 10  9  1  1  0  0  0
 10 11  1  0  0  0  0
 10 12  1  0  0  0  0
 11 16  1  0  0  0  0
 12 13  1  6  0  0  0
 12 14  1  0  0  0  0
 14 15  1  6  0  0  0
 14 16  1  0  0  0  0
 16 27  1  1  0  0  0
 18 19  2  0  0  0  0
 18 23  1  0  0  0  0
 19 20  1  0  0  0  0
 20 21  2  0  0  0  0
 21 22  1  0  0  0  0
 21 27  1  0  0  0  0
 22 23  2  0  0  0  0
 22 25  1  0  0  0  0
 23 24  1  0  0  0  0
 25 26  2  0  0  0  0
 26 27  1  0  0  0  0
M  END
>  <CHROM.1>
-33.71046947,-169.74882932,76.13367939,46.21817189,-97.01473224,72.28695438
89.62073552,14.18975281,-5.66516896,8.34579155,-2.90284275,-1.12652056,-1.79090180

>  <Name>
ligand

>  <RI>
0

>  <Rbt.Current_Directory>
/home/itssahil/PROJECTS/Mol_Feturizer/Test_systems_manuscript/rnas/2ydh

>  <Rbt.Executable>
rbdock ($Id: //depot/dev/client3/rdock/2013.1/src/exe/rbdock.cxx#4 $)

>  <Rbt.Library>
libRbt.so (2013.1, Build901 2013/11/27)

>  <Rbt.Parameter_File>
/export/apps/rDock/src/rDock_2013.1_src/data/scripts/dock_solv.prm

>  <Rbt.Receptor>
prm/pocket_docking_3.prm

>  <SCORE>
-18.2366

>  <SCORE.INTER>
-17.4439

>  <SCORE.INTER.CONST>
1

>  <SCORE.INTER.POLAR>
0

>  <SCORE.INTER.ROT>
7

>  <SCORE.INTER.SOLV>
16.4351

>  <SCORE.INTER.VDW>
-25.3743

>  <SCORE.INTER.norm>
-0.64607

>  <SCORE.INTRA>
-0.792729

>  <SCORE.INTRA.DIHEDRAL>
-2.59584

>  <SCORE.INTRA.DIHEDRAL.0>
9.75037

>  <SCORE.INTRA.POLAR>
0

>  <SCORE.INTRA.POLAR.0>
0

>  <SCORE.INTRA.REPUL>
0

>  <SCORE.INTRA.REPUL.0>
0

>  <SCORE.INTRA.SOLV>
-0.724729

>  <SCORE.INTRA.SOLV.lig_0>
-48.4279

>  <SCORE.INTRA.VDW>
0.867557

>  <SCORE.INTRA.VDW.0>
-4.69037

>  <SCORE.INTRA.norm>
-0.0293603

>  <SCORE.RESTR>
0

>  <SCORE.RESTR.CAVITY>
0

>  <SCORE.RESTR.norm>
0

>  <SCORE.SYSTEM>
0

>  <SCORE.SYSTEM.CONST>
0

>  <SCORE.SYSTEM.DIHEDRAL>
0

>  <SCORE.SYSTEM.SOLV>
0

>  <SCORE.SYSTEM.norm>
0

>  <SCORE.heavy>
27

>  <SCORE.norm>
-0.67543

>  <RMSD>
1.430

$$$$
ligand
 OpenBabel02271912153D
libRbt.so/2013.1/901 2013/11/27
 27 29  0  0  0  0  0  0  0  0999 V2000
   15.5731   -4.1885   12.9008 N   0  0  0  0  0  0  0  0  0  0  0  0
   15.3067   -5.0331   11.6957 C   0  0  2  0  0  0  0  0  0  0  0  0
   14.3309   -4.3282   10.7275 C   0  0  0  0  0  0  0  0  0  0  0  0
   14.3539   -4.5630    9.5155 O   0  0  0  0  0  0  0  0  0  0  0  0
   14.7896   -6.3981   12.1373 C   0  0  0  0  0  0  0  0  0  0  0  0
   14.8938   -7.4839   11.0793 C   0  0  0  0  0  0  0  0  0  0  0  0
   13.6104   -7.3662    9.8002 S   0  0  2  0  0  0  0  0  0  0  0  0
   12.3203   -8.4220   10.5189 C   0  0  0  0  0  0  0  0  0  0  0  0
   14.1805   -8.3573    8.4101 C   0  0  0  0  0  0  0  0  0  0  0  0
   13.5485   -7.8312    7.1357 C   0  0  1  0  0  0  0  0  0  0  0  0
   12.8586   -6.6071    7.3355 O   0  0  0  0  0  0  0  0  0  0  0  0
   14.5846   -7.5861    6.0659 C   0  0  1  0  0  0  0  0  0  0  0  0
   14.8604   -8.7582    5.3541 O   0  0  0  0  0  0  0  0  0  0  0  0
   13.8907   -6.5641    5.2181 C   0  0  1  0  0  0  0  0  0  0  0  0
   13.0898   -7.2248    4.2567 O   0  0  0  0  0  0  0  0  0  0  0  0
   13.0179   -5.7908    6.1982 C   0  0  2  0  0  0  0  0  0  0  0  0
   13.4903   -3.4972   11.1177 O   0  0  0  0  0  0  0  0  0  0  0  0
   17.3881   -3.0696    7.3621 N   0  0  0  0  0  0  0  0  0  0  0  0
   17.2871   -4.4080    7.0113 C   0  0  0  0  0  0  0  0  0  0  0  0
   16.0507   -4.9846    6.7462 N   0  0  0  0  0  0  0  0  0  0  0  0
   14.9420   -4.2254    6.8138 C   0  0  0  0  0  0  0  0  0  0  0  0
   15.0326   -2.8721    7.1514 C   0  0  0  0  0  0  0  0  0  0  0  0
   16.2537   -2.2904    7.4384 C   0  0  0  0  0  0  0  0  0  0  0  0
   16.3333   -1.0101    7.7685 N   0  0  0  0  0  0  0  0  0  0  0  0
   13.7990   -2.3553    7.1324 N   0  0  0  0  0  0  0  0  0  0  0  0
   12.9351   -3.3369    6.7915 C   0  0  0  0  0  0  0  0  0  0  0  0
   13.6272   -4.5043    6.5851 N   0  0  0  0  0  0  0  0  0  0  0  0
  2  1  1  1  0  0  0
  2  3  1  0  0  0  0
  2  5  1  0  0  0  0
  3  4  1  0  0  0  0
  3 17  1  0  0  0  0
  5  6  1  0  0  0  0
  7  6  1  1  0  0  0
  7  8  1  0  0  0  0
  7  9  1  0  0  0  0
 10  9  1  1  0  0  0
 10 11  1  0  0  0  0
 10 12  1  0  0  0  0
 11 16  1  0  0  0  0
 12 13  1  6  0  0  0
 12 14  1  0  0  0  0
 14 15  1  6  0  0  0
 14 16  1  0  0  0  0
 16 27  1  1  0  0  0
 18 19  2  0  0  0  0
 18 23  1  0  0  0  0
 19 20  1  0  0  0  0
 20 21  2  0  0  0  0
 21 22  1  0  0  0  0
 21 27  1  0  0  0  0
 22 23  2  0  0  0  0
 22 25  1  0  0  0  0
 23 24  1  0  0  0  0
 25 26  2  0  0  0  0
 26 27  1  0  0  0  0
M  END
>  <CHROM.1>
152.58628451,-161.63359956,-77.11187023,-91.12558176,-154.22785479,8.90065102
80.69862534,14.45006784,-5.46063346,8.25094377,1.03119371,1.20403097,1.60074156

>  <Name>
ligand

>  <RI>
0

>  <Rbt.Current_Directory>
/home/itssahil/PROJECTS/Mol_Feturizer/Test_systems_manuscript/rnas/2ydh

>  <Rbt.Executable>
rbdock ($Id: //depot/dev/client3/rdock/2013.1/src/exe/rbdock.cxx#4 $)

>  <Rbt.Library>
libRbt.so (2013.1, Build901 2013/11/27)

>  <Rbt.Parameter_File>
/export/apps/rDock/src/rDock_2013.1_src/data/scripts/dock_solv.prm

>  <Rbt.Receptor>
prm/pocket_docking_2.prm

>  <SCORE>
-10.9113

>  <SCORE.INTER>
-12.9866

>  <SCORE.INTER.CONST>
1

>  <SCORE.INTER.POLAR>
0

>  <SCORE.INTER.ROT>
7

>  <SCORE.INTER.SOLV>
21.5315

>  <SCORE.INTER.VDW>
-24.1016

>  <SCORE.INTER.norm>
-0.480986

>  <SCORE.INTRA>
2.07528

>  <SCORE.INTRA.DIHEDRAL>
4.67743

>  <SCORE.INTRA.DIHEDRAL.0>
9.75037

>  <SCORE.INTRA.POLAR>
0

>  <SCORE.INTRA.POLAR.0>
0

>  <SCORE.INTRA.REPUL>
0

>  <SCORE.INTRA.REPUL.0>
0

>  <SCORE.INTRA.SOLV>
-1.23829

>  <SCORE.INTRA.SOLV.lig_0>
-48.4279

>  <SCORE.INTRA.VDW>
0.355708

>  <SCORE.INTRA.VDW.0>
-4.69037

>  <SCORE.INTRA.norm>
0.0768622

>  <SCORE.RESTR>
0

>  <SCORE.RESTR.CAVITY>
0

>  <SCORE.RESTR.norm>
0

>  <SCORE.SYSTEM>
0

>  <SCORE.SYSTEM.CONST>
0

>  <SCORE.SYSTEM.DIHEDRAL>
0

>  <SCORE.SYSTEM.SOLV>
0

>  <SCORE.SYSTEM.norm>
0

>  <SCORE.heavy>
27

>  <SCORE.norm>
-0.404124

>  <RMSD>
1.435

$$$$
ligand
 OpenBabel02271912153D
libRbt.so/2013.1/901 2013/11/27
 27 29  0  0  0  0  0  0  0  0999 V2000
   12.0887   -6.4839   10.9368 N   0  0  0  0  0  0  0  0  0  0  0  0
   13.1550   -5.7086   11.6427 C   0  0  2  0  0  0  0  0  0  0  0  0
   13.5057   -4.4167   10.8715 C   0  0  0  0  0  0  0  0  0  0  0  0
   13.7834   -3.3725   11.4693 O   0  0  0  0  0  0  0  0  0  0  0  0
   14.3748   -6.5994   11.8529 C   0  0  0  0  0  0  0  0  0  0  0  0
   15.0681   -7.0313   10.5715 C   0  0  0  0  0  0  0  0  0  0  0  0
   14.1884   -8.3520    9.6889 S   0  0  2  0  0  0  0  0  0  0  0  0
   14.8434   -9.8180   10.5361 C   0  0  0  0  0  0  0  0  0  0  0  0
   14.9533   -8.4798    8.0646 C   0  0  0  0  0  0  0  0  0  0  0  0
   13.9672   -8.0037    7.0150 C   0  0  1  0  0  0  0  0  0  0  0  0
   13.2526   -6.8478    7.4243 O   0  0  0  0  0  0  0  0  0  0  0  0
   14.6622   -7.6593    5.7203 C   0  0  1  0  0  0  0  0  0  0  0  0
   14.8402   -8.7970    4.9262 O   0  0  0  0  0  0  0  0  0  0  0  0
   13.6864   -6.6978    5.1136 C   0  0  1  0  0  0  0  0  0  0  0  0
   12.7205   -7.4211    4.3744 O   0  0  0  0  0  0  0  0  0  0  0  0
   13.0385   -6.0128    6.3099 C   0  0  2  0  0  0  0  0  0  0  0  0
   13.5192   -4.3667    9.6279 O   0  0  0  0  0  0  0  0  0  0  0  0
   17.2643   -3.1324    7.6157 N   0  0  0  0  0  0  0  0  0  0  0  0
   17.1834   -4.5104    7.4772 C   0  0  0  0  0  0  0  0  0  0  0  0
   15.9832   -5.1241    7.1390 N   0  0  0  0  0  0  0  0  0  0  0  0
   14.8928   -4.3653    6.9257 C   0  0  0  0  0  0  0  0  0  0  0  0
   14.9656   -2.9748    7.0473 C   0  0  0  0  0  0  0  0  0  0  0  0
   16.1477   -2.3525    7.4041 C   0  0  0  0  0  0  0  0  0  0  0  0
   16.2089   -1.0352    7.5287 N   0  0  0  0  0  0  0  0  0  0  0  0
   13.7582   -2.4695    6.7715 N   0  0  0  0  0  0  0  0  0  0  0  0
   12.9284   -3.4948    6.4775 C   0  0  0  0  0  0  0  0  0  0  0  0
   13.6166   -4.6795    6.5634 N   0  0  0  0  0  0  0  0  0  0  0  0
  2  1  1  6  0  0  0
  2  3  1  0  0  0  0
  2  5  1  0  0  0  0
  3  4  1  0  0  0  0
  3 17  1  0  0  0  0
  5  6  1  0  0  0  0
  7  6  1  1  0  0  0
  7  8  1  0  0  0  0
  7  9  1  0  0  0  0
 10  9  1  1  0  0  0
 10 11  1  0  0  0  0
 10 12  1  0  0  0  0
 11 16  1  0  0  0  0
 12 13  1  6  0  0  0
 12 14  1  0  0  0  0
 14 15  1  1  0  0  0
 14 16  1  0  0  0  0
 16 27  1  1  0  0  0
 18 19  2  0  0  0  0
 18 23  1  0  0  0  0
 19 20  1  0  0  0  0
 20 21  2  0  0  0  0
 21 22  1  0  0  0  0
 21 27  1  0  0  0  0
 22 23  2  0  0  0  0
 22 25  1  0  0  0  0
 23 24  1  0  0  0  0
 25 26  2  0  0  0  0
 26 27  1  0  0  0  0
M  END
>  <CHROM.1>
143.40580430,65.34149202,-76.59795740,-85.36837716,-111.37062920,41.19605968
54.59612889,14.35666731,-5.76066090,8.13313575,3.13316681,-1.36916493,-1.92966730

>  <Name>
ligand

>  <RI>
0

>  <Rbt.Current_Directory>
/home/itssahil/PROJECTS/Mol_Feturizer/Test_systems_manuscript/rnas/2ydh

>  <Rbt.Executable>
rbdock ($Id: //depot/dev/client3/rdock/2013.1/src/exe/rbdock.cxx#4 $)

>  <Rbt.Library>
libRbt.so (2013.1, Build901 2013/11/27)

>  <Rbt.Parameter_File>
/export/apps/rDock/src/rDock_2013.1_src/data/scripts/dock_solv.prm

>  <Rbt.Receptor>
prm/pocket_docking_2.prm

>  <SCORE>
-13.4716

>  <SCORE.INTER>
-13.6988

>  <SCORE.INTER.CONST>
1

>  <SCORE.INTER.POLAR>
0

>  <SCORE.INTER.ROT>
7

>  <SCORE.INTER.SOLV>
19.3299

>  <SCORE.INTER.VDW>
-23.8425

>  <SCORE.INTER.norm>
-0.507364

>  <SCORE.INTRA>
0.227227

>  <SCORE.INTRA.DIHEDRAL>
0.215589

>  <SCORE.INTRA.DIHEDRAL.0>
9.75037

>  <SCORE.INTRA.POLAR>
0

>  <SCORE.INTRA.POLAR.0>
0

>  <SCORE.INTRA.REPUL>
0

>  <SCORE.INTRA.REPUL.0>
0

>  <SCORE.INTRA.SOLV>
1.26177

>  <SCORE.INTRA.SOLV.lig_0>
-48.4279

>  <SCORE.INTRA.VDW>
-0.511451

>  <SCORE.INTRA.VDW.0>
-4.69037

>  <SCORE.INTRA.norm>
0.0084158

>  <SCORE.RESTR>
0

>  <SCORE.RESTR.CAVITY>
0

>  <SCORE.RESTR.norm>
0

>  <SCORE.SYSTEM>
0

>  <SCORE.SYSTEM.CONST>
0

>  <SCORE.SYSTEM.DIHEDRAL>
0

>  <SCORE.SYSTEM.SOLV>
0

>  <SCORE.SYSTEM.norm>
0

>  <SCORE.heavy>
27

>  <SCORE.norm>
-0.498948

>  <RMSD>
1.454

$$$$
ligand
 OpenBabel02271912153D
libRbt.so/2013.1/901 2013/11/27
 27 29  0  0  0  0  0  0  0  0999 V2000
   16.1095   -4.9648   12.6384 N   0  0  0  0  0  0  0  0  0  0  0  0
   15.3542   -5.6474   11.5429 C   0  0  2  0  0  0  0  0  0  0  0  0
   14.0592   -4.8788   11.1979 C   0  0  0  0  0  0  0  0  0  0  0  0
   12.9753   -5.4632   11.1081 O   0  0  0  0  0  0  0  0  0  0  0  0
   15.0736   -7.0918   11.9440 C   0  0  0  0  0  0  0  0  0  0  0  0
   15.1367   -8.0876   10.7980 C   0  0  0  0  0  0  0  0  0  0  0  0
   13.9414   -7.7387    9.4764 S   0  0  2  0  0  0  0  0  0  0  0  0
   12.5695   -8.8211    9.9681 C   0  0  0  0  0  0  0  0  0  0  0  0
   14.5594   -8.5582    7.9977 C   0  0  0  0  0  0  0  0  0  0  0  0
   13.7625   -8.0812    6.7985 C   0  0  1  0  0  0  0  0  0  0  0  0
   13.0269   -6.8982    7.0696 O   0  0  0  0  0  0  0  0  0  0  0  0
   14.6599   -7.7849    5.6217 C   0  0  1  0  0  0  0  0  0  0  0  0
   14.9258   -8.9449    4.8866 O   0  0  0  0  0  0  0  0  0  0  0  0
   13.8184   -6.8129    4.8523 C   0  0  1  0  0  0  0  0  0  0  0  0
   12.9584   -7.5279    3.9854 O   0  0  0  0  0  0  0  0  0  0  0  0
   13.0128   -6.0839    5.9200 C   0  0  2  0  0  0  0  0  0  0  0  0
   14.0488   -3.6513   10.9915 O   0  0  0  0  0  0  0  0  0  0  0  0
   16.9745   -3.2906    8.0084 N   0  0  0  0  0  0  0  0  0  0  0  0
   16.8607   -4.6704    7.9188 C   0  0  0  0  0  0  0  0  0  0  0  0
   15.7380   -5.2580    7.3480 N   0  0  0  0  0  0  0  0  0  0  0  0
   14.7600   -4.4731    6.8604 C   0  0  0  0  0  0  0  0  0  0  0  0
   14.8703   -3.0815    6.9312 C   0  0  0  0  0  0  0  0  0  0  0  0
   15.9716   -2.4837    7.5155 C   0  0  0  0  0  0  0  0  0  0  0  0
   16.0665   -1.1646    7.5900 N   0  0  0  0  0  0  0  0  0  0  0  0
   13.7802   -2.5489    6.3680 N   0  0  0  0  0  0  0  0  0  0  0  0
   12.9887   -3.5581    5.9424 C   0  0  0  0  0  0  0  0  0  0  0  0
   13.5830   -4.7604    6.2353 N   0  0  0  0  0  0  0  0  0  0  0  0
  2  1  1  1  0  0  0
  2  3  1  0  0  0  0
  2  5  1  0  0  0  0
  3  4  1  0  0  0  0
  3 17  1  0  0  0  0
  5  6  1  0  0  0  0
  7  6  1  1  0  0  0
  7  8  1  0  0  0  0
  7  9  1  0  0  0  0
 10  9  1  1  0  0  0
 10 11  1  0  0  0  0
 10 12  1  0  0  0  0
 11 16  1  0  0  0  0
 12 13  1  6  0  0  0
 12 14  1  0  0  0  0
 14 15  1  6  0  0  0
 14 16  1  0  0  0  0
 16 27  1  1  0  0  0
 18 19  2  0  0  0  0
 18 23  1  0  0  0  0
 19 20  1  0  0  0  0
 20 21  2  0  0  0  0
 21 22  1  0  0  0  0
 21 27  1  0  0  0  0
 22 23  2  0  0  0  0
 22 25  1  0  0  0  0
 23 24  1  0  0  0  0
 25 26  2  0  0  0  0
 26 27  1  0  0  0  0
M  END
>  <CHROM.1>
-131.25797697,-143.82233628,-60.11511671,-95.18906130,-168.77966121,15.98833722
50.16752670,14.44087555,-5.80827290,8.13984081,0.91597821,1.28033424,1.96850448

>  <Name>
ligand

>  <RI>
0

>  <Rbt.Current_Directory>
/home/itssahil/PROJECTS/Mol_Feturizer/Test_systems_manuscript/rnas/2ydh

>  <Rbt.Executable>
rbdock ($Id: //depot/dev/client3/rdock/2013.1/src/exe/rbdock.cxx#4 $)

>  <Rbt.Library>
libRbt.so (2013.1, Build901 2013/11/27)

>  <Rbt.Parameter_File>
/export/apps/rDock/src/rDock_2013.1_src/data/scripts/dock_solv.prm

>  <Rbt.Receptor>
prm/pocket_docking_3.prm

>  <SCORE>
-9.73885

>  <SCORE.INTER>
-12.475

>  <SCORE.INTER.CONST>
1

>  <SCORE.INTER.POLAR>
0

>  <SCORE.INTER.ROT>
7

>  <SCORE.INTER.SOLV>
19.8471

>  <SCORE.INTER.VDW>
-23.1991

>  <SCORE.INTER.norm>
-0.462038

>  <SCORE.INTRA>
2.73618

>  <SCORE.INTRA.DIHEDRAL>
4.48193

>  <SCORE.INTRA.DIHEDRAL.0>
9.75037

>  <SCORE.INTRA.POLAR>
0

>  <SCORE.INTRA.POLAR.0>
0

>  <SCORE.INTRA.REPUL>
0

>  <SCORE.INTRA.REPUL.0>
0

>  <SCORE.INTRA.SOLV>
-1.18873

>  <SCORE.INTRA.SOLV.lig_0>
-48.4279

>  <SCORE.INTRA.VDW>
1.08958

>  <SCORE.INTRA.VDW.0>
-4.69037

>  <SCORE.INTRA.norm>
0.10134

>  <SCORE.RESTR>
0

>  <SCORE.RESTR.CAVITY>
0

>  <SCORE.RESTR.norm>
0

>  <SCORE.SYSTEM>
0

>  <SCORE.SYSTEM.CONST>
0

>  <SCORE.SYSTEM.DIHEDRAL>
0

>  <SCORE.SYSTEM.SOLV>
0

>  <SCORE.SYSTEM.norm>
0

>  <SCORE.heavy>
27

>  <SCORE.norm>
-0.360698

>  <RMSD>
1.454

$$$$
ligand
 OpenBabel02271912153D
libRbt.so/2013.1/901 2013/11/27
 27 29  0  0  0  0  0  0  0  0999 V2000
   15.8407   -5.9962   13.5929 N   0  0  0  0  0  0  0  0  0  0  0  0
   15.7914   -5.5934   12.1535 C   0  0  2  0  0  0  0  0  0  0  0  0
   15.9823   -4.0684   11.9962 C   0  0  0  0  0  0  0  0  0  0  0  0
   15.5205   -3.2789   12.8257 O   0  0  0  0  0  0  0  0  0  0  0  0
   14.4818   -6.0735   11.5370 C   0  0  0  0  0  0  0  0  0  0  0  0
   14.6156   -6.6352   10.1314 C   0  0  0  0  0  0  0  0  0  0  0  0
   13.0177   -6.9600    9.3324 S   0  0  2  0  0  0  0  0  0  0  0  0
   12.0731   -7.6331   10.7289 C   0  0  0  0  0  0  0  0  0  0  0  0
   13.2496   -8.4134    8.2962 C   0  0  0  0  0  0  0  0  0  0  0  0
   13.4587   -7.9691    6.8611 C   0  0  1  0  0  0  0  0  0  0  0  0
   12.8553   -6.7142    6.5865 O   0  0  0  0  0  0  0  0  0  0  0  0
   14.9258   -7.8366    6.5324 C   0  0  1  0  0  0  0  0  0  0  0  0
   15.4692   -9.0673    6.1495 O   0  0  0  0  0  0  0  0  0  0  0  0
   14.8816   -6.8635    5.3939 C   0  0  1  0  0  0  0  0  0  0  0  0
   14.6994   -7.5732    4.1834 O   0  0  0  0  0  0  0  0  0  0  0  0
   13.6671   -5.9927    5.6891 C   0  0  2  0  0  0  0  0  0  0  0  0
   16.5977   -3.5702   11.0358 O   0  0  0  0  0  0  0  0  0  0  0  0
   17.4882   -2.8595    7.5440 N   0  0  0  0  0  0  0  0  0  0  0  0
   17.6155   -4.1369    7.0181 C   0  0  0  0  0  0  0  0  0  0  0  0
   16.5008   -4.8429    6.5814 N   0  0  0  0  0  0  0  0  0  0  0  0
   15.2868   -4.2675    6.6546 C   0  0  0  0  0  0  0  0  0  0  0  0
   15.1478   -2.9751    7.1684 C   0  0  0  0  0  0  0  0  0  0  0  0
   16.2453   -2.2695    7.6262 C   0  0  0  0  0  0  0  0  0  0  0  0
   16.1071   -1.0491    8.1224 N   0  0  0  0  0  0  0  0  0  0  0  0
   13.8532   -2.6433    7.1148 N   0  0  0  0  0  0  0  0  0  0  0  0
   13.1727   -3.6821    6.5819 C   0  0  0  0  0  0  0  0  0  0  0  0
   14.0469   -4.6981    6.2855 N   0  0  0  0  0  0  0  0  0  0  0  0
  2  1  1  1  0  0  0
  2  3  1  0  0  0  0
  2  5  1  0  0  0  0
  3  4  1  0  0  0  0
  3 17  1  0  0  0  0
  5  6  1  0  0  0  0
  7  6  1  1  0  0  0
  7  8  1  0  0  0  0
  7  9  1  0  0  0  0
 10  9  1  1  0  0  0
 10 11  1  0  0  0  0
 10 12  1  0  0  0  0
 11 16  1  0  0  0  0
 12 13  1  6  0  0  0
 12 14  1  0  0  0  0
 14 15  1  6  0  0  0
 14 16  1  0  0  0  0
 16 27  1  1  0  0  0
 18 19  2  0  0  0  0
 18 23  1  0  0  0  0
 19 20  1  0  0  0  0
 20 21  2  0  0  0  0
 21 22  1  0  0  0  0
 21 27  1  0  0  0  0
 22 23  2  0  0  0  0
 22 25  1  0  0  0  0
 23 24  1  0  0  0  0
 25 26  2  0  0  0  0
 26 27  1  0  0  0  0
M  END
>  <CHROM.1>
-35.81263412,-139.22585925,-171.17854200,-39.74961292,-99.52030269,-26.36432246
114.17882436,14.80292098,-5.45583827,8.36363151,1.04578721,1.10254317,1.58639389

>  <Name>
ligand

>  <RI>
0

>  <Rbt.Current_Directory>
/home/itssahil/PROJECTS/Mol_Feturizer/Test_systems_manuscript/rnas/2ydh

>  <Rbt.Executable>
rbdock ($Id: //depot/dev/client3/rdock/2013.1/src/exe/rbdock.cxx#4 $)

>  <Rbt.Library>
libRbt.so (2013.1, Build901 2013/11/27)

>  <Rbt.Parameter_File>
/export/apps/rDock/src/rDock_2013.1_src/data/scripts/dock_solv.prm

>  <Rbt.Receptor>
prm/pocket_docking_2.prm

>  <SCORE>
-4.02707

>  <SCORE.INTER>
-9.12121

>  <SCORE.INTER.CONST>
1

>  <SCORE.INTER.POLAR>
0

>  <SCORE.INTER.ROT>
7

>  <SCORE.INTER.SOLV>
21.0213

>  <SCORE.INTER.VDW>
-21.3546

>  <SCORE.INTER.norm>
-0.337823

>  <SCORE.INTRA>
5.08636

>  <SCORE.INTRA.DIHEDRAL>
5.47422

>  <SCORE.INTRA.DIHEDRAL.0>
9.75037

>  <SCORE.INTRA.POLAR>
0

>  <SCORE.INTRA.POLAR.0>
0

>  <SCORE.INTRA.REPUL>
0

>  <SCORE.INTRA.REPUL.0>
0

>  <SCORE.INTRA.SOLV>
-1.16908

>  <SCORE.INTRA.SOLV.lig_0>
-48.4279

>  <SCORE.INTRA.VDW>
2.9338

>  <SCORE.INTRA.VDW.0>
-4.69037

>  <SCORE.INTRA.norm>
0.188384

>  <SCORE.RESTR>
0.00777484

>  <SCORE.RESTR.CAVITY>
0.00777484

>  <SCORE.RESTR.norm>
0.000287957

>  <SCORE.SYSTEM>
0

>  <SCORE.SYSTEM.CONST>
0

>  <SCORE.SYSTEM.DIHEDRAL>
0

>  <SCORE.SYSTEM.SOLV>
0

>  <SCORE.SYSTEM.norm>
0

>  <SCORE.heavy>
27

>  <SCORE.norm>
-0.149151

>  <RMSD>
1.467

$$$$
ligand
 OpenBabel02271912153D
libRbt.so/2013.1/901 2013/11/27
 27 29  0  0  0  0  0  0  0  0999 V2000
   15.3908   -6.0435   12.3728 N   0  0  0  0  0  0  0  0  0  0  0  0
   14.2797   -6.0331   11.3718 C   0  0  2  0  0  0  0  0  0  0  0  0
   14.0185   -4.6040   10.8462 C   0  0  0  0  0  0  0  0  0  0  0  0
   14.1718   -3.6186   11.5743 O   0  0  0  0  0  0  0  0  0  0  0  0
   13.0319   -6.6522   11.9926 C   0  0  0  0  0  0  0  0  0  0  0  0
   11.9270   -6.9728   11.0000 C   0  0  0  0  0  0  0  0  0  0  0  0
   12.2880   -8.4212    9.9661 S   0  0  2  0  0  0  0  0  0  0  0  0
   12.9878   -9.5517   11.2021 C   0  0  0  0  0  0  0  0  0  0  0  0
   13.7323   -7.9982    8.9787 C   0  0  0  0  0  0  0  0  0  0  0  0
   13.2735   -7.4627    7.6358 C   0  0  1  0  0  0  0  0  0  0  0  0
   12.7207   -6.1589    7.7299 O   0  0  0  0  0  0  0  0  0  0  0  0
   14.4151   -7.3898    6.6513 C   0  0  1  0  0  0  0  0  0  0  0  0
   14.6059   -8.6180    6.0097 O   0  0  0  0  0  0  0  0  0  0  0  0
   13.9195   -6.3351    5.7095 C   0  0  1  0  0  0  0  0  0  0  0  0
   13.1263   -6.9429    4.7076 O   0  0  0  0  0  0  0  0  0  0  0  0
   13.0683   -5.4208    6.5812 C   0  0  2  0  0  0  0  0  0  0  0  0
   13.6411   -4.3820    9.6810 O   0  0  0  0  0  0  0  0  0  0  0  0
   17.6964   -2.9802    7.2764 N   0  0  0  0  0  0  0  0  0  0  0  0
   17.4760   -4.2785    6.8400 C   0  0  0  0  0  0  0  0  0  0  0  0
   16.1861   -4.7821    6.7219 N   0  0  0  0  0  0  0  0  0  0  0  0
   15.1401   -3.9895    7.0182 C   0  0  0  0  0  0  0  0  0  0  0  0
   15.3489   -2.6748    7.4443 C   0  0  0  0  0  0  0  0  0  0  0  0
   16.6273   -2.1675    7.5867 C   0  0  0  0  0  0  0  0  0  0  0  0
   16.8204   -0.9243    8.0014 N   0  0  0  0  0  0  0  0  0  0  0  0
   14.1543   -2.1113    7.6550 N   0  0  0  0  0  0  0  0  0  0  0  0
   13.2003   -3.0259    7.3731 C   0  0  0  0  0  0  0  0  0  0  0  0
   13.7934   -4.1969    6.9714 N   0  0  0  0  0  0  0  0  0  0  0  0
  2  1  1  1  0  0  0
  2  3  1  0  0  0  0
  2  5  1  0  0  0  0
  3  4  1  0  0  0  0
  3 17  1  0  0  0  0
  5  6  1  0  0  0  0
  7  6  1  1  0  0  0
  7  8  1  0  0  0  0
  7  9  1  0  0  0  0
 10  9  1  1  0  0  0
 10 11  1  0  0  0  0
 10 12  1  0  0  0  0
 11 16  1  0  0  0  0
 12 13  1  6  0  0  0
 12 14  1  0  0  0  0
 14 15  1  6  0  0  0
 14 16  1  0  0  0  0
 16 27  1  1  0  0  0
 18 19  2  0  0  0  0
 18 23  1  0  0  0  0
 19 20  1  0  0  0  0
 20 21  2  0  0  0  0
 21 22  1  0  0  0  0
 21 27  1  0  0  0  0
 22 23  2  0  0  0  0
 22 25  1  0  0  0  0
 23 24  1  0  0  0  0
 25 26  2  0  0  0  0
 26 27  1  0  0  0  0
M  END
>  <CHROM.1>
-33.37374466,-167.57706996,73.69024132,42.32603646,-94.40708641,72.81513415
96.55925739,14.19625162,-5.53611393,8.49905983,-2.88957915,-1.08613756,-1.82432803

>  <Name>
ligand

>  <RI>
0

>  <Rbt.Current_Directory>
/home/itssahil/PROJECTS/Mol_Feturizer/Test_systems_manuscript/rnas/2ydh

>  <Rbt.Executable>
rbdock ($Id: //depot/dev/client3/rdock/2013.1/src/exe/rbdock.cxx#4 $)

>  <Rbt.Library>
libRbt.so (2013.1, Build901 2013/11/27)

>  <Rbt.Parameter_File>
/export/apps/rDock/src/rDock_2013.1_src/data/scripts/dock_solv.prm

>  <Rbt.Receptor>
prm/pocket_docking_2.prm

>  <SCORE>
-18.0237

>  <SCORE.INTER>
-17.8538

>  <SCORE.INTER.CONST>
1

>  <SCORE.INTER.POLAR>
0

>  <SCORE.INTER.ROT>
7

>  <SCORE.INTER.SOLV>
16.9882

>  <SCORE.INTER.VDW>
-25.832

>  <SCORE.INTER.norm>
-0.661252

>  <SCORE.INTRA>
-0.169893

>  <SCORE.INTRA.DIHEDRAL>
-2.71561

>  <SCORE.INTRA.DIHEDRAL.0>
9.75037

>  <SCORE.INTRA.POLAR>
0

>  <SCORE.INTRA.POLAR.0>
0

>  <SCORE.INTRA.REPUL>
0

>  <SCORE.INTRA.REPUL.0>
0

>  <SCORE.INTRA.SOLV>
-0.618341

>  <SCORE.INTRA.SOLV.lig_0>
-48.4279

>  <SCORE.INTRA.VDW>
1.49708

>  <SCORE.INTRA.VDW.0>
-4.69037

>  <SCORE.INTRA.norm>
-0.00629234

>  <SCORE.RESTR>
0

>  <SCORE.RESTR.CAVITY>
0

>  <SCORE.RESTR.norm>
0

>  <SCORE.SYSTEM>
0

>  <SCORE.SYSTEM.CONST>
0

>  <SCORE.SYSTEM.DIHEDRAL>
0

>  <SCORE.SYSTEM.SOLV>
0

>  <SCORE.SYSTEM.norm>
0

>  <SCORE.heavy>
27

>  <SCORE.norm>
-0.667545

>  <RMSD>
1.467

$$$$
ligand
 OpenBabel02271912153D
libRbt.so/2013.1/901 2013/11/27
 27 29  0  0  0  0  0  0  0  0999 V2000
   16.5301   -4.0628   11.3831 N   0  0  0  0  0  0  0  0  0  0  0  0
   15.1686   -4.1613   11.9941 C   0  0  2  0  0  0  0  0  0  0  0  0
   15.0940   -5.3318   12.9996 C   0  0  0  0  0  0  0  0  0  0  0  0
   16.0867   -6.0222   13.2496 O   0  0  0  0  0  0  0  0  0  0  0  0
   14.1249   -4.2873   10.8894 C   0  0  0  0  0  0  0  0  0  0  0  0
   14.2629   -5.5339   10.0313 C   0  0  0  0  0  0  0  0  0  0  0  0
   12.6686   -6.2815    9.5887 S   0  0  2  0  0  0  0  0  0  0  0  0
   12.1183   -6.8866   11.2095 C   0  0  0  0  0  0  0  0  0  0  0  0
   13.0446   -7.8127    8.7204 C   0  0  0  0  0  0  0  0  0  0  0  0
   13.3130   -7.5000    7.2606 C   0  0  1  0  0  0  0  0  0  0  0  0
   12.8008   -6.2348    6.8720 O   0  0  0  0  0  0  0  0  0  0  0  0
   14.7922   -7.4900    6.9611 C   0  0  1  0  0  0  0  0  0  0  0  0
   15.2600   -8.7803    6.6911 O   0  0  0  0  0  0  0  0  0  0  0  0
   14.8371   -6.6110    5.7485 C   0  0  1  0  0  0  0  0  0  0  0  0
   14.6333   -7.4026    4.5935 O   0  0  0  0  0  0  0  0  0  0  0  0
   13.6777   -5.6422    5.9419 C   0  0  2  0  0  0  0  0  0  0  0  0
   14.0422   -5.6335   13.5929 O   0  0  0  0  0  0  0  0  0  0  0  0
   17.6665   -2.6132    7.6074 N   0  0  0  0  0  0  0  0  0  0  0  0
   17.7200   -3.9325    7.1815 C   0  0  0  0  0  0  0  0  0  0  0  0
   16.5682   -4.6010    6.7840 N   0  0  0  0  0  0  0  0  0  0  0  0
   15.3911   -3.9494    6.7967 C   0  0  0  0  0  0  0  0  0  0  0  0
   15.3269   -2.6155    7.2092 C   0  0  0  0  0  0  0  0  0  0  0  0
   16.4613   -1.9446    7.6275 C   0  0  0  0  0  0  0  0  0  0  0  0
   16.3937   -0.6838    8.0280 N   0  0  0  0  0  0  0  0  0  0  0  0
   14.0557   -2.2112    7.1128 N   0  0  0  0  0  0  0  0  0  0  0  0
   13.3177   -3.2446    6.6505 C   0  0  0  0  0  0  0  0  0  0  0  0
   14.1307   -4.3312    6.4439 N   0  0  0  0  0  0  0  0  0  0  0  0
  2  1  1  6  0  0  0
  2  3  1  0  0  0  0
  2  5  1  0  0  0  0
  3  4  1  0  0  0  0
  3 17  1  0  0  0  0
  5  6  1  0  0  0  0
  7  6  1  1  0  0  0
  7  8  1  0  0  0  0
  7  9  1  0  0  0  0
 10  9  1  1  0  0  0
 10 11  1  0  0  0  0
 10 12  1  0  0  0  0
 11 16  1  0  0  0  0
 12 13  1  6  0  0  0
 12 14  1  0  0  0  0
 14 15  1  6  0  0  0
 14 16  1  0  0  0  0
 16 27  1  1  0  0  0
 18 19  2  0  0  0  0
 18 23  1  0  0  0  0
 19 20  1  0  0  0  0
 20 21  2  0  0  0  0
 21 22  1  0  0  0  0
 21 27  1  0  0  0  0
 22 23  2  0  0  0  0
 22 25  1  0  0  0  0
 23 24  1  0  0  0  0
 25 26  2  0  0  0  0
 26 27  1  0  0  0  0
M  END
>  <CHROM.1>
2.38174844,62.42319655,140.78877118,-68.43077479,-83.76816942,-18.78886274
114.96183209,14.66669442,-5.16915678,8.58316199,-1.71276782,-1.04332924,-1.63664897

>  <Name>
ligand

>  <RI>
0

>  <Rbt.Current_Directory>
/home/itssahil/PROJECTS/Mol_Feturizer/Test_systems_manuscript/rnas/2ydh

>  <Rbt.Executable>
rbdock ($Id: //depot/dev/client3/rdock/2013.1/src/exe/rbdock.cxx#4 $)

>  <Rbt.Library>
libRbt.so (2013.1, Build901 2013/11/27)

>  <Rbt.Parameter_File>
/export/apps/rDock/src/rDock_2013.1_src/data/scripts/dock_solv.prm

>  <Rbt.Receptor>
prm/pocket_docking_2.prm

>  <SCORE>
-13.985

>  <SCORE.INTER>
-16.1369

>  <SCORE.INTER.CONST>
1

>  <SCORE.INTER.POLAR>
0

>  <SCORE.INTER.ROT>
7

>  <SCORE.INTER.SOLV>
19.5913

>  <SCORE.INTER.VDW>
-25.555

>  <SCORE.INTER.norm>
-0.597663

>  <SCORE.INTRA>
2.12314

>  <SCORE.INTRA.DIHEDRAL>
2.193

>  <SCORE.INTRA.DIHEDRAL.0>
9.75037

>  <SCORE.INTRA.POLAR>
0

>  <SCORE.INTRA.POLAR.0>
0

>  <SCORE.INTRA.REPUL>
0

>  <SCORE.INTRA.REPUL.0>
0

>  <SCORE.INTRA.SOLV>
-0.659223

>  <SCORE.INTRA.SOLV.lig_0>
-48.4279

>  <SCORE.INTRA.VDW>
1.35626

>  <SCORE.INTRA.VDW.0>
-4.69037

>  <SCORE.INTRA.norm>
0.078635

>  <SCORE.RESTR>
0.0287866

>  <SCORE.RESTR.CAVITY>
0.0287866

>  <SCORE.RESTR.norm>
0.00106617

>  <SCORE.SYSTEM>
0

>  <SCORE.SYSTEM.CONST>
0

>  <SCORE.SYSTEM.DIHEDRAL>
0

>  <SCORE.SYSTEM.SOLV>
0

>  <SCORE.SYSTEM.norm>
0

>  <SCORE.heavy>
27

>  <SCORE.norm>
-0.517961

>  <RMSD>
1.476

$$$$
ligand
 OpenBabel02271912153D
libRbt.so/2013.1/901 2013/11/27
 27 29  0  0  0  0  0  0  0  0999 V2000
   15.5840   -4.2847   13.2878 N   0  0  0  0  0  0  0  0  0  0  0  0
   15.4791   -5.0073   11.9826 C   0  0  2  0  0  0  0  0  0  0  0  0
   14.6161   -4.2143   10.9761 C   0  0  0  0  0  0  0  0  0  0  0  0
   14.9821   -4.0569    9.8073 O   0  0  0  0  0  0  0  0  0  0  0  0
   14.9347   -6.4114   12.2226 C   0  0  0  0  0  0  0  0  0  0  0  0
   15.0884   -7.3570   11.0430 C   0  0  0  0  0  0  0  0  0  0  0  0
   14.0025   -6.9463    9.6469 S   0  0  2  0  0  0  0  0  0  0  0  0
   12.3740   -7.2786   10.3771 C   0  0  0  0  0  0  0  0  0  0  0  0
   14.1662   -8.2886    8.4589 C   0  0  0  0  0  0  0  0  0  0  0  0
   13.5713   -7.8514    7.1339 C   0  0  1  0  0  0  0  0  0  0  0  0
   12.8487   -6.6342    7.2370 O   0  0  0  0  0  0  0  0  0  0  0  0
   14.6413   -7.6442    6.0899 C   0  0  1  0  0  0  0  0  0  0  0  0
   14.9682   -8.8485    5.4579 O   0  0  0  0  0  0  0  0  0  0  0  0
   13.9582   -6.6889    5.1594 C   0  0  1  0  0  0  0  0  0  0  0  0
   13.2079   -7.4222    4.2098 O   0  0  0  0  0  0  0  0  0  0  0  0
   13.0332   -5.8812    6.0606 C   0  0  2  0  0  0  0  0  0  0  0  0
   13.5283   -3.6990   11.2931 O   0  0  0  0  0  0  0  0  0  0  0  0
   17.2272   -3.0539    7.5691 N   0  0  0  0  0  0  0  0  0  0  0  0
   17.1562   -4.4226    7.3538 C   0  0  0  0  0  0  0  0  0  0  0  0
   15.9635   -5.0233    6.9692 N   0  0  0  0  0  0  0  0  0  0  0  0
   14.8707   -4.2599    6.7865 C   0  0  0  0  0  0  0  0  0  0  0  0
   14.9336   -2.8779    6.9856 C   0  0  0  0  0  0  0  0  0  0  0  0
   16.1081   -2.2697    7.3889 C   0  0  0  0  0  0  0  0  0  0  0  0
   16.1599   -0.9610    7.5869 N   0  0  0  0  0  0  0  0  0  0  0  0
   13.7261   -2.3649    6.7251 N   0  0  0  0  0  0  0  0  0  0  0  0
   12.9058   -3.3770    6.3659 C   0  0  0  0  0  0  0  0  0  0  0  0
   13.6003   -4.5607    6.3936 N   0  0  0  0  0  0  0  0  0  0  0  0
  2  1  1  1  0  0  0
  2  3  1  0  0  0  0
  2  5  1  0  0  0  0
  3  4  1  0  0  0  0
  3 17  1  0  0  0  0
  5  6  1  0  0  0  0
  7  6  1  1  0  0  0
  7  8  1  0  0  0  0
  7  9  1  0  0  0  0
 10  9  1  1  0  0  0
 10 11  1  0  0  0  0
 10 12  1  0  0  0  0
 11 16  1  0  0  0  0
 12 13  1  6  0  0  0
 12 14  1  0  0  0  0
 14 15  1  6  0  0  0
 14 16  1  0  0  0  0
 16 27  1  1  0  0  0
 18 19  2  0  0  0  0
 18 23  1  0  0  0  0
 19 20  1  0  0  0  0
 20 21  2  0  0  0  0
 21 22  1  0  0  0  0
 21 27  1  0  0  0  0
 22 23  2  0  0  0  0
 22 25  1  0  0  0  0
 23 24  1  0  0  0  0
 25 26  2  0  0  0  0
 26 27  1  0  0  0  0
M  END
>  <CHROM.1>
134.28369052,-166.11723594,-70.43385102,-66.31200738,-165.81423469,-10.41128002
73.28944030,14.51916272,-5.38857528,8.25654420,1.00081354,1.24527980,1.76605807

>  <Name>
ligand

>  <RI>
0

>  <Rbt.Current_Directory>
/home/itssahil/PROJECTS/Mol_Feturizer/Test_systems_manuscript/rnas/2ydh

>  <Rbt.Executable>
rbdock ($Id: //depot/dev/client3/rdock/2013.1/src/exe/rbdock.cxx#4 $)

>  <Rbt.Library>
libRbt.so (2013.1, Build901 2013/11/27)

>  <Rbt.Parameter_File>
/export/apps/rDock/src/rDock_2013.1_src/data/scripts/dock_solv.prm

>  <Rbt.Receptor>
prm/pocket_docking_2.prm

>  <SCORE>
-11.8126

>  <SCORE.INTER>
-11.7609

>  <SCORE.INTER.CONST>
1

>  <SCORE.INTER.POLAR>
0

>  <SCORE.INTER.ROT>
7

>  <SCORE.INTER.SOLV>
23.0058

>  <SCORE.INTER.VDW>
-23.7758

>  <SCORE.INTER.norm>
-0.435588

>  <SCORE.INTRA>
-0.0516834

>  <SCORE.INTRA.DIHEDRAL>
0.544351

>  <SCORE.INTRA.DIHEDRAL.0>
9.75037

>  <SCORE.INTRA.POLAR>
0

>  <SCORE.INTRA.POLAR.0>
0

>  <SCORE.INTRA.REPUL>
0

>  <SCORE.INTRA.REPUL.0>
0

>  <SCORE.INTRA.SOLV>
-1.19111

>  <SCORE.INTRA.SOLV.lig_0>
-48.4279

>  <SCORE.INTRA.VDW>
0.271696

>  <SCORE.INTRA.VDW.0>
-4.69037

>  <SCORE.INTRA.norm>
-0.0019142

>  <SCORE.RESTR>
0

>  <SCORE.RESTR.CAVITY>
0

>  <SCORE.RESTR.norm>
0

>  <SCORE.SYSTEM>
0

>  <SCORE.SYSTEM.CONST>
0

>  <SCORE.SYSTEM.DIHEDRAL>
0

>  <SCORE.SYSTEM.SOLV>
0

>  <SCORE.SYSTEM.norm>
0

>  <SCORE.heavy>
27

>  <SCORE.norm>
-0.437503

>  <RMSD>
1.482

$$$$
ligand
 OpenBabel02271912153D
libRbt.so/2013.1/901 2013/11/27
 27 29  0  0  0  0  0  0  0  0999 V2000
   14.9544   -5.4523   13.6395 N   0  0  0  0  0  0  0  0  0  0  0  0
   14.8354   -6.0338   12.2668 C   0  0  2  0  0  0  0  0  0  0  0  0
   13.7372   -5.3150   11.4519 C   0  0  0  0  0  0  0  0  0  0  0  0
   14.0271   -4.5448   10.5314 O   0  0  0  0  0  0  0  0  0  0  0  0
   14.5818   -7.5339   12.3716 C   0  0  0  0  0  0  0  0  0  0  0  0
   14.8443   -8.3084   11.0908 C   0  0  0  0  0  0  0  0  0  0  0  0
   13.7732   -7.8041    9.7141 S   0  0  2  0  0  0  0  0  0  0  0  0
   12.3923   -8.9646    9.9185 C   0  0  0  0  0  0  0  0  0  0  0  0
   14.5555   -8.4072    8.2094 C   0  0  0  0  0  0  0  0  0  0  0  0
   13.7387   -7.9574    7.0131 C   0  0  1  0  0  0  0  0  0  0  0  0
   13.0187   -6.7606    7.2647 O   0  0  0  0  0  0  0  0  0  0  0  0
   14.6147   -7.7027    5.8107 C   0  0  1  0  0  0  0  0  0  0  0  0
   14.8561   -8.8854    5.1040 O   0  0  0  0  0  0  0  0  0  0  0  0
   13.7662   -6.7454    5.0306 C   0  0  1  0  0  0  0  0  0  0  0  0
   12.8831   -7.4770    4.2018 O   0  0  0  0  0  0  0  0  0  0  0  0
   12.9884   -5.9791    6.0928 C   0  0  2  0  0  0  0  0  0  0  0  0
   12.5248   -5.4721   11.6855 O   0  0  0  0  0  0  0  0  0  0  0  0
   17.0445   -3.1641    7.9589 N   0  0  0  0  0  0  0  0  0  0  0  0
   16.9223   -4.5448    7.9001 C   0  0  0  0  0  0  0  0  0  0  0  0
   15.7745   -5.1382    7.3885 N   0  0  0  0  0  0  0  0  0  0  0  0
   14.7793   -4.3585    6.9280 C   0  0  0  0  0  0  0  0  0  0  0  0
   14.8972   -2.9663    6.9679 C   0  0  0  0  0  0  0  0  0  0  0  0
   16.0244   -2.3623    7.4938 C   0  0  0  0  0  0  0  0  0  0  0  0
   16.1268   -1.0424    7.5394 N   0  0  0  0  0  0  0  0  0  0  0  0
   13.7861   -2.4397    6.4415 N   0  0  0  0  0  0  0  0  0  0  0  0
   12.9738   -3.4533    6.0688 C   0  0  0  0  0  0  0  0  0  0  0  0
   13.5759   -4.6524    6.3587 N   0  0  0  0  0  0  0  0  0  0  0  0
  2  1  1  1  0  0  0
  2  3  1  0  0  0  0
  2  5  1  0  0  0  0
  3  4  1  0  0  0  0
  3 17  1  0  0  0  0
  5  6  1  0  0  0  0
  7  6  1  1  0  0  0
  7  8  1  0  0  0  0
  7  9  1  0  0  0  0
 10  9  1  1  0  0  0
 10 11  1  0  0  0  0
 10 12  1  0  0  0  0
 11 16  1  0  0  0  0
 12 13  1  6  0  0  0
 12 14  1  0  0  0  0
 14 15  1  6  0  0  0
 14 16  1  0  0  0  0
 16 27  1  1  0  0  0
 18 19  2  0  0  0  0
 18 23  1  0  0  0  0
 19 20  1  0  0  0  0
 20 21  2  0  0  0  0
 21 22  1  0  0  0  0
 21 27  1  0  0  0  0
 22 23  2  0  0  0  0
 22 25  1  0  0  0  0
 23 24  1  0  0  0  0
 25 26  2  0  0  0  0
 26 27  1  0  0  0  0
M  END
>  <CHROM.1>
107.27460528,-162.88192370,-62.08012713,-91.65329877,-177.29125582,27.23995566
51.59764996,14.30320953,-5.85665769,8.32535464,-1.75073186,-1.26292746,-1.41958905

>  <Name>
ligand

>  <RI>
0

>  <Rbt.Current_Directory>
/home/itssahil/PROJECTS/Mol_Feturizer/Test_systems_manuscript/rnas/2ydh

>  <Rbt.Executable>
rbdock ($Id: //depot/dev/client3/rdock/2013.1/src/exe/rbdock.cxx#4 $)

>  <Rbt.Library>
libRbt.so (2013.1, Build901 2013/11/27)

>  <Rbt.Parameter_File>
/export/apps/rDock/src/rDock_2013.1_src/data/scripts/dock_solv.prm

>  <Rbt.Receptor>
prm/pocket_docking_2.prm

>  <SCORE>
-12.3152

>  <SCORE.INTER>
-12.3671

>  <SCORE.INTER.CONST>
1

>  <SCORE.INTER.POLAR>
0

>  <SCORE.INTER.ROT>
7

>  <SCORE.INTER.SOLV>
21.4692

>  <SCORE.INTER.VDW>
-23.6678

>  <SCORE.INTER.norm>
-0.45804

>  <SCORE.INTRA>
-0.348157

>  <SCORE.INTRA.DIHEDRAL>
-0.697589

>  <SCORE.INTRA.DIHEDRAL.0>
9.75037

>  <SCORE.INTRA.POLAR>
0

>  <SCORE.INTRA.POLAR.0>
0

>  <SCORE.INTRA.REPUL>
0

>  <SCORE.INTRA.REPUL.0>
0

>  <SCORE.INTRA.SOLV>
-1.27103

>  <SCORE.INTRA.SOLV.lig_0>
-48.4279

>  <SCORE.INTRA.VDW>
0.636152

>  <SCORE.INTRA.VDW.0>
-4.69037

>  <SCORE.INTRA.norm>
-0.0128947

>  <SCORE.RESTR>
0.4

>  <SCORE.RESTR.CAVITY>
0.4

>  <SCORE.RESTR.norm>
0.0148148

>  <SCORE.SYSTEM>
0

>  <SCORE.SYSTEM.CONST>
0

>  <SCORE.SYSTEM.DIHEDRAL>
0

>  <SCORE.SYSTEM.SOLV>
0

>  <SCORE.SYSTEM.norm>
0

>  <SCORE.heavy>
27

>  <SCORE.norm>
-0.45612

>  <RMSD>
1.512

$$$$
ligand
 OpenBabel02271912153D
libRbt.so/2013.1/901 2013/11/27
 27 29  0  0  0  0  0  0  0  0999 V2000
   14.5864   -4.4684   12.6729 N   0  0  0  0  0  0  0  0  0  0  0  0
   14.9337   -4.8242   11.2624 C   0  0  2  0  0  0  0  0  0  0  0  0
   14.4115   -3.7568   10.2752 C   0  0  0  0  0  0  0  0  0  0  0  0
   13.2983   -3.8626    9.7516 O   0  0  0  0  0  0  0  0  0  0  0  0
   14.3936   -6.2139   10.9422 C   0  0  0  0  0  0  0  0  0  0  0  0
   14.5961   -6.6521    9.5013 C   0  0  0  0  0  0  0  0  0  0  0  0
   14.0326   -8.3481    9.1803 S   0  0  2  0  0  0  0  0  0  0  0  0
   15.0537   -9.2723   10.3630 C   0  0  0  0  0  0  0  0  0  0  0  0
   14.7471   -8.8347    7.6015 C   0  0  0  0  0  0  0  0  0  0  0  0
   13.8874   -8.2849    6.4793 C   0  0  1  0  0  0  0  0  0  0  0  0
   13.1534   -7.1346    6.8696 O   0  0  0  0  0  0  0  0  0  0  0  0
   14.7228   -7.8931    5.2850 C   0  0  1  0  0  0  0  0  0  0  0  0
   14.9647   -8.9941    4.4567 O   0  0  0  0  0  0  0  0  0  0  0  0
   13.8344   -6.8808    4.6286 C   0  0  1  0  0  0  0  0  0  0  0  0
   12.9406   -7.5443    3.7551 O   0  0  0  0  0  0  0  0  0  0  0  0
   13.0744   -6.2409    5.7833 C   0  0  2  0  0  0  0  0  0  0  0  0
   15.0817   -2.7560    9.9611 O   0  0  0  0  0  0  0  0  0  0  0  0
   17.2318   -3.5079    7.5455 N   0  0  0  0  0  0  0  0  0  0  0  0
   17.1496   -4.8719    7.3058 C   0  0  0  0  0  0  0  0  0  0  0  0
   15.9683   -5.4465    6.8521 N   0  0  0  0  0  0  0  0  0  0  0  0
   14.8989   -4.6620    6.6261 C   0  0  0  0  0  0  0  0  0  0  0  0
   14.9741   -3.2843    6.8494 C   0  0  0  0  0  0  0  0  0  0  0  0
   16.1363   -2.7022    7.3210 C   0  0  0  0  0  0  0  0  0  0  0  0
   16.1993   -1.3976    7.5415 N   0  0  0  0  0  0  0  0  0  0  0  0
   13.7899   -2.7471    6.5361 N   0  0  0  0  0  0  0  0  0  0  0  0
   12.9725   -3.7396    6.1203 C   0  0  0  0  0  0  0  0  0  0  0  0
   13.6453   -4.9354    6.1649 N   0  0  0  0  0  0  0  0  0  0  0  0
  2  1  1  1  0  0  0
  2  3  1  0  0  0  0
  2  5  1  0  0  0  0
  3  4  1  0  0  0  0
  3 17  1  0  0  0  0
  5  6  1  0  0  0  0
  7  6  1  1  0  0  0
  7  8  1  0  0  0  0
  7  9  1  0  0  0  0
 10  9  1  1  0  0  0
 10 11  1  0  0  0  0
 10 12  1  0  0  0  0
 11 16  1  0  0  0  0
 12 13  1  6  0  0  0
 12 14  1  0  0  0  0
 14 15  1  6  0  0  0
 14 16  1  0  0  0  0
 16 27  1  1  0  0  0
 18 19  2  0  0  0  0
 18 23  1  0  0  0  0
 19 20  1  0  0  0  0
 20 21  2  0  0  0  0
 21 22  1  0  0  0  0
 21 27  1  0  0  0  0
 22 23  2  0  0  0  0
 22 25  1  0  0  0  0
 23 24  1  0  0  0  0
 25 26  2  0  0  0  0
 26 27  1  0  0  0  0
M  END
>  <CHROM.1>
-91.79811335,175.83458635,176.51031244,-58.65047858,-82.10442070,25.11280429
57.46336903,14.56533984,-5.71757173,7.76869142,0.37560506,1.38034666,1.91390749

>  <Name>
ligand

>  <RI>
0

>  <Rbt.Current_Directory>
/home/itssahil/PROJECTS/Mol_Feturizer/Test_systems_manuscript/rnas/2ydh

>  <Rbt.Executable>
rbdock ($Id: //depot/dev/client3/rdock/2013.1/src/exe/rbdock.cxx#4 $)

>  <Rbt.Library>
libRbt.so (2013.1, Build901 2013/11/27)

>  <Rbt.Parameter_File>
/export/apps/rDock/src/rDock_2013.1_src/data/scripts/dock_solv.prm

>  <Rbt.Receptor>
prm/pocket_docking_2.prm

>  <SCORE>
-11.9374

>  <SCORE.INTER>
-10.6852

>  <SCORE.INTER.CONST>
1

>  <SCORE.INTER.POLAR>
0

>  <SCORE.INTER.ROT>
7

>  <SCORE.INTER.SOLV>
20.8618

>  <SCORE.INTER.VDW>
-22.3441

>  <SCORE.INTER.norm>
-0.395749

>  <SCORE.INTRA>
-1.26428

>  <SCORE.INTRA.DIHEDRAL>
-2.46253

>  <SCORE.INTRA.DIHEDRAL.0>
9.75037

>  <SCORE.INTRA.POLAR>
0

>  <SCORE.INTRA.POLAR.0>
0

>  <SCORE.INTRA.REPUL>
0

>  <SCORE.INTRA.REPUL.0>
0

>  <SCORE.INTRA.SOLV>
-0.478938

>  <SCORE.INTRA.SOLV.lig_0>
-48.4279

>  <SCORE.INTRA.VDW>
0.206453

>  <SCORE.INTRA.VDW.0>
-4.69037

>  <SCORE.INTRA.norm>
-0.0468253

>  <SCORE.RESTR>
0.0121428

>  <SCORE.RESTR.CAVITY>
0.0121428

>  <SCORE.RESTR.norm>
0.000449735

>  <SCORE.SYSTEM>
0

>  <SCORE.SYSTEM.CONST>
0

>  <SCORE.SYSTEM.DIHEDRAL>
0

>  <SCORE.SYSTEM.SOLV>
0

>  <SCORE.SYSTEM.norm>
0

>  <SCORE.heavy>
27

>  <SCORE.norm>
-0.442125

>  <RMSD>
1.519

$$$$
ligand
 OpenBabel02271912153D
libRbt.so/2013.1/901 2013/11/27
 27 29  0  0  0  0  0  0  0  0999 V2000
   14.6645   -5.4880   13.2970 N   0  0  0  0  0  0  0  0  0  0  0  0
   14.9177   -5.4722   11.8232 C   0  0  2  0  0  0  0  0  0  0  0  0
   14.1632   -4.3089   11.1420 C   0  0  0  0  0  0  0  0  0  0  0  0
   14.0066   -3.2271   11.7164 O   0  0  0  0  0  0  0  0  0  0  0  0
   14.5408   -6.8253   11.2293 C   0  0  0  0  0  0  0  0  0  0  0  0
   14.8918   -6.9883    9.7598 C   0  0  0  0  0  0  0  0  0  0  0  0
   14.6649   -8.6838    9.1508 S   0  0  2  0  0  0  0  0  0  0  0  0
   15.9763   -9.5476   10.0615 C   0  0  0  0  0  0  0  0  0  0  0  0
   15.2938   -8.7105    7.4644 C   0  0  0  0  0  0  0  0  0  0  0  0
   14.2066   -8.2273    6.5236 C   0  0  1  0  0  0  0  0  0  0  0  0
   13.4496   -7.1583    7.0700 O   0  0  0  0  0  0  0  0  0  0  0  0
   14.7837   -7.7390    5.2174 C   0  0  1  0  0  0  0  0  0  0  0  0
   14.9778   -8.7988    4.3252 O   0  0  0  0  0  0  0  0  0  0  0  0
   13.7068   -6.8055    4.7549 C   0  0  1  0  0  0  0  0  0  0  0  0
   12.7396   -7.5372    4.0260 O   0  0  0  0  0  0  0  0  0  0  0  0
   13.1030   -6.2591    6.0422 C   0  0  2  0  0  0  0  0  0  0  0  0
   13.6794   -4.4078    9.9994 O   0  0  0  0  0  0  0  0  0  0  0  0
   17.1389   -3.2443    7.6173 N   0  0  0  0  0  0  0  0  0  0  0  0
   17.1253   -4.6191    7.4319 C   0  0  0  0  0  0  0  0  0  0  0  0
   15.9686   -5.2724    7.0235 N   0  0  0  0  0  0  0  0  0  0  0  0
   14.8551   -4.5547    6.7883 C   0  0  0  0  0  0  0  0  0  0  0  0
   14.8607   -3.1672    6.9570 C   0  0  0  0  0  0  0  0  0  0  0  0
   15.9983   -2.5067    7.3832 C   0  0  0  0  0  0  0  0  0  0  0  0
   15.9956   -1.1929    7.5522 N   0  0  0  0  0  0  0  0  0  0  0  0
   13.6444   -2.7056    6.6462 N   0  0  0  0  0  0  0  0  0  0  0  0
   12.8740   -3.7553    6.2848 C   0  0  0  0  0  0  0  0  0  0  0  0
   13.6101   -4.9114    6.3622 N   0  0  0  0  0  0  0  0  0  0  0  0
  2  1  1  1  0  0  0
  2  3  1  0  0  0  0
  2  5  1  0  0  0  0
  3  4  1  0  0  0  0
  3 17  1  0  0  0  0
  5  6  1  0  0  0  0
  7  6  1  1  0  0  0
  7  8  1  0  0  0  0
  7  9  1  0  0  0  0
 10  9  1  1  0  0  0
 10 11  1  0  0  0  0
 10 12  1  0  0  0  0
 11 16  1  0  0  0  0
 12 13  1  6  0  0  0
 12 14  1  0  0  0  0
 14 15  1  1  0  0  0
 14 16  1  0  0  0  0
 16 27  1  1  0  0  0
 18 19  2  0  0  0  0
 18 23  1  0  0  0  0
 19 20  1  0  0  0  0
 20 21  2  0  0  0  0
 21 22  1  0  0  0  0
 21 27  1  0  0  0  0
 22 23  2  0  0  0  0
 22 25  1  0  0  0  0
 23 24  1  0  0  0  0
 25 26  2  0  0  0  0
 26 27  1  0  0  0  0
M  END
>  <CHROM.1>
34.73756575,-173.75463294,171.22375712,-67.81624868,-84.14237831,38.51664971
47.61929860,14.63837595,-5.84027128,7.98448967,0.06285244,1.46135237,2.52643475

>  <Name>
ligand

>  <RI>
0

>  <Rbt.Current_Directory>
/home/itssahil/PROJECTS/Mol_Feturizer/Test_systems_manuscript/rnas/2ydh

>  <Rbt.Executable>
rbdock ($Id: //depot/dev/client3/rdock/2013.1/src/exe/rbdock.cxx#4 $)

>  <Rbt.Library>
libRbt.so (2013.1, Build901 2013/11/27)

>  <Rbt.Parameter_File>
/export/apps/rDock/src/rDock_2013.1_src/data/scripts/dock_solv.prm

>  <Rbt.Receptor>
prm/pocket_docking_3.prm

>  <SCORE>
-14.6392

>  <SCORE.INTER>
-12.9755

>  <SCORE.INTER.CONST>
1

>  <SCORE.INTER.POLAR>
0

>  <SCORE.INTER.ROT>
7

>  <SCORE.INTER.SOLV>
20.8342

>  <SCORE.INTER.VDW>
-23.8617

>  <SCORE.INTER.norm>
-0.480573

>  <SCORE.INTRA>
-1.66378

>  <SCORE.INTRA.DIHEDRAL>
-3.98598

>  <SCORE.INTRA.DIHEDRAL.0>
9.75037

>  <SCORE.INTRA.POLAR>
0

>  <SCORE.INTRA.POLAR.0>
0

>  <SCORE.INTRA.REPUL>
0

>  <SCORE.INTRA.REPUL.0>
0

>  <SCORE.INTRA.SOLV>
-1.38268

>  <SCORE.INTRA.SOLV.lig_0>
-48.4279

>  <SCORE.INTRA.VDW>
1.02056

>  <SCORE.INTRA.VDW.0>
-4.69037

>  <SCORE.INTRA.norm>
-0.0616213

>  <SCORE.RESTR>
0

>  <SCORE.RESTR.CAVITY>
0

>  <SCORE.RESTR.norm>
0

>  <SCORE.SYSTEM>
0

>  <SCORE.SYSTEM.CONST>
0

>  <SCORE.SYSTEM.DIHEDRAL>
0

>  <SCORE.SYSTEM.SOLV>
0

>  <SCORE.SYSTEM.norm>
0

>  <SCORE.heavy>
27

>  <SCORE.norm>
-0.542194

>  <RMSD>
1.540

$$$$
ligand
 OpenBabel02271912153D
libRbt.so/2013.1/901 2013/11/27
 27 29  0  0  0  0  0  0  0  0999 V2000
   14.1662   -5.6134   13.3146 N   0  0  0  0  0  0  0  0  0  0  0  0
   15.3096   -5.1300   12.4805 C   0  0  2  0  0  0  0  0  0  0  0  0
   14.8322   -4.1166   11.4168 C   0  0  0  0  0  0  0  0  0  0  0  0
   15.5097   -3.8798   10.4119 O   0  0  0  0  0  0  0  0  0  0  0  0
   16.0217   -6.3247   11.8549 C   0  0  0  0  0  0  0  0  0  0  0  0
   15.0974   -7.3348   11.1957 C   0  0  0  0  0  0  0  0  0  0  0  0
   14.3891   -6.7460    9.6309 S   0  0  2  0  0  0  0  0  0  0  0  0
   12.7857   -6.1153   10.2027 C   0  0  0  0  0  0  0  0  0  0  0  0
   13.9103   -8.2117    8.7021 C   0  0  0  0  0  0  0  0  0  0  0  0
   13.5177   -7.7996    7.2962 C   0  0  1  0  0  0  0  0  0  0  0  0
   12.8164   -6.5661    7.2664 O   0  0  0  0  0  0  0  0  0  0  0  0
   14.7282   -7.6425    6.4086 C   0  0  1  0  0  0  0  0  0  0  0  0
   15.1123   -8.8700    5.8588 O   0  0  0  0  0  0  0  0  0  0  0  0
   14.2049   -6.7000    5.3679 C   0  0  1  0  0  0  0  0  0  0  0  0
   13.5785   -7.4444    4.3404 O   0  0  0  0  0  0  0  0  0  0  0  0
   13.1817   -5.8496    6.1096 C   0  0  2  0  0  0  0  0  0  0  0  0
   13.7591   -3.4951   11.5238 O   0  0  0  0  0  0  0  0  0  0  0  0
   17.3628   -2.9796    7.5723 N   0  0  0  0  0  0  0  0  0  0  0  0
   17.3198   -4.3365    7.2871 C   0  0  0  0  0  0  0  0  0  0  0  0
   16.1271   -4.9522    6.9263 N   0  0  0  0  0  0  0  0  0  0  0  0
   15.0061   -4.2138    6.8358 C   0  0  0  0  0  0  0  0  0  0  0  0
   15.0399   -2.8428    7.1060 C   0  0  0  0  0  0  0  0  0  0  0  0
   16.2150   -2.2213    7.4866 C   0  0  0  0  0  0  0  0  0  0  0  0
   16.2398   -0.9238    7.7522 N   0  0  0  0  0  0  0  0  0  0  0  0
   13.8076   -2.3537    6.9298 N   0  0  0  0  0  0  0  0  0  0  0  0
   12.9995   -3.3699    6.5549 C   0  0  0  0  0  0  0  0  0  0  0  0
   13.7272   -4.5319    6.4866 N   0  0  0  0  0  0  0  0  0  0  0  0
  2  1  1  6  0  0  0
  2  3  1  0  0  0  0
  2  5  1  0  0  0  0
  3  4  1  0  0  0  0
  3 17  1  0  0  0  0
  5  6  1  0  0  0  0
  7  6  1  1  0  0  0
  7  8  1  0  0  0  0
  7  9  1  0  0  0  0
 10  9  1  1  0  0  0
 10 11  1  0  0  0  0
 10 12  1  0  0  0  0
 11 16  1  0  0  0  0
 12 13  1  6  0  0  0
 12 14  1  0  0  0  0
 14 15  1  6  0  0  0
 14 16  1  0  0  0  0
 16 27  1  1  0  0  0
 18 19  2  0  0  0  0
 18 23  1  0  0  0  0
 19 20  1  0  0  0  0
 20 21  2  0  0  0  0
 21 22  1  0  0  0  0
 21 27  1  0  0  0  0
 22 23  2  0  0  0  0
 22 25  1  0  0  0  0
 23 24  1  0  0  0  0
 25 26  2  0  0  0  0
 26 27  1  0  0  0  0
M  END
>  <CHROM.1>
-159.72511558,47.85780128,72.83032443,-96.11347522,-170.99528261,-37.74400304
85.35369184,14.65194329,-5.33549563,8.38969479,1.15469281,1.26845157,1.70860075

>  <Name>
ligand

>  <RI>
0

>  <Rbt.Current_Directory>
/home/itssahil/PROJECTS/Mol_Feturizer/Test_systems_manuscript/rnas/2ydh

>  <Rbt.Executable>
rbdock ($Id: //depot/dev/client3/rdock/2013.1/src/exe/rbdock.cxx#4 $)

>  <Rbt.Library>
libRbt.so (2013.1, Build901 2013/11/27)

>  <Rbt.Parameter_File>
/export/apps/rDock/src/rDock_2013.1_src/data/scripts/dock_solv.prm

>  <Rbt.Receptor>
prm/pocket_docking_2.prm

>  <SCORE>
-11.9883

>  <SCORE.INTER>
-12.6459

>  <SCORE.INTER.CONST>
1

>  <SCORE.INTER.POLAR>
0

>  <SCORE.INTER.ROT>
7

>  <SCORE.INTER.SOLV>
20.3286

>  <SCORE.INTER.VDW>
-23.4735

>  <SCORE.INTER.norm>
-0.468367

>  <SCORE.INTRA>
0.644071

>  <SCORE.INTRA.DIHEDRAL>
-1.05049

>  <SCORE.INTRA.DIHEDRAL.0>
9.75037

>  <SCORE.INTRA.POLAR>
0

>  <SCORE.INTRA.POLAR.0>
0

>  <SCORE.INTRA.REPUL>
0

>  <SCORE.INTRA.REPUL.0>
0

>  <SCORE.INTRA.SOLV>
1.15453

>  <SCORE.INTRA.SOLV.lig_0>
-48.4279

>  <SCORE.INTRA.VDW>
0.59205

>  <SCORE.INTRA.VDW.0>
-4.69037

>  <SCORE.INTRA.norm>
0.0238545

>  <SCORE.RESTR>
0.0135129

>  <SCORE.RESTR.CAVITY>
0.0135129

>  <SCORE.RESTR.norm>
0.000500476

>  <SCORE.SYSTEM>
0

>  <SCORE.SYSTEM.CONST>
0

>  <SCORE.SYSTEM.DIHEDRAL>
0

>  <SCORE.SYSTEM.SOLV>
0

>  <SCORE.SYSTEM.norm>
0

>  <SCORE.heavy>
27

>  <SCORE.norm>
-0.444012

>  <RMSD>
1.554

$$$$
ligand
 OpenBabel02271912153D
libRbt.so/2013.1/901 2013/11/27
 27 29  0  0  0  0  0  0  0  0999 V2000
   16.3838   -6.8714   12.4486 N   0  0  0  0  0  0  0  0  0  0  0  0
   15.1314   -6.2352   11.9353 C   0  0  2  0  0  0  0  0  0  0  0  0
   15.1475   -4.7082   12.1691 C   0  0  0  0  0  0  0  0  0  0  0  0
   14.7879   -3.9238   11.2859 O   0  0  0  0  0  0  0  0  0  0  0  0
   13.9220   -6.9014   12.5827 C   0  0  0  0  0  0  0  0  0  0  0  0
   12.5803   -6.4180   12.0580 C   0  0  0  0  0  0  0  0  0  0  0  0
   12.0229   -7.3119   10.5790 S   0  0  2  0  0  0  0  0  0  0  0  0
   11.8504   -8.9917   11.2454 C   0  0  0  0  0  0  0  0  0  0  0  0
   13.4600   -7.4751    9.5076 C   0  0  0  0  0  0  0  0  0  0  0  0
   13.0439   -7.1941    8.0763 C   0  0  1  0  0  0  0  0  0  0  0  0
   12.5317   -5.8815    7.9062 O   0  0  0  0  0  0  0  0  0  0  0  0
   14.2056   -7.3430    7.1243 C   0  0  1  0  0  0  0  0  0  0  0  0
   14.3689   -8.6762    6.7338 O   0  0  0  0  0  0  0  0  0  0  0  0
   13.7619   -6.4748    5.9866 C   0  0  1  0  0  0  0  0  0  0  0  0
   12.9686   -7.2408    5.1000 O   0  0  0  0  0  0  0  0  0  0  0  0
   12.9244   -5.3871    6.6467 C   0  0  2  0  0  0  0  0  0  0  0  0
   15.5238   -4.2032   13.2428 O   0  0  0  0  0  0  0  0  0  0  0  0
   17.0541   -2.8919    8.7863 N   0  0  0  0  0  0  0  0  0  0  0  0
   16.7078   -4.2292    8.9149 C   0  0  0  0  0  0  0  0  0  0  0  0
   15.5713   -4.7345    8.2947 N   0  0  0  0  0  0  0  0  0  0  0  0
   14.8109   -3.9156    7.5454 C   0  0  0  0  0  0  0  0  0  0  0  0
   15.1580   -2.5700    7.3961 C   0  0  0  0  0  0  0  0  0  0  0  0
   16.2739   -2.0488    8.0246 C   0  0  0  0  0  0  0  0  0  0  0  0
   16.5927   -0.7703    7.8889 N   0  0  0  0  0  0  0  0  0  0  0  0
   14.2518   -1.9927    6.5994 N   0  0  0  0  0  0  0  0  0  0  0  0
   13.3474   -2.9302    6.2398 C   0  0  0  0  0  0  0  0  0  0  0  0
   13.6809   -4.1318    6.8138 N   0  0  0  0  0  0  0  0  0  0  0  0
  2  1  1  1  0  0  0
  2  3  1  0  0  0  0
  2  5  1  0  0  0  0
  3  4  1  0  0  0  0
  3 17  1  0  0  0  0
  5  6  1  0  0  0  0
  7  6  1  1  0  0  0
  7  8  1  0  0  0  0
  7  9  1  0  0  0  0
 10  9  1  1  0  0  0
 10 11  1  0  0  0  0
 10 12  1  0  0  0  0
 11 16  1  0  0  0  0
 12 13  1  6  0  0  0
 12 14  1  0  0  0  0
 14 15  1  6  0  0  0
 14 16  1  0  0  0  0
 16 27  1  1  0  0  0
 18 19  2  0  0  0  0
 18 23  1  0  0  0  0
 19 20  1  0  0  0  0
 20 21  2  0  0  0  0
 21 22  1  0  0  0  0
 21 27  1  0  0  0  0
 22 23  2  0  0  0  0
 22 25  1  0  0  0  0
 23 24  1  0  0  0  0
 25 26  2  0  0  0  0
 26 27  1  0  0  0  0
M  END
>  <CHROM.1>
135.90135359,-175.30998715,86.47733584,62.93053259,-137.55933155,60.82394728
56.73850438,14.22910483,-5.40413599,9.04075529,-2.11194630,-1.00112024,-1.26548815

>  <Name>
ligand

>  <RI>
0

>  <Rbt.Current_Directory>
/home/itssahil/PROJECTS/Mol_Feturizer/Test_systems_manuscript/rnas/2ydh

>  <Rbt.Executable>
rbdock ($Id: //depot/dev/client3/rdock/2013.1/src/exe/rbdock.cxx#4 $)

>  <Rbt.Library>
libRbt.so (2013.1, Build901 2013/11/27)

>  <Rbt.Parameter_File>
/export/apps/rDock/src/rDock_2013.1_src/data/scripts/dock_solv.prm

>  <Rbt.Receptor>
prm/pocket_docking_5.prm

>  <SCORE>
-14.0303

>  <SCORE.INTER>
-14.2118

>  <SCORE.INTER.CONST>
1

>  <SCORE.INTER.POLAR>
0

>  <SCORE.INTER.ROT>
7

>  <SCORE.INTER.SOLV>
18.9446

>  <SCORE.INTER.VDW>
-24.0561

>  <SCORE.INTER.norm>
-0.526363

>  <SCORE.INTRA>
0.181458

>  <SCORE.INTRA.DIHEDRAL>
0.0330727

>  <SCORE.INTRA.DIHEDRAL.0>
9.75037

>  <SCORE.INTRA.POLAR>
0

>  <SCORE.INTRA.POLAR.0>
0

>  <SCORE.INTRA.REPUL>
0

>  <SCORE.INTRA.REPUL.0>
0

>  <SCORE.INTRA.SOLV>
-1.04754

>  <SCORE.INTRA.SOLV.lig_0>
-48.4279

>  <SCORE.INTRA.VDW>
0.68869

>  <SCORE.INTRA.VDW.0>
-4.69037

>  <SCORE.INTRA.norm>
0.00672068

>  <SCORE.RESTR>
0

>  <SCORE.RESTR.CAVITY>
0

>  <SCORE.RESTR.norm>
0

>  <SCORE.SYSTEM>
0

>  <SCORE.SYSTEM.CONST>
0

>  <SCORE.SYSTEM.DIHEDRAL>
0

>  <SCORE.SYSTEM.SOLV>
0

>  <SCORE.SYSTEM.norm>
0

>  <SCORE.heavy>
27

>  <SCORE.norm>
-0.519642

>  <RMSD>
1.574

$$$$
ligand
 OpenBabel02271912153D
libRbt.so/2013.1/901 2013/11/27
 27 29  0  0  0  0  0  0  0  0999 V2000
   14.8517   -4.6379   11.9943 N   0  0  0  0  0  0  0  0  0  0  0  0
   14.1656   -4.8205   10.6781 C   0  0  2  0  0  0  0  0  0  0  0  0
   12.9010   -5.6954   10.8271 C   0  0  0  0  0  0  0  0  0  0  0  0
   12.2214   -6.0069    9.8444 O   0  0  0  0  0  0  0  0  0  0  0  0
   15.1499   -5.4033    9.6696 C   0  0  0  0  0  0  0  0  0  0  0  0
   15.5609   -6.8396    9.9479 C   0  0  0  0  0  0  0  0  0  0  0  0
   14.3102   -8.0554    9.4435 S   0  0  2  0  0  0  0  0  0  0  0  0
   14.6784   -9.4136   10.5904 C   0  0  0  0  0  0  0  0  0  0  0  0
   14.8589   -8.7307    7.8678 C   0  0  0  0  0  0  0  0  0  0  0  0
   13.9585   -8.2071    6.7651 C   0  0  1  0  0  0  0  0  0  0  0  0
   13.1523   -7.1196    7.1912 O   0  0  0  0  0  0  0  0  0  0  0  0
   14.7596   -7.7268    5.5796 C   0  0  1  0  0  0  0  0  0  0  0  0
   15.0691   -8.7851    4.7189 O   0  0  0  0  0  0  0  0  0  0  0  0
   13.8026   -6.7571    4.9560 C   0  0  1  0  0  0  0  0  0  0  0  0
   12.9498   -7.4532    4.0669 O   0  0  0  0  0  0  0  0  0  0  0  0
   13.0084   -6.2024    6.1315 C   0  0  2  0  0  0  0  0  0  0  0  0
   12.5098   -6.1172   11.9309 O   0  0  0  0  0  0  0  0  0  0  0  0
   17.1001   -3.1174    7.3962 N   0  0  0  0  0  0  0  0  0  0  0  0
   17.1252   -4.4525    7.0203 C   0  0  0  0  0  0  0  0  0  0  0  0
   15.9493   -5.1341    6.7301 N   0  0  0  0  0  0  0  0  0  0  0  0
   14.7753   -4.4803    6.7981 C   0  0  0  0  0  0  0  0  0  0  0  0
   14.7387   -3.1310    7.1609 C   0  0  0  0  0  0  0  0  0  0  0  0
   15.8987   -2.4462    7.4729 C   0  0  0  0  0  0  0  0  0  0  0  0
   15.8578   -1.1704    7.8269 N   0  0  0  0  0  0  0  0  0  0  0  0
   13.4634   -2.7284    7.1365 N   0  0  0  0  0  0  0  0  0  0  0  0
   12.6961   -3.7778    6.7677 C   0  0  0  0  0  0  0  0  0  0  0  0
   13.4939   -4.8733    6.5487 N   0  0  0  0  0  0  0  0  0  0  0  0
  2  1  1  1  0  0  0
  2  3  1  0  0  0  0
  2  5  1  0  0  0  0
  3  4  1  0  0  0  0
  3 17  1  0  0  0  0
  5  6  1  0  0  0  0
  7  6  1  1  0  0  0
  7  8  1  0  0  0  0
  7  9  1  0  0  0  0
 10  9  1  1  0  0  0
 10 11  1  0  0  0  0
 10 12  1  0  0  0  0
 11 16  1  0  0  0  0
 12 13  1  6  0  0  0
 12 14  1  0  0  0  0
 14 15  1  6  0  0  0
 14 16  1  0  0  0  0
 16 27  1  1  0  0  0
 18 19  2  0  0  0  0
 18 23  1  0  0  0  0
 19 20  1  0  0  0  0
 20 21  2  0  0  0  0
 21 22  1  0  0  0  0
 21 27  1  0  0  0  0
 22 23  2  0  0  0  0
 22 25  1  0  0  0  0
 23 24  1  0  0  0  0
 25 26  2  0  0  0  0
 26 27  1  0  0  0  0
M  END
>  <CHROM.1>
-177.17776147,68.98467702,78.32706432,-153.01651961,-108.46293232,13.65597751
69.58128720,14.36994910,-5.87145478,7.98173769,0.90216380,1.33301397,1.25490547

>  <Name>
ligand

>  <RI>
0

>  <Rbt.Current_Directory>
/home/itssahil/PROJECTS/Mol_Feturizer/Test_systems_manuscript/rnas/2ydh

>  <Rbt.Executable>
rbdock ($Id: //depot/dev/client3/rdock/2013.1/src/exe/rbdock.cxx#4 $)

>  <Rbt.Library>
libRbt.so (2013.1, Build901 2013/11/27)

>  <Rbt.Parameter_File>
/export/apps/rDock/src/rDock_2013.1_src/data/scripts/dock_solv.prm

>  <Rbt.Receptor>
prm/pocket_docking_2.prm

>  <SCORE>
-9.34437

>  <SCORE.INTER>
-12.7155

>  <SCORE.INTER.CONST>
1

>  <SCORE.INTER.POLAR>
0

>  <SCORE.INTER.ROT>
7

>  <SCORE.INTER.SOLV>
18.142

>  <SCORE.INTER.VDW>
-22.791

>  <SCORE.INTER.norm>
-0.470944

>  <SCORE.INTRA>
2.23594

>  <SCORE.INTRA.DIHEDRAL>
5.49892

>  <SCORE.INTRA.DIHEDRAL.0>
9.75037

>  <SCORE.INTRA.POLAR>
0

>  <SCORE.INTRA.POLAR.0>
0

>  <SCORE.INTRA.REPUL>
0

>  <SCORE.INTRA.REPUL.0>
0

>  <SCORE.INTRA.SOLV>
-0.25252

>  <SCORE.INTRA.SOLV.lig_0>
-48.4279

>  <SCORE.INTRA.VDW>
-0.38726

>  <SCORE.INTRA.VDW.0>
-4.69037

>  <SCORE.INTRA.norm>
0.0828126

>  <SCORE.RESTR>
1.13519

>  <SCORE.RESTR.CAVITY>
1.13519

>  <SCORE.RESTR.norm>
0.042044

>  <SCORE.SYSTEM>
0

>  <SCORE.SYSTEM.CONST>
0

>  <SCORE.SYSTEM.DIHEDRAL>
0

>  <SCORE.SYSTEM.SOLV>
0

>  <SCORE.SYSTEM.norm>
0

>  <SCORE.heavy>
27

>  <SCORE.norm>
-0.346088

>  <RMSD>
1.607

$$$$
ligand
 OpenBabel02271912153D
libRbt.so/2013.1/901 2013/11/27
 27 29  0  0  0  0  0  0  0  0999 V2000
   17.4691   -5.2312   11.4042 N   0  0  0  0  0  0  0  0  0  0  0  0
   16.0513   -5.7025   11.3376 C   0  0  2  0  0  0  0  0  0  0  0  0
   15.1702   -4.9613   12.3676 C   0  0  0  0  0  0  0  0  0  0  0  0
   15.6534   -4.5014   13.4067 O   0  0  0  0  0  0  0  0  0  0  0  0
   16.0099   -7.2146   11.5309 C   0  0  0  0  0  0  0  0  0  0  0  0
   16.0441   -8.0160   10.2402 C   0  0  0  0  0  0  0  0  0  0  0  0
   14.7623   -7.5211    9.0532 S   0  0  2  0  0  0  0  0  0  0  0  0
   13.2638   -8.0252    9.9453 C   0  0  0  0  0  0  0  0  0  0  0  0
   14.8221   -8.7153    7.7077 C   0  0  0  0  0  0  0  0  0  0  0  0
   13.9486   -8.2221    6.5699 C   0  0  1  0  0  0  0  0  0  0  0  0
   13.1715   -7.0909    6.9313 O   0  0  0  0  0  0  0  0  0  0  0  0
   14.7753   -7.8268    5.3706 C   0  0  1  0  0  0  0  0  0  0  0  0
   15.0611   -8.9363    4.5682 O   0  0  0  0  0  0  0  0  0  0  0  0
   13.8541   -6.8622    4.6881 C   0  0  1  0  0  0  0  0  0  0  0  0
   12.9893   -7.5771    3.8258 O   0  0  0  0  0  0  0  0  0  0  0  0
   13.0656   -6.2250    5.8250 C   0  0  2  0  0  0  0  0  0  0  0  0
   13.9470   -4.7998   12.2033 O   0  0  0  0  0  0  0  0  0  0  0  0
   17.0868   -3.3142    7.6184 N   0  0  0  0  0  0  0  0  0  0  0  0
   17.0511   -4.6871    7.4220 C   0  0  0  0  0  0  0  0  0  0  0  0
   15.9013   -5.3109    6.9526 N   0  0  0  0  0  0  0  0  0  0  0  0
   14.8172   -4.5662    6.6688 C   0  0  0  0  0  0  0  0  0  0  0  0
   14.8460   -3.1803    6.8482 C   0  0  0  0  0  0  0  0  0  0  0  0
   15.9760   -2.5490    7.3345 C   0  0  0  0  0  0  0  0  0  0  0  0
   15.9948   -1.2367    7.5132 N   0  0  0  0  0  0  0  0  0  0  0  0
   13.6572   -2.6889    6.4819 N   0  0  0  0  0  0  0  0  0  0  0  0
   12.8818   -3.7182    6.0752 C   0  0  0  0  0  0  0  0  0  0  0  0
   13.5869   -4.8914    6.1797 N   0  0  0  0  0  0  0  0  0  0  0  0
  2  1  1  1  0  0  0
  2  3  1  0  0  0  0
  2  5  1  0  0  0  0
  3  4  1  0  0  0  0
  3 17  1  0  0  0  0
  5  6  1  0  0  0  0
  7  6  1  1  0  0  0
  7  8  1  0  0  0  0
  7  9  1  0  0  0  0
 10  9  1  1  0  0  0
 10 11  1  0  0  0  0
 10 12  1  0  0  0  0
 11 16  1  0  0  0  0
 12 13  1  6  0  0  0
 12 14  1  0  0  0  0
 14 15  1  6  0  0  0
 14 16  1  0  0  0  0
 16 27  1  1  0  0  0
 18 19  2  0  0  0  0
 18 23  1  0  0  0  0
 19 20  1  0  0  0  0
 20 21  2  0  0  0  0
 21 22  1  0  0  0  0
 21 27  1  0  0  0  0
 22 23  2  0  0  0  0
 22 25  1  0  0  0  0
 23 24  1  0  0  0  0
 25 26  2  0  0  0  0
 26 27  1  0  0  0  0
M  END
>  <CHROM.1>
-27.02345573,-92.99354052,-53.42237753,-66.28307382,-170.08652279,-9.03804343
55.81631796,14.85502463,-5.83923959,8.08366900,-0.41854706,-1.27785882,-0.67465089

>  <Name>
ligand

>  <RI>
0

>  <Rbt.Current_Directory>
/home/itssahil/PROJECTS/Mol_Feturizer/Test_systems_manuscript/rnas/2ydh

>  <Rbt.Executable>
rbdock ($Id: //depot/dev/client3/rdock/2013.1/src/exe/rbdock.cxx#4 $)

>  <Rbt.Library>
libRbt.so (2013.1, Build901 2013/11/27)

>  <Rbt.Parameter_File>
/export/apps/rDock/src/rDock_2013.1_src/data/scripts/dock_solv.prm

>  <Rbt.Receptor>
prm/pocket_docking_3.prm

>  <SCORE>
-10.3191

>  <SCORE.INTER>
-12.6309

>  <SCORE.INTER.CONST>
1

>  <SCORE.INTER.POLAR>
0

>  <SCORE.INTER.ROT>
7

>  <SCORE.INTER.SOLV>
18.5996

>  <SCORE.INTER.VDW>
-22.8871

>  <SCORE.INTER.norm>
-0.467809

>  <SCORE.INTRA>
2.31171

>  <SCORE.INTRA.DIHEDRAL>
2.64471

>  <SCORE.INTRA.DIHEDRAL.0>
9.75037

>  <SCORE.INTRA.POLAR>
0

>  <SCORE.INTRA.POLAR.0>
0

>  <SCORE.INTRA.REPUL>
0

>  <SCORE.INTRA.REPUL.0>
0

>  <SCORE.INTRA.SOLV>
-0.530838

>  <SCORE.INTRA.SOLV.lig_0>
-48.4279

>  <SCORE.INTRA.VDW>
1.25477

>  <SCORE.INTRA.VDW.0>
-4.69037

>  <SCORE.INTRA.norm>
0.0856188

>  <SCORE.RESTR>
0

>  <SCORE.RESTR.CAVITY>
0

>  <SCORE.RESTR.norm>
0

>  <SCORE.SYSTEM>
0

>  <SCORE.SYSTEM.CONST>
0

>  <SCORE.SYSTEM.DIHEDRAL>
0

>  <SCORE.SYSTEM.SOLV>
0

>  <SCORE.SYSTEM.norm>
0

>  <SCORE.heavy>
27

>  <SCORE.norm>
-0.382191

>  <RMSD>
1.614

$$$$
ligand
 OpenBabel02271912153D
libRbt.so/2013.1/901 2013/11/27
 27 29  0  0  0  0  0  0  0  0999 V2000
   12.2645   -7.7219   13.4108 N   0  0  0  0  0  0  0  0  0  0  0  0
   13.4150   -7.5641   12.4685 C   0  0  2  0  0  0  0  0  0  0  0  0
   14.5747   -6.7884   13.1321 C   0  0  0  0  0  0  0  0  0  0  0  0
   15.7372   -7.1993   13.0658 O   0  0  0  0  0  0  0  0  0  0  0  0
   12.9333   -6.8899   11.1883 C   0  0  0  0  0  0  0  0  0  0  0  0
   13.9068   -6.9780   10.0248 C   0  0  0  0  0  0  0  0  0  0  0  0
   14.1460   -8.6715    9.4150 S   0  0  2  0  0  0  0  0  0  0  0  0
   15.4500   -9.2527   10.5364 C   0  0  0  0  0  0  0  0  0  0  0  0
   15.0255   -8.5329    7.8507 C   0  0  0  0  0  0  0  0  0  0  0  0
   14.0589   -8.0640    6.7800 C   0  0  1  0  0  0  0  0  0  0  0  0
   13.3137   -6.9246    7.1808 O   0  0  0  0  0  0  0  0  0  0  0  0
   14.7813   -7.6954    5.5071 C   0  0  1  0  0  0  0  0  0  0  0  0
   14.9998   -8.8223    4.7078 O   0  0  0  0  0  0  0  0  0  0  0  0
   13.8049   -6.7452    4.8837 C   0  0  1  0  0  0  0  0  0  0  0  0
   12.8715   -7.4780    4.1130 O   0  0  0  0  0  0  0  0  0  0  0  0
   13.1141   -6.0828    6.0688 C   0  0  2  0  0  0  0  0  0  0  0  0
   14.3933   -5.7297   13.7611 O   0  0  0  0  0  0  0  0  0  0  0  0
   17.1562   -3.1630    7.7995 N   0  0  0  0  0  0  0  0  0  0  0  0
   17.0870   -4.5448    7.6967 C   0  0  0  0  0  0  0  0  0  0  0  0
   15.9359   -5.1687    7.2308 N   0  0  0  0  0  0  0  0  0  0  0  0
   14.8842   -4.4168    6.8582 C   0  0  0  0  0  0  0  0  0  0  0  0
   14.9474   -3.0231    6.9429 C   0  0  0  0  0  0  0  0  0  0  0  0
   16.0784   -2.3900    7.4246 C   0  0  0  0  0  0  0  0  0  0  0  0
   16.1295   -1.0693    7.5132 N   0  0  0  0  0  0  0  0  0  0  0  0
   13.7864   -2.5267    6.5019 N   0  0  0  0  0  0  0  0  0  0  0  0
   12.9953   -3.5607    6.1396 C   0  0  0  0  0  0  0  0  0  0  0  0
   13.6619   -4.7422    6.3493 N   0  0  0  0  0  0  0  0  0  0  0  0
  2  1  1  1  0  0  0
  2  3  1  0  0  0  0
  2  5  1  0  0  0  0
  3  4  1  0  0  0  0
  3 17  1  0  0  0  0
  5  6  1  0  0  0  0
  7  6  1  1  0  0  0
  7  8  1  0  0  0  0
  7  9  1  0  0  0  0
 10  9  1  1  0  0  0
 10 11  1  0  0  0  0
 10 12  1  0  0  0  0
 11 16  1  0  0  0  0
 12 13  1  6  0  0  0
 12 14  1  0  0  0  0
 14 15  1  6  0  0  0
 14 16  1  0  0  0  0
 16 27  1  1  0  0  0
 18 19  2  0  0  0  0
 18 23  1  0  0  0  0
 19 20  1  0  0  0  0
 20 21  2  0  0  0  0
 21 22  1  0  0  0  0
 21 27  1  0  0  0  0
 22 23  2  0  0  0  0
 22 25  1  0  0  0  0
 23 24  1  0  0  0  0
 25 26  2  0  0  0  0
 26 27  1  0  0  0  0
M  END
>  <CHROM.1>
132.24732399,-165.61088182,66.28577895,-85.69793435,-75.43669667,49.66270677
48.31346203,14.46847811,-6.19672554,8.40350438,1.82298183,1.29981325,1.71459948

>  <Name>
ligand

>  <RI>
0

>  <Rbt.Current_Directory>
/home/itssahil/PROJECTS/Mol_Feturizer/Test_systems_manuscript/rnas/2ydh

>  <Rbt.Executable>
rbdock ($Id: //depot/dev/client3/rdock/2013.1/src/exe/rbdock.cxx#4 $)

>  <Rbt.Library>
libRbt.so (2013.1, Build901 2013/11/27)

>  <Rbt.Parameter_File>
/export/apps/rDock/src/rDock_2013.1_src/data/scripts/dock_solv.prm

>  <Rbt.Receptor>
prm/pocket_docking_4.prm

>  <SCORE>
-15.303

>  <SCORE.INTER>
-13.4425

>  <SCORE.INTER.CONST>
1

>  <SCORE.INTER.POLAR>
0

>  <SCORE.INTER.ROT>
7

>  <SCORE.INTER.SOLV>
16.7573

>  <SCORE.INTER.VDW>
-22.8141

>  <SCORE.INTER.norm>
-0.49787

>  <SCORE.INTRA>
-1.86053

>  <SCORE.INTRA.DIHEDRAL>
-4.23935

>  <SCORE.INTRA.DIHEDRAL.0>
9.75037

>  <SCORE.INTRA.POLAR>
0

>  <SCORE.INTRA.POLAR.0>
0

>  <SCORE.INTRA.REPUL>
0

>  <SCORE.INTRA.REPUL.0>
0

>  <SCORE.INTRA.SOLV>
-1.04624

>  <SCORE.INTRA.SOLV.lig_0>
-48.4279

>  <SCORE.INTRA.VDW>
0.782271

>  <SCORE.INTRA.VDW.0>
-4.69037

>  <SCORE.INTRA.norm>
-0.0689083

>  <SCORE.RESTR>
0

>  <SCORE.RESTR.CAVITY>
0

>  <SCORE.RESTR.norm>
0

>  <SCORE.SYSTEM>
0

>  <SCORE.SYSTEM.CONST>
0

>  <SCORE.SYSTEM.DIHEDRAL>
0

>  <SCORE.SYSTEM.SOLV>
0

>  <SCORE.SYSTEM.norm>
0

>  <SCORE.heavy>
27

>  <SCORE.norm>
-0.566779

>  <RMSD>
1.651

$$$$
ligand
 OpenBabel02271912153D
libRbt.so/2013.1/901 2013/11/27
 27 29  0  0  0  0  0  0  0  0999 V2000
   15.2250   -3.4966   10.6616 N   0  0  0  0  0  0  0  0  0  0  0  0
   14.4887   -4.5523   11.4232 C   0  0  2  0  0  0  0  0  0  0  0  0
   15.3979   -5.2061   12.4874 C   0  0  0  0  0  0  0  0  0  0  0  0
   14.9385   -5.6002   13.5637 O   0  0  0  0  0  0  0  0  0  0  0  0
   13.9195   -5.5773   10.4480 C   0  0  0  0  0  0  0  0  0  0  0  0
   13.2327   -6.7613   11.1079 C   0  0  0  0  0  0  0  0  0  0  0  0
   12.4899   -7.9152    9.9188 S   0  0  2  0  0  0  0  0  0  0  0  0
   12.2764   -9.3846   10.9632 C   0  0  0  0  0  0  0  0  0  0  0  0
   13.8111   -8.4278    8.8091 C   0  0  0  0  0  0  0  0  0  0  0  0
   13.5410   -7.8661    7.4263 C   0  0  1  0  0  0  0  0  0  0  0  0
   13.4410   -6.4505    7.4239 O   0  0  0  0  0  0  0  0  0  0  0  0
   14.6377   -8.2343    6.4569 C   0  0  1  0  0  0  0  0  0  0  0  0
   14.4158   -9.4993    5.9024 O   0  0  0  0  0  0  0  0  0  0  0  0
   14.5037   -7.1433    5.4387 C   0  0  1  0  0  0  0  0  0  0  0  0
   13.5494   -7.5290    4.4678 O   0  0  0  0  0  0  0  0  0  0  0  0
   14.0008   -5.9453    6.2337 C   0  0  2  0  0  0  0  0  0  0  0  0
   16.6210   -5.3593   12.3146 O   0  0  0  0  0  0  0  0  0  0  0  0
   15.4682   -1.3953    8.4704 N   0  0  0  0  0  0  0  0  0  0  0  0
   14.1958   -1.9454    8.4161 C   0  0  0  0  0  0  0  0  0  0  0  0
   13.9689   -3.1558    7.7719 N   0  0  0  0  0  0  0  0  0  0  0  0
   15.0039   -3.8077    7.2115 C   0  0  0  0  0  0  0  0  0  0  0  0
   16.2930   -3.2709    7.2730 C   0  0  0  0  0  0  0  0  0  0  0  0
   16.5298   -2.0573    7.8920 C   0  0  0  0  0  0  0  0  0  0  0  0
   17.7515   -1.5474    7.9381 N   0  0  0  0  0  0  0  0  0  0  0  0
   17.1257   -4.1174    6.6574 N   0  0  0  0  0  0  0  0  0  0  0  0
   16.4049   -5.1705    6.2129 C   0  0  0  0  0  0  0  0  0  0  0  0
   15.0859   -4.9981    6.5520 N   0  0  0  0  0  0  0  0  0  0  0  0
  2  1  1  6  0  0  0
  2  3  1  0  0  0  0
  2  5  1  0  0  0  0
  3  4  1  0  0  0  0
  3 17  1  0  0  0  0
  5  6  1  0  0  0  0
  7  6  1  1  0  0  0
  7  8  1  0  0  0  0
  7  9  1  0  0  0  0
 10  9  1  1  0  0  0
 10 11  1  0  0  0  0
 10 12  1  0  0  0  0
 11 16  1  0  0  0  0
 12 13  1  6  0  0  0
 12 14  1  0  0  0  0
 14 15  1  6  0  0  0
 14 16  1  0  0  0  0
 16 27  1  1  0  0  0
 18 19  2  0  0  0  0
 18 23  1  0  0  0  0
 19 20  1  0  0  0  0
 20 21  2  0  0  0  0
 21 22  1  0  0  0  0
 21 27  1  0  0  0  0
 22 23  2  0  0  0  0
 22 25  1  0  0  0  0
 23 24  1  0  0  0  0
 25 26  2  0  0  0  0
 26 27  1  0  0  0  0
M  END
>  <CHROM.1>
146.53333749,175.72718492,176.90901952,162.40550932,-112.16095858,58.23056407
-63.34466296,14.61652843,-5.62594966,8.59794998,0.26318150,1.10900890,1.39524618

>  <Name>
ligand

>  <RI>
0

>  <Rbt.Current_Directory>
/home/itssahil/PROJECTS/Mol_Feturizer/Test_systems_manuscript/rnas/2ydh

>  <Rbt.Executable>
rbdock ($Id: //depot/dev/client3/rdock/2013.1/src/exe/rbdock.cxx#4 $)

>  <Rbt.Library>
libRbt.so (2013.1, Build901 2013/11/27)

>  <Rbt.Parameter_File>
/export/apps/rDock/src/rDock_2013.1_src/data/scripts/dock_solv.prm

>  <Rbt.Receptor>
prm/pocket_docking_3.prm

>  <SCORE>
-13.2039

>  <SCORE.INTER>
-13.7401

>  <SCORE.INTER.CONST>
1

>  <SCORE.INTER.POLAR>
0

>  <SCORE.INTER.ROT>
7

>  <SCORE.INTER.SOLV>
20.3004

>  <SCORE.INTER.VDW>
-24.1935

>  <SCORE.INTER.norm>
-0.508893

>  <SCORE.INTRA>
0.536233

>  <SCORE.INTRA.DIHEDRAL>
-2.48132

>  <SCORE.INTRA.DIHEDRAL.0>
9.75037

>  <SCORE.INTRA.POLAR>
0

>  <SCORE.INTRA.POLAR.0>
0

>  <SCORE.INTRA.REPUL>
0

>  <SCORE.INTRA.REPUL.0>
0

>  <SCORE.INTRA.SOLV>
1.45492

>  <SCORE.INTRA.SOLV.lig_0>
-48.4279

>  <SCORE.INTRA.VDW>
1.04943

>  <SCORE.INTRA.VDW.0>
-4.69037

>  <SCORE.INTRA.norm>
0.0198605

>  <SCORE.RESTR>
0

>  <SCORE.RESTR.CAVITY>
0

>  <SCORE.RESTR.norm>
0

>  <SCORE.SYSTEM>
0

>  <SCORE.SYSTEM.CONST>
0

>  <SCORE.SYSTEM.DIHEDRAL>
0

>  <SCORE.SYSTEM.SOLV>
0

>  <SCORE.SYSTEM.norm>
0

>  <SCORE.heavy>
27

>  <SCORE.norm>
-0.489032

>  <RMSD>
1.743

$$$$
ligand
 OpenBabel02271912153D
libRbt.so/2013.1/901 2013/11/27
 27 29  0  0  0  0  0  0  0  0999 V2000
   14.8782   -6.0356   13.8588 N   0  0  0  0  0  0  0  0  0  0  0  0
   16.0027   -6.0709   12.8734 C   0  0  2  0  0  0  0  0  0  0  0  0
   15.9680   -4.8359   11.9459 C   0  0  0  0  0  0  0  0  0  0  0  0
   16.7712   -4.7138   11.0160 O   0  0  0  0  0  0  0  0  0  0  0  0
   15.9493   -7.3779   12.0895 C   0  0  0  0  0  0  0  0  0  0  0  0
   14.6148   -7.6558   11.4179 C   0  0  0  0  0  0  0  0  0  0  0  0
   14.4706   -6.9082    9.7695 S   0  0  2  0  0  0  0  0  0  0  0  0
   13.4942   -5.4271   10.1552 C   0  0  0  0  0  0  0  0  0  0  0  0
   13.2904   -7.9121    8.8535 C   0  0  0  0  0  0  0  0  0  0  0  0
   13.2561   -7.4425    7.4117 C   0  0  1  0  0  0  0  0  0  0  0  0
   12.7067   -6.1410    7.2762 O   0  0  0  0  0  0  0  0  0  0  0  0
   14.6399   -7.4040    6.8105 C   0  0  1  0  0  0  0  0  0  0  0  0
   15.0077   -8.6583    6.3126 O   0  0  0  0  0  0  0  0  0  0  0  0
   14.4532   -6.3978    5.7160 C   0  0  1  0  0  0  0  0  0  0  0  0
   13.9925   -7.0579    4.5523 O   0  0  0  0  0  0  0  0  0  0  0  0
   13.3850   -5.4528    6.2509 C   0  0  2  0  0  0  0  0  0  0  0  0
   15.1433   -3.9154   12.0938 O   0  0  0  0  0  0  0  0  0  0  0  0
   17.7112   -2.6566    7.4017 N   0  0  0  0  0  0  0  0  0  0  0  0
   17.6410   -3.9253    6.8448 C   0  0  0  0  0  0  0  0  0  0  0  0
   16.4142   -4.5363    6.6144 N   0  0  0  0  0  0  0  0  0  0  0  0
   15.2822   -3.8765    6.9200 C   0  0  0  0  0  0  0  0  0  0  0  0
   15.3398   -2.5917    7.4674 C   0  0  0  0  0  0  0  0  0  0  0  0
   16.5536   -1.9802    7.7217 C   0  0  0  0  0  0  0  0  0  0  0  0
   16.6032   -0.7669    8.2507 N   0  0  0  0  0  0  0  0  0  0  0  0
   14.0868   -2.1654    7.6602 N   0  0  0  0  0  0  0  0  0  0  0  0
   13.2421   -3.1372    7.2501 C   0  0  0  0  0  0  0  0  0  0  0  0
   13.9663   -4.2057    6.7827 N   0  0  0  0  0  0  0  0  0  0  0  0
  2  1  1  1  0  0  0
  2  3  1  0  0  0  0
  2  5  1  0  0  0  0
  3  4  1  0  0  0  0
  3 17  1  0  0  0  0
  5  6  1  0  0  0  0
  7  6  1  1  0  0  0
  7  8  1  0  0  0  0
  7  9  1  0  0  0  0
 10  9  1  1  0  0  0
 10 11  1  0  0  0  0
 10 12  1  0  0  0  0
 11 16  1  0  0  0  0
 12 13  1  6  0  0  0
 12 14  1  0  0  0  0
 14 15  1  6  0  0  0
 14 16  1  0  0  0  0
 16 27  1  1  0  0  0
 18 19  2  0  0  0  0
 18 23  1  0  0  0  0
 19 20  1  0  0  0  0
 20 21  2  0  0  0  0
 21 22  1  0  0  0  0
 21 27  1  0  0  0  0
 22 23  2  0  0  0  0
 22 25  1  0  0  0  0
 23 24  1  0  0  0  0
 25 26  2  0  0  0  0
 26 27  1  0  0  0  0
M  END
>  <CHROM.1>
-176.09788201,54.13860062,86.74089291,-99.93707864,-172.98058906,-67.50369765
113.85251984,14.94726618,-5.29993165,8.64552931,-1.35055334,-1.13919142,-1.17573951

>  <Name>
ligand

>  <RI>
0

>  <Rbt.Current_Directory>
/home/itssahil/PROJECTS/Mol_Feturizer/Test_systems_manuscript/rnas/2ydh

>  <Rbt.Executable>
rbdock ($Id: //depot/dev/client3/rdock/2013.1/src/exe/rbdock.cxx#4 $)

>  <Rbt.Library>
libRbt.so (2013.1, Build901 2013/11/27)

>  <Rbt.Parameter_File>
/export/apps/rDock/src/rDock_2013.1_src/data/scripts/dock_solv.prm

>  <Rbt.Receptor>
prm/pocket_docking_3.prm

>  <SCORE>
-9.48565

>  <SCORE.INTER>
-10.8125

>  <SCORE.INTER.CONST>
1

>  <SCORE.INTER.POLAR>
0

>  <SCORE.INTER.ROT>
7

>  <SCORE.INTER.SOLV>
20.5226

>  <SCORE.INTER.VDW>
-22.3159

>  <SCORE.INTER.norm>
-0.400462

>  <SCORE.INTRA>
1.32683

>  <SCORE.INTRA.DIHEDRAL>
-0.898111

>  <SCORE.INTRA.DIHEDRAL.0>
9.75037

>  <SCORE.INTRA.POLAR>
0

>  <SCORE.INTRA.POLAR.0>
0

>  <SCORE.INTRA.REPUL>
0

>  <SCORE.INTRA.REPUL.0>
0

>  <SCORE.INTRA.SOLV>
0.454842

>  <SCORE.INTRA.SOLV.lig_0>
-48.4279

>  <SCORE.INTRA.VDW>
1.54847

>  <SCORE.INTRA.VDW.0>
-4.69037

>  <SCORE.INTRA.norm>
0.0491419

>  <SCORE.RESTR>
0

>  <SCORE.RESTR.CAVITY>
0

>  <SCORE.RESTR.norm>
0

>  <SCORE.SYSTEM>
0

>  <SCORE.SYSTEM.CONST>
0

>  <SCORE.SYSTEM.DIHEDRAL>
0

>  <SCORE.SYSTEM.SOLV>
0

>  <SCORE.SYSTEM.norm>
0

>  <SCORE.heavy>
27

>  <SCORE.norm>
-0.35132

>  <RMSD>
1.760

$$$$
ligand
 OpenBabel02271912153D
libRbt.so/2013.1/901 2013/11/27
 27 29  0  0  0  0  0  0  0  0999 V2000
   14.3328   -6.9346   14.3479 N   0  0  0  0  0  0  0  0  0  0  0  0
   14.4379   -7.0835   12.8635 C   0  0  2  0  0  0  0  0  0  0  0  0
   13.5122   -6.0821   12.1376 C   0  0  0  0  0  0  0  0  0  0  0  0
   13.9761   -5.1359   11.4939 O   0  0  0  0  0  0  0  0  0  0  0  0
   14.1363   -8.5272   12.4760 C   0  0  0  0  0  0  0  0  0  0  0  0
   14.6001   -8.9155   11.0819 C   0  0  0  0  0  0  0  0  0  0  0  0
   13.7205   -8.0337    9.7606 S   0  0  2  0  0  0  0  0  0  0  0  0
   12.1996   -9.0189    9.6521 C   0  0  0  0  0  0  0  0  0  0  0  0
   14.5545   -8.4535    8.2218 C   0  0  0  0  0  0  0  0  0  0  0  0
   13.7320   -7.9366    7.0568 C   0  0  1  0  0  0  0  0  0  0  0  0
   13.0410   -6.7369    7.3684 O   0  0  0  0  0  0  0  0  0  0  0  0
   14.5976   -7.6497    5.8542 C   0  0  1  0  0  0  0  0  0  0  0  0
   14.8045   -8.8063    5.0952 O   0  0  0  0  0  0  0  0  0  0  0  0
   13.7596   -6.6429    5.1268 C   0  0  1  0  0  0  0  0  0  0  0  0
   12.8504   -7.3203    4.2803 O   0  0  0  0  0  0  0  0  0  0  0  0
   13.0121   -5.9062    6.2308 C   0  0  2  0  0  0  0  0  0  0  0  0
   12.2716   -6.1775   12.1714 O   0  0  0  0  0  0  0  0  0  0  0  0
   17.3791   -3.1854    7.4079 N   0  0  0  0  0  0  0  0  0  0  0  0
   17.2643   -4.5461    7.1630 C   0  0  0  0  0  0  0  0  0  0  0  0
   16.0301   -5.1179    6.8780 N   0  0  0  0  0  0  0  0  0  0  0  0
   14.9383   -4.3337    6.8217 C   0  0  0  0  0  0  0  0  0  0  0  0
   15.0438   -2.9591    7.0516 C   0  0  0  0  0  0  0  0  0  0  0  0
   16.2617   -2.3800    7.3572 C   0  0  0  0  0  0  0  0  0  0  0  0
   16.3548   -1.0785    7.5850 N   0  0  0  0  0  0  0  0  0  0  0  0
   13.8260   -2.4211    6.9220 N   0  0  0  0  0  0  0  0  0  0  0  0
   12.9578   -3.4103    6.6153 C   0  0  0  0  0  0  0  0  0  0  0  0
   13.6312   -4.6044    6.5440 N   0  0  0  0  0  0  0  0  0  0  0  0
  2  1  1  1  0  0  0
  2  3  1  0  0  0  0
  2  5  1  0  0  0  0
  3  4  1  0  0  0  0
  3 17  1  0  0  0  0
  5  6  1  0  0  0  0
  7  6  1  1  0  0  0
  7  8  1  0  0  0  0
  7  9  1  0  0  0  0
 10  9  1  1  0  0  0
 10 11  1  0  0  0  0
 10 12  1  0  0  0  0
 11 16  1  0  0  0  0
 12 13  1  6  0  0  0
 12 14  1  0  0  0  0
 14 15  1  6  0  0  0
 14 16  1  0  0  0  0
 16 27  1  1  0  0  0
 18 19  2  0  0  0  0
 18 23  1  0  0  0  0
 19 20  1  0  0  0  0
 20 21  2  0  0  0  0
 21 22  1  0  0  0  0
 21 27  1  0  0  0  0
 22 23  2  0  0  0  0
 22 25  1  0  0  0  0
 23 24  1  0  0  0  0
 25 26  2  0  0  0  0
 26 27  1  0  0  0  0
M  END
>  <CHROM.1>
110.64308376,-162.73756508,-65.76040524,-81.35281010,170.65248629,32.61285959
67.82644318,14.26841841,-6.07998170,8.44308404,-2.12852428,-1.21913362,-1.57935200

>  <Name>
ligand

>  <RI>
0

>  <Rbt.Current_Directory>
/home/itssahil/PROJECTS/Mol_Feturizer/Test_systems_manuscript/rnas/2ydh

>  <Rbt.Executable>
rbdock ($Id: //depot/dev/client3/rdock/2013.1/src/exe/rbdock.cxx#4 $)

>  <Rbt.Library>
libRbt.so (2013.1, Build901 2013/11/27)

>  <Rbt.Parameter_File>
/export/apps/rDock/src/rDock_2013.1_src/data/scripts/dock_solv.prm

>  <Rbt.Receptor>
prm/pocket_docking_3.prm

>  <SCORE>
-14.5906

>  <SCORE.INTER>
-14.0931

>  <SCORE.INTER.CONST>
1

>  <SCORE.INTER.POLAR>
0

>  <SCORE.INTER.ROT>
7

>  <SCORE.INTER.SOLV>
18.0464

>  <SCORE.INTER.VDW>
-23.6775

>  <SCORE.INTER.norm>
-0.521967

>  <SCORE.INTRA>
-0.498666

>  <SCORE.INTRA.DIHEDRAL>
-2.63784

>  <SCORE.INTRA.DIHEDRAL.0>
9.75037

>  <SCORE.INTRA.POLAR>
0

>  <SCORE.INTRA.POLAR.0>
0

>  <SCORE.INTRA.REPUL>
0

>  <SCORE.INTRA.REPUL.0>
0

>  <SCORE.INTRA.SOLV>
-1.28505

>  <SCORE.INTRA.SOLV.lig_0>
-48.4279

>  <SCORE.INTRA.VDW>
1.46278

>  <SCORE.INTRA.VDW.0>
-4.69037

>  <SCORE.INTRA.norm>
-0.0184691

>  <SCORE.RESTR>
0.00114072

>  <SCORE.RESTR.CAVITY>
0.00114072

>  <SCORE.RESTR.norm>
4.22491e-05

>  <SCORE.SYSTEM>
0

>  <SCORE.SYSTEM.CONST>
0

>  <SCORE.SYSTEM.DIHEDRAL>
0

>  <SCORE.SYSTEM.SOLV>
0

>  <SCORE.SYSTEM.norm>
0

>  <SCORE.heavy>
27

>  <SCORE.norm>
-0.540394

>  <RMSD>
1.796

$$$$
ligand
 OpenBabel02271912153D
libRbt.so/2013.1/901 2013/11/27
 27 29  0  0  0  0  0  0  0  0999 V2000
   11.6146   -7.6737   11.7118 N   0  0  0  0  0  0  0  0  0  0  0  0
   12.8594   -7.8935   12.5111 C   0  0  2  0  0  0  0  0  0  0  0  0
   13.5246   -6.5501   12.8845 C   0  0  0  0  0  0  0  0  0  0  0  0
   13.5498   -5.6075   12.0874 O   0  0  0  0  0  0  0  0  0  0  0  0
   13.8050   -8.8054   11.7367 C   0  0  0  0  0  0  0  0  0  0  0  0
   14.3216   -8.2174   10.4342 C   0  0  0  0  0  0  0  0  0  0  0  0
   15.3727   -9.3627    9.4959 S   0  0  2  0  0  0  0  0  0  0  0  0
   16.8710   -9.3619   10.5209 C   0  0  0  0  0  0  0  0  0  0  0  0
   15.9168   -8.4731    8.0288 C   0  0  0  0  0  0  0  0  0  0  0  0
   14.7018   -8.0785    7.2110 C   0  0  1  0  0  0  0  0  0  0  0  0
   13.9586   -7.0294    7.8120 O   0  0  0  0  0  0  0  0  0  0  0  0
   15.0937   -7.6095    5.8310 C   0  0  1  0  0  0  0  0  0  0  0  0
   15.2375   -8.6896    4.9540 O   0  0  0  0  0  0  0  0  0  0  0  0
   13.9214   -6.7477    5.4733 C   0  0  1  0  0  0  0  0  0  0  0  0
   12.9154   -7.5521    4.8876 O   0  0  0  0  0  0  0  0  0  0  0  0
   13.4454   -6.1860    6.8069 C   0  0  2  0  0  0  0  0  0  0  0  0
   14.0641   -6.3591   13.9899 O   0  0  0  0  0  0  0  0  0  0  0  0
   17.5097   -2.8676    7.3794 N   0  0  0  0  0  0  0  0  0  0  0  0
   17.5533   -4.2376    7.1657 C   0  0  0  0  0  0  0  0  0  0  0  0
   16.3835   -4.9789    7.0490 N   0  0  0  0  0  0  0  0  0  0  0  0
   15.1959   -4.3515    7.1265 C   0  0  0  0  0  0  0  0  0  0  0  0
   15.1393   -2.9693    7.3265 C   0  0  0  0  0  0  0  0  0  0  0  0
   16.2947   -2.2225    7.4655 C   0  0  0  0  0  0  0  0  0  0  0  0
   16.2358   -0.9144    7.6658 N   0  0  0  0  0  0  0  0  0  0  0  0
   13.8526   -2.6049    7.3502 N   0  0  0  0  0  0  0  0  0  0  0  0
   13.0971   -3.7105    7.1691 C   0  0  0  0  0  0  0  0  0  0  0  0
   13.9140   -4.8042    7.0236 N   0  0  0  0  0  0  0  0  0  0  0  0
  2  1  1  6  0  0  0
  2  3  1  0  0  0  0
  2  5  1  0  0  0  0
  3  4  1  0  0  0  0
  3 17  1  0  0  0  0
  5  6  1  0  0  0  0
  7  6  1  1  0  0  0
  7  8  1  0  0  0  0
  7  9  1  0  0  0  0
 10  9  1  1  0  0  0
 10 11  1  0  0  0  0
 10 12  1  0  0  0  0
 11 16  1  0  0  0  0
 12 13  1  6  0  0  0
 12 14  1  0  0  0  0
 14 15  1  1  0  0  0
 14 16  1  0  0  0  0
 16 27  1  1  0  0  0
 18 19  2  0  0  0  0
 18 23  1  0  0  0  0
 19 20  1  0  0  0  0
 20 21  2  0  0  0  0
 21 22  1  0  0  0  0
 21 27  1  0  0  0  0
 22 23  2  0  0  0  0
 22 25  1  0  0  0  0
 23 24  1  0  0  0  0
 25 26  2  0  0  0  0
 26 27  1  0  0  0  0
M  END
>  <CHROM.1>
-38.39874288,64.46283766,-176.91963347,-72.14241688,-60.82117650,72.46262340
56.31972548,14.69327574,-6.30282503,8.56482191,3.06611261,-1.35789146,-2.52774253

>  <Name>
ligand

>  <RI>
0

>  <Rbt.Current_Directory>
/home/itssahil/PROJECTS/Mol_Feturizer/Test_systems_manuscript/rnas/2ydh

>  <Rbt.Executable>
rbdock ($Id: //depot/dev/client3/rdock/2013.1/src/exe/rbdock.cxx#4 $)

>  <Rbt.Library>
libRbt.so (2013.1, Build901 2013/11/27)

>  <Rbt.Parameter_File>
/export/apps/rDock/src/rDock_2013.1_src/data/scripts/dock_solv.prm

>  <Rbt.Receptor>
prm/pocket_docking_5.prm

>  <SCORE>
-13.8852

>  <SCORE.INTER>
-12.3094

>  <SCORE.INTER.CONST>
1

>  <SCORE.INTER.POLAR>
0

>  <SCORE.INTER.ROT>
7

>  <SCORE.INTER.SOLV>
16.6052

>  <SCORE.INTER.VDW>
-22.008

>  <SCORE.INTER.norm>
-0.455903

>  <SCORE.INTRA>
-1.57585

>  <SCORE.INTRA.DIHEDRAL>
-5.88356

>  <SCORE.INTRA.DIHEDRAL.0>
9.75037

>  <SCORE.INTRA.POLAR>
0

>  <SCORE.INTRA.POLAR.0>
0

>  <SCORE.INTRA.REPUL>
0

>  <SCORE.INTRA.REPUL.0>
0

>  <SCORE.INTRA.SOLV>
-0.770673

>  <SCORE.INTRA.SOLV.lig_0>
-48.4279

>  <SCORE.INTRA.VDW>
1.75127

>  <SCORE.INTRA.VDW.0>
-4.69037

>  <SCORE.INTRA.norm>
-0.0583648

>  <SCORE.RESTR>
0

>  <SCORE.RESTR.CAVITY>
0

>  <SCORE.RESTR.norm>
0

>  <SCORE.SYSTEM>
0

>  <SCORE.SYSTEM.CONST>
0

>  <SCORE.SYSTEM.DIHEDRAL>
0

>  <SCORE.SYSTEM.SOLV>
0

>  <SCORE.SYSTEM.norm>
0

>  <SCORE.heavy>
27

>  <SCORE.norm>
-0.514268

>  <RMSD>
1.885

$$$$
ligand
 OpenBabel02271912153D
libRbt.so/2013.1/901 2013/11/27
 27 29  0  0  0  0  0  0  0  0999 V2000
   14.9910   -5.7563   12.7382 N   0  0  0  0  0  0  0  0  0  0  0  0
   13.7422   -6.5734   12.6404 C   0  0  2  0  0  0  0  0  0  0  0  0
   13.2026   -6.9337   14.0424 C   0  0  0  0  0  0  0  0  0  0  0  0
   13.8771   -6.7320   15.0568 O   0  0  0  0  0  0  0  0  0  0  0  0
   14.0121   -7.8131   11.7943 C   0  0  0  0  0  0  0  0  0  0  0  0
   14.4464   -7.5201   10.3679 C   0  0  0  0  0  0  0  0  0  0  0  0
   14.9159   -9.0084    9.4398 S   0  0  2  0  0  0  0  0  0  0  0  0
   16.4233   -9.4967   10.3256 C   0  0  0  0  0  0  0  0  0  0  0  0
   15.5704   -8.4423    7.8615 C   0  0  0  0  0  0  0  0  0  0  0  0
   14.4189   -7.9996    6.9790 C   0  0  1  0  0  0  0  0  0  0  0  0
   13.6788   -6.9297    7.5460 O   0  0  0  0  0  0  0  0  0  0  0  0
   14.9057   -7.5345    5.6282 C   0  0  1  0  0  0  0  0  0  0  0  0
   15.0626   -8.6127    4.7509 O   0  0  0  0  0  0  0  0  0  0  0  0
   13.7863   -6.6298    5.2118 C   0  0  1  0  0  0  0  0  0  0  0  0
   12.7887   -7.3944    4.5619 O   0  0  0  0  0  0  0  0  0  0  0  0
   13.2538   -6.0616    6.5209 C   0  0  2  0  0  0  0  0  0  0  0  0
   12.0795   -7.4428   14.2128 O   0  0  0  0  0  0  0  0  0  0  0  0
   17.3791   -2.9080    7.4673 N   0  0  0  0  0  0  0  0  0  0  0  0
   17.3861   -4.2801    7.2629 C   0  0  0  0  0  0  0  0  0  0  0  0
   16.2030   -4.9738    7.0378 N   0  0  0  0  0  0  0  0  0  0  0  0
   15.0403   -4.2979    7.0000 C   0  0  0  0  0  0  0  0  0  0  0  0
   15.0223   -2.9132    7.1894 C   0  0  0  0  0  0  0  0  0  0  0  0
   16.1891   -2.2132    7.4354 C   0  0  0  0  0  0  0  0  0  0  0  0
   16.1656   -0.9025    7.6252 N   0  0  0  0  0  0  0  0  0  0  0  0
   13.7552   -2.4963    7.0895 N   0  0  0  0  0  0  0  0  0  0  0  0
   12.9753   -3.5715    6.8408 C   0  0  0  0  0  0  0  0  0  0  0  0
   13.7564   -4.6985    6.7770 N   0  0  0  0  0  0  0  0  0  0  0  0
  2  1  1  1  0  0  0
  2  3  1  0  0  0  0
  2  5  1  0  0  0  0
  3  4  1  0  0  0  0
  3 17  1  0  0  0  0
  5  6  1  0  0  0  0
  7  6  1  1  0  0  0
  7  8  1  0  0  0  0
  7  9  1  0  0  0  0
 10  9  1  1  0  0  0
 10 11  1  0  0  0  0
 10 12  1  0  0  0  0
 11 16  1  0  0  0  0
 12 13  1  6  0  0  0
 12 14  1  0  0  0  0
 14 15  1  1  0  0  0
 14 16  1  0  0  0  0
 16 27  1  1  0  0  0
 18 19  2  0  0  0  0
 18 23  1  0  0  0  0
 19 20  1  0  0  0  0
 20 21  2  0  0  0  0
 21 22  1  0  0  0  0
 21 27  1  0  0  0  0
 22 23  2  0  0  0  0
 22 25  1  0  0  0  0
 23 24  1  0  0  0  0
 25 26  2  0  0  0  0
 26 27  1  0  0  0  0
M  END
>  <CHROM.1>
-10.70369906,-60.65614716,174.33103248,-67.44887897,-75.24637182,60.65871111
54.00425768,14.61696227,-6.16618816,8.65557208,-2.43795931,-1.38531439,-2.04471039

>  <Name>
ligand

>  <RI>
0

>  <Rbt.Current_Directory>
/home/itssahil/PROJECTS/Mol_Feturizer/Test_systems_manuscript/rnas/2ydh

>  <Rbt.Executable>
rbdock ($Id: //depot/dev/client3/rdock/2013.1/src/exe/rbdock.cxx#4 $)

>  <Rbt.Library>
libRbt.so (2013.1, Build901 2013/11/27)

>  <Rbt.Parameter_File>
/export/apps/rDock/src/rDock_2013.1_src/data/scripts/dock_solv.prm

>  <Rbt.Receptor>
prm/pocket_docking_5.prm

>  <SCORE>
-13.8187

>  <SCORE.INTER>
-11.9642

>  <SCORE.INTER.CONST>
1

>  <SCORE.INTER.POLAR>
0

>  <SCORE.INTER.ROT>
7

>  <SCORE.INTER.SOLV>
17.5215

>  <SCORE.INTER.VDW>
-22.0833

>  <SCORE.INTER.norm>
-0.443117

>  <SCORE.INTRA>
-1.85457

>  <SCORE.INTRA.DIHEDRAL>
-6.43049

>  <SCORE.INTRA.DIHEDRAL.0>
9.75037

>  <SCORE.INTRA.POLAR>
0

>  <SCORE.INTRA.POLAR.0>
0

>  <SCORE.INTRA.REPUL>
0

>  <SCORE.INTRA.REPUL.0>
0

>  <SCORE.INTRA.SOLV>
-0.626138

>  <SCORE.INTRA.SOLV.lig_0>
-48.4279

>  <SCORE.INTRA.VDW>
1.67374

>  <SCORE.INTRA.VDW.0>
-4.69037

>  <SCORE.INTRA.norm>
-0.0686878

>  <SCORE.RESTR>
0

>  <SCORE.RESTR.CAVITY>
0

>  <SCORE.RESTR.norm>
0

>  <SCORE.SYSTEM>
0

>  <SCORE.SYSTEM.CONST>
0

>  <SCORE.SYSTEM.DIHEDRAL>
0

>  <SCORE.SYSTEM.SOLV>
0

>  <SCORE.SYSTEM.norm>
0

>  <SCORE.heavy>
27

>  <SCORE.norm>
-0.511805

>  <RMSD>
1.895

$$$$
ligand
 OpenBabel02271912153D
libRbt.so/2013.1/901 2013/11/27
 27 29  0  0  0  0  0  0  0  0999 V2000
   15.8065   -6.3541   13.0962 N   0  0  0  0  0  0  0  0  0  0  0  0
   14.7193   -7.0693   12.3591 C   0  0  2  0  0  0  0  0  0  0  0  0
   13.3273   -6.6697   12.8968 C   0  0  0  0  0  0  0  0  0  0  0  0
   12.5278   -6.0437   12.1943 O   0  0  0  0  0  0  0  0  0  0  0  0
   14.9553   -8.5737   12.4417 C   0  0  0  0  0  0  0  0  0  0  0  0
   13.9195   -9.4149   11.7147 C   0  0  0  0  0  0  0  0  0  0  0  0
   13.9159   -9.1551    9.9176 S   0  0  2  0  0  0  0  0  0  0  0  0
   15.6927   -9.2550    9.5589 C   0  0  0  0  0  0  0  0  0  0  0  0
   13.5736   -7.4078    9.6536 C   0  0  0  0  0  0  0  0  0  0  0  0
   13.1456   -7.2000    8.2134 C   0  0  1  0  0  0  0  0  0  0  0  0
   12.5872   -5.9143    7.9917 O   0  0  0  0  0  0  0  0  0  0  0  0
   14.3103   -7.3467    7.2647 C   0  0  1  0  0  0  0  0  0  0  0  0
   14.5198   -8.6881    6.9282 O   0  0  0  0  0  0  0  0  0  0  0  0
   13.8345   -6.5415    6.0941 C   0  0  1  0  0  0  0  0  0  0  0  0
   13.0672   -7.3704    5.2417 O   0  0  0  0  0  0  0  0  0  0  0  0
   12.9602   -5.4580    6.7120 C   0  0  2  0  0  0  0  0  0  0  0  0
   12.9532   -6.9516   14.0500 O   0  0  0  0  0  0  0  0  0  0  0  0
   17.0914   -2.7716    8.6029 N   0  0  0  0  0  0  0  0  0  0  0  0
   16.8075   -4.1200    8.7633 C   0  0  0  0  0  0  0  0  0  0  0  0
   15.6616   -4.6785    8.2097 N   0  0  0  0  0  0  0  0  0  0  0  0
   14.8296   -3.9004    7.4938 C   0  0  0  0  0  0  0  0  0  0  0  0
   15.1128   -2.5438    7.3125 C   0  0  0  0  0  0  0  0  0  0  0  0
   16.2380   -1.9702    7.8753 C   0  0  0  0  0  0  0  0  0  0  0  0
   16.4964   -0.6816    7.7098 N   0  0  0  0  0  0  0  0  0  0  0  0
   14.1428   -2.0136    6.5595 N   0  0  0  0  0  0  0  0  0  0  0  0
   13.2599   -2.9913    6.2581 C   0  0  0  0  0  0  0  0  0  0  0  0
   13.6724   -4.1712    6.8258 N   0  0  0  0  0  0  0  0  0  0  0  0
  2  1  1  1  0  0  0
  2  3  1  0  0  0  0
  2  5  1  0  0  0  0
  3  4  1  0  0  0  0
  3 17  1  0  0  0  0
  5  6  1  0  0  0  0
  7  6  1  1  0  0  0
  7  8  1  0  0  0  0
  7  9  1  0  0  0  0
 10  9  1  1  0  0  0
 10 11  1  0  0  0  0
 10 12  1  0  0  0  0
 11 16  1  0  0  0  0
 12 13  1  6  0  0  0
 12 14  1  0  0  0  0
 14 15  1  6  0  0  0
 14 16  1  0  0  0  0
 16 27  1  1  0  0  0
 18 19  2  0  0  0  0
 18 23  1  0  0  0  0
 19 20  1  0  0  0  0
 20 21  2  0  0  0  0
 21 22  1  0  0  0  0
 21 27  1  0  0  0  0
 22 23  2  0  0  0  0
 22 25  1  0  0  0  0
 23 24  1  0  0  0  0
 25 26  2  0  0  0  0
 26 27  1  0  0  0  0
M  END
>  <CHROM.1>
113.82642718,-179.39967683,64.55070138,46.97954327,-163.10291597,167.43255755
60.11747773,14.35180168,-5.99968040,9.04178449,-1.99130801,-1.23028302,-1.15083757

>  <Name>
ligand

>  <RI>
0

>  <Rbt.Current_Directory>
/home/itssahil/PROJECTS/Mol_Feturizer/Test_systems_manuscript/rnas/2ydh

>  <Rbt.Executable>
rbdock ($Id: //depot/dev/client3/rdock/2013.1/src/exe/rbdock.cxx#4 $)

>  <Rbt.Library>
libRbt.so (2013.1, Build901 2013/11/27)

>  <Rbt.Parameter_File>
/export/apps/rDock/src/rDock_2013.1_src/data/scripts/dock_solv.prm

>  <Rbt.Receptor>
prm/pocket_docking_3.prm

>  <SCORE>
-9.33229

>  <SCORE.INTER>
-10.1158

>  <SCORE.INTER.CONST>
1

>  <SCORE.INTER.POLAR>
0

>  <SCORE.INTER.ROT>
7

>  <SCORE.INTER.SOLV>
18.9176

>  <SCORE.INTER.VDW>
-21.3164

>  <SCORE.INTER.norm>
-0.37466

>  <SCORE.INTRA>
0.783514

>  <SCORE.INTRA.DIHEDRAL>
-4.42851

>  <SCORE.INTRA.DIHEDRAL.0>
9.75037

>  <SCORE.INTRA.POLAR>
0

>  <SCORE.INTRA.POLAR.0>
0

>  <SCORE.INTRA.REPUL>
0

>  <SCORE.INTRA.REPUL.0>
0

>  <SCORE.INTRA.SOLV>
-0.51612

>  <SCORE.INTRA.SOLV.lig_0>
-48.4279

>  <SCORE.INTRA.VDW>
3.25583

>  <SCORE.INTRA.VDW.0>
-4.69037

>  <SCORE.INTRA.norm>
0.029019

>  <SCORE.RESTR>
0

>  <SCORE.RESTR.CAVITY>
0

>  <SCORE.RESTR.norm>
0

>  <SCORE.SYSTEM>
0

>  <SCORE.SYSTEM.CONST>
0

>  <SCORE.SYSTEM.DIHEDRAL>
0

>  <SCORE.SYSTEM.SOLV>
0

>  <SCORE.SYSTEM.norm>
0

>  <SCORE.heavy>
27

>  <SCORE.norm>
-0.34564

>  <RMSD>
1.987

$$$$
ligand
 OpenBabel02271912153D
libRbt.so/2013.1/901 2013/11/27
 27 29  0  0  0  0  0  0  0  0999 V2000
   13.1054   -7.4478   13.0788 N   0  0  0  0  0  0  0  0  0  0  0  0
   13.3730   -6.6035   11.8737 C   0  0  2  0  0  0  0  0  0  0  0  0
   12.0746   -6.3432   11.0780 C   0  0  0  0  0  0  0  0  0  0  0  0
   10.9679   -6.4207   11.6201 O   0  0  0  0  0  0  0  0  0  0  0  0
   14.4463   -7.2673   11.0175 C   0  0  0  0  0  0  0  0  0  0  0  0
   14.0385   -8.6036   10.4199 C   0  0  0  0  0  0  0  0  0  0  0  0
   15.3838   -9.4301    9.5233 S   0  0  2  0  0  0  0  0  0  0  0  0
   16.7174   -9.3320   10.7511 C   0  0  0  0  0  0  0  0  0  0  0  0
   15.9442   -8.2746    8.2621 C   0  0  0  0  0  0  0  0  0  0  0  0
   14.7607   -7.8642    7.4068 C   0  0  1  0  0  0  0  0  0  0  0  0
   14.0172   -6.8004    7.9811 O   0  0  0  0  0  0  0  0  0  0  0  0
   15.2011   -7.4079    6.0373 C   0  0  1  0  0  0  0  0  0  0  0  0
   15.3533   -8.4942    5.1693 O   0  0  0  0  0  0  0  0  0  0  0  0
   14.0542   -6.5288    5.6412 C   0  0  1  0  0  0  0  0  0  0  0  0
   13.0530   -7.3195    5.0291 O   0  0  0  0  0  0  0  0  0  0  0  0
   13.5480   -5.9534    6.9577 C   0  0  2  0  0  0  0  0  0  0  0  0
   12.0826   -6.0522    9.8678 O   0  0  0  0  0  0  0  0  0  0  0  0
   17.6502   -2.6670    7.4371 N   0  0  0  0  0  0  0  0  0  0  0  0
   17.6777   -4.0329    7.1958 C   0  0  0  0  0  0  0  0  0  0  0  0
   16.5001   -4.7659    7.1100 N   0  0  0  0  0  0  0  0  0  0  0  0
   15.3199   -4.1342    7.2449 C   0  0  0  0  0  0  0  0  0  0  0  0
   15.2790   -2.7558    7.4732 C   0  0  0  0  0  0  0  0  0  0  0  0
   16.4431   -2.0177    7.5821 C   0  0  0  0  0  0  0  0  0  0  0  0
   16.3994   -0.7134    7.8094 N   0  0  0  0  0  0  0  0  0  0  0  0
   13.9962   -2.3855    7.5533 N   0  0  0  0  0  0  0  0  0  0  0  0
   13.2280   -3.4837    7.3802 C   0  0  0  0  0  0  0  0  0  0  0  0
   14.0324   -4.5784    7.1826 N   0  0  0  0  0  0  0  0  0  0  0  0
  2  1  1  1  0  0  0
  2  3  1  0  0  0  0
  2  5  1  0  0  0  0
  3  4  1  0  0  0  0
  3 17  1  0  0  0  0
  5  6  1  0  0  0  0
  7  6  1  1  0  0  0
  7  8  1  0  0  0  0
  7  9  1  0  0  0  0
 10  9  1  1  0  0  0
 10 11  1  0  0  0  0
 10 12  1  0  0  0  0
 11 16  1  0  0  0  0
 12 13  1  6  0  0  0
 12 14  1  0  0  0  0
 14 15  1  1  0  0  0
 14 16  1  0  0  0  0
 16 27  1  1  0  0  0
 18 19  2  0  0  0  0
 18 23  1  0  0  0  0
 19 20  1  0  0  0  0
 20 21  2  0  0  0  0
 21 22  1  0  0  0  0
 21 27  1  0  0  0  0
 22 23  2  0  0  0  0
 22 25  1  0  0  0  0
 23 24  1  0  0  0  0
 25 26  2  0  0  0  0
 26 27  1  0  0  0  0
M  END
>  <CHROM.1>
22.99378921,64.80039300,-175.17844076,49.65733252,-55.32824756,84.05316997
60.49490210,14.61231294,-6.09523821,8.42922841,2.25481943,-1.09491614,-3.13636102

>  <Name>
ligand

>  <RI>
0

>  <Rbt.Current_Directory>
/home/itssahil/PROJECTS/Mol_Feturizer/Test_systems_manuscript/rnas/2ydh

>  <Rbt.Executable>
rbdock ($Id: //depot/dev/client3/rdock/2013.1/src/exe/rbdock.cxx#4 $)

>  <Rbt.Library>
libRbt.so (2013.1, Build901 2013/11/27)

>  <Rbt.Parameter_File>
/export/apps/rDock/src/rDock_2013.1_src/data/scripts/dock_solv.prm

>  <Rbt.Receptor>
prm/pocket_docking_4.prm

>  <SCORE>
-13.6264

>  <SCORE.INTER>
-13.2289

>  <SCORE.INTER.CONST>
1

>  <SCORE.INTER.POLAR>
0

>  <SCORE.INTER.ROT>
7

>  <SCORE.INTER.SOLV>
16.2005

>  <SCORE.INTER.VDW>
-22.4861

>  <SCORE.INTER.norm>
-0.489959

>  <SCORE.INTRA>
-0.441944

>  <SCORE.INTRA.DIHEDRAL>
-4.26349

>  <SCORE.INTRA.DIHEDRAL.0>
9.75037

>  <SCORE.INTRA.POLAR>
0

>  <SCORE.INTRA.POLAR.0>
0

>  <SCORE.INTRA.REPUL>
0

>  <SCORE.INTRA.REPUL.0>
0

>  <SCORE.INTRA.SOLV>
-0.496872

>  <SCORE.INTRA.SOLV.lig_0>
-48.4279

>  <SCORE.INTRA.VDW>
1.93824

>  <SCORE.INTRA.VDW.0>
-4.69037

>  <SCORE.INTRA.norm>
-0.0163683

>  <SCORE.RESTR>
0.044394

>  <SCORE.RESTR.CAVITY>
0.044394

>  <SCORE.RESTR.norm>
0.00164422

>  <SCORE.SYSTEM>
0

>  <SCORE.SYSTEM.CONST>
0

>  <SCORE.SYSTEM.DIHEDRAL>
0

>  <SCORE.SYSTEM.SOLV>
0

>  <SCORE.SYSTEM.norm>
0

>  <SCORE.heavy>
27

>  <SCORE.norm>
-0.504683

>  <RMSD>
2.117

$$$$
ligand
 OpenBabel02271912153D
libRbt.so/2013.1/901 2013/11/27
 27 29  0  0  0  0  0  0  0  0999 V2000
   12.0331   -6.9001   11.4681 N   0  0  0  0  0  0  0  0  0  0  0  0
   13.1331   -6.0346   11.9950 C   0  0  2  0  0  0  0  0  0  0  0  0
   13.4598   -4.8899   11.0103 C   0  0  0  0  0  0  0  0  0  0  0  0
   13.7947   -3.7736   11.4184 O   0  0  0  0  0  0  0  0  0  0  0  0
   14.3547   -6.8955   12.2984 C   0  0  0  0  0  0  0  0  0  0  0  0
   15.0534   -7.4533   11.0697 C   0  0  0  0  0  0  0  0  0  0  0  0
   13.9734   -8.4817   10.0338 S   0  0  2  0  0  0  0  0  0  0  0  0
   14.0603  -10.0627   10.9217 C   0  0  0  0  0  0  0  0  0  0  0  0
   14.8959   -8.8402    8.5304 C   0  0  0  0  0  0  0  0  0  0  0  0
   14.2433   -8.1195    7.3662 C   0  0  1  0  0  0  0  0  0  0  0  0
   13.9859   -6.7525    7.6478 O   0  0  0  0  0  0  0  0  0  0  0  0
   15.1128   -8.1617    6.1333 C   0  0  1  0  0  0  0  0  0  0  0  0
   14.9104   -9.3446    5.4147 O   0  0  0  0  0  0  0  0  0  0  0  0
   14.6182   -6.9598    5.3878 C   0  0  1  0  0  0  0  0  0  0  0  0
   13.5106   -7.3320    4.5897 O   0  0  0  0  0  0  0  0  0  0  0  0
   14.1861   -5.9900    6.4801 C   0  0  2  0  0  0  0  0  0  0  0  0
   13.3963   -5.0354    9.7758 O   0  0  0  0  0  0  0  0  0  0  0  0
   15.3644   -1.2787    8.5475 N   0  0  0  0  0  0  0  0  0  0  0  0
   14.1410   -1.9328    8.5625 C   0  0  0  0  0  0  0  0  0  0  0  0
   13.9882   -3.1739    7.9561 N   0  0  0  0  0  0  0  0  0  0  0  0
   15.0489   -3.7527    7.3644 C   0  0  0  0  0  0  0  0  0  0  0  0
   16.2902   -3.1104    7.3560 C   0  0  0  0  0  0  0  0  0  0  0  0
   16.4516   -1.8660    7.9368 C   0  0  0  0  0  0  0  0  0  0  0  0
   17.6274   -1.2564    7.9168 N   0  0  0  0  0  0  0  0  0  0  0  0
   17.1633   -3.9013    6.7226 N   0  0  0  0  0  0  0  0  0  0  0  0
   16.5143   -5.0211    6.3343 C   0  0  0  0  0  0  0  0  0  0  0  0
   15.2013   -4.9490    6.7283 N   0  0  0  0  0  0  0  0  0  0  0  0
  2  1  1  6  0  0  0
  2  3  1  0  0  0  0
  2  5  1  0  0  0  0
  3  4  1  0  0  0  0
  3 17  1  0  0  0  0
  5  6  1  0  0  0  0
  7  6  1  1  0  0  0
  7  8  1  0  0  0  0
  7  9  1  0  0  0  0
 10  9  1  1  0  0  0
 10 11  1  0  0  0  0
 10 12  1  0  0  0  0
 11 16  1  0  0  0  0
 12 13  1  6  0  0  0
 12 14  1  0  0  0  0
 14 15  1  6  0  0  0
 14 16  1  0  0  0  0
 16 27  1  1  0  0  0
 18 19  2  0  0  0  0
 18 23  1  0  0  0  0
 19 20  1  0  0  0  0
 20 21  2  0  0  0  0
 21 22  1  0  0  0  0
 21 27  1  0  0  0  0
 22 23  2  0  0  0  0
 22 25  1  0  0  0  0
 23 24  1  0  0  0  0
 25 26  2  0  0  0  0
 26 27  1  0  0  0  0
M  END
>  <CHROM.1>
144.84921688,69.75008202,-58.68708375,-81.89136761,-111.48669751,48.77059041
-79.13496934,14.61753712,-5.81769928,8.49352951,2.59724792,-1.22262073,-2.45173580

>  <Name>
ligand

>  <RI>
0

>  <Rbt.Current_Directory>
/home/itssahil/PROJECTS/Mol_Feturizer/Test_systems_manuscript/rnas/2ydh

>  <Rbt.Executable>
rbdock ($Id: //depot/dev/client3/rdock/2013.1/src/exe/rbdock.cxx#4 $)

>  <Rbt.Library>
libRbt.so (2013.1, Build901 2013/11/27)

>  <Rbt.Parameter_File>
/export/apps/rDock/src/rDock_2013.1_src/data/scripts/dock_solv.prm

>  <Rbt.Receptor>
prm/pocket_docking_2.prm

>  <SCORE>
-8.89843

>  <SCORE.INTER>
-9.81921

>  <SCORE.INTER.CONST>
1

>  <SCORE.INTER.POLAR>
0

>  <SCORE.INTER.ROT>
7

>  <SCORE.INTER.SOLV>
19.4903

>  <SCORE.INTER.VDW>
-21.3096

>  <SCORE.INTER.norm>
-0.363675

>  <SCORE.INTRA>
0.883391

>  <SCORE.INTRA.DIHEDRAL>
-1.53968

>  <SCORE.INTRA.DIHEDRAL.0>
9.75037

>  <SCORE.INTRA.POLAR>
0

>  <SCORE.INTRA.POLAR.0>
0

>  <SCORE.INTRA.REPUL>
0

>  <SCORE.INTRA.REPUL.0>
0

>  <SCORE.INTRA.SOLV>
1.35957

>  <SCORE.INTRA.SOLV.lig_0>
-48.4279

>  <SCORE.INTRA.VDW>
0.973446

>  <SCORE.INTRA.VDW.0>
-4.69037

>  <SCORE.INTRA.norm>
0.0327182

>  <SCORE.RESTR>
0.0373963

>  <SCORE.RESTR.CAVITY>
0.0373963

>  <SCORE.RESTR.norm>
0.00138505

>  <SCORE.SYSTEM>
0

>  <SCORE.SYSTEM.CONST>
0

>  <SCORE.SYSTEM.DIHEDRAL>
0

>  <SCORE.SYSTEM.SOLV>
0

>  <SCORE.SYSTEM.norm>
0

>  <SCORE.heavy>
27

>  <SCORE.norm>
-0.329571

>  <RMSD>
2.127

$$$$
ligand
 OpenBabel02271912153D
libRbt.so/2013.1/901 2013/11/27
 27 29  0  0  0  0  0  0  0  0999 V2000
   12.3137   -7.8416   14.5328 N   0  0  0  0  0  0  0  0  0  0  0  0
   12.9513   -7.6013   13.2015 C   0  0  2  0  0  0  0  0  0  0  0  0
   12.0627   -6.7017   12.3139 C   0  0  0  0  0  0  0  0  0  0  0  0
   10.8757   -6.9764   12.1136 O   0  0  0  0  0  0  0  0  0  0  0  0
   13.2569   -8.9393   12.5366 C   0  0  0  0  0  0  0  0  0  0  0  0
   14.1199   -8.8409   11.2898 C   0  0  0  0  0  0  0  0  0  0  0  0
   13.2779   -8.0399    9.8947 S   0  0  2  0  0  0  0  0  0  0  0  0
   11.9702   -9.2509    9.5498 C   0  0  0  0  0  0  0  0  0  0  0  0
   14.3574   -8.2311    8.4671 C   0  0  0  0  0  0  0  0  0  0  0  0
   13.6223   -7.7638    7.2253 C   0  0  1  0  0  0  0  0  0  0  0  0
   12.9536   -6.5275    7.4217 O   0  0  0  0  0  0  0  0  0  0  0  0
   14.5661   -7.5771    6.0625 C   0  0  1  0  0  0  0  0  0  0  0  0
   14.7794   -8.7841    5.3883 O   0  0  0  0  0  0  0  0  0  0  0  0
   13.8057   -6.5935    5.2263 C   0  0  1  0  0  0  0  0  0  0  0  0
   12.9262   -7.2955    4.3683 O   0  0  0  0  0  0  0  0  0  0  0  0
   13.0189   -5.7684    6.2365 C   0  0  2  0  0  0  0  0  0  0  0  0
   12.4973   -5.6742   11.7618 O   0  0  0  0  0  0  0  0  0  0  0  0
   17.3325   -3.1244    7.7401 N   0  0  0  0  0  0  0  0  0  0  0  0
   17.1776   -4.4969    7.6106 C   0  0  0  0  0  0  0  0  0  0  0  0
   15.9629   -5.0434    7.2142 N   0  0  0  0  0  0  0  0  0  0  0  0
   14.9322   -4.2248    6.9354 C   0  0  0  0  0  0  0  0  0  0  0  0
   15.0806   -2.8395    7.0475 C   0  0  0  0  0  0  0  0  0  0  0  0
   16.2769   -2.2831    7.4613 C   0  0  0  0  0  0  0  0  0  0  0  0
   16.4093   -0.9702    7.5765 N   0  0  0  0  0  0  0  0  0  0  0  0
   13.9217   -2.2679    6.7023 N   0  0  0  0  0  0  0  0  0  0  0  0
   13.0494   -3.2464    6.3739 C   0  0  0  0  0  0  0  0  0  0  0  0
   13.6606   -4.4682    6.5080 N   0  0  0  0  0  0  0  0  0  0  0  0
  2  1  1  1  0  0  0
  2  3  1  0  0  0  0
  2  5  1  0  0  0  0
  3  4  1  0  0  0  0
  3 17  1  0  0  0  0
  5  6  1  0  0  0  0
  7  6  1  1  0  0  0
  7  8  1  0  0  0  0
  7  9  1  0  0  0  0
 10  9  1  1  0  0  0
 10 11  1  0  0  0  0
 10 12  1  0  0  0  0
 11 16  1  0  0  0  0
 12 13  1  6  0  0  0
 12 14  1  0  0  0  0
 14 15  1  6  0  0  0
 14 16  1  0  0  0  0
 16 27  1  1  0  0  0
 18 19  2  0  0  0  0
 18 23  1  0  0  0  0
 19 20  1  0  0  0  0
 20 21  2  0  0  0  0
 21 22  1  0  0  0  0
 21 27  1  0  0  0  0
 22 23  2  0  0  0  0
 22 25  1  0  0  0  0
 23 24  1  0  0  0  0
 25 26  2  0  0  0  0
 26 27  1  0  0  0  0
M  END
>  <CHROM.1>
-52.43692435,-169.96413729,-68.29371462,-65.79796759,171.74651291,45.70223701
62.92877094,13.88233847,-6.15661251,8.56184757,-2.64289097,-1.16060218,-1.97613468

>  <Name>
ligand

>  <RI>
0

>  <Rbt.Current_Directory>
/home/itssahil/PROJECTS/Mol_Feturizer/Test_systems_manuscript/rnas/2ydh

>  <Rbt.Executable>
rbdock ($Id: //depot/dev/client3/rdock/2013.1/src/exe/rbdock.cxx#4 $)

>  <Rbt.Library>
libRbt.so (2013.1, Build901 2013/11/27)

>  <Rbt.Parameter_File>
/export/apps/rDock/src/rDock_2013.1_src/data/scripts/dock_solv.prm

>  <Rbt.Receptor>
prm/pocket_docking_5.prm

>  <SCORE>
-16.2825

>  <SCORE.INTER>
-14.3623

>  <SCORE.INTER.CONST>
1

>  <SCORE.INTER.POLAR>
0

>  <SCORE.INTER.ROT>
7

>  <SCORE.INTER.SOLV>
17.1218

>  <SCORE.INTER.VDW>
-23.5488

>  <SCORE.INTER.norm>
-0.531935

>  <SCORE.INTRA>
-1.92024

>  <SCORE.INTRA.DIHEDRAL>
-5.40182

>  <SCORE.INTRA.DIHEDRAL.0>
9.75037

>  <SCORE.INTRA.POLAR>
0

>  <SCORE.INTRA.POLAR.0>
0

>  <SCORE.INTRA.REPUL>
0

>  <SCORE.INTRA.REPUL.0>
0

>  <SCORE.INTRA.SOLV>
-1.32704

>  <SCORE.INTRA.SOLV.lig_0>
-48.4279

>  <SCORE.INTRA.VDW>
1.44418

>  <SCORE.INTRA.VDW.0>
-4.69037

>  <SCORE.INTRA.norm>
-0.0711201

>  <SCORE.RESTR>
0

>  <SCORE.RESTR.CAVITY>
0

>  <SCORE.RESTR.norm>
0

>  <SCORE.SYSTEM>
0

>  <SCORE.SYSTEM.CONST>
0

>  <SCORE.SYSTEM.DIHEDRAL>
0

>  <SCORE.SYSTEM.SOLV>
0

>  <SCORE.SYSTEM.norm>
0

>  <SCORE.heavy>
27

>  <SCORE.norm>
-0.603055

>  <RMSD>
2.222

$$$$
ligand
 OpenBabel02271912153D
libRbt.so/2013.1/901 2013/11/27
 27 29  0  0  0  0  0  0  0  0999 V2000
   14.2751   -9.3060   13.7771 N   0  0  0  0  0  0  0  0  0  0  0  0
   14.3259   -8.2296   12.7400 C   0  0  2  0  0  0  0  0  0  0  0  0
   13.9747   -6.8540   13.3491 C   0  0  0  0  0  0  0  0  0  0  0  0
   14.0857   -5.8168   12.6884 O   0  0  0  0  0  0  0  0  0  0  0  0
   13.4030   -8.5963   11.5827 C   0  0  0  0  0  0  0  0  0  0  0  0
   13.9038   -9.7389   10.7151 C   0  0  0  0  0  0  0  0  0  0  0  0
   15.3765   -9.3108    9.7431 S   0  0  2  0  0  0  0  0  0  0  0  0
   16.6666   -9.4322   11.0145 C   0  0  0  0  0  0  0  0  0  0  0  0
   15.2987   -7.5365    9.4504 C   0  0  0  0  0  0  0  0  0  0  0  0
   14.3272   -7.2644    8.3178 C   0  0  1  0  0  0  0  0  0  0  0  0
   13.6459   -6.0288    8.4702 O   0  0  0  0  0  0  0  0  0  0  0  0
   15.0323   -7.2199    6.9842 C   0  0  1  0  0  0  0  0  0  0  0  0
   15.1778   -8.5038    6.4484 O   0  0  0  0  0  0  0  0  0  0  0  0
   14.0848   -6.3807    6.1824 C   0  0  1  0  0  0  0  0  0  0  0  0
   13.0988   -7.2159    5.6058 O   0  0  0  0  0  0  0  0  0  0  0  0
   13.4564   -5.4413    7.2037 C   0  0  2  0  0  0  0  0  0  0  0  0
   13.5739   -6.7276   14.5208 O   0  0  0  0  0  0  0  0  0  0  0  0
   17.2273   -2.2009    8.9755 N   0  0  0  0  0  0  0  0  0  0  0  0
   17.0169   -3.5289    9.3169 C   0  0  0  0  0  0  0  0  0  0  0  0
   15.9616   -4.2479    8.7684 N   0  0  0  0  0  0  0  0  0  0  0  0
   15.1474   -3.6485    7.8807 C   0  0  0  0  0  0  0  0  0  0  0  0
   15.3584   -2.3154    7.5174 C   0  0  0  0  0  0  0  0  0  0  0  0
   16.3914   -1.5818    8.0712 C   0  0  0  0  0  0  0  0  0  0  0  0
   16.5807   -0.3154    7.7319 N   0  0  0  0  0  0  0  0  0  0  0  0
   14.4261   -1.9764    6.6202 N   0  0  0  0  0  0  0  0  0  0  0  0
   13.6369   -3.0520    6.4043 C   0  0  0  0  0  0  0  0  0  0  0  0
   14.0725   -4.1013    7.1747 N   0  0  0  0  0  0  0  0  0  0  0  0
  2  1  1  1  0  0  0
  2  3  1  0  0  0  0
  2  5  1  0  0  0  0
  3  4  1  0  0  0  0
  3 17  1  0  0  0  0
  5  6  1  0  0  0  0
  7  6  1  1  0  0  0
  7  8  1  0  0  0  0
  7  9  1  0  0  0  0
 10  9  1  1  0  0  0
 10 11  1  0  0  0  0
 10 12  1  0  0  0  0
 11 16  1  0  0  0  0
 12 13  1  6  0  0  0
 12 14  1  0  0  0  0
 14 15  1  1  0  0  0
 14 16  1  0  0  0  0
 16 27  1  1  0  0  0
 18 19  2  0  0  0  0
 18 23  1  0  0  0  0
 19 20  1  0  0  0  0
 20 21  2  0  0  0  0
 21 22  1  0  0  0  0
 21 27  1  0  0  0  0
 22 23  2  0  0  0  0
 22 25  1  0  0  0  0
 23 24  1  0  0  0  0
 25 26  2  0  0  0  0
 26 27  1  0  0  0  0
M  END
>  <CHROM.1>
172.92602069,-71.52248595,-68.56641181,77.91696041,-79.17371332,147.52123408
29.08175452,14.79936847,-6.05501190,9.22304013,-2.18618756,-1.37035916,-1.27947949

>  <Name>
ligand

>  <RI>
0

>  <Rbt.Current_Directory>
/home/itssahil/PROJECTS/Mol_Feturizer/Test_systems_manuscript/rnas/2ydh

>  <Rbt.Executable>
rbdock ($Id: //depot/dev/client3/rdock/2013.1/src/exe/rbdock.cxx#4 $)

>  <Rbt.Library>
libRbt.so (2013.1, Build901 2013/11/27)

>  <Rbt.Parameter_File>
/export/apps/rDock/src/rDock_2013.1_src/data/scripts/dock_solv.prm

>  <Rbt.Receptor>
prm/pocket_docking_7.prm

>  <SCORE>
-8.1435

>  <SCORE.INTER>
-9.74278

>  <SCORE.INTER.CONST>
1

>  <SCORE.INTER.POLAR>
0

>  <SCORE.INTER.ROT>
7

>  <SCORE.INTER.SOLV>
16.4693

>  <SCORE.INTER.VDW>
-20.2516

>  <SCORE.INTER.norm>
-0.360844

>  <SCORE.INTRA>
1.59928

>  <SCORE.INTRA.DIHEDRAL>
-0.883763

>  <SCORE.INTRA.DIHEDRAL.0>
9.75037

>  <SCORE.INTRA.POLAR>
0

>  <SCORE.INTRA.POLAR.0>
0

>  <SCORE.INTRA.REPUL>
0

>  <SCORE.INTRA.REPUL.0>
0

>  <SCORE.INTRA.SOLV>
0.504276

>  <SCORE.INTRA.SOLV.lig_0>
-48.4279

>  <SCORE.INTRA.VDW>
1.78902

>  <SCORE.INTRA.VDW.0>
-4.69037

>  <SCORE.INTRA.norm>
0.0592326

>  <SCORE.RESTR>
0

>  <SCORE.RESTR.CAVITY>
0

>  <SCORE.RESTR.norm>
0

>  <SCORE.SYSTEM>
0

>  <SCORE.SYSTEM.CONST>
0

>  <SCORE.SYSTEM.DIHEDRAL>
0

>  <SCORE.SYSTEM.SOLV>
0

>  <SCORE.SYSTEM.norm>
0

>  <SCORE.heavy>
27

>  <SCORE.norm>
-0.301611

>  <RMSD>
2.244

$$$$
ligand
 OpenBabel02271912153D
libRbt.so/2013.1/901 2013/11/27
 27 29  0  0  0  0  0  0  0  0999 V2000
   15.2378   -6.6576   14.0906 N   0  0  0  0  0  0  0  0  0  0  0  0
   14.4409   -7.9228   14.0619 C   0  0  2  0  0  0  0  0  0  0  0  0
   15.3058   -9.1340   14.4761 C   0  0  0  0  0  0  0  0  0  0  0  0
   16.5348   -9.1098   14.3596 O   0  0  0  0  0  0  0  0  0  0  0  0
   13.8265   -8.1039   12.6779 C   0  0  0  0  0  0  0  0  0  0  0  0
   12.8158   -7.0366   12.2926 C   0  0  0  0  0  0  0  0  0  0  0  0
   12.1240   -7.2691   10.6300 S   0  0  2  0  0  0  0  0  0  0  0  0
   11.4669   -8.9555   10.7710 C   0  0  0  0  0  0  0  0  0  0  0  0
   13.5230   -7.4990    9.5210 C   0  0  0  0  0  0  0  0  0  0  0  0
   13.0708   -7.2448    8.0956 C   0  0  1  0  0  0  0  0  0  0  0  0
   12.5321   -5.9437    7.9194 O   0  0  0  0  0  0  0  0  0  0  0  0
   14.2138   -7.3868    7.1202 C   0  0  1  0  0  0  0  0  0  0  0  0
   14.3918   -8.7222    6.7440 O   0  0  0  0  0  0  0  0  0  0  0  0
   13.7302   -6.5419    5.9812 C   0  0  1  0  0  0  0  0  0  0  0  0
   12.9312   -7.3336    5.1226 O   0  0  0  0  0  0  0  0  0  0  0  0
   12.8884   -5.4598    6.6451 C   0  0  2  0  0  0  0  0  0  0  0  0
   14.8106  -10.1795   14.9354 O   0  0  0  0  0  0  0  0  0  0  0  0
   17.1140   -2.9039    8.5079 N   0  0  0  0  0  0  0  0  0  0  0  0
   16.8099   -4.2514    8.6353 C   0  0  0  0  0  0  0  0  0  0  0  0
   15.6405   -4.7730    8.0951 N   0  0  0  0  0  0  0  0  0  0  0  0
   14.8048   -3.9593    7.4244 C   0  0  0  0  0  0  0  0  0  0  0  0
   15.1079   -2.6029    7.2763 C   0  0  0  0  0  0  0  0  0  0  0  0
   16.2572   -2.0662    7.8268 C   0  0  0  0  0  0  0  0  0  0  0  0
   16.5345   -0.7779    7.6931 N   0  0  0  0  0  0  0  0  0  0  0  0
   14.1289   -2.0334    6.5648 N   0  0  0  0  0  0  0  0  0  0  0  0
   13.2211   -2.9861    6.2573 C   0  0  0  0  0  0  0  0  0  0  0  0
   13.6264   -4.1896    6.7787 N   0  0  0  0  0  0  0  0  0  0  0  0
  2  1  1  6  0  0  0
  2  3  1  0  0  0  0
  2  5  1  0  0  0  0
  3  4  1  0  0  0  0
  3 17  1  0  0  0  0
  5  6  1  0  0  0  0
  7  6  1  1  0  0  0
  7  8  1  0  0  0  0
  7  9  1  0  0  0  0
 10  9  1  1  0  0  0
 10 11  1  0  0  0  0
 10 12  1  0  0  0  0
 11 16  1  0  0  0  0
 12 13  1  6  0  0  0
 12 14  1  0  0  0  0
 14 15  1  6  0  0  0
 14 16  1  0  0  0  0
 16 27  1  1  0  0  0
 18 19  2  0  0  0  0
 18 23  1  0  0  0  0
 19 20  1  0  0  0  0
 20 21  2  0  0  0  0
 21 22  1  0  0  0  0
 21 27  1  0  0  0  0
 22 23  2  0  0  0  0
 22 25  1  0  0  0  0
 23 24  1  0  0  0  0
 25 26  2  0  0  0  0
 26 27  1  0  0  0  0
M  END
>  <CHROM.1>
-23.78777280,-64.24884209,179.11645807,55.97675363,-161.57127750,58.16114571
60.49788259,14.20455036,-6.13475480,9.38910104,-1.63128929,-0.89518137,-0.97486151

>  <Name>
ligand

>  <RI>
0

>  <Rbt.Current_Directory>
/home/itssahil/PROJECTS/Mol_Feturizer/Test_systems_manuscript/rnas/2ydh

>  <Rbt.Executable>
rbdock ($Id: //depot/dev/client3/rdock/2013.1/src/exe/rbdock.cxx#4 $)

>  <Rbt.Library>
libRbt.so (2013.1, Build901 2013/11/27)

>  <Rbt.Parameter_File>
/export/apps/rDock/src/rDock_2013.1_src/data/scripts/dock_solv.prm

>  <Rbt.Receptor>
prm/pocket_docking_6.prm

>  <SCORE>
-13.326

>  <SCORE.INTER>
-12.7945

>  <SCORE.INTER.CONST>
1

>  <SCORE.INTER.POLAR>
0

>  <SCORE.INTER.ROT>
7

>  <SCORE.INTER.SOLV>
20.0503

>  <SCORE.INTER.VDW>
-23.4798

>  <SCORE.INTER.norm>
-0.473871

>  <SCORE.INTRA>
-0.531482

>  <SCORE.INTRA.DIHEDRAL>
-4.88949

>  <SCORE.INTRA.DIHEDRAL.0>
9.75037

>  <SCORE.INTRA.POLAR>
0

>  <SCORE.INTRA.POLAR.0>
0

>  <SCORE.INTRA.REPUL>
0

>  <SCORE.INTRA.REPUL.0>
0

>  <SCORE.INTRA.SOLV>
-0.851318

>  <SCORE.INTRA.SOLV.lig_0>
-48.4279

>  <SCORE.INTRA.VDW>
2.33892

>  <SCORE.INTRA.VDW.0>
-4.69037

>  <SCORE.INTRA.norm>
-0.0196845

>  <SCORE.RESTR>
0

>  <SCORE.RESTR.CAVITY>
0

>  <SCORE.RESTR.norm>
0

>  <SCORE.SYSTEM>
0

>  <SCORE.SYSTEM.CONST>
0

>  <SCORE.SYSTEM.DIHEDRAL>
0

>  <SCORE.SYSTEM.SOLV>
0

>  <SCORE.SYSTEM.norm>
0

>  <SCORE.heavy>
27

>  <SCORE.norm>
-0.493556

>  <RMSD>
2.475

$$$$
ligand
 OpenBabel02271912153D
libRbt.so/2013.1/901 2013/11/27
 27 29  0  0  0  0  0  0  0  0999 V2000
   12.4272   -7.2913   12.4669 N   0  0  0  0  0  0  0  0  0  0  0  0
   11.9018   -7.4363   11.0742 C   0  0  2  0  0  0  0  0  0  0  0  0
   11.7759   -8.9247   10.6798 C   0  0  0  0  0  0  0  0  0  0  0  0
   12.0722   -9.8224   11.4742 O   0  0  0  0  0  0  0  0  0  0  0  0
   12.7959   -6.6621   10.1116 C   0  0  0  0  0  0  0  0  0  0  0  0
   14.2406   -7.1321   10.0771 C   0  0  0  0  0  0  0  0  0  0  0  0
   14.4387   -8.7942    9.3734 S   0  0  2  0  0  0  0  0  0  0  0  0
   15.8077   -9.4272   10.3836 C   0  0  0  0  0  0  0  0  0  0  0  0
   15.2210   -8.5798    7.7665 C   0  0  0  0  0  0  0  0  0  0  0  0
   14.1796   -8.1110    6.7683 C   0  0  1  0  0  0  0  0  0  0  0  0
   13.4285   -7.0050    7.2444 O   0  0  0  0  0  0  0  0  0  0  0  0
   14.8144   -7.6877    5.4661 C   0  0  1  0  0  0  0  0  0  0  0  0
   15.0158   -8.7860    4.6236 O   0  0  0  0  0  0  0  0  0  0  0  0
   13.7766   -6.7502    4.9284 C   0  0  1  0  0  0  0  0  0  0  0  0
   12.8195   -7.4892    4.1935 O   0  0  0  0  0  0  0  0  0  0  0  0
   13.1398   -6.1401    6.1704 C   0  0  2  0  0  0  0  0  0  0  0  0
   11.3804   -9.2842    9.5556 O   0  0  0  0  0  0  0  0  0  0  0  0
   17.2337   -3.1387    7.6160 N   0  0  0  0  0  0  0  0  0  0  0  0
   17.2030   -4.5164    7.4565 C   0  0  0  0  0  0  0  0  0  0  0  0
   16.0325   -5.1651    7.0813 N   0  0  0  0  0  0  0  0  0  0  0  0
   14.9222   -4.4404    6.8529 C   0  0  0  0  0  0  0  0  0  0  0  0
   14.9448   -3.0502    6.9956 C   0  0  0  0  0  0  0  0  0  0  0  0
   16.0965   -2.3937    7.3889 C   0  0  0  0  0  0  0  0  0  0  0  0
   16.1100   -1.0771    7.5334 N   0  0  0  0  0  0  0  0  0  0  0  0
   13.7277   -2.5818    6.6983 N   0  0  0  0  0  0  0  0  0  0  0  0
   12.9404   -3.6300    6.3704 C   0  0  0  0  0  0  0  0  0  0  0  0
   13.6662   -4.7920    6.4560 N   0  0  0  0  0  0  0  0  0  0  0  0
  2  1  1  1  0  0  0
  2  3  1  0  0  0  0
  2  5  1  0  0  0  0
  3  4  1  0  0  0  0
  3 17  1  0  0  0  0
  5  6  1  0  0  0  0
  7  6  1  1  0  0  0
  7  8  1  0  0  0  0
  7  9  1  0  0  0  0
 10  9  1  1  0  0  0
 10 11  1  0  0  0  0
 10 12  1  0  0  0  0
 11 16  1  0  0  0  0
 12 13  1  6  0  0  0
 12 14  1  0  0  0  0
 14 15  1  1  0  0  0
 14 16  1  0  0  0  0
 16 27  1  1  0  0  0
 18 19  2  0  0  0  0
 18 23  1  0  0  0  0
 19 20  1  0  0  0  0
 20 21  2  0  0  0  0
 21 22  1  0  0  0  0
 21 27  1  0  0  0  0
 22 23  2  0  0  0  0
 22 25  1  0  0  0  0
 23 24  1  0  0  0  0
 25 26  2  0  0  0  0
 26 27  1  0  0  0  0
M  END
>  <CHROM.1>
0.96498546,60.63587519,67.47207393,-144.94209917,-77.54668722,49.96084330
51.03319196,14.13133394,-6.52339956,7.96625164,-2.96531794,-1.21095006,-1.99991212

>  <Name>
ligand

>  <RI>
0

>  <Rbt.Current_Directory>
/home/itssahil/PROJECTS/Mol_Feturizer/Test_systems_manuscript/rnas/2ydh

>  <Rbt.Executable>
rbdock ($Id: //depot/dev/client3/rdock/2013.1/src/exe/rbdock.cxx#4 $)

>  <Rbt.Library>
libRbt.so (2013.1, Build901 2013/11/27)

>  <Rbt.Parameter_File>
/export/apps/rDock/src/rDock_2013.1_src/data/scripts/dock_solv.prm

>  <Rbt.Receptor>
prm/pocket_docking_3.prm

>  <SCORE>
-17.3618

>  <SCORE.INTER>
-16.7532

>  <SCORE.INTER.CONST>
1

>  <SCORE.INTER.POLAR>
0

>  <SCORE.INTER.ROT>
7

>  <SCORE.INTER.SOLV>
17.1647

>  <SCORE.INTER.VDW>
-25.157

>  <SCORE.INTER.norm>
-0.620488

>  <SCORE.INTRA>
-0.608629

>  <SCORE.INTRA.DIHEDRAL>
-2.30041

>  <SCORE.INTRA.DIHEDRAL.0>
9.75037

>  <SCORE.INTRA.POLAR>
0

>  <SCORE.INTRA.POLAR.0>
0

>  <SCORE.INTRA.REPUL>
0

>  <SCORE.INTRA.REPUL.0>
0

>  <SCORE.INTRA.SOLV>
0.254576

>  <SCORE.INTRA.SOLV.lig_0>
-48.4279

>  <SCORE.INTRA.VDW>
0.414289

>  <SCORE.INTRA.VDW.0>
-4.69037

>  <SCORE.INTRA.norm>
-0.0225418

>  <SCORE.RESTR>
0

>  <SCORE.RESTR.CAVITY>
0

>  <SCORE.RESTR.norm>
0

>  <SCORE.SYSTEM>
0

>  <SCORE.SYSTEM.CONST>
0

>  <SCORE.SYSTEM.DIHEDRAL>
0

>  <SCORE.SYSTEM.SOLV>
0

>  <SCORE.SYSTEM.norm>
0

>  <SCORE.heavy>
27

>  <SCORE.norm>
-0.64303

>  <RMSD>
2.529

$$$$
ligand
 OpenBabel02271912153D
libRbt.so/2013.1/901 2013/11/27
 27 29  0  0  0  0  0  0  0  0999 V2000
   11.8239   -9.5534   12.1223 N   0  0  0  0  0  0  0  0  0  0  0  0
   12.1599   -8.1501   12.5155 C   0  0  2  0  0  0  0  0  0  0  0  0
   11.3477   -7.7102   13.7539 C   0  0  0  0  0  0  0  0  0  0  0  0
   10.1169   -7.6214   13.7108 O   0  0  0  0  0  0  0  0  0  0  0  0
   11.9376   -7.2228   11.3254 C   0  0  0  0  0  0  0  0  0  0  0  0
   13.0927   -7.1753   10.3392 C   0  0  0  0  0  0  0  0  0  0  0  0
   13.4452   -8.7807    9.5677 S   0  0  2  0  0  0  0  0  0  0  0  0
   14.5439   -9.5182   10.8104 C   0  0  0  0  0  0  0  0  0  0  0  0
   14.5768   -8.4568    8.2059 C   0  0  0  0  0  0  0  0  0  0  0  0
   13.7834   -7.9663    7.0098 C   0  0  1  0  0  0  0  0  0  0  0  0
   13.0472   -6.7862    7.2920 O   0  0  0  0  0  0  0  0  0  0  0  0
   14.6841   -7.6571    5.8390 C   0  0  1  0  0  0  0  0  0  0  0  0
   14.9519   -8.8089    5.0917 O   0  0  0  0  0  0  0  0  0  0  0  0
   13.8450   -6.6763    5.0780 C   0  0  1  0  0  0  0  0  0  0  0  0
   12.9874   -7.3814    4.2008 O   0  0  0  0  0  0  0  0  0  0  0  0
   13.0366   -5.9591    6.1515 C   0  0  2  0  0  0  0  0  0  0  0  0
   11.8891   -7.4232   14.8373 O   0  0  0  0  0  0  0  0  0  0  0  0
   17.2763   -3.1124    7.4854 N   0  0  0  0  0  0  0  0  0  0  0  0
   17.2094   -4.4765    7.2417 C   0  0  0  0  0  0  0  0  0  0  0  0
   16.0038   -5.0839    6.9115 N   0  0  0  0  0  0  0  0  0  0  0  0
   14.8933   -4.3310    6.8099 C   0  0  0  0  0  0  0  0  0  0  0  0
   14.9511   -2.9533    7.0382 C   0  0  0  0  0  0  0  0  0  0  0  0
   16.1395   -2.3392    7.3883 C   0  0  0  0  0  0  0  0  0  0  0  0
   16.1870   -1.0349    7.6144 N   0  0  0  0  0  0  0  0  0  0  0  0
   13.7246   -2.4504    6.8596 N   0  0  0  0  0  0  0  0  0  0  0  0
   12.8972   -3.4646    6.5236 C   0  0  0  0  0  0  0  0  0  0  0  0
   13.6061   -4.6394    6.4831 N   0  0  0  0  0  0  0  0  0  0  0  0
  2  1  1  6  0  0  0
  2  3  1  0  0  0  0
  2  5  1  0  0  0  0
  3  4  1  0  0  0  0
  3 17  1  0  0  0  0
  5  6  1  0  0  0  0
  7  6  1  1  0  0  0
  7  8  1  0  0  0  0
  7  9  1  0  0  0  0
 10  9  1  1  0  0  0
 10 11  1  0  0  0  0
 10 12  1  0  0  0  0
 11 16  1  0  0  0  0
 12 13  1  6  0  0  0
 12 14  1  0  0  0  0
 14 15  1  6  0  0  0
 14 16  1  0  0  0  0
 16 27  1  1  0  0  0
 18 19  2  0  0  0  0
 18 23  1  0  0  0  0
 19 20  1  0  0  0  0
 20 21  2  0  0  0  0
 21 22  1  0  0  0  0
 21 27  1  0  0  0  0
 22 23  2  0  0  0  0
 22 25  1  0  0  0  0
 23 24  1  0  0  0  0
 25 26  2  0  0  0  0
 26 27  1  0  0  0  0
M  END
>  <CHROM.1>
-63.89587611,-82.74476539,61.53041163,-85.52393439,-80.78893322,58.83252625
67.70926685,13.79074644,-6.38750405,8.54915067,2.94863672,1.16117896,0.77812477

>  <Name>
ligand

>  <RI>
0

>  <Rbt.Current_Directory>
/home/itssahil/PROJECTS/Mol_Feturizer/Test_systems_manuscript/rnas/2ydh

>  <Rbt.Executable>
rbdock ($Id: //depot/dev/client3/rdock/2013.1/src/exe/rbdock.cxx#4 $)

>  <Rbt.Library>
libRbt.so (2013.1, Build901 2013/11/27)

>  <Rbt.Parameter_File>
/export/apps/rDock/src/rDock_2013.1_src/data/scripts/dock_solv.prm

>  <Rbt.Receptor>
prm/pocket_docking_5.prm

>  <SCORE>
-15.0761

>  <SCORE.INTER>
-15.7115

>  <SCORE.INTER.CONST>
1

>  <SCORE.INTER.POLAR>
0

>  <SCORE.INTER.ROT>
7

>  <SCORE.INTER.SOLV>
17.0583

>  <SCORE.INTER.VDW>
-24.4271

>  <SCORE.INTER.norm>
-0.581907

>  <SCORE.INTRA>
0.635414

>  <SCORE.INTRA.DIHEDRAL>
-3.35887

>  <SCORE.INTRA.DIHEDRAL.0>
9.75037

>  <SCORE.INTRA.POLAR>
0

>  <SCORE.INTRA.POLAR.0>
0

>  <SCORE.INTRA.REPUL>
0

>  <SCORE.INTRA.REPUL.0>
0

>  <SCORE.INTRA.SOLV>
1.54614

>  <SCORE.INTRA.SOLV.lig_0>
-48.4279

>  <SCORE.INTRA.VDW>
1.54178

>  <SCORE.INTRA.VDW.0>
-4.69037

>  <SCORE.INTRA.norm>
0.0235338

>  <SCORE.RESTR>
0

>  <SCORE.RESTR.CAVITY>
0

>  <SCORE.RESTR.norm>
0

>  <SCORE.SYSTEM>
0

>  <SCORE.SYSTEM.CONST>
0

>  <SCORE.SYSTEM.DIHEDRAL>
0

>  <SCORE.SYSTEM.SOLV>
0

>  <SCORE.SYSTEM.norm>
0

>  <SCORE.heavy>
27

>  <SCORE.norm>
-0.558373

>  <RMSD>
2.534

$$$$
ligand
 OpenBabel02271912153D
libRbt.so/2013.1/901 2013/11/27
 27 29  0  0  0  0  0  0  0  0999 V2000
   12.9175   -6.8918   12.5966 N   0  0  0  0  0  0  0  0  0  0  0  0
   12.2828   -8.0258   11.8564 C   0  0  2  0  0  0  0  0  0  0  0  0
   11.3383   -8.8308   12.7765 C   0  0  0  0  0  0  0  0  0  0  0  0
   11.3612   -8.6811   14.0020 O   0  0  0  0  0  0  0  0  0  0  0  0
   13.3693   -8.9023   11.2428 C   0  0  0  0  0  0  0  0  0  0  0  0
   14.2047   -8.2157   10.1752 C   0  0  0  0  0  0  0  0  0  0  0  0
   15.3642   -9.3356    9.3396 S   0  0  2  0  0  0  0  0  0  0  0  0
   16.7950   -9.2310   10.4520 C   0  0  0  0  0  0  0  0  0  0  0  0
   15.9550   -8.4646    7.8794 C   0  0  0  0  0  0  0  0  0  0  0  0
   14.7696   -8.1100    7.0020 C   0  0  1  0  0  0  0  0  0  0  0  0
   13.9725   -7.0749    7.5564 O   0  0  0  0  0  0  0  0  0  0  0  0
   15.2131   -7.6445    5.6365 C   0  0  1  0  0  0  0  0  0  0  0  0
   15.4252   -8.7291    4.7790 O   0  0  0  0  0  0  0  0  0  0  0  0
   14.0369   -6.8172    5.2155 C   0  0  1  0  0  0  0  0  0  0  0  0
   13.0802   -7.6534    4.5929 O   0  0  0  0  0  0  0  0  0  0  0  0
   13.4852   -6.2551    6.5193 C   0  0  2  0  0  0  0  0  0  0  0  0
   10.5244   -9.6611   12.3322 O   0  0  0  0  0  0  0  0  0  0  0  0
   17.4022   -2.8607    7.5162 N   0  0  0  0  0  0  0  0  0  0  0  0
   17.4864   -4.2374    7.3672 C   0  0  0  0  0  0  0  0  0  0  0  0
   16.3505   -4.9989    7.1192 N   0  0  0  0  0  0  0  0  0  0  0  0
   15.1586   -4.3853    7.0043 C   0  0  0  0  0  0  0  0  0  0  0  0
   15.0634   -2.9972    7.1373 C   0  0  0  0  0  0  0  0  0  0  0  0
   16.1819   -2.2296    7.4053 C   0  0  0  0  0  0  0  0  0  0  0  0
   16.0849   -0.9156    7.5414 N   0  0  0  0  0  0  0  0  0  0  0  0
   13.7831   -2.6500    6.9663 N   0  0  0  0  0  0  0  0  0  0  0  0
   13.0695   -3.7723    6.7272 C   0  0  0  0  0  0  0  0  0  0  0  0
   13.9075   -4.8594    6.7422 N   0  0  0  0  0  0  0  0  0  0  0  0
  2  1  1  1  0  0  0
  2  3  1  0  0  0  0
  2  5  1  0  0  0  0
  3  4  1  0  0  0  0
  3 17  1  0  0  0  0
  5  6  1  0  0  0  0
  7  6  1  1  0  0  0
  7  8  1  0  0  0  0
  7  9  1  0  0  0  0
 10  9  1  1  0  0  0
 10 11  1  0  0  0  0
 10 12  1  0  0  0  0
 11 16  1  0  0  0  0
 12 13  1  6  0  0  0
 12 14  1  0  0  0  0
 14 15  1  1  0  0  0
 14 16  1  0  0  0  0
 16 27  1  1  0  0  0
 18 19  2  0  0  0  0
 18 23  1  0  0  0  0
 19 20  1  0  0  0  0
 20 21  2  0  0  0  0
 21 22  1  0  0  0  0
 21 27  1  0  0  0  0
 22 23  2  0  0  0  0
 22 25  1  0  0  0  0
 23 24  1  0  0  0  0
 25 26  2  0  0  0  0
 26 27  1  0  0  0  0
M  END
>  <CHROM.1>
-13.49246585,-64.74370956,-173.68738503,-87.16459767,-58.78267813,71.76285319
50.60742228,14.40005083,-6.62911240,8.43291352,2.72436910,-1.15638292,-2.85068342

>  <Name>
ligand

>  <RI>
0

>  <Rbt.Current_Directory>
/home/itssahil/PROJECTS/Mol_Feturizer/Test_systems_manuscript/rnas/2ydh

>  <Rbt.Executable>
rbdock ($Id: //depot/dev/client3/rdock/2013.1/src/exe/rbdock.cxx#4 $)

>  <Rbt.Library>
libRbt.so (2013.1, Build901 2013/11/27)

>  <Rbt.Parameter_File>
/export/apps/rDock/src/rDock_2013.1_src/data/scripts/dock_solv.prm

>  <Rbt.Receptor>
prm/pocket_docking_5.prm

>  <SCORE>
-13.3653

>  <SCORE.INTER>
-12.3215

>  <SCORE.INTER.CONST>
1

>  <SCORE.INTER.POLAR>
0

>  <SCORE.INTER.ROT>
7

>  <SCORE.INTER.SOLV>
17.0092

>  <SCORE.INTER.VDW>
-22.1507

>  <SCORE.INTER.norm>
-0.456353

>  <SCORE.INTRA>
-1.04376

>  <SCORE.INTRA.DIHEDRAL>
-4.63554

>  <SCORE.INTRA.DIHEDRAL.0>
9.75037

>  <SCORE.INTRA.POLAR>
0

>  <SCORE.INTRA.POLAR.0>
0

>  <SCORE.INTRA.REPUL>
0

>  <SCORE.INTRA.REPUL.0>
0

>  <SCORE.INTRA.SOLV>
-0.739873

>  <SCORE.INTRA.SOLV.lig_0>
-48.4279

>  <SCORE.INTRA.VDW>
1.64395

>  <SCORE.INTRA.VDW.0>
-4.69037

>  <SCORE.INTRA.norm>
-0.0386577

>  <SCORE.RESTR>
0

>  <SCORE.RESTR.CAVITY>
0

>  <SCORE.RESTR.norm>
0

>  <SCORE.SYSTEM>
0

>  <SCORE.SYSTEM.CONST>
0

>  <SCORE.SYSTEM.DIHEDRAL>
0

>  <SCORE.SYSTEM.SOLV>
0

>  <SCORE.SYSTEM.norm>
0

>  <SCORE.heavy>
27

>  <SCORE.norm>
-0.49501

>  <RMSD>
2.670

$$$$
ligand
 OpenBabel02271912153D
libRbt.so/2013.1/901 2013/11/27
 27 29  0  0  0  0  0  0  0  0999 V2000
   12.1980   -7.4249   13.4129 N   0  0  0  0  0  0  0  0  0  0  0  0
   11.1539   -7.4215   12.3421 C   0  0  2  0  0  0  0  0  0  0  0  0
   10.7707   -8.8616   11.9349 C   0  0  0  0  0  0  0  0  0  0  0  0
   10.1418   -9.0847   10.8960 O   0  0  0  0  0  0  0  0  0  0  0  0
   11.6481   -6.6024   11.1544 C   0  0  0  0  0  0  0  0  0  0  0  0
   13.0248   -6.9968   10.6462 C   0  0  0  0  0  0  0  0  0  0  0  0
   13.0267   -8.5532    9.7110 S   0  0  2  0  0  0  0  0  0  0  0  0
   13.8344   -9.6608   10.9011 C   0  0  0  0  0  0  0  0  0  0  0  0
   14.2863   -8.3831    8.4364 C   0  0  0  0  0  0  0  0  0  0  0  0
   13.6413   -7.8474    7.1724 C   0  0  1  0  0  0  0  0  0  0  0  0
   12.9332   -6.6375    7.3934 O   0  0  0  0  0  0  0  0  0  0  0  0
   14.6695   -7.5698    6.1030 C   0  0  1  0  0  0  0  0  0  0  0  0
   14.9608   -8.7264    5.3722 O   0  0  0  0  0  0  0  0  0  0  0  0
   13.9566   -6.5458    5.2734 C   0  0  1  0  0  0  0  0  0  0  0  0
   13.1624   -7.2042    4.3048 O   0  0  0  0  0  0  0  0  0  0  0  0
   13.0755   -5.8015    6.2683 C   0  0  2  0  0  0  0  0  0  0  0  0
   11.0692   -9.8512   12.6285 O   0  0  0  0  0  0  0  0  0  0  0  0
   17.4185   -2.9903    7.3140 N   0  0  0  0  0  0  0  0  0  0  0  0
   17.3387   -4.3175    6.9180 C   0  0  0  0  0  0  0  0  0  0  0  0
   16.1076   -4.9221    6.6936 N   0  0  0  0  0  0  0  0  0  0  0  0
   14.9822   -4.2006    6.8457 C   0  0  0  0  0  0  0  0  0  0  0  0
   15.0505   -2.8584    7.2295 C   0  0  0  0  0  0  0  0  0  0  0  0
   16.2673   -2.2500    7.4768 C   0  0  0  0  0  0  0  0  0  0  0  0
   16.3264   -0.9807    7.8510 N   0  0  0  0  0  0  0  0  0  0  0  0
   13.8031   -2.3798    7.2922 N   0  0  0  0  0  0  0  0  0  0  0  0
   12.9518   -3.3746    6.9579 C   0  0  0  0  0  0  0  0  0  0  0  0
   13.6661   -4.5117    6.6728 N   0  0  0  0  0  0  0  0  0  0  0  0
  2  1  1  1  0  0  0
  2  3  1  0  0  0  0
  2  5  1  0  0  0  0
  3  4  1  0  0  0  0
  3 17  1  0  0  0  0
  5  6  1  0  0  0  0
  7  6  1  1  0  0  0
  7  8  1  0  0  0  0
  7  9  1  0  0  0  0
 10  9  1  1  0  0  0
 10 11  1  0  0  0  0
 10 12  1  0  0  0  0
 11 16  1  0  0  0  0
 12 13  1  6  0  0  0
 12 14  1  0  0  0  0
 14 15  1  6  0  0  0
 14 16  1  0  0  0  0
 16 27  1  1  0  0  0
 18 19  2  0  0  0  0
 18 23  1  0  0  0  0
 19 20  1  0  0  0  0
 20 21  2  0  0  0  0
 21 22  1  0  0  0  0
 21 27  1  0  0  0  0
 22 23  2  0  0  0  0
 22 25  1  0  0  0  0
 23 24  1  0  0  0  0
 25 26  2  0  0  0  0
 26 27  1  0  0  0  0
M  END
>  <CHROM.1>
-165.00879428,51.72801884,74.52731343,-107.31888414,-92.11017818,54.75648851
83.79481754,13.67213272,-6.36737517,8.43075579,-3.11531638,-1.07776182,-2.31602220

>  <Name>
ligand

>  <RI>
0

>  <Rbt.Current_Directory>
/home/itssahil/PROJECTS/Mol_Feturizer/Test_systems_manuscript/rnas/2ydh

>  <Rbt.Executable>
rbdock ($Id: //depot/dev/client3/rdock/2013.1/src/exe/rbdock.cxx#4 $)

>  <Rbt.Library>
libRbt.so (2013.1, Build901 2013/11/27)

>  <Rbt.Parameter_File>
/export/apps/rDock/src/rDock_2013.1_src/data/scripts/dock_solv.prm

>  <Rbt.Receptor>
prm/pocket_docking_7.prm

>  <SCORE>
-17.8834

>  <SCORE.INTER>
-18.9916

>  <SCORE.INTER.CONST>
1

>  <SCORE.INTER.POLAR>
0

>  <SCORE.INTER.ROT>
7

>  <SCORE.INTER.SOLV>
17.8107

>  <SCORE.INTER.VDW>
-26.8647

>  <SCORE.INTER.norm>
-0.703394

>  <SCORE.INTRA>
1.10423

>  <SCORE.INTRA.DIHEDRAL>
-0.588944

>  <SCORE.INTRA.DIHEDRAL.0>
9.75037

>  <SCORE.INTRA.POLAR>
0

>  <SCORE.INTRA.POLAR.0>
0

>  <SCORE.INTRA.REPUL>
0

>  <SCORE.INTRA.REPUL.0>
0

>  <SCORE.INTRA.SOLV>
0.686082

>  <SCORE.INTRA.SOLV.lig_0>
-48.4279

>  <SCORE.INTRA.VDW>
1.05566

>  <SCORE.INTRA.VDW.0>
-4.69037

>  <SCORE.INTRA.norm>
0.0408972

>  <SCORE.RESTR>
0.00399981

>  <SCORE.RESTR.CAVITY>
0.00399981

>  <SCORE.RESTR.norm>
0.000148141

>  <SCORE.SYSTEM>
0

>  <SCORE.SYSTEM.CONST>
0

>  <SCORE.SYSTEM.DIHEDRAL>
0

>  <SCORE.SYSTEM.SOLV>
0

>  <SCORE.SYSTEM.norm>
0

>  <SCORE.heavy>
27

>  <SCORE.norm>
-0.662349

>  <RMSD>
2.671

$$$$
ligand
 OpenBabel02271912153D
libRbt.so/2013.1/901 2013/11/27
 27 29  0  0  0  0  0  0  0  0999 V2000
   10.7283   -8.7776   14.0419 N   0  0  0  0  0  0  0  0  0  0  0  0
   12.2184   -8.6741   13.9688 C   0  0  2  0  0  0  0  0  0  0  0  0
   12.7553   -7.6491   14.9924 C   0  0  0  0  0  0  0  0  0  0  0  0
   13.8988   -7.1929   14.8985 O   0  0  0  0  0  0  0  0  0  0  0  0
   12.6336   -8.3304   12.5422 C   0  0  0  0  0  0  0  0  0  0  0  0
   12.1562   -9.3191   11.4915 C   0  0  0  0  0  0  0  0  0  0  0  0
   12.8910   -9.0388    9.8549 S   0  0  2  0  0  0  0  0  0  0  0  0
   14.6547   -9.2309   10.2398 C   0  0  0  0  0  0  0  0  0  0  0  0
   12.7637   -7.2726    9.5322 C   0  0  0  0  0  0  0  0  0  0  0  0
   12.8702   -7.0341    8.0381 C   0  0  1  0  0  0  0  0  0  0  0  0
   12.5028   -5.7135    7.6703 O   0  0  0  0  0  0  0  0  0  0  0  0
   14.2783   -7.2565    7.5425 C   0  0  1  0  0  0  0  0  0  0  0  0
   14.5070   -8.6083    7.2652 O   0  0  0  0  0  0  0  0  0  0  0  0
   14.2845   -6.4193    6.2999 C   0  0  1  0  0  0  0  0  0  0  0  0
   13.8067   -7.1935    5.2161 O   0  0  0  0  0  0  0  0  0  0  0  0
   13.3202   -5.2809    6.6074 C   0  0  2  0  0  0  0  0  0  0  0  0
   12.0713   -7.2444   15.9504 O   0  0  0  0  0  0  0  0  0  0  0  0
   17.9142   -2.7719    7.2848 N   0  0  0  0  0  0  0  0  0  0  0  0
   17.7117   -4.0757    6.8562 C   0  0  0  0  0  0  0  0  0  0  0  0
   16.4288   -4.5980    6.7420 N   0  0  0  0  0  0  0  0  0  0  0  0
   15.3721   -3.8182    7.0344 C   0  0  0  0  0  0  0  0  0  0  0  0
   15.5629   -2.4983    7.4526 C   0  0  0  0  0  0  0  0  0  0  0  0
   16.8341   -1.9723    7.5912 C   0  0  0  0  0  0  0  0  0  0  0  0
   17.0102   -0.7242    7.9984 N   0  0  0  0  0  0  0  0  0  0  0  0
   14.3607   -1.9502    7.6609 N   0  0  0  0  0  0  0  0  0  0  0  0
   13.4193   -2.8797    7.3851 C   0  0  0  0  0  0  0  0  0  0  0  0
   14.0284   -4.0446    6.9899 N   0  0  0  0  0  0  0  0  0  0  0  0
  2  1  1  6  0  0  0
  2  3  1  0  0  0  0
  2  5  1  0  0  0  0
  3  4  1  0  0  0  0
  3 17  1  0  0  0  0
  5  6  1  0  0  0  0
  7  6  1  1  0  0  0
  7  8  1  0  0  0  0
  7  9  1  0  0  0  0
 10  9  1  1  0  0  0
 10 11  1  0  0  0  0
 10 12  1  0  0  0  0
 11 16  1  0  0  0  0
 12 13  1  6  0  0  0
 12 14  1  0  0  0  0
 14 15  1  6  0  0  0
 14 16  1  0  0  0  0
 16 27  1  1  0  0  0
 18 19  2  0  0  0  0
 18 23  1  0  0  0  0
 19 20  1  0  0  0  0
 20 21  2  0  0  0  0
 21 22  1  0  0  0  0
 21 27  1  0  0  0  0
 22 23  2  0  0  0  0
 22 25  1  0  0  0  0
 23 24  1  0  0  0  0
 25 26  2  0  0  0  0
 26 27  1  0  0  0  0
M  END
>  <CHROM.1>
-163.55803315,-57.41372567,-170.41769485,59.61573071,-159.30067495,167.62339802
121.65712977,14.00936291,-6.14777147,9.31453380,-2.54901229,-1.10346971,-1.84204192

>  <Name>
ligand

>  <RI>
0

>  <Rbt.Current_Directory>
/home/itssahil/PROJECTS/Mol_Feturizer/Test_systems_manuscript/rnas/2ydh

>  <Rbt.Executable>
rbdock ($Id: //depot/dev/client3/rdock/2013.1/src/exe/rbdock.cxx#4 $)

>  <Rbt.Library>
libRbt.so (2013.1, Build901 2013/11/27)

>  <Rbt.Parameter_File>
/export/apps/rDock/src/rDock_2013.1_src/data/scripts/dock_solv.prm

>  <Rbt.Receptor>
prm/pocket_docking_6.prm

>  <SCORE>
-11.9848

>  <SCORE.INTER>
-13.6565

>  <SCORE.INTER.CONST>
1

>  <SCORE.INTER.POLAR>
0

>  <SCORE.INTER.ROT>
7

>  <SCORE.INTER.SOLV>
17.7586

>  <SCORE.INTER.VDW>
-23.2906

>  <SCORE.INTER.norm>
-0.505798

>  <SCORE.INTRA>
1.67179

>  <SCORE.INTRA.DIHEDRAL>
-3.71736

>  <SCORE.INTRA.DIHEDRAL.0>
9.75037

>  <SCORE.INTRA.POLAR>
0

>  <SCORE.INTRA.POLAR.0>
0

>  <SCORE.INTRA.REPUL>
0

>  <SCORE.INTRA.REPUL.0>
0

>  <SCORE.INTRA.SOLV>
-0.475451

>  <SCORE.INTRA.SOLV.lig_0>
-48.4279

>  <SCORE.INTRA.VDW>
3.76819

>  <SCORE.INTRA.VDW.0>
-4.69037

>  <SCORE.INTRA.norm>
0.061918

>  <SCORE.RESTR>
0

>  <SCORE.RESTR.CAVITY>
0

>  <SCORE.RESTR.norm>
0

>  <SCORE.SYSTEM>
0

>  <SCORE.SYSTEM.CONST>
0

>  <SCORE.SYSTEM.DIHEDRAL>
0

>  <SCORE.SYSTEM.SOLV>
0

>  <SCORE.SYSTEM.norm>
0

>  <SCORE.heavy>
27

>  <SCORE.norm>
-0.44388

>  <RMSD>
2.679

$$$$
ligand
 OpenBabel02271912153D
libRbt.so/2013.1/901 2013/11/27
 27 29  0  0  0  0  0  0  0  0999 V2000
   15.2434   -8.9567   14.5534 N   0  0  0  0  0  0  0  0  0  0  0  0
   14.2816   -7.8502   14.2581 C   0  0  2  0  0  0  0  0  0  0  0  0
   13.1670   -7.7829   15.3257 C   0  0  0  0  0  0  0  0  0  0  0  0
   12.3781   -8.7194   15.4841 O   0  0  0  0  0  0  0  0  0  0  0  0
   13.7185   -8.0294   12.8523 C   0  0  0  0  0  0  0  0  0  0  0  0
   12.7383   -6.9501   12.4238 C   0  0  0  0  0  0  0  0  0  0  0  0
   12.0375   -7.2307   10.7724 S   0  0  2  0  0  0  0  0  0  0  0  0
   11.3433   -8.8954   10.9791 C   0  0  0  0  0  0  0  0  0  0  0  0
   13.4283   -7.5343    9.6708 C   0  0  0  0  0  0  0  0  0  0  0  0
   13.0457   -7.1144    8.2644 C   0  0  1  0  0  0  0  0  0  0  0  0
   12.5876   -5.7726    8.2027 O   0  0  0  0  0  0  0  0  0  0  0  0
   14.2154   -7.2271    7.3172 C   0  0  1  0  0  0  0  0  0  0  0  0
   14.3328   -8.5272    6.8145 O   0  0  0  0  0  0  0  0  0  0  0  0
   13.8235   -6.2469    6.2539 C   0  0  1  0  0  0  0  0  0  0  0  0
   13.0149   -6.9011    5.2946 O   0  0  0  0  0  0  0  0  0  0  0  0
   13.0188   -5.1875    6.9958 C   0  0  2  0  0  0  0  0  0  0  0  0
   13.0104   -6.7923   16.0630 O   0  0  0  0  0  0  0  0  0  0  0  0
   17.7820   -2.9270    7.2412 N   0  0  0  0  0  0  0  0  0  0  0  0
   17.4761   -4.2298    6.8756 C   0  0  0  0  0  0  0  0  0  0  0  0
   16.1615   -4.6807    6.8754 N   0  0  0  0  0  0  0  0  0  0  0  0
   15.1745   -3.8326    7.2172 C   0  0  0  0  0  0  0  0  0  0  0  0
   15.4688   -2.5134    7.5728 C   0  0  0  0  0  0  0  0  0  0  0  0
   16.7739   -2.0573    7.5980 C   0  0  0  0  0  0  0  0  0  0  0  0
   17.0488   -0.8092    7.9463 N   0  0  0  0  0  0  0  0  0  0  0  0
   14.3179   -1.8908    7.8499 N   0  0  0  0  0  0  0  0  0  0  0  0
   13.3086   -2.7727    7.6779 C   0  0  0  0  0  0  0  0  0  0  0  0
   13.8209   -3.9826    7.2804 N   0  0  0  0  0  0  0  0  0  0  0  0
  2  1  1  1  0  0  0
  2  3  1  0  0  0  0
  2  5  1  0  0  0  0
  3  4  1  0  0  0  0
  3 17  1  0  0  0  0
  5  6  1  0  0  0  0
  7  6  1  1  0  0  0
  7  8  1  0  0  0  0
  7  9  1  0  0  0  0
 10  9  1  1  0  0  0
 10 11  1  0  0  0  0
 10 12  1  0  0  0  0
 11 16  1  0  0  0  0
 12 13  1  6  0  0  0
 12 14  1  0  0  0  0
 14 15  1  6  0  0  0
 14 16  1  0  0  0  0
 16 27  1  1  0  0  0
 18 19  2  0  0  0  0
 18 23  1  0  0  0  0
 19 20  1  0  0  0  0
 20 21  2  0  0  0  0
 21 22  1  0  0  0  0
 21 27  1  0  0  0  0
 22 23  2  0  0  0  0
 22 25  1  0  0  0  0
 23 24  1  0  0  0  0
 25 26  2  0  0  0  0
 26 27  1  0  0  0  0
M  END
>  <CHROM.1>
-63.10073702,-179.14765722,-177.67809938,55.57056545,-152.66462281,54.48328856
103.97136328,14.01396366,-5.91906385,9.59056466,-2.06801481,-0.96219934,-1.43101875

>  <Name>
ligand

>  <RI>
0

>  <Rbt.Current_Directory>
/home/itssahil/PROJECTS/Mol_Feturizer/Test_systems_manuscript/rnas/2ydh

>  <Rbt.Executable>
rbdock ($Id: //depot/dev/client3/rdock/2013.1/src/exe/rbdock.cxx#4 $)

>  <Rbt.Library>
libRbt.so (2013.1, Build901 2013/11/27)

>  <Rbt.Parameter_File>
/export/apps/rDock/src/rDock_2013.1_src/data/scripts/dock_solv.prm

>  <Rbt.Receptor>
prm/pocket_docking_6.prm

>  <SCORE>
-14.4192

>  <SCORE.INTER>
-14.7955

>  <SCORE.INTER.CONST>
1

>  <SCORE.INTER.POLAR>
0

>  <SCORE.INTER.ROT>
7

>  <SCORE.INTER.SOLV>
17.6002

>  <SCORE.INTER.VDW>
-23.9971

>  <SCORE.INTER.norm>
-0.54798

>  <SCORE.INTRA>
0.376269

>  <SCORE.INTRA.DIHEDRAL>
-3.82816

>  <SCORE.INTRA.DIHEDRAL.0>
9.75037

>  <SCORE.INTRA.POLAR>
0

>  <SCORE.INTRA.POLAR.0>
0

>  <SCORE.INTRA.REPUL>
0

>  <SCORE.INTRA.REPUL.0>
0

>  <SCORE.INTRA.SOLV>
-1.5686

>  <SCORE.INTRA.SOLV.lig_0>
-48.4279

>  <SCORE.INTRA.VDW>
3.07465

>  <SCORE.INTRA.VDW.0>
-4.69037

>  <SCORE.INTRA.norm>
0.0139359

>  <SCORE.RESTR>
0

>  <SCORE.RESTR.CAVITY>
0

>  <SCORE.RESTR.norm>
0

>  <SCORE.SYSTEM>
0

>  <SCORE.SYSTEM.CONST>
0

>  <SCORE.SYSTEM.DIHEDRAL>
0

>  <SCORE.SYSTEM.SOLV>
0

>  <SCORE.SYSTEM.norm>
0

>  <SCORE.heavy>
27

>  <SCORE.norm>
-0.534044

>  <RMSD>
2.733

$$$$
ligand
 OpenBabel02271912153D
libRbt.so/2013.1/901 2013/11/27
 27 29  0  0  0  0  0  0  0  0999 V2000
   14.5044   -9.9805   13.0855 N   0  0  0  0  0  0  0  0  0  0  0  0
   14.3038   -9.0097   11.9657 C   0  0  2  0  0  0  0  0  0  0  0  0
   15.2137   -9.3506   10.7647 C   0  0  0  0  0  0  0  0  0  0  0  0
   15.0823  -10.4109   10.1457 O   0  0  0  0  0  0  0  0  0  0  0  0
   14.5361   -7.5916   12.4763 C   0  0  0  0  0  0  0  0  0  0  0  0
   13.7668   -6.5176   11.7254 C   0  0  0  0  0  0  0  0  0  0  0  0
   14.2237   -6.3996    9.9720 S   0  0  2  0  0  0  0  0  0  0  0  0
   13.5660   -4.7581    9.5618 C   0  0  0  0  0  0  0  0  0  0  0  0
   13.1059   -7.4902    9.0772 C   0  0  0  0  0  0  0  0  0  0  0  0
   13.2826   -7.2651    7.5876 C   0  0  1  0  0  0  0  0  0  0  0  0
   12.7981   -5.9991    7.1674 O   0  0  0  0  0  0  0  0  0  0  0  0
   14.7358   -7.3385    7.1868 C   0  0  1  0  0  0  0  0  0  0  0  0
   15.1281   -8.6611    6.9553 O   0  0  0  0  0  0  0  0  0  0  0  0
   14.7314   -6.5255    5.9282 C   0  0  1  0  0  0  0  0  0  0  0  0
   14.4125   -7.3647    4.8345 O   0  0  0  0  0  0  0  0  0  0  0  0
   13.6308   -5.4957    6.1484 C   0  0  2  0  0  0  0  0  0  0  0  0
   16.1138   -8.5852   10.3732 O   0  0  0  0  0  0  0  0  0  0  0  0
   17.8342   -2.6065    7.5059 N   0  0  0  0  0  0  0  0  0  0  0  0
   17.7984   -3.9528    7.1730 C   0  0  0  0  0  0  0  0  0  0  0  0
   16.5990   -4.5761    6.8497 N   0  0  0  0  0  0  0  0  0  0  0  0
   15.4632   -3.8550    6.8428 C   0  0  0  0  0  0  0  0  0  0  0  0
   15.4888   -2.4944    7.1616 C   0  0  0  0  0  0  0  0  0  0  0  0
   16.6715   -1.8662    7.5059 C   0  0  0  0  0  0  0  0  0  0  0  0
   16.6890   -0.5790    7.8178 N   0  0  0  0  0  0  0  0  0  0  0  0
   14.2414   -2.0212    7.0654 N   0  0  0  0  0  0  0  0  0  0  0  0
   13.4317   -3.0374    6.6940 C   0  0  0  0  0  0  0  0  0  0  0  0
   14.1735   -4.1830    6.5463 N   0  0  0  0  0  0  0  0  0  0  0  0
  2  1  1  1  0  0  0
  2  3  1  0  0  0  0
  2  5  1  0  0  0  0
  3  4  1  0  0  0  0
  3 17  1  0  0  0  0
  5  6  1  0  0  0  0
  7  6  1  1  0  0  0
  7  8  1  0  0  0  0
  7  9  1  0  0  0  0
 10  9  1  1  0  0  0
 10 11  1  0  0  0  0
 10 12  1  0  0  0  0
 11 16  1  0  0  0  0
 12 13  1  6  0  0  0
 12 14  1  0  0  0  0
 14 15  1  6  0  0  0
 14 16  1  0  0  0  0
 16 27  1  1  0  0  0
 18 19  2  0  0  0  0
 18 23  1  0  0  0  0
 19 20  1  0  0  0  0
 20 21  2  0  0  0  0
 21 22  1  0  0  0  0
 21 27  1  0  0  0  0
 22 23  2  0  0  0  0
 22 25  1  0  0  0  0
 23 24  1  0  0  0  0
 25 26  2  0  0  0  0
 26 27  1  0  0  0  0
M  END
>  <CHROM.1>
63.72872320,-152.15095861,-62.29224670,-162.50905961,170.74453882,-69.46949641
112.02917263,14.81814651,-5.96935424,8.46865033,-2.06183201,-1.24547828,-1.07244807

>  <Name>
ligand

>  <RI>
0

>  <Rbt.Current_Directory>
/home/itssahil/PROJECTS/Mol_Feturizer/Test_systems_manuscript/rnas/2ydh

>  <Rbt.Executable>
rbdock ($Id: //depot/dev/client3/rdock/2013.1/src/exe/rbdock.cxx#4 $)

>  <Rbt.Library>
libRbt.so (2013.1, Build901 2013/11/27)

>  <Rbt.Parameter_File>
/export/apps/rDock/src/rDock_2013.1_src/data/scripts/dock_solv.prm

>  <Rbt.Receptor>
prm/pocket_docking_3.prm

>  <SCORE>
-10.0173

>  <SCORE.INTER>
-10.5435

>  <SCORE.INTER.CONST>
1

>  <SCORE.INTER.POLAR>
0

>  <SCORE.INTER.ROT>
7

>  <SCORE.INTER.SOLV>
18.5277

>  <SCORE.INTER.VDW>
-21.4716

>  <SCORE.INTER.norm>
-0.390501

>  <SCORE.INTRA>
0.512355

>  <SCORE.INTRA.DIHEDRAL>
-2.26219

>  <SCORE.INTRA.DIHEDRAL.0>
9.75037

>  <SCORE.INTRA.POLAR>
0

>  <SCORE.INTRA.POLAR.0>
0

>  <SCORE.INTRA.REPUL>
0

>  <SCORE.INTRA.REPUL.0>
0

>  <SCORE.INTRA.SOLV>
-0.972604

>  <SCORE.INTRA.SOLV.lig_0>
-48.4279

>  <SCORE.INTRA.VDW>
2.12975

>  <SCORE.INTRA.VDW.0>
-4.69037

>  <SCORE.INTRA.norm>
0.0189761

>  <SCORE.RESTR>
0.0138182

>  <SCORE.RESTR.CAVITY>
0.0138182

>  <SCORE.RESTR.norm>
0.000511787

>  <SCORE.SYSTEM>
0

>  <SCORE.SYSTEM.CONST>
0

>  <SCORE.SYSTEM.DIHEDRAL>
0

>  <SCORE.SYSTEM.SOLV>
0

>  <SCORE.SYSTEM.norm>
0

>  <SCORE.heavy>
27

>  <SCORE.norm>
-0.371013

>  <RMSD>
2.774

$$$$
ligand
 OpenBabel02271912153D
libRbt.so/2013.1/901 2013/11/27
 27 29  0  0  0  0  0  0  0  0999 V2000
   11.9589   -8.9940   14.6995 N   0  0  0  0  0  0  0  0  0  0  0  0
   13.4100   -9.2039   14.4049 C   0  0  2  0  0  0  0  0  0  0  0  0
   14.2971   -8.3912   15.3742 C   0  0  0  0  0  0  0  0  0  0  0  0
   14.1467   -7.1729   15.5070 O   0  0  0  0  0  0  0  0  0  0  0  0
   13.6870   -8.8558   12.9463 C   0  0  0  0  0  0  0  0  0  0  0  0
   12.9873   -9.7543   11.9402 C   0  0  0  0  0  0  0  0  0  0  0  0
   13.4104   -9.3692   10.2169 S   0  0  2  0  0  0  0  0  0  0  0  0
   15.2168   -9.5424   10.2663 C   0  0  0  0  0  0  0  0  0  0  0  0
   13.2053   -7.5913   10.0245 C   0  0  0  0  0  0  0  0  0  0  0  0
   12.9751   -7.2760    8.5588 C   0  0  1  0  0  0  0  0  0  0  0  0
   12.5073   -5.9519    8.3540 O   0  0  0  0  0  0  0  0  0  0  0  0
   14.2441   -7.4266    7.7558 C   0  0  1  0  0  0  0  0  0  0  0  0
   14.4354   -8.7547    7.3607 O   0  0  0  0  0  0  0  0  0  0  0  0
   13.9585   -6.5294    6.5903 C   0  0  1  0  0  0  0  0  0  0  0  0
   13.2709   -7.2647    5.5959 O   0  0  0  0  0  0  0  0  0  0  0  0
   13.0611   -5.4403    7.1638 C   0  0  2  0  0  0  0  0  0  0  0  0
   15.1969   -8.9185   16.0537 O   0  0  0  0  0  0  0  0  0  0  0  0
   17.7009   -2.9261    7.2650 N   0  0  0  0  0  0  0  0  0  0  0  0
   17.4493   -4.2326    6.8722 C   0  0  0  0  0  0  0  0  0  0  0  0
   16.1625   -4.7559    6.9172 N   0  0  0  0  0  0  0  0  0  0  0  0
   15.1481   -3.9746    7.3304 C   0  0  0  0  0  0  0  0  0  0  0  0
   15.3868   -2.6520    7.7143 C   0  0  0  0  0  0  0  0  0  0  0  0
   16.6649   -2.1249    7.6948 C   0  0  0  0  0  0  0  0  0  0  0  0
   16.8877   -0.8742    8.0700 N   0  0  0  0  0  0  0  0  0  0  0  0
   14.2180   -2.1029    8.0630 N   0  0  0  0  0  0  0  0  0  0  0  0
   13.2511   -3.0342    7.9089 C   0  0  0  0  0  0  0  0  0  0  0  0
   13.8091   -4.2016    7.4501 N   0  0  0  0  0  0  0  0  0  0  0  0
  2  1  1  1  0  0  0
  2  3  1  0  0  0  0
  2  5  1  0  0  0  0
  3  4  1  0  0  0  0
  3 17  1  0  0  0  0
  5  6  1  0  0  0  0
  7  6  1  1  0  0  0
  7  8  1  0  0  0  0
  7  9  1  0  0  0  0
 10  9  1  1  0  0  0
 10 11  1  0  0  0  0
 10 12  1  0  0  0  0
 11 16  1  0  0  0  0
 12 13  1  6  0  0  0
 12 14  1  0  0  0  0
 14 15  1  6  0  0  0
 14 16  1  0  0  0  0
 16 27  1  1  0  0  0
 18 19  2  0  0  0  0
 18 23  1  0  0  0  0
 19 20  1  0  0  0  0
 20 21  2  0  0  0  0
 21 22  1  0  0  0  0
 21 27  1  0  0  0  0
 22 23  2  0  0  0  0
 22 25  1  0  0  0  0
 23 24  1  0  0  0  0
 25 26  2  0  0  0  0
 26 27  1  0  0  0  0
M  END
>  <CHROM.1>
-54.52277474,-64.36055072,-176.85190430,56.86591134,-156.81165578,166.65490081
114.82154671,14.31962994,-6.44185369,9.64892158,-2.03669262,-1.12417370,-1.31639996

>  <Name>
ligand

>  <RI>
0

>  <Rbt.Current_Directory>
/home/itssahil/PROJECTS/Mol_Feturizer/Test_systems_manuscript/rnas/2ydh

>  <Rbt.Executable>
rbdock ($Id: //depot/dev/client3/rdock/2013.1/src/exe/rbdock.cxx#4 $)

>  <Rbt.Library>
libRbt.so (2013.1, Build901 2013/11/27)

>  <Rbt.Parameter_File>
/export/apps/rDock/src/rDock_2013.1_src/data/scripts/dock_solv.prm

>  <Rbt.Receptor>
prm/pocket_docking_6.prm

>  <SCORE>
-11.5741

>  <SCORE.INTER>
-12.6955

>  <SCORE.INTER.CONST>
1

>  <SCORE.INTER.POLAR>
0

>  <SCORE.INTER.ROT>
7

>  <SCORE.INTER.SOLV>
15.1444

>  <SCORE.INTER.VDW>
-21.7785

>  <SCORE.INTER.norm>
-0.470203

>  <SCORE.INTRA>
1.12133

>  <SCORE.INTRA.DIHEDRAL>
-3.67075

>  <SCORE.INTRA.DIHEDRAL.0>
9.75037

>  <SCORE.INTRA.POLAR>
0

>  <SCORE.INTRA.POLAR.0>
0

>  <SCORE.INTRA.REPUL>
0

>  <SCORE.INTRA.REPUL.0>
0

>  <SCORE.INTRA.SOLV>
-0.5585

>  <SCORE.INTRA.SOLV.lig_0>
-48.4279

>  <SCORE.INTRA.VDW>
3.23596

>  <SCORE.INTRA.VDW.0>
-4.69037

>  <SCORE.INTRA.norm>
0.0415307

>  <SCORE.RESTR>
0

>  <SCORE.RESTR.CAVITY>
0

>  <SCORE.RESTR.norm>
0

>  <SCORE.SYSTEM>
0

>  <SCORE.SYSTEM.CONST>
0

>  <SCORE.SYSTEM.DIHEDRAL>
0

>  <SCORE.SYSTEM.SOLV>
0

>  <SCORE.SYSTEM.norm>
0

>  <SCORE.heavy>
27

>  <SCORE.norm>
-0.428672

>  <RMSD>
2.784

$$$$
ligand
 OpenBabel02271912153D
libRbt.so/2013.1/901 2013/11/27
 27 29  0  0  0  0  0  0  0  0999 V2000
   12.4962   -7.3097   13.8206 N   0  0  0  0  0  0  0  0  0  0  0  0
   11.1128   -7.4584   13.2724 C   0  0  2  0  0  0  0  0  0  0  0  0
   10.1620   -8.0745   14.3227 C   0  0  0  0  0  0  0  0  0  0  0  0
    9.2137   -7.4298   14.7807 O   0  0  0  0  0  0  0  0  0  0  0  0
   11.1612   -8.2823   11.9901 C   0  0  0  0  0  0  0  0  0  0  0  0
   12.0678   -7.7151   10.9105 C   0  0  0  0  0  0  0  0  0  0  0  0
   12.6162   -8.9586    9.7064 S   0  0  2  0  0  0  0  0  0  0  0  0
   13.5262  -10.0973   10.7883 C   0  0  0  0  0  0  0  0  0  0  0  0
   13.9419   -8.1996    8.7543 C   0  0  0  0  0  0  0  0  0  0  0  0
   13.3582   -7.5868    7.4956 C   0  0  1  0  0  0  0  0  0  0  0  0
   12.7846   -6.3095    7.7277 O   0  0  0  0  0  0  0  0  0  0  0  0
   14.4101   -7.4124    6.4274 C   0  0  1  0  0  0  0  0  0  0  0  0
   14.5750   -8.5874    5.6865 O   0  0  0  0  0  0  0  0  0  0  0  0
   13.8115   -6.3105    5.6073 C   0  0  1  0  0  0  0  0  0  0  0  0
   12.9509   -6.8712    4.6340 O   0  0  0  0  0  0  0  0  0  0  0  0
   13.0159   -5.4841    6.6095 C   0  0  2  0  0  0  0  0  0  0  0  0
   10.3083   -9.2326   14.7548 O   0  0  0  0  0  0  0  0  0  0  0  0
   17.6434   -3.0354    7.2791 N   0  0  0  0  0  0  0  0  0  0  0  0
   17.4211   -4.3196    6.8038 C   0  0  0  0  0  0  0  0  0  0  0  0
   16.1320   -4.8282    6.6988 N   0  0  0  0  0  0  0  0  0  0  0  0
   15.0882   -4.0536    7.0465 C   0  0  0  0  0  0  0  0  0  0  0  0
   15.2987   -2.7528    7.5124 C   0  0  0  0  0  0  0  0  0  0  0  0
   16.5768   -2.2414    7.6421 C   0  0  0  0  0  0  0  0  0  0  0  0
   16.7718   -1.0118    8.0945 N   0  0  0  0  0  0  0  0  0  0  0  0
   14.1059   -2.2054    7.7703 N   0  0  0  0  0  0  0  0  0  0  0  0
   13.1513   -3.1166    7.4797 C   0  0  0  0  0  0  0  0  0  0  0  0
   13.7421   -4.2690    7.0243 N   0  0  0  0  0  0  0  0  0  0  0  0
  2  1  1  1  0  0  0
  2  3  1  0  0  0  0
  2  5  1  0  0  0  0
  3  4  1  0  0  0  0
  3 17  1  0  0  0  0
  5  6  1  0  0  0  0
  7  6  1  1  0  0  0
  7  8  1  0  0  0  0
  7  9  1  0  0  0  0
 10  9  1  1  0  0  0
 10 11  1  0  0  0  0
 10 12  1  0  0  0  0
 11 16  1  0  0  0  0
 12 13  1  6  0  0  0
 12 14  1  0  0  0  0
 14 15  1  6  0  0  0
 14 16  1  0  0  0  0
 16 27  1  1  0  0  0
 18 19  2  0  0  0  0
 18 23  1  0  0  0  0
 19 20  1  0  0  0  0
 20 21  2  0  0  0  0
 21 22  1  0  0  0  0
 21 27  1  0  0  0  0
 22 23  2  0  0  0  0
 22 25  1  0  0  0  0
 23 24  1  0  0  0  0
 25 26  2  0  0  0  0
 26 27  1  0  0  0  0
M  END
>  <CHROM.1>
114.91739791,-57.07128119,157.69403763,-61.39938564,-94.09342467,81.45904972
92.36934778,13.49579457,-6.28009835,8.99660067,-2.97849473,-1.04485381,-2.34256705

>  <Name>
ligand

>  <RI>
0

>  <Rbt.Current_Directory>
/home/itssahil/PROJECTS/Mol_Feturizer/Test_systems_manuscript/rnas/2ydh

>  <Rbt.Executable>
rbdock ($Id: //depot/dev/client3/rdock/2013.1/src/exe/rbdock.cxx#4 $)

>  <Rbt.Library>
libRbt.so (2013.1, Build901 2013/11/27)

>  <Rbt.Parameter_File>
/export/apps/rDock/src/rDock_2013.1_src/data/scripts/dock_solv.prm

>  <Rbt.Receptor>
prm/pocket_docking_8.prm

>  <SCORE>
-15.5412

>  <SCORE.INTER>
-16.8452

>  <SCORE.INTER.CONST>
1

>  <SCORE.INTER.POLAR>
0

>  <SCORE.INTER.ROT>
7

>  <SCORE.INTER.SOLV>
18.3526

>  <SCORE.INTER.VDW>
-25.6144

>  <SCORE.INTER.norm>
-0.623898

>  <SCORE.INTRA>
1.30408

>  <SCORE.INTRA.DIHEDRAL>
-1.62013

>  <SCORE.INTRA.DIHEDRAL.0>
9.75037

>  <SCORE.INTRA.POLAR>
0

>  <SCORE.INTRA.POLAR.0>
0

>  <SCORE.INTRA.REPUL>
0

>  <SCORE.INTRA.REPUL.0>
0

>  <SCORE.INTRA.SOLV>
-0.305396

>  <SCORE.INTRA.SOLV.lig_0>
-48.4279

>  <SCORE.INTRA.VDW>
2.26684

>  <SCORE.INTRA.VDW.0>
-4.69037

>  <SCORE.INTRA.norm>
0.0482993

>  <SCORE.RESTR>
0

>  <SCORE.RESTR.CAVITY>
0

>  <SCORE.RESTR.norm>
0

>  <SCORE.SYSTEM>
0

>  <SCORE.SYSTEM.CONST>
0

>  <SCORE.SYSTEM.DIHEDRAL>
0

>  <SCORE.SYSTEM.SOLV>
0

>  <SCORE.SYSTEM.norm>
0

>  <SCORE.heavy>
27

>  <SCORE.norm>
-0.575598

>  <RMSD>
2.910

$$$$
ligand
 OpenBabel02271912153D
libRbt.so/2013.1/901 2013/11/27
 27 29  0  0  0  0  0  0  0  0999 V2000
   14.8677   -6.2557   13.7084 N   0  0  0  0  0  0  0  0  0  0  0  0
   13.6286   -6.8828   14.2636 C   0  0  2  0  0  0  0  0  0  0  0  0
   13.9641   -7.8387   15.4299 C   0  0  0  0  0  0  0  0  0  0  0  0
   15.0016   -8.5083   15.4276 O   0  0  0  0  0  0  0  0  0  0  0  0
   12.8720   -7.5889   13.1435 C   0  0  0  0  0  0  0  0  0  0  0  0
   12.1562   -6.6560   12.1809 C   0  0  0  0  0  0  0  0  0  0  0  0
   12.3172   -7.1558   10.4428 S   0  0  2  0  0  0  0  0  0  0  0  0
   11.7666   -8.8831   10.5361 C   0  0  0  0  0  0  0  0  0  0  0  0
   14.0794   -7.3366   10.1232 C   0  0  0  0  0  0  0  0  0  0  0  0
   14.2944   -7.5300    8.6342 C   0  0  1  0  0  0  0  0  0  0  0  0
   14.1376   -6.3253    7.9007 O   0  0  0  0  0  0  0  0  0  0  0  0
   15.6800   -8.0509    8.3396 C   0  0  1  0  0  0  0  0  0  0  0  0
   15.7280   -9.4445    8.4496 O   0  0  0  0  0  0  0  0  0  0  0  0
   15.8682   -7.5921    6.9257 C   0  0  1  0  0  0  0  0  0  0  0  0
   15.3410   -8.5678    6.0470 O   0  0  0  0  0  0  0  0  0  0  0  0
   15.0612   -6.3033    6.8369 C   0  0  2  0  0  0  0  0  0  0  0  0
   13.2117   -7.9811   16.4112 O   0  0  0  0  0  0  0  0  0  0  0  0
   15.5824   -1.2825    8.3794 N   0  0  0  0  0  0  0  0  0  0  0  0
   14.4697   -2.1011    8.5077 C   0  0  0  0  0  0  0  0  0  0  0  0
   14.4867   -3.4074    8.0337 N   0  0  0  0  0  0  0  0  0  0  0  0
   15.6061   -3.8854    7.4604 C   0  0  0  0  0  0  0  0  0  0  0  0
   16.7385   -3.0751    7.3391 C   0  0  0  0  0  0  0  0  0  0  0  0
   16.7288   -1.7669    7.7870 C   0  0  0  0  0  0  0  0  0  0  0  0
   17.8009   -0.9995    7.6600 N   0  0  0  0  0  0  0  0  0  0  0  0
   17.7027   -3.7931    6.7528 N   0  0  0  0  0  0  0  0  0  0  0  0
   17.2165   -5.0290    6.5034 C   0  0  0  0  0  0  0  0  0  0  0  0
   15.9175   -5.1066    6.9402 N   0  0  0  0  0  0  0  0  0  0  0  0
  2  1  1  6  0  0  0
  2  3  1  0  0  0  0
  2  5  1  0  0  0  0
  3  4  1  0  0  0  0
  3 17  1  0  0  0  0
  5  6  1  0  0  0  0
  7  6  1  1  0  0  0
  7  8  1  0  0  0  0
  7  9  1  0  0  0  0
 10  9  1  1  0  0  0
 10 11  1  0  0  0  0
 10 12  1  0  0  0  0
 11 16  1  0  0  0  0
 12 13  1  6  0  0  0
 12 14  1  0  0  0  0
 14 15  1  6  0  0  0
 14 16  1  0  0  0  0
 16 27  1  1  0  0  0
 18 19  2  0  0  0  0
 18 23  1  0  0  0  0
 19 20  1  0  0  0  0
 20 21  2  0  0  0  0
 21 22  1  0  0  0  0
 21 27  1  0  0  0  0
 22 23  2  0  0  0  0
 22 25  1  0  0  0  0
 23 24  1  0  0  0  0
 25 26  2  0  0  0  0
 26 27  1  0  0  0  0
M  END
>  <CHROM.1>
-34.89365489,-73.74250987,138.14202696,52.66117856,-170.79869738,74.95776250
-30.52611094,14.73652320,-6.06814224,9.73918810,-2.80387691,-1.19759657,-2.23543558

>  <Name>
ligand

>  <RI>
0

>  <Rbt.Current_Directory>
/home/itssahil/PROJECTS/Mol_Feturizer/Test_systems_manuscript/rnas/2ydh

>  <Rbt.Executable>
rbdock ($Id: //depot/dev/client3/rdock/2013.1/src/exe/rbdock.cxx#4 $)

>  <Rbt.Library>
libRbt.so (2013.1, Build901 2013/11/27)

>  <Rbt.Parameter_File>
/export/apps/rDock/src/rDock_2013.1_src/data/scripts/dock_solv.prm

>  <Rbt.Receptor>
prm/pocket_docking_7.prm

>  <SCORE>
-6.78437

>  <SCORE.INTER>
-9.6187

>  <SCORE.INTER.CONST>
1

>  <SCORE.INTER.POLAR>
0

>  <SCORE.INTER.ROT>
7

>  <SCORE.INTER.SOLV>
21.1757

>  <SCORE.INTER.VDW>
-21.7377

>  <SCORE.INTER.norm>
-0.356248

>  <SCORE.INTRA>
2.83432

>  <SCORE.INTRA.DIHEDRAL>
-0.0977549

>  <SCORE.INTRA.DIHEDRAL.0>
9.75037

>  <SCORE.INTRA.POLAR>
0

>  <SCORE.INTRA.POLAR.0>
0

>  <SCORE.INTRA.REPUL>
0

>  <SCORE.INTRA.REPUL.0>
0

>  <SCORE.INTRA.SOLV>
-0.060032

>  <SCORE.INTRA.SOLV.lig_0>
-48.4279

>  <SCORE.INTRA.VDW>
2.91322

>  <SCORE.INTRA.VDW.0>
-4.69037

>  <SCORE.INTRA.norm>
0.104975

>  <SCORE.RESTR>
0

>  <SCORE.RESTR.CAVITY>
0

>  <SCORE.RESTR.norm>
0

>  <SCORE.SYSTEM>
0

>  <SCORE.SYSTEM.CONST>
0

>  <SCORE.SYSTEM.DIHEDRAL>
0

>  <SCORE.SYSTEM.SOLV>
0

>  <SCORE.SYSTEM.norm>
0

>  <SCORE.heavy>
27

>  <SCORE.norm>
-0.251273

>  <RMSD>
2.999

$$$$
ligand
 OpenBabel02271912153D
libRbt.so/2013.1/901 2013/11/27
 27 29  0  0  0  0  0  0  0  0999 V2000
   14.4048   -8.0126   15.0705 N   0  0  0  0  0  0  0  0  0  0  0  0
   13.1005   -8.6363   14.6877 C   0  0  2  0  0  0  0  0  0  0  0  0
   13.2441  -10.1650   14.5175 C   0  0  0  0  0  0  0  0  0  0  0  0
   12.3432  -10.9332   14.8679 O   0  0  0  0  0  0  0  0  0  0  0  0
   12.5693   -7.9665   13.4248 C   0  0  0  0  0  0  0  0  0  0  0  0
   13.4707   -8.1081   12.2096 C   0  0  0  0  0  0  0  0  0  0  0  0
   12.6638   -7.6250   10.6564 S   0  0  2  0  0  0  0  0  0  0  0  0
   11.5673   -9.0470   10.3895 C   0  0  0  0  0  0  0  0  0  0  0  0
   13.8881   -7.8410    9.3548 C   0  0  0  0  0  0  0  0  0  0  0  0
   13.3107   -7.3393    8.0449 C   0  0  1  0  0  0  0  0  0  0  0  0
   12.7770   -6.0287    8.1519 O   0  0  0  0  0  0  0  0  0  0  0  0
   14.3571   -7.3041    6.9579 C   0  0  1  0  0  0  0  0  0  0  0  0
   14.4805   -8.5515    6.3370 O   0  0  0  0  0  0  0  0  0  0  0  0
   13.7833   -6.2719    6.0357 C   0  0  1  0  0  0  0  0  0  0  0  0
   12.8974   -6.9006    5.1289 O   0  0  0  0  0  0  0  0  0  0  0  0
   13.0218   -5.3262    6.9555 C   0  0  2  0  0  0  0  0  0  0  0  0
   14.2635  -10.6877   14.0306 O   0  0  0  0  0  0  0  0  0  0  0  0
   17.7188   -2.9365    7.2495 N   0  0  0  0  0  0  0  0  0  0  0  0
   17.4531   -4.2497    6.8895 C   0  0  0  0  0  0  0  0  0  0  0  0
   16.1512   -4.7358    6.8746 N   0  0  0  0  0  0  0  0  0  0  0  0
   15.1371   -3.9122    7.1963 C   0  0  0  0  0  0  0  0  0  0  0  0
   15.3909   -2.5829    7.5460 C   0  0  0  0  0  0  0  0  0  0  0  0
   16.6828   -2.0918    7.5857 C   0  0  0  0  0  0  0  0  0  0  0  0
   16.9192   -0.8343    7.9283 N   0  0  0  0  0  0  0  0  0  0  0  0
   14.2199   -1.9896    7.8024 N   0  0  0  0  0  0  0  0  0  0  0  0
   13.2371   -2.8996    7.6232 C   0  0  0  0  0  0  0  0  0  0  0  0
   13.7872   -4.0981    7.2420 N   0  0  0  0  0  0  0  0  0  0  0  0
  2  1  1  6  0  0  0
  2  3  1  0  0  0  0
  2  5  1  0  0  0  0
  3  4  1  0  0  0  0
  3 17  1  0  0  0  0
  5  6  1  0  0  0  0
  7  6  1  1  0  0  0
  7  8  1  0  0  0  0
  7  9  1  0  0  0  0
 10  9  1  1  0  0  0
 10 11  1  0  0  0  0
 10 12  1  0  0  0  0
 11 16  1  0  0  0  0
 12 13  1  6  0  0  0
 12 14  1  0  0  0  0
 14 15  1  6  0  0  0
 14 16  1  0  0  0  0
 16 27  1  1  0  0  0
 18 19  2  0  0  0  0
 18 23  1  0  0  0  0
 19 20  1  0  0  0  0
 20 21  2  0  0  0  0
 21 22  1  0  0  0  0
 21 27  1  0  0  0  0
 22 23  2  0  0  0  0
 22 25  1  0  0  0  0
 23 24  1  0  0  0  0
 25 26  2  0  0  0  0
 26 27  1  0  0  0  0
M  END
>  <CHROM.1>
142.91247827,61.33111129,167.51692720,-74.49629378,-175.17968900,51.28420693
94.45139300,14.05843956,-6.37174558,9.39638086,-2.07987987,-1.02977792,-1.29809640

>  <Name>
ligand

>  <RI>
0

>  <Rbt.Current_Directory>
/home/itssahil/PROJECTS/Mol_Feturizer/Test_systems_manuscript/rnas/2ydh

>  <Rbt.Executable>
rbdock ($Id: //depot/dev/client3/rdock/2013.1/src/exe/rbdock.cxx#4 $)

>  <Rbt.Library>
libRbt.so (2013.1, Build901 2013/11/27)

>  <Rbt.Parameter_File>
/export/apps/rDock/src/rDock_2013.1_src/data/scripts/dock_solv.prm

>  <Rbt.Receptor>
prm/pocket_docking_6.prm

>  <SCORE>
-14.1311

>  <SCORE.INTER>
-13.2826

>  <SCORE.INTER.CONST>
1

>  <SCORE.INTER.POLAR>
0

>  <SCORE.INTER.ROT>
7

>  <SCORE.INTER.SOLV>
16.5808

>  <SCORE.INTER.VDW>
-22.6487

>  <SCORE.INTER.norm>
-0.491948

>  <SCORE.INTRA>
-0.848528

>  <SCORE.INTRA.DIHEDRAL>
-5.28004

>  <SCORE.INTRA.DIHEDRAL.0>
9.75037

>  <SCORE.INTRA.POLAR>
0

>  <SCORE.INTRA.POLAR.0>
0

>  <SCORE.INTRA.REPUL>
0

>  <SCORE.INTRA.REPUL.0>
0

>  <SCORE.INTRA.SOLV>
-0.837663

>  <SCORE.INTRA.SOLV.lig_0>
-48.4279

>  <SCORE.INTRA.VDW>
2.21033

>  <SCORE.INTRA.VDW.0>
-4.69037

>  <SCORE.INTRA.norm>
-0.031427

>  <SCORE.RESTR>
0

>  <SCORE.RESTR.CAVITY>
0

>  <SCORE.RESTR.norm>
0

>  <SCORE.SYSTEM>
0

>  <SCORE.SYSTEM.CONST>
0

>  <SCORE.SYSTEM.DIHEDRAL>
0

>  <SCORE.SYSTEM.SOLV>
0

>  <SCORE.SYSTEM.norm>
0

>  <SCORE.heavy>
27

>  <SCORE.norm>
-0.523375

>  <RMSD>
3.026

$$$$
ligand
 OpenBabel02271912153D
libRbt.so/2013.1/901 2013/11/27
 27 29  0  0  0  0  0  0  0  0999 V2000
   15.0440  -10.1628   10.4757 N   0  0  0  0  0  0  0  0  0  0  0  0
   14.7356   -9.6929   11.8616 C   0  0  2  0  0  0  0  0  0  0  0  0
   13.5665  -10.4961   12.4737 C   0  0  0  0  0  0  0  0  0  0  0  0
   12.4563  -10.5184   11.9338 O   0  0  0  0  0  0  0  0  0  0  0  0
   14.4510   -8.1949   11.8377 C   0  0  0  0  0  0  0  0  0  0  0  0
   15.4815   -7.3697   11.0851 C   0  0  0  0  0  0  0  0  0  0  0  0
   14.8411   -6.6516    9.5452 S   0  0  2  0  0  0  0  0  0  0  0  0
   13.6595   -5.4408   10.2035 C   0  0  0  0  0  0  0  0  0  0  0  0
   13.7524   -7.8869    8.8182 C   0  0  0  0  0  0  0  0  0  0  0  0
   13.2842   -7.3962    7.4615 C   0  0  1  0  0  0  0  0  0  0  0  0
   12.7675   -6.0752    7.5092 O   0  0  0  0  0  0  0  0  0  0  0  0
   14.4097   -7.3955    6.4560 C   0  0  1  0  0  0  0  0  0  0  0  0
   14.5569   -8.6543    5.8641 O   0  0  0  0  0  0  0  0  0  0  0  0
   13.9254   -6.3684    5.4786 C   0  0  1  0  0  0  0  0  0  0  0  0
   13.0990   -6.9962    4.5167 O   0  0  0  0  0  0  0  0  0  0  0  0
   13.1141   -5.3957    6.3247 C   0  0  2  0  0  0  0  0  0  0  0  0
   13.6856  -11.1456   13.5289 O   0  0  0  0  0  0  0  0  0  0  0  0
   17.7780   -3.1903    7.4397 N   0  0  0  0  0  0  0  0  0  0  0  0
   17.5108   -4.5239    7.1663 C   0  0  0  0  0  0  0  0  0  0  0  0
   16.2152   -4.9525    6.9034 N   0  0  0  0  0  0  0  0  0  0  0  0
   15.2132   -4.0547    6.8968 C   0  0  0  0  0  0  0  0  0  0  0  0
   15.4722   -2.7058    7.1558 C   0  0  0  0  0  0  0  0  0  0  0  0
   16.7529   -2.2688    7.4399 C   0  0  0  0  0  0  0  0  0  0  0  0
   16.9917   -0.9912    7.6955 N   0  0  0  0  0  0  0  0  0  0  0  0
   14.3166   -2.0373    7.0738 N   0  0  0  0  0  0  0  0  0  0  0  0
   13.3391   -2.9193    6.7691 C   0  0  0  0  0  0  0  0  0  0  0  0
   13.8778   -4.1764    6.6505 N   0  0  0  0  0  0  0  0  0  0  0  0
  2  1  1  6  0  0  0
  2  3  1  0  0  0  0
  2  5  1  0  0  0  0
  3  4  1  0  0  0  0
  3 17  1  0  0  0  0
  5  6  1  0  0  0  0
  7  6  1  1  0  0  0
  7  8  1  0  0  0  0
  7  9  1  0  0  0  0
 10  9  1  1  0  0  0
 10 11  1  0  0  0  0
 10 12  1  0  0  0  0
 11 16  1  0  0  0  0
 12 13  1  6  0  0  0
 12 14  1  0  0  0  0
 14 15  1  6  0  0  0
 14 16  1  0  0  0  0
 16 27  1  1  0  0  0
 18 19  2  0  0  0  0
 18 23  1  0  0  0  0
 19 20  1  0  0  0  0
 20 21  2  0  0  0  0
 21 22  1  0  0  0  0
 21 27  1  0  0  0  0
 22 23  2  0  0  0  0
 22 25  1  0  0  0  0
 23 24  1  0  0  0  0
 25 26  2  0  0  0  0
 26 27  1  0  0  0  0
M  END
>  <CHROM.1>
-59.00884892,-48.73134257,111.29830113,68.39451877,-174.83570113,-50.34604224
83.83513717,14.56650436,-6.33078628,8.48045753,-1.92537418,-1.00711839,-0.95432290

>  <Name>
ligand

>  <RI>
0

>  <Rbt.Current_Directory>
/home/itssahil/PROJECTS/Mol_Feturizer/Test_systems_manuscript/rnas/2ydh

>  <Rbt.Executable>
rbdock ($Id: //depot/dev/client3/rdock/2013.1/src/exe/rbdock.cxx#4 $)

>  <Rbt.Library>
libRbt.so (2013.1, Build901 2013/11/27)

>  <Rbt.Parameter_File>
/export/apps/rDock/src/rDock_2013.1_src/data/scripts/dock_solv.prm

>  <Rbt.Receptor>
prm/pocket_docking_5.prm

>  <SCORE>
-8.65922

>  <SCORE.INTER>
-11.1183

>  <SCORE.INTER.CONST>
1

>  <SCORE.INTER.POLAR>
0

>  <SCORE.INTER.ROT>
7

>  <SCORE.INTER.SOLV>
20.6176

>  <SCORE.INTER.VDW>
-22.5514

>  <SCORE.INTER.norm>
-0.41179

>  <SCORE.INTRA>
2.4591

>  <SCORE.INTRA.DIHEDRAL>
0.433003

>  <SCORE.INTRA.DIHEDRAL.0>
9.75037

>  <SCORE.INTRA.POLAR>
0

>  <SCORE.INTRA.POLAR.0>
0

>  <SCORE.INTRA.REPUL>
0

>  <SCORE.INTRA.REPUL.0>
0

>  <SCORE.INTRA.SOLV>
1.52063

>  <SCORE.INTRA.SOLV.lig_0>
-48.4279

>  <SCORE.INTRA.VDW>
1.48228

>  <SCORE.INTRA.VDW.0>
-4.69037

>  <SCORE.INTRA.norm>
0.0910777

>  <SCORE.RESTR>
0

>  <SCORE.RESTR.CAVITY>
0

>  <SCORE.RESTR.norm>
0

>  <SCORE.SYSTEM>
0

>  <SCORE.SYSTEM.CONST>
0

>  <SCORE.SYSTEM.DIHEDRAL>
0

>  <SCORE.SYSTEM.SOLV>
0

>  <SCORE.SYSTEM.norm>
0

>  <SCORE.heavy>
27

>  <SCORE.norm>
-0.320712

>  <RMSD>
3.080

$$$$
ligand
 OpenBabel02271912153D
libRbt.so/2013.1/901 2013/11/27
 27 29  0  0  0  0  0  0  0  0999 V2000
   13.6469   -8.0350   15.4721 N   0  0  0  0  0  0  0  0  0  0  0  0
   12.5220   -8.8557   14.9265 C   0  0  2  0  0  0  0  0  0  0  0  0
   12.9631  -10.3176   14.6924 C   0  0  0  0  0  0  0  0  0  0  0  0
   12.1406  -11.2385   14.6840 O   0  0  0  0  0  0  0  0  0  0  0  0
   11.9916   -8.2062   13.6527 C   0  0  0  0  0  0  0  0  0  0  0  0
   13.0187   -8.0675   12.5414 C   0  0  0  0  0  0  0  0  0  0  0  0
   12.2965   -7.5575   10.9554 S   0  0  2  0  0  0  0  0  0  0  0  0
   11.3649   -9.0516   10.5131 C   0  0  0  0  0  0  0  0  0  0  0  0
   13.6361   -7.5766    9.7532 C   0  0  0  0  0  0  0  0  0  0  0  0
   13.1165   -7.0585    8.4258 C   0  0  1  0  0  0  0  0  0  0  0  0
   12.6670   -5.7146    8.5043 O   0  0  0  0  0  0  0  0  0  0  0  0
   14.1825   -7.1074    7.3585 C   0  0  1  0  0  0  0  0  0  0  0  0
   14.2359   -8.3693    6.7575 O   0  0  0  0  0  0  0  0  0  0  0  0
   13.6938   -6.0543    6.4113 C   0  0  1  0  0  0  0  0  0  0  0  0
   12.7856   -6.6381    5.4966 O   0  0  0  0  0  0  0  0  0  0  0  0
   12.9786   -5.0475    7.3031 C   0  0  2  0  0  0  0  0  0  0  0  0
   14.1534  -10.6324   14.5091 O   0  0  0  0  0  0  0  0  0  0  0  0
   17.7685   -2.8312    7.2454 N   0  0  0  0  0  0  0  0  0  0  0  0
   17.4158   -4.1065    6.8284 C   0  0  0  0  0  0  0  0  0  0  0  0
   16.1020   -4.5498    6.9224 N   0  0  0  0  0  0  0  0  0  0  0  0
   15.1603   -3.7204    7.4076 C   0  0  0  0  0  0  0  0  0  0  0  0
   15.5007   -2.4280    7.8168 C   0  0  0  0  0  0  0  0  0  0  0  0
   16.8075   -1.9811    7.7488 C   0  0  0  0  0  0  0  0  0  0  0  0
   17.1271   -0.7592    8.1480 N   0  0  0  0  0  0  0  0  0  0  0  0
   14.3873   -1.8186    8.2387 N   0  0  0  0  0  0  0  0  0  0  0  0
   13.3568   -2.6827    8.1062 C   0  0  0  0  0  0  0  0  0  0  0  0
   13.8168   -3.8674    7.5872 N   0  0  0  0  0  0  0  0  0  0  0  0
  2  1  1  6  0  0  0
  2  3  1  0  0  0  0
  2  5  1  0  0  0  0
  3  4  1  0  0  0  0
  3 17  1  0  0  0  0
  5  6  1  0  0  0  0
  7  6  1  1  0  0  0
  7  8  1  0  0  0  0
  7  9  1  0  0  0  0
 10  9  1  1  0  0  0
 10 11  1  0  0  0  0
 10 12  1  0  0  0  0
 11 16  1  0  0  0  0
 12 13  1  6  0  0  0
 12 14  1  0  0  0  0
 14 15  1  6  0  0  0
 14 16  1  0  0  0  0
 16 27  1  1  0  0  0
 18 19  2  0  0  0  0
 18 23  1  0  0  0  0
 19 20  1  0  0  0  0
 20 21  2  0  0  0  0
 21 22  1  0  0  0  0
 21 27  1  0  0  0  0
 22 23  2  0  0  0  0
 22 25  1  0  0  0  0
 23 24  1  0  0  0  0
 25 26  2  0  0  0  0
 26 27  1  0  0  0  0
M  END
>  <CHROM.1>
155.49578966,59.95917911,170.16571731,-69.41302026,-175.81862788,62.16946046
103.33360322,13.89566356,-6.27080973,9.66719737,-2.14465940,-0.99282282,-1.31775027

>  <Name>
ligand

>  <RI>
0

>  <Rbt.Current_Directory>
/home/itssahil/PROJECTS/Mol_Feturizer/Test_systems_manuscript/rnas/2ydh

>  <Rbt.Executable>
rbdock ($Id: //depot/dev/client3/rdock/2013.1/src/exe/rbdock.cxx#4 $)

>  <Rbt.Library>
libRbt.so (2013.1, Build901 2013/11/27)

>  <Rbt.Parameter_File>
/export/apps/rDock/src/rDock_2013.1_src/data/scripts/dock_solv.prm

>  <Rbt.Receptor>
prm/pocket_docking_5.prm

>  <SCORE>
-14.1313

>  <SCORE.INTER>
-13.1511

>  <SCORE.INTER.CONST>
1

>  <SCORE.INTER.POLAR>
0

>  <SCORE.INTER.ROT>
7

>  <SCORE.INTER.SOLV>
17.1619

>  <SCORE.INTER.VDW>
-22.7547

>  <SCORE.INTER.norm>
-0.487077

>  <SCORE.INTRA>
-0.98023

>  <SCORE.INTRA.DIHEDRAL>
-5.94658

>  <SCORE.INTRA.DIHEDRAL.0>
9.75037

>  <SCORE.INTRA.POLAR>
0

>  <SCORE.INTRA.POLAR.0>
0

>  <SCORE.INTRA.REPUL>
0

>  <SCORE.INTRA.REPUL.0>
0

>  <SCORE.INTRA.SOLV>
-0.857792

>  <SCORE.INTRA.SOLV.lig_0>
-48.4279

>  <SCORE.INTRA.VDW>
2.42196

>  <SCORE.INTRA.VDW.0>
-4.69037

>  <SCORE.INTRA.norm>
-0.0363048

>  <SCORE.RESTR>
0

>  <SCORE.RESTR.CAVITY>
0

>  <SCORE.RESTR.norm>
0

>  <SCORE.SYSTEM>
0

>  <SCORE.SYSTEM.CONST>
0

>  <SCORE.SYSTEM.DIHEDRAL>
0

>  <SCORE.SYSTEM.SOLV>
0

>  <SCORE.SYSTEM.norm>
0

>  <SCORE.heavy>
27

>  <SCORE.norm>
-0.523382

>  <RMSD>
3.256

$$$$
ligand
 OpenBabel02271912153D
libRbt.so/2013.1/901 2013/11/27
 27 29  0  0  0  0  0  0  0  0999 V2000
   13.5901   -7.2523   12.1111 N   0  0  0  0  0  0  0  0  0  0  0  0
   15.0444   -7.5782   11.9870 C   0  0  2  0  0  0  0  0  0  0  0  0
   15.7028   -7.7201   13.3774 C   0  0  0  0  0  0  0  0  0  0  0  0
   15.4634   -6.9142   14.2817 O   0  0  0  0  0  0  0  0  0  0  0  0
   15.7310   -6.5172   11.1335 C   0  0  0  0  0  0  0  0  0  0  0  0
   17.1620   -6.8497   10.7453 C   0  0  0  0  0  0  0  0  0  0  0  0
   17.2951   -8.3115    9.6763 S   0  0  2  0  0  0  0  0  0  0  0  0
   18.5785   -9.2524   10.5500 C   0  0  0  0  0  0  0  0  0  0  0  0
   18.1600   -7.7813    8.1895 C   0  0  0  0  0  0  0  0  0  0  0  0
   17.5016   -8.4186    6.9808 C   0  0  1  0  0  0  0  0  0  0  0  0
   16.0846   -8.3784    7.0486 O   0  0  0  0  0  0  0  0  0  0  0  0
   17.9038   -7.7241    5.7026 C   0  0  1  0  0  0  0  0  0  0  0  0
   19.1132   -8.2293    5.2140 O   0  0  0  0  0  0  0  0  0  0  0  0
   16.7502   -8.0672    4.8102 C   0  0  1  0  0  0  0  0  0  0  0  0
   17.0013   -9.3113    4.1845 O   0  0  0  0  0  0  0  0  0  0  0  0
   15.5613   -8.1768    5.7561 C   0  0  2  0  0  0  0  0  0  0  0  0
   16.4992   -8.6382   13.6462 O   0  0  0  0  0  0  0  0  0  0  0  0
   15.0782   -3.0491    6.9105 N   0  0  0  0  0  0  0  0  0  0  0  0
   16.1738   -3.8714    7.1302 C   0  0  0  0  0  0  0  0  0  0  0  0
   16.1385   -5.2157    6.7793 N   0  0  0  0  0  0  0  0  0  0  0  0
   15.0313   -5.7167    6.2020 C   0  0  0  0  0  0  0  0  0  0  0  0
   13.9267   -4.8946    5.9616 C   0  0  0  0  0  0  0  0  0  0  0  0
   13.9401   -3.5605    6.3249 C   0  0  0  0  0  0  0  0  0  0  0  0
   12.8867   -2.7880    6.1050 N   0  0  0  0  0  0  0  0  0  0  0  0
   12.9792   -5.6328    5.3731 N   0  0  0  0  0  0  0  0  0  0  0  0
   13.4510   -6.8912    5.2322 C   0  0  0  0  0  0  0  0  0  0  0  0
   14.7257   -6.9613    5.7368 N   0  0  0  0  0  0  0  0  0  0  0  0
  2  1  1  1  0  0  0
  2  3  1  0  0  0  0
  2  5  1  0  0  0  0
  3  4  1  0  0  0  0
  3 17  1  0  0  0  0
  5  6  1  0  0  0  0
  7  6  1  1  0  0  0
  7  8  1  0  0  0  0
  7  9  1  0  0  0  0
 10  9  1  1  0  0  0
 10 11  1  0  0  0  0
 10 12  1  0  0  0  0
 11 16  1  0  0  0  0
 12 13  1  6  0  0  0
 12 14  1  0  0  0  0
 14 15  1  1  0  0  0
 14 16  1  0  0  0  0
 16 27  1  1  0  0  0
 18 19  2  0  0  0  0
 18 23  1  0  0  0  0
 19 20  1  0  0  0  0
 20 21  2  0  0  0  0
 21 22  1  0  0  0  0
 21 27  1  0  0  0  0
 22 23  2  0  0  0  0
 22 25  1  0  0  0  0
 23 24  1  0  0  0  0
 25 26  2  0  0  0  0
 26 27  1  0  0  0  0
M  END
>  <CHROM.1>
-43.72294982,-170.63192299,64.35579110,-130.21935004,-138.88621366,43.26243538
49.69799937,15.95843179,-6.94474706,8.17950464,1.39021921,-0.82342014,1.67403461

>  <Name>
ligand

>  <RI>
0

>  <Rbt.Current_Directory>
/home/itssahil/PROJECTS/Mol_Feturizer/Test_systems_manuscript/rnas/2ydh

>  <Rbt.Executable>
rbdock ($Id: //depot/dev/client3/rdock/2013.1/src/exe/rbdock.cxx#4 $)

>  <Rbt.Library>
libRbt.so (2013.1, Build901 2013/11/27)

>  <Rbt.Parameter_File>
/export/apps/rDock/src/rDock_2013.1_src/data/scripts/dock_solv.prm

>  <Rbt.Receptor>
prm/pocket_docking_6.prm

>  <SCORE>
-7.6914

>  <SCORE.INTER>
-9.22488

>  <SCORE.INTER.CONST>
1

>  <SCORE.INTER.POLAR>
0

>  <SCORE.INTER.ROT>
7

>  <SCORE.INTER.SOLV>
17.2443

>  <SCORE.INTER.VDW>
-20.1647

>  <SCORE.INTER.norm>
-0.341662

>  <SCORE.INTRA>
1.53347

>  <SCORE.INTRA.DIHEDRAL>
3.11987

>  <SCORE.INTRA.DIHEDRAL.0>
9.75037

>  <SCORE.INTRA.POLAR>
0

>  <SCORE.INTRA.POLAR.0>
0

>  <SCORE.INTRA.REPUL>
0

>  <SCORE.INTRA.REPUL.0>
0

>  <SCORE.INTRA.SOLV>
-1.36477

>  <SCORE.INTRA.SOLV.lig_0>
-48.4279

>  <SCORE.INTRA.VDW>
0.655926

>  <SCORE.INTRA.VDW.0>
-4.69037

>  <SCORE.INTRA.norm>
0.0567954

>  <SCORE.RESTR>
0

>  <SCORE.RESTR.CAVITY>
0

>  <SCORE.RESTR.norm>
0

>  <SCORE.SYSTEM>
0

>  <SCORE.SYSTEM.CONST>
0

>  <SCORE.SYSTEM.DIHEDRAL>
0

>  <SCORE.SYSTEM.SOLV>
0

>  <SCORE.SYSTEM.norm>
0

>  <SCORE.heavy>
27

>  <SCORE.norm>
-0.284867

>  <RMSD>
3.274

$$$$
ligand
 OpenBabel02271912153D
libRbt.so/2013.1/901 2013/11/27
 27 29  0  0  0  0  0  0  0  0999 V2000
   11.2769   -7.8510   14.4327 N   0  0  0  0  0  0  0  0  0  0  0  0
   10.8738   -8.6921   13.2636 C   0  0  2  0  0  0  0  0  0  0  0  0
   11.0195  -10.1962   13.5845 C   0  0  0  0  0  0  0  0  0  0  0  0
   12.0956  -10.6655   13.9671 O   0  0  0  0  0  0  0  0  0  0  0  0
   11.6894   -8.2854   12.0409 C   0  0  0  0  0  0  0  0  0  0  0  0
   11.3599   -9.0617   10.7769 C   0  0  0  0  0  0  0  0  0  0  0  0
   12.5886   -8.8423    9.4581 S   0  0  2  0  0  0  0  0  0  0  0  0
   14.1157   -9.2571   10.3477 C   0  0  0  0  0  0  0  0  0  0  0  0
   12.7637   -7.0679    9.2116 C   0  0  0  0  0  0  0  0  0  0  0  0
   12.7678   -6.7735    7.7237 C   0  0  1  0  0  0  0  0  0  0  0  0
   12.4774   -5.4142    7.4371 O   0  0  0  0  0  0  0  0  0  0  0  0
   14.1094   -7.0800    7.1040 C   0  0  1  0  0  0  0  0  0  0  0  0
   14.2075   -8.4319    6.7586 O   0  0  0  0  0  0  0  0  0  0  0  0
   14.0814   -6.1925    5.8971 C   0  0  1  0  0  0  0  0  0  0  0  0
   13.4582   -6.8806    4.8292 O   0  0  0  0  0  0  0  0  0  0  0  0
   13.2380   -4.9989    6.3262 C   0  0  2  0  0  0  0  0  0  0  0  0
   10.0730  -10.9962   13.4687 O   0  0  0  0  0  0  0  0  0  0  0  0
   18.0284   -3.0944    7.4593 N   0  0  0  0  0  0  0  0  0  0  0  0
   17.6867   -4.3982    7.1306 C   0  0  0  0  0  0  0  0  0  0  0  0
   16.3664   -4.7459    6.8710 N   0  0  0  0  0  0  0  0  0  0  0  0
   15.4135   -3.7974    6.9221 C   0  0  0  0  0  0  0  0  0  0  0  0
   15.7476   -2.4773    7.2372 C   0  0  0  0  0  0  0  0  0  0  0  0
   17.0538   -2.1215    7.5186 C   0  0  0  0  0  0  0  0  0  0  0  0
   17.3638   -0.8712    7.8275 N   0  0  0  0  0  0  0  0  0  0  0  0
   14.6280   -1.7461    7.2053 N   0  0  0  0  0  0  0  0  0  0  0  0
   13.6008   -2.5608    6.8779 C   0  0  0  0  0  0  0  0  0  0  0  0
   14.0701   -3.8375    6.6935 N   0  0  0  0  0  0  0  0  0  0  0  0
  2  1  1  1  0  0  0
  2  3  1  0  0  0  0
  2  5  1  0  0  0  0
  3  4  1  0  0  0  0
  3 17  1  0  0  0  0
  5  6  1  0  0  0  0
  7  6  1  1  0  0  0
  7  8  1  0  0  0  0
  7  9  1  0  0  0  0
 10  9  1  1  0  0  0
 10 11  1  0  0  0  0
 10 12  1  0  0  0  0
 11 16  1  0  0  0  0
 12 13  1  6  0  0  0
 12 14  1  0  0  0  0
 14 15  1  6  0  0  0
 14 16  1  0  0  0  0
 16 27  1  1  0  0  0
 18 19  2  0  0  0  0
 18 23  1  0  0  0  0
 19 20  1  0  0  0  0
 20 21  2  0  0  0  0
 21 22  1  0  0  0  0
 21 27  1  0  0  0  0
 22 23  2  0  0  0  0
 22 25  1  0  0  0  0
 23 24  1  0  0  0  0
 25 26  2  0  0  0  0
 26 27  1  0  0  0  0
M  END
>  <CHROM.1>
-55.78047576,-179.36981692,-166.43089088,52.70365529,-135.37425690,161.27900632
105.51700282,13.66486344,-6.40318405,8.90238687,-2.64141653,-1.02659544,-1.74037454

>  <Name>
ligand

>  <RI>
0

>  <Rbt.Current_Directory>
/home/itssahil/PROJECTS/Mol_Feturizer/Test_systems_manuscript/rnas/2ydh

>  <Rbt.Executable>
rbdock ($Id: //depot/dev/client3/rdock/2013.1/src/exe/rbdock.cxx#4 $)

>  <Rbt.Library>
libRbt.so (2013.1, Build901 2013/11/27)

>  <Rbt.Parameter_File>
/export/apps/rDock/src/rDock_2013.1_src/data/scripts/dock_solv.prm

>  <Rbt.Receptor>
prm/pocket_docking_6.prm

>  <SCORE>
-14.1623

>  <SCORE.INTER>
-16.0333

>  <SCORE.INTER.CONST>
1

>  <SCORE.INTER.POLAR>
0

>  <SCORE.INTER.ROT>
7

>  <SCORE.INTER.SOLV>
20.5913

>  <SCORE.INTER.VDW>
-25.8193

>  <SCORE.INTER.norm>
-0.593826

>  <SCORE.INTRA>
1.87096

>  <SCORE.INTRA.DIHEDRAL>
-0.656085

>  <SCORE.INTRA.DIHEDRAL.0>
9.75037

>  <SCORE.INTRA.POLAR>
0

>  <SCORE.INTRA.POLAR.0>
0

>  <SCORE.INTRA.REPUL>
0

>  <SCORE.INTRA.REPUL.0>
0

>  <SCORE.INTRA.SOLV>
-1.32033

>  <SCORE.INTRA.SOLV.lig_0>
-48.4279

>  <SCORE.INTRA.VDW>
2.85917

>  <SCORE.INTRA.VDW.0>
-4.69037

>  <SCORE.INTRA.norm>
0.0692947

>  <SCORE.RESTR>
0

>  <SCORE.RESTR.CAVITY>
0

>  <SCORE.RESTR.norm>
0

>  <SCORE.SYSTEM>
0

>  <SCORE.SYSTEM.CONST>
0

>  <SCORE.SYSTEM.DIHEDRAL>
0

>  <SCORE.SYSTEM.SOLV>
0

>  <SCORE.SYSTEM.norm>
0

>  <SCORE.heavy>
27

>  <SCORE.norm>
-0.524531

>  <RMSD>
3.313

$$$$
ligand
 OpenBabel02271912153D
libRbt.so/2013.1/901 2013/11/27
 27 29  0  0  0  0  0  0  0  0999 V2000
   12.9600   -8.3675   14.6082 N   0  0  0  0  0  0  0  0  0  0  0  0
   13.0569   -9.0790   13.2963 C   0  0  2  0  0  0  0  0  0  0  0  0
   12.4251  -10.4864   13.3793 C   0  0  0  0  0  0  0  0  0  0  0  0
   12.8580  -11.3346   14.1653 O   0  0  0  0  0  0  0  0  0  0  0  0
   14.5154   -9.1309   12.8540 C   0  0  0  0  0  0  0  0  0  0  0  0
   14.7242   -9.6052   11.4255 C   0  0  0  0  0  0  0  0  0  0  0  0
   14.0763   -8.4503   10.1831 S   0  0  2  0  0  0  0  0  0  0  0  0
   12.4171   -9.1372    9.9169 C   0  0  0  0  0  0  0  0  0  0  0  0
   14.9036   -8.8472    8.6346 C   0  0  0  0  0  0  0  0  0  0  0  0
   14.2124   -8.1120    7.5022 C   0  0  1  0  0  0  0  0  0  0  0  0
   14.0061   -6.7379    7.7913 O   0  0  0  0  0  0  0  0  0  0  0  0
   15.0169   -8.1804    6.2271 C   0  0  1  0  0  0  0  0  0  0  0  0
   14.7469   -9.3591    5.5240 O   0  0  0  0  0  0  0  0  0  0  0  0
   14.5174   -6.9674    5.5031 C   0  0  1  0  0  0  0  0  0  0  0  0
   13.3613   -7.3116    4.7634 O   0  0  0  0  0  0  0  0  0  0  0  0
   14.1672   -5.9838    6.6122 C   0  0  2  0  0  0  0  0  0  0  0  0
   11.4661  -10.8287   12.6634 O   0  0  0  0  0  0  0  0  0  0  0  0
   15.5465   -1.2551    8.5084 N   0  0  0  0  0  0  0  0  0  0  0  0
   14.3035   -1.8679    8.5720 C   0  0  0  0  0  0  0  0  0  0  0  0
   14.0961   -3.1206    8.0070 N   0  0  0  0  0  0  0  0  0  0  0  0
   15.1228   -3.7510    7.4081 C   0  0  0  0  0  0  0  0  0  0  0  0
   16.3835   -3.1503    7.3511 C   0  0  0  0  0  0  0  0  0  0  0  0
   16.5989   -1.8954    7.8902 C   0  0  0  0  0  0  0  0  0  0  0  0
   17.7929   -1.3255    7.8241 N   0  0  0  0  0  0  0  0  0  0  0  0
   17.2150   -3.9876    6.7213 N   0  0  0  0  0  0  0  0  0  0  0  0
   16.5210   -5.0965    6.3823 C   0  0  0  0  0  0  0  0  0  0  0  0
   15.2210   -4.9698    6.8049 N   0  0  0  0  0  0  0  0  0  0  0  0
  2  1  1  1  0  0  0
  2  3  1  0  0  0  0
  2  5  1  0  0  0  0
  3  4  1  0  0  0  0
  3 17  1  0  0  0  0
  5  6  1  0  0  0  0
  7  6  1  1  0  0  0
  7  8  1  0  0  0  0
  7  9  1  0  0  0  0
 10  9  1  1  0  0  0
 10 11  1  0  0  0  0
 10 12  1  0  0  0  0
 11 16  1  0  0  0  0
 12 13  1  6  0  0  0
 12 14  1  0  0  0  0
 14 15  1  1  0  0  0
 14 16  1  0  0  0  0
 16 27  1  1  0  0  0
 18 19  2  0  0  0  0
 18 23  1  0  0  0  0
 19 20  1  0  0  0  0
 20 21  2  0  0  0  0
 21 22  1  0  0  0  0
 21 27  1  0  0  0  0
 22 23  2  0  0  0  0
 22 25  1  0  0  0  0
 23 24  1  0  0  0  0
 25 26  2  0  0  0  0
 26 27  1  0  0  0  0
M  END
>  <CHROM.1>
-60.39409392,-169.60660599,66.85599909,-93.61396412,168.77475637,48.33076046
-81.31480484,14.45187892,-6.81660883,8.99819666,-2.80343977,-1.23752200,-1.92810628

>  <Name>
ligand

>  <RI>
0

>  <Rbt.Current_Directory>
/home/itssahil/PROJECTS/Mol_Feturizer/Test_systems_manuscript/rnas/2ydh

>  <Rbt.Executable>
rbdock ($Id: //depot/dev/client3/rdock/2013.1/src/exe/rbdock.cxx#4 $)

>  <Rbt.Library>
libRbt.so (2013.1, Build901 2013/11/27)

>  <Rbt.Parameter_File>
/export/apps/rDock/src/rDock_2013.1_src/data/scripts/dock_solv.prm

>  <Rbt.Receptor>
prm/pocket_docking_7.prm

>  <SCORE>
-11.4081

>  <SCORE.INTER>
-11.188

>  <SCORE.INTER.CONST>
1

>  <SCORE.INTER.POLAR>
0

>  <SCORE.INTER.ROT>
7

>  <SCORE.INTER.SOLV>
17.8207

>  <SCORE.INTER.VDW>
-21.6656

>  <SCORE.INTER.norm>
-0.414371

>  <SCORE.INTRA>
-0.253419

>  <SCORE.INTRA.DIHEDRAL>
-3.76413

>  <SCORE.INTRA.DIHEDRAL.0>
9.75037

>  <SCORE.INTRA.POLAR>
0

>  <SCORE.INTRA.POLAR.0>
0

>  <SCORE.INTRA.REPUL>
0

>  <SCORE.INTRA.REPUL.0>
0

>  <SCORE.INTRA.SOLV>
-1.40885

>  <SCORE.INTRA.SOLV.lig_0>
-48.4279

>  <SCORE.INTRA.VDW>
2.33307

>  <SCORE.INTRA.VDW.0>
-4.69037

>  <SCORE.INTRA.norm>
-0.0093859

>  <SCORE.RESTR>
0.0333279

>  <SCORE.RESTR.CAVITY>
0.0333279

>  <SCORE.RESTR.norm>
0.00123437

>  <SCORE.SYSTEM>
0

>  <SCORE.SYSTEM.CONST>
0

>  <SCORE.SYSTEM.DIHEDRAL>
0

>  <SCORE.SYSTEM.SOLV>
0

>  <SCORE.SYSTEM.norm>
0

>  <SCORE.heavy>
27

>  <SCORE.norm>
-0.422523

>  <RMSD>
3.444

$$$$
ligand
 OpenBabel02271912153D
libRbt.so/2013.1/901 2013/11/27
 27 29  0  0  0  0  0  0  0  0999 V2000
   11.6457   -8.4067   14.1399 N   0  0  0  0  0  0  0  0  0  0  0  0
   10.8340   -9.3182   13.2756 C   0  0  2  0  0  0  0  0  0  0  0  0
   10.9567  -10.7848   13.7452 C   0  0  0  0  0  0  0  0  0  0  0  0
    9.9534  -11.4710   13.9626 O   0  0  0  0  0  0  0  0  0  0  0  0
   11.2554   -9.1455   11.8201 C   0  0  0  0  0  0  0  0  0  0  0  0
   12.7224   -9.4355   11.5501 C   0  0  0  0  0  0  0  0  0  0  0  0
   13.2137   -9.1146    9.8318 S   0  0  2  0  0  0  0  0  0  0  0  0
   15.0151   -9.3023    9.9556 C   0  0  0  0  0  0  0  0  0  0  0  0
   13.0344   -7.3428    9.5705 C   0  0  0  0  0  0  0  0  0  0  0  0
   12.8837   -7.0749    8.0852 C   0  0  1  0  0  0  0  0  0  0  0  0
   12.4899   -5.7394    7.8102 O   0  0  0  0  0  0  0  0  0  0  0  0
   14.1776   -7.3161    7.3466 C   0  0  1  0  0  0  0  0  0  0  0  0
   14.3214   -8.6662    7.0103 O   0  0  0  0  0  0  0  0  0  0  0  0
   13.9868   -6.4530    6.1368 C   0  0  1  0  0  0  0  0  0  0  0  0
   13.3082   -7.1939    5.1404 O   0  0  0  0  0  0  0  0  0  0  0  0
   13.1191   -5.3015    6.6281 C   0  0  2  0  0  0  0  0  0  0  0  0
   12.0580  -11.3349   13.9295 O   0  0  0  0  0  0  0  0  0  0  0  0
   17.8707   -3.1247    7.3649 N   0  0  0  0  0  0  0  0  0  0  0  0
   17.5754   -4.4540    7.0995 C   0  0  0  0  0  0  0  0  0  0  0  0
   16.2602   -4.8753    6.9437 N   0  0  0  0  0  0  0  0  0  0  0  0
   15.2651   -3.9743    7.0340 C   0  0  0  0  0  0  0  0  0  0  0  0
   15.5511   -2.6295    7.2859 C   0  0  0  0  0  0  0  0  0  0  0  0
   16.8533   -2.2001    7.4642 C   0  0  0  0  0  0  0  0  0  0  0  0
   17.1185   -0.9265    7.7137 N   0  0  0  0  0  0  0  0  0  0  0  0
   14.3955   -1.9565    7.3115 N   0  0  0  0  0  0  0  0  0  0  0  0
   13.3918   -2.8315    7.0813 C   0  0  0  0  0  0  0  0  0  0  0  0
   13.9130   -4.0887    6.9018 N   0  0  0  0  0  0  0  0  0  0  0  0
  2  1  1  1  0  0  0
  2  3  1  0  0  0  0
  2  5  1  0  0  0  0
  3  4  1  0  0  0  0
  3 17  1  0  0  0  0
  5  6  1  0  0  0  0
  7  6  1  1  0  0  0
  7  8  1  0  0  0  0
  7  9  1  0  0  0  0
 10  9  1  1  0  0  0
 10 11  1  0  0  0  0
 10 12  1  0  0  0  0
 11 16  1  0  0  0  0
 12 13  1  6  0  0  0
 12 14  1  0  0  0  0
 14 15  1  6  0  0  0
 14 16  1  0  0  0  0
 16 27  1  1  0  0  0
 18 19  2  0  0  0  0
 18 23  1  0  0  0  0
 19 20  1  0  0  0  0
 20 21  2  0  0  0  0
 21 22  1  0  0  0  0
 21 27  1  0  0  0  0
 22 23  2  0  0  0  0
 22 25  1  0  0  0  0
 23 24  1  0  0  0  0
 25 26  2  0  0  0  0
 26 27  1  0  0  0  0
M  END
>  <CHROM.1>
128.01848960,58.93092439,-176.19025582,171.32774726,-157.66055273,168.99843183
103.84564109,13.73663072,-6.70668162,9.05581891,-2.80194811,-1.11226306,-1.90725201

>  <Name>
ligand

>  <RI>
0

>  <Rbt.Current_Directory>
/home/itssahil/PROJECTS/Mol_Feturizer/Test_systems_manuscript/rnas/2ydh

>  <Rbt.Executable>
rbdock ($Id: //depot/dev/client3/rdock/2013.1/src/exe/rbdock.cxx#4 $)

>  <Rbt.Library>
libRbt.so (2013.1, Build901 2013/11/27)

>  <Rbt.Parameter_File>
/export/apps/rDock/src/rDock_2013.1_src/data/scripts/dock_solv.prm

>  <Rbt.Receptor>
prm/pocket_docking_7.prm

>  <SCORE>
-15.5718

>  <SCORE.INTER>
-15.7215

>  <SCORE.INTER.CONST>
1

>  <SCORE.INTER.POLAR>
0

>  <SCORE.INTER.ROT>
7

>  <SCORE.INTER.SOLV>
18.2556

>  <SCORE.INTER.VDW>
-24.8329

>  <SCORE.INTER.norm>
-0.582277

>  <SCORE.INTRA>
0.149662

>  <SCORE.INTRA.DIHEDRAL>
-4.05345

>  <SCORE.INTRA.DIHEDRAL.0>
9.75037

>  <SCORE.INTRA.POLAR>
0

>  <SCORE.INTRA.POLAR.0>
0

>  <SCORE.INTRA.REPUL>
0

>  <SCORE.INTRA.REPUL.0>
0

>  <SCORE.INTRA.SOLV>
-0.501485

>  <SCORE.INTRA.SOLV.lig_0>
-48.4279

>  <SCORE.INTRA.VDW>
2.42713

>  <SCORE.INTRA.VDW.0>
-4.69037

>  <SCORE.INTRA.norm>
0.00554302

>  <SCORE.RESTR>
0

>  <SCORE.RESTR.CAVITY>
0

>  <SCORE.RESTR.norm>
0

>  <SCORE.SYSTEM>
0

>  <SCORE.SYSTEM.CONST>
0

>  <SCORE.SYSTEM.DIHEDRAL>
0

>  <SCORE.SYSTEM.SOLV>
0

>  <SCORE.SYSTEM.norm>
0

>  <SCORE.heavy>
27

>  <SCORE.norm>
-0.576734

>  <RMSD>
3.490

$$$$
ligand
 OpenBabel02271912153D
libRbt.so/2013.1/901 2013/11/27
 27 29  0  0  0  0  0  0  0  0999 V2000
   17.0098   -8.2839   12.0136 N   0  0  0  0  0  0  0  0  0  0  0  0
   16.0523   -7.1736   12.3089 C   0  0  2  0  0  0  0  0  0  0  0  0
   15.6354   -7.1800   13.7964 C   0  0  0  0  0  0  0  0  0  0  0  0
   15.7191   -8.2063   14.4779 O   0  0  0  0  0  0  0  0  0  0  0  0
   14.8502   -7.2791   11.3764 C   0  0  0  0  0  0  0  0  0  0  0  0
   13.8617   -6.1306   11.4902 C   0  0  0  0  0  0  0  0  0  0  0  0
   12.3227   -6.4134   10.5692 S   0  0  2  0  0  0  0  0  0  0  0  0
   11.7761   -7.9829   11.2996 C   0  0  0  0  0  0  0  0  0  0  0  0
   12.8044   -6.9155    8.9091 C   0  0  0  0  0  0  0  0  0  0  0  0
   13.1131   -5.6779    8.0884 C   0  0  1  0  0  0  0  0  0  0  0  0
   14.2569   -4.9830    8.5606 O   0  0  0  0  0  0  0  0  0  0  0  0
   13.3711   -6.0246    6.6423 C   0  0  1  0  0  0  0  0  0  0  0  0
   12.1741   -6.1089    5.9234 O   0  0  0  0  0  0  0  0  0  0  0  0
   14.2060   -4.8585    6.2085 C   0  0  1  0  0  0  0  0  0  0  0  0
   13.3551   -3.8120    5.7805 O   0  0  0  0  0  0  0  0  0  0  0  0
   14.9636   -4.4491    7.4649 C   0  0  2  0  0  0  0  0  0  0  0  0
   15.1962   -6.1658   14.3690 O   0  0  0  0  0  0  0  0  0  0  0  0
   18.2766   -8.4378    8.4515 N   0  0  0  0  0  0  0  0  0  0  0  0
   16.8990   -8.4155    8.6142 C   0  0  0  0  0  0  0  0  0  0  0  0
   16.1644   -7.2729    8.3206 N   0  0  0  0  0  0  0  0  0  0  0  0
   16.8006   -6.1827    7.8548 C   0  0  0  0  0  0  0  0  0  0  0  0
   18.1862   -6.1980    7.6723 C   0  0  0  0  0  0  0  0  0  0  0  0
   18.9323   -7.3206    7.9805 C   0  0  0  0  0  0  0  0  0  0  0  0
   20.2466   -7.3266    7.8162 N   0  0  0  0  0  0  0  0  0  0  0  0
   18.5555   -5.0056    7.1919 N   0  0  0  0  0  0  0  0  0  0  0  0
   17.4487   -4.2410    7.0630 C   0  0  0  0  0  0  0  0  0  0  0  0
   16.3486   -4.9568    7.4654 N   0  0  0  0  0  0  0  0  0  0  0  0
  2  1  1  1  0  0  0
  2  3  1  0  0  0  0
  2  5  1  0  0  0  0
  3  4  1  0  0  0  0
  3 17  1  0  0  0  0
  5  6  1  0  0  0  0
  7  6  1  1  0  0  0
  7  8  1  0  0  0  0
  7  9  1  0  0  0  0
 10  9  1  1  0  0  0
 10 11  1  0  0  0  0
 10 12  1  0  0  0  0
 11 16  1  0  0  0  0
 12 13  1  6  0  0  0
 12 14  1  0  0  0  0
 14 15  1  1  0  0  0
 14 16  1  0  0  0  0
 16 27  1  6  0  0  0
 18 19  2  0  0  0  0
 18 23  1  0  0  0  0
 19 20  1  0  0  0  0
 20 21  2  0  0  0  0
 21 22  1  0  0  0  0
 21 27  1  0  0  0  0
 22 23  2  0  0  0  0
 22 25  1  0  0  0  0
 23 24  1  0  0  0  0
 25 26  2  0  0  0  0
 26 27  1  0  0  0  0
M  END
>  <CHROM.1>
-22.64278817,-174.65107916,-170.81338718,56.28033981,-82.53245842,66.17519221
34.44897932,15.26816310,-6.40204920,9.28488941,-1.69608845,0.16540555,-1.24084046

>  <Name>
ligand

>  <RI>
0

>  <Rbt.Current_Directory>
/home/itssahil/PROJECTS/Mol_Feturizer/Test_systems_manuscript/rnas/2ydh

>  <Rbt.Executable>
rbdock ($Id: //depot/dev/client3/rdock/2013.1/src/exe/rbdock.cxx#4 $)

>  <Rbt.Library>
libRbt.so (2013.1, Build901 2013/11/27)

>  <Rbt.Parameter_File>
/export/apps/rDock/src/rDock_2013.1_src/data/scripts/dock_solv.prm

>  <Rbt.Receptor>
prm/pocket_docking_7.prm

>  <SCORE>
-9.9508

>  <SCORE.INTER>
-7.61572

>  <SCORE.INTER.CONST>
1

>  <SCORE.INTER.POLAR>
0

>  <SCORE.INTER.ROT>
7

>  <SCORE.INTER.SOLV>
9.60897

>  <SCORE.INTER.VDW>
-16.5468

>  <SCORE.INTER.norm>
-0.282064

>  <SCORE.INTRA>
-2.33508

>  <SCORE.INTRA.DIHEDRAL>
-5.49242

>  <SCORE.INTRA.DIHEDRAL.0>
9.75037

>  <SCORE.INTRA.POLAR>
0

>  <SCORE.INTRA.POLAR.0>
0

>  <SCORE.INTRA.REPUL>
0

>  <SCORE.INTRA.REPUL.0>
0

>  <SCORE.INTRA.SOLV>
-0.845926

>  <SCORE.INTRA.SOLV.lig_0>
-48.4279

>  <SCORE.INTRA.VDW>
0.834092

>  <SCORE.INTRA.VDW.0>
-4.69037

>  <SCORE.INTRA.norm>
-0.0864845

>  <SCORE.RESTR>
0

>  <SCORE.RESTR.CAVITY>
0

>  <SCORE.RESTR.norm>
0

>  <SCORE.SYSTEM>
0

>  <SCORE.SYSTEM.CONST>
0

>  <SCORE.SYSTEM.DIHEDRAL>
0

>  <SCORE.SYSTEM.SOLV>
0

>  <SCORE.SYSTEM.norm>
0

>  <SCORE.heavy>
27

>  <SCORE.norm>
-0.368548

>  <RMSD>
3.926

$$$$
ligand
 OpenBabel02271912153D
libRbt.so/2013.1/901 2013/11/27
 27 29  0  0  0  0  0  0  0  0999 V2000
   16.4717   -3.5299   11.3261 N   0  0  0  0  0  0  0  0  0  0  0  0
   15.5161   -4.4034   12.0748 C   0  0  2  0  0  0  0  0  0  0  0  0
   16.2180   -5.6781   12.5938 C   0  0  0  0  0  0  0  0  0  0  0  0
   17.1282   -6.2113   11.9519 O   0  0  0  0  0  0  0  0  0  0  0  0
   14.3221   -4.7292   11.1839 C   0  0  0  0  0  0  0  0  0  0  0  0
   13.4950   -5.9166   11.6479 C   0  0  0  0  0  0  0  0  0  0  0  0
   12.2020   -6.3967   10.4670 S   0  0  2  0  0  0  0  0  0  0  0  0
   11.6517   -7.9683   11.1901 C   0  0  0  0  0  0  0  0  0  0  0  0
   13.0482   -6.9419    8.9749 C   0  0  0  0  0  0  0  0  0  0  0  0
   13.3326   -5.7364    8.0994 C   0  0  1  0  0  0  0  0  0  0  0  0
   14.6226   -5.1904    8.3274 O   0  0  0  0  0  0  0  0  0  0  0  0
   13.2529   -6.0874    6.6337 C   0  0  1  0  0  0  0  0  0  0  0  0
   11.9351   -6.0169    6.1699 O   0  0  0  0  0  0  0  0  0  0  0  0
   14.1178   -5.0218    6.0324 C   0  0  1  0  0  0  0  0  0  0  0  0
   13.3302   -3.8747    5.7755 O   0  0  0  0  0  0  0  0  0  0  0  0
   15.1548   -4.7262    7.1083 C   0  0  2  0  0  0  0  0  0  0  0  0
   15.8995   -6.2235   13.6663 O   0  0  0  0  0  0  0  0  0  0  0  0
   17.7106   -8.8601    5.0498 N   0  0  0  0  0  0  0  0  0  0  0  0
   16.3427   -8.6300    5.0715 C   0  0  0  0  0  0  0  0  0  0  0  0
   15.8205   -7.4895    5.6699 N   0  0  0  0  0  0  0  0  0  0  0  0
   16.6587   -6.5907    6.2174 C   0  0  0  0  0  0  0  0  0  0  0  0
   18.0398   -6.8040    6.1883 C   0  0  0  0  0  0  0  0  0  0  0  0
   18.5718   -7.9444    5.6152 C   0  0  0  0  0  0  0  0  0  0  0  0
   19.8806   -8.1474    5.5998 N   0  0  0  0  0  0  0  0  0  0  0  0
   18.6339   -5.7631    6.7820 N   0  0  0  0  0  0  0  0  0  0  0  0
   17.6737   -4.9001    7.1814 C   0  0  0  0  0  0  0  0  0  0  0  0
   16.4410   -5.3949    6.8351 N   0  0  0  0  0  0  0  0  0  0  0  0
  2  1  1  6  0  0  0
  2  3  1  0  0  0  0
  2  5  1  0  0  0  0
  3  4  1  0  0  0  0
  3 17  1  0  0  0  0
  5  6  1  0  0  0  0
  7  6  1  1  0  0  0
  7  8  1  0  0  0  0
  7  9  1  0  0  0  0
 10  9  1  1  0  0  0
 10 11  1  0  0  0  0
 10 12  1  0  0  0  0
 11 16  1  0  0  0  0
 12 13  1  6  0  0  0
 12 14  1  0  0  0  0
 14 15  1  1  0  0  0
 14 16  1  0  0  0  0
 16 27  1  6  0  0  0
 18 19  2  0  0  0  0
 18 23  1  0  0  0  0
 19 20  1  0  0  0  0
 20 21  2  0  0  0  0
 21 22  1  0  0  0  0
 21 27  1  0  0  0  0
 22 23  2  0  0  0  0
 22 25  1  0  0  0  0
 23 24  1  0  0  0  0
 25 26  2  0  0  0  0
 26 27  1  0  0  0  0
M  END
>  <CHROM.1>
-33.67377944,162.63601210,-173.26064200,170.31742997,-86.13943753,93.45531802
86.27988528,15.23855961,-6.11175112,8.44606159,-2.06825638,0.10003859,-1.72709334

>  <Name>
ligand

>  <RI>
0

>  <Rbt.Current_Directory>
/home/itssahil/PROJECTS/Mol_Feturizer/Test_systems_manuscript/rnas/2ydh

>  <Rbt.Executable>
rbdock ($Id: //depot/dev/client3/rdock/2013.1/src/exe/rbdock.cxx#4 $)

>  <Rbt.Library>
libRbt.so (2013.1, Build901 2013/11/27)

>  <Rbt.Parameter_File>
/export/apps/rDock/src/rDock_2013.1_src/data/scripts/dock_solv.prm

>  <Rbt.Receptor>
prm/pocket_docking_6.prm

>  <SCORE>
-12.974

>  <SCORE.INTER>
-13.6724

>  <SCORE.INTER.CONST>
1

>  <SCORE.INTER.POLAR>
0

>  <SCORE.INTER.ROT>
7

>  <SCORE.INTER.SOLV>
14.1538

>  <SCORE.INTER.VDW>
-22.0995

>  <SCORE.INTER.norm>
-0.506385

>  <SCORE.INTRA>
0.698436

>  <SCORE.INTRA.DIHEDRAL>
-1.32271

>  <SCORE.INTRA.DIHEDRAL.0>
9.75037

>  <SCORE.INTRA.POLAR>
0

>  <SCORE.INTRA.POLAR.0>
0

>  <SCORE.INTRA.REPUL>
0

>  <SCORE.INTRA.REPUL.0>
0

>  <SCORE.INTRA.SOLV>
-0.996995

>  <SCORE.INTRA.SOLV.lig_0>
-48.4279

>  <SCORE.INTRA.VDW>
1.85829

>  <SCORE.INTRA.VDW.0>
-4.69037

>  <SCORE.INTRA.norm>
0.025868

>  <SCORE.RESTR>
0

>  <SCORE.RESTR.CAVITY>
0

>  <SCORE.RESTR.norm>
0

>  <SCORE.SYSTEM>
0

>  <SCORE.SYSTEM.CONST>
0

>  <SCORE.SYSTEM.DIHEDRAL>
0

>  <SCORE.SYSTEM.SOLV>
0

>  <SCORE.SYSTEM.norm>
0

>  <SCORE.heavy>
27

>  <SCORE.norm>
-0.480517

>  <RMSD>
3.970

$$$$
ligand
 OpenBabel02271912153D
libRbt.so/2013.1/901 2013/11/27
 27 29  0  0  0  0  0  0  0  0999 V2000
   16.3716   -4.5321   10.2334 N   0  0  0  0  0  0  0  0  0  0  0  0
   15.4246   -4.5456   11.3908 C   0  0  2  0  0  0  0  0  0  0  0  0
   15.4422   -5.9141   12.1075 C   0  0  0  0  0  0  0  0  0  0  0  0
   15.7503   -6.9462   11.5039 O   0  0  0  0  0  0  0  0  0  0  0  0
   14.0279   -4.1696   10.9077 C   0  0  0  0  0  0  0  0  0  0  0  0
   13.5012   -5.0303    9.7714 C   0  0  0  0  0  0  0  0  0  0  0  0
   14.1298   -4.5325    8.1423 S   0  0  2  0  0  0  0  0  0  0  0  0
   13.4352   -2.8605    8.0094 C   0  0  0  0  0  0  0  0  0  0  0  0
   13.1669   -5.4408    6.9227 C   0  0  0  0  0  0  0  0  0  0  0  0
   14.0846   -6.3890    6.1747 C   0  0  1  0  0  0  0  0  0  0  0  0
   15.2901   -5.7654    5.7599 O   0  0  0  0  0  0  0  0  0  0  0  0
   14.4692   -7.5730    7.0279 C   0  0  1  0  0  0  0  0  0  0  0  0
   13.5001   -8.5794    6.9589 O   0  0  0  0  0  0  0  0  0  0  0  0
   15.7571   -7.9884    6.3847 C   0  0  1  0  0  0  0  0  0  0  0  0
   15.4785   -8.8773    5.3196 O   0  0  0  0  0  0  0  0  0  0  0  0
   16.3495   -6.6895    5.8536 C   0  0  2  0  0  0  0  0  0  0  0  0
   15.1451   -6.0397   13.3097 O   0  0  0  0  0  0  0  0  0  0  0  0
   20.4276   -7.6683    9.0583 N   0  0  0  0  0  0  0  0  0  0  0  0
   19.6566   -8.5846    8.3578 C   0  0  0  0  0  0  0  0  0  0  0  0
   18.5991   -8.1648    7.5598 N   0  0  0  0  0  0  0  0  0  0  0  0
   18.3357   -6.8496    7.4539 C   0  0  0  0  0  0  0  0  0  0  0  0
   19.1150   -5.9159    8.1428 C   0  0  0  0  0  0  0  0  0  0  0  0
   20.1567   -6.3207    8.9571 C   0  0  0  0  0  0  0  0  0  0  0  0
   20.8855   -5.4326    9.6165 N   0  0  0  0  0  0  0  0  0  0  0  0
   18.6526   -4.6945    7.8540 N   0  0  0  0  0  0  0  0  0  0  0  0
   17.6103   -4.8275    7.0043 C   0  0  0  0  0  0  0  0  0  0  0  0
   17.4018   -6.1585    6.7406 N   0  0  0  0  0  0  0  0  0  0  0  0
  2  1  1  6  0  0  0
  2  3  1  0  0  0  0
  2  5  1  0  0  0  0
  3  4  1  0  0  0  0
  3 17  1  0  0  0  0
  5  6  1  0  0  0  0
  7  6  1  1  0  0  0
  7  8  1  0  0  0  0
  7  9  1  0  0  0  0
 10  9  1  1  0  0  0
 10 11  1  0  0  0  0
 10 12  1  0  0  0  0
 11 16  1  0  0  0  0
 12 13  1  6  0  0  0
 12 14  1  0  0  0  0
 14 15  1  6  0  0  0
 14 16  1  0  0  0  0
 16 27  1  1  0  0  0
 18 19  2  0  0  0  0
 18 23  1  0  0  0  0
 19 20  1  0  0  0  0
 20 21  2  0  0  0  0
 21 22  1  0  0  0  0
 21 27  1  0  0  0  0
 22 23  2  0  0  0  0
 22 25  1  0  0  0  0
 23 24  1  0  0  0  0
 25 26  2  0  0  0  0
 26 27  1  0  0  0  0
M  END
>  <CHROM.1>
-26.54870854,55.01539041,-81.10033124,-63.13578111,-115.33457436,-46.31548824
155.56273411,16.18311446,-6.09611005,8.38637530,-2.88421162,0.24639726,-1.96033950

>  <Name>
ligand

>  <RI>
0

>  <Rbt.Current_Directory>
/home/itssahil/PROJECTS/Mol_Feturizer/Test_systems_manuscript/rnas/2ydh

>  <Rbt.Executable>
rbdock ($Id: //depot/dev/client3/rdock/2013.1/src/exe/rbdock.cxx#4 $)

>  <Rbt.Library>
libRbt.so (2013.1, Build901 2013/11/27)

>  <Rbt.Parameter_File>
/export/apps/rDock/src/rDock_2013.1_src/data/scripts/dock_solv.prm

>  <Rbt.Receptor>
prm/pocket_docking_8.prm

>  <SCORE>
-7.07848

>  <SCORE.INTER>
-9.0335

>  <SCORE.INTER.CONST>
1

>  <SCORE.INTER.POLAR>
0

>  <SCORE.INTER.ROT>
7

>  <SCORE.INTER.SOLV>
15.1952

>  <SCORE.INTER.VDW>
-19.3541

>  <SCORE.INTER.norm>
-0.334574

>  <SCORE.INTRA>
1.95502

>  <SCORE.INTRA.DIHEDRAL>
-0.405395

>  <SCORE.INTRA.DIHEDRAL.0>
9.75037

>  <SCORE.INTRA.POLAR>
0

>  <SCORE.INTRA.POLAR.0>
0

>  <SCORE.INTRA.REPUL>
0

>  <SCORE.INTRA.REPUL.0>
0

>  <SCORE.INTRA.SOLV>
1.89387

>  <SCORE.INTRA.SOLV.lig_0>
-48.4279

>  <SCORE.INTRA.VDW>
1.21079

>  <SCORE.INTRA.VDW.0>
-4.69037

>  <SCORE.INTRA.norm>
0.0724082

>  <SCORE.RESTR>
0

>  <SCORE.RESTR.CAVITY>
0

>  <SCORE.RESTR.norm>
0

>  <SCORE.SYSTEM>
0

>  <SCORE.SYSTEM.CONST>
0

>  <SCORE.SYSTEM.DIHEDRAL>
0

>  <SCORE.SYSTEM.SOLV>
0

>  <SCORE.SYSTEM.norm>
0

>  <SCORE.heavy>
27

>  <SCORE.norm>
-0.262166

>  <RMSD>
4.078

$$$$
ligand
 OpenBabel02271912153D
libRbt.so/2013.1/901 2013/11/27
 27 29  0  0  0  0  0  0  0  0999 V2000
   16.5505   -8.1501   12.2722 N   0  0  0  0  0  0  0  0  0  0  0  0
   16.6388   -7.6814   10.8547 C   0  0  2  0  0  0  0  0  0  0  0  0
   17.5658   -6.4516   10.7326 C   0  0  0  0  0  0  0  0  0  0  0  0
   18.3729   -6.3510    9.8036 O   0  0  0  0  0  0  0  0  0  0  0  0
   15.2368   -7.3968   10.3264 C   0  0  0  0  0  0  0  0  0  0  0  0
   14.4724   -6.3395   11.1055 C   0  0  0  0  0  0  0  0  0  0  0  0
   12.7622   -6.1232   10.5351 S   0  0  2  0  0  0  0  0  0  0  0  0
   12.0752   -7.7635   10.8995 C   0  0  0  0  0  0  0  0  0  0  0  0
   12.8181   -6.1268    8.7360 C   0  0  0  0  0  0  0  0  0  0  0  0
   13.4510   -4.8337    8.2585 C   0  0  1  0  0  0  0  0  0  0  0  0
   14.8161   -4.7257    8.6315 O   0  0  0  0  0  0  0  0  0  0  0  0
   13.3915   -4.7121    6.7553 C   0  0  1  0  0  0  0  0  0  0  0  0
   12.1676   -4.1760    6.3415 O   0  0  0  0  0  0  0  0  0  0  0  0
   14.5319   -3.7759    6.4943 C   0  0  1  0  0  0  0  0  0  0  0  0
   14.0702   -2.4422    6.5961 O   0  0  0  0  0  0  0  0  0  0  0  0
   15.5309   -4.0801    7.6033 C   0  0  2  0  0  0  0  0  0  0  0  0
   17.5469   -5.5193   11.5572 O   0  0  0  0  0  0  0  0  0  0  0  0
   17.0208   -8.3976    4.9580 N   0  0  0  0  0  0  0  0  0  0  0  0
   15.7326   -7.9210    5.1526 C   0  0  0  0  0  0  0  0  0  0  0  0
   15.5031   -6.7667    5.8918 N   0  0  0  0  0  0  0  0  0  0  0  0
   16.5493   -6.0962    6.4075 C   0  0  0  0  0  0  0  0  0  0  0  0
   17.8529   -6.5581    6.2053 C   0  0  0  0  0  0  0  0  0  0  0  0
   18.0945   -7.7166    5.4901 C   0  0  0  0  0  0  0  0  0  0  0  0
   19.3310   -8.1563    5.3106 N   0  0  0  0  0  0  0  0  0  0  0  0
   18.6931   -5.7078    6.8054 N   0  0  0  0  0  0  0  0  0  0  0  0
   17.9627   -4.7244    7.3760 C   0  0  0  0  0  0  0  0  0  0  0  0
   16.6295   -4.9461    7.1354 N   0  0  0  0  0  0  0  0  0  0  0  0
  2  1  1  1  0  0  0
  2  3  1  0  0  0  0
  2  5  1  0  0  0  0
  3  4  1  0  0  0  0
  3 17  1  0  0  0  0
  5  6  1  0  0  0  0
  7  6  1  1  0  0  0
  7  8  1  0  0  0  0
  7  9  1  0  0  0  0
 10  9  1  6  0  0  0
 10 11  1  0  0  0  0
 10 12  1  0  0  0  0
 11 16  1  0  0  0  0
 12 13  1  1  0  0  0
 12 14  1  0  0  0  0
 14 15  1  1  0  0  0
 14 16  1  0  0  0  0
 16 27  1  6  0  0  0
 18 19  2  0  0  0  0
 18 23  1  0  0  0  0
 19 20  1  0  0  0  0
 20 21  2  0  0  0  0
 21 22  1  0  0  0  0
 21 27  1  0  0  0  0
 22 23  2  0  0  0  0
 22 25  1  0  0  0  0
 23 24  1  0  0  0  0
 25 26  2  0  0  0  0
 26 27  1  0  0  0  0
M  END
>  <CHROM.1>
137.75117497,59.50782724,-175.27636000,63.05175580,-71.65731704,65.80329277
71.16321887,15.56292322,-6.02934580,8.25437871,-2.39620700,0.41310433,-1.28298456

>  <Name>
ligand

>  <RI>
0

>  <Rbt.Current_Directory>
/home/itssahil/PROJECTS/Mol_Feturizer/Test_systems_manuscript/rnas/2ydh

>  <Rbt.Executable>
rbdock ($Id: //depot/dev/client3/rdock/2013.1/src/exe/rbdock.cxx#4 $)

>  <Rbt.Library>
libRbt.so (2013.1, Build901 2013/11/27)

>  <Rbt.Parameter_File>
/export/apps/rDock/src/rDock_2013.1_src/data/scripts/dock_solv.prm

>  <Rbt.Receptor>
prm/pocket_docking_5.prm

>  <SCORE>
-12.5749

>  <SCORE.INTER>
-9.85024

>  <SCORE.INTER.CONST>
1

>  <SCORE.INTER.POLAR>
0

>  <SCORE.INTER.ROT>
7

>  <SCORE.INTER.SOLV>
11.0026

>  <SCORE.INTER.VDW>
-18.501

>  <SCORE.INTER.norm>
-0.364824

>  <SCORE.INTRA>
-2.7247

>  <SCORE.INTRA.DIHEDRAL>
-6.17873

>  <SCORE.INTRA.DIHEDRAL.0>
9.75037

>  <SCORE.INTRA.POLAR>
0

>  <SCORE.INTRA.POLAR.0>
0

>  <SCORE.INTRA.REPUL>
0

>  <SCORE.INTRA.REPUL.0>
0

>  <SCORE.INTRA.SOLV>
-0.547464

>  <SCORE.INTRA.SOLV.lig_0>
-48.4279

>  <SCORE.INTRA.VDW>
0.638397

>  <SCORE.INTRA.VDW.0>
-4.69037

>  <SCORE.INTRA.norm>
-0.100915

>  <SCORE.RESTR>
0

>  <SCORE.RESTR.CAVITY>
0

>  <SCORE.RESTR.norm>
0

>  <SCORE.SYSTEM>
0

>  <SCORE.SYSTEM.CONST>
0

>  <SCORE.SYSTEM.DIHEDRAL>
0

>  <SCORE.SYSTEM.SOLV>
0

>  <SCORE.SYSTEM.norm>
0

>  <SCORE.heavy>
27

>  <SCORE.norm>
-0.465739

>  <RMSD>
4.394

$$$$
ligand
 OpenBabel02271912153D
libRbt.so/2013.1/901 2013/11/27
 27 29  0  0  0  0  0  0  0  0999 V2000
   16.2156   -7.0503   13.2683 N   0  0  0  0  0  0  0  0  0  0  0  0
   16.4916   -6.1267   12.1249 C   0  0  2  0  0  0  0  0  0  0  0  0
   15.8799   -4.7308   12.3778 C   0  0  0  0  0  0  0  0  0  0  0  0
   15.0380   -4.5543   13.2637 O   0  0  0  0  0  0  0  0  0  0  0  0
   15.9776   -6.7519   10.8324 C   0  0  0  0  0  0  0  0  0  0  0  0
   14.5149   -7.1624   10.8692 C   0  0  0  0  0  0  0  0  0  0  0  0
   13.3741   -5.7514   10.9347 S   0  0  2  0  0  0  0  0  0  0  0  0
   11.8110   -6.5983   11.3023 C   0  0  0  0  0  0  0  0  0  0  0  0
   13.1242   -5.2157    9.2345 C   0  0  0  0  0  0  0  0  0  0  0  0
   14.0400   -4.0414    8.9465 C   0  0  1  0  0  0  0  0  0  0  0  0
   15.3993   -4.3272    9.2375 O   0  0  0  0  0  0  0  0  0  0  0  0
   13.9741   -3.6330    7.4951 C   0  0  1  0  0  0  0  0  0  0  0  0
   12.9071   -2.7579    7.2661 O   0  0  0  0  0  0  0  0  0  0  0  0
   15.3008   -2.9582    7.3228 C   0  0  1  0  0  0  0  0  0  0  0  0
   15.1796   -1.5961    7.6863 O   0  0  0  0  0  0  0  0  0  0  0  0
   16.2235   -3.6880    8.2904 C   0  0  2  0  0  0  0  0  0  0  0  0
   16.1987   -3.7327   11.7059 O   0  0  0  0  0  0  0  0  0  0  0  0
   16.5121   -7.8734    5.0877 N   0  0  0  0  0  0  0  0  0  0  0  0
   15.3757   -7.1888    5.4931 C   0  0  0  0  0  0  0  0  0  0  0  0
   15.4664   -6.1053    6.3587 N   0  0  0  0  0  0  0  0  0  0  0  0
   16.6767   -5.7076    6.7912 C   0  0  0  0  0  0  0  0  0  0  0  0
   17.8302   -6.3799    6.3777 C   0  0  0  0  0  0  0  0  0  0  0  0
   17.7532   -7.4726    5.5338 C   0  0  0  0  0  0  0  0  0  0  0  0
   18.8483   -8.1132    5.1534 N   0  0  0  0  0  0  0  0  0  0  0  0
   18.8855   -5.7779    6.9371 N   0  0  0  0  0  0  0  0  0  0  0  0
   18.4356   -4.7474    7.6866 C   0  0  0  0  0  0  0  0  0  0  0  0
   17.0668   -4.6852    7.6045 N   0  0  0  0  0  0  0  0  0  0  0  0
  2  1  1  1  0  0  0
  2  3  1  0  0  0  0
  2  5  1  0  0  0  0
  3  4  1  0  0  0  0
  3 17  1  0  0  0  0
  5  6  1  0  0  0  0
  7  6  1  6  0  0  0
  7  8  1  0  0  0  0
  7  9  1  0  0  0  0
 10  9  1  6  0  0  0
 10 11  1  0  0  0  0
 10 12  1  0  0  0  0
 11 16  1  0  0  0  0
 12 13  1  1  0  0  0
 12 14  1  0  0  0  0
 14 15  1  1  0  0  0
 14 16  1  0  0  0  0
 16 27  1  6  0  0  0
 18 19  2  0  0  0  0
 18 23  1  0  0  0  0
 19 20  1  0  0  0  0
 20 21  2  0  0  0  0
 21 22  1  0  0  0  0
 21 27  1  0  0  0  0
 22 23  2  0  0  0  0
 22 25  1  0  0  0  0
 23 24  1  0  0  0  0
 25 26  2  0  0  0  0
 26 27  1  0  0  0  0
M  END
>  <CHROM.1>
-14.94319102,54.29134715,68.85452206,-169.11966323,-97.78423591,54.13284545
64.45769148,15.55090471,-5.32688369,8.88833373,-2.23806021,0.80230809,-1.21912556

>  <Name>
ligand

>  <RI>
0

>  <Rbt.Current_Directory>
/home/itssahil/PROJECTS/Mol_Feturizer/Test_systems_manuscript/rnas/2ydh

>  <Rbt.Executable>
rbdock ($Id: //depot/dev/client3/rdock/2013.1/src/exe/rbdock.cxx#4 $)

>  <Rbt.Library>
libRbt.so (2013.1, Build901 2013/11/27)

>  <Rbt.Parameter_File>
/export/apps/rDock/src/rDock_2013.1_src/data/scripts/dock_solv.prm

>  <Rbt.Receptor>
prm/pocket_docking_7.prm

>  <SCORE>
-12.4

>  <SCORE.INTER>
-10.6984

>  <SCORE.INTER.CONST>
1

>  <SCORE.INTER.POLAR>
0

>  <SCORE.INTER.ROT>
7

>  <SCORE.INTER.SOLV>
14.2512

>  <SCORE.INTER.VDW>
-20.1493

>  <SCORE.INTER.norm>
-0.396237

>  <SCORE.INTRA>
-1.70166

>  <SCORE.INTRA.DIHEDRAL>
-3.02587

>  <SCORE.INTRA.DIHEDRAL.0>
9.75037

>  <SCORE.INTRA.POLAR>
0

>  <SCORE.INTRA.POLAR.0>
0

>  <SCORE.INTRA.REPUL>
0

>  <SCORE.INTRA.REPUL.0>
0

>  <SCORE.INTRA.SOLV>
0.272778

>  <SCORE.INTRA.SOLV.lig_0>
-48.4279

>  <SCORE.INTRA.VDW>
-0.325111

>  <SCORE.INTRA.VDW.0>
-4.69037

>  <SCORE.INTRA.norm>
-0.0630244

>  <SCORE.RESTR>
0

>  <SCORE.RESTR.CAVITY>
0

>  <SCORE.RESTR.norm>
0

>  <SCORE.SYSTEM>
0

>  <SCORE.SYSTEM.CONST>
0

>  <SCORE.SYSTEM.DIHEDRAL>
0

>  <SCORE.SYSTEM.SOLV>
0

>  <SCORE.SYSTEM.norm>
0

>  <SCORE.heavy>
27

>  <SCORE.norm>
-0.459261

>  <RMSD>
4.478

$$$$
ligand
 OpenBabel02271912153D
libRbt.so/2013.1/901 2013/11/27
 27 29  0  0  0  0  0  0  0  0999 V2000
   12.9376  -10.2839   13.5292 N   0  0  0  0  0  0  0  0  0  0  0  0
   13.9448  -10.1899   12.4277 C   0  0  2  0  0  0  0  0  0  0  0  0
   14.8499   -8.9507   12.6063 C   0  0  0  0  0  0  0  0  0  0  0  0
   15.7802   -8.7227   11.8271 O   0  0  0  0  0  0  0  0  0  0  0  0
   13.2263  -10.1855   11.0825 C   0  0  0  0  0  0  0  0  0  0  0  0
   12.1526   -9.1189   10.9451 C   0  0  0  0  0  0  0  0  0  0  0  0
   12.8224   -7.4343   10.8436 S   0  0  2  0  0  0  0  0  0  0  0  0
   11.4000   -6.4700   11.4290 C   0  0  0  0  0  0  0  0  0  0  0  0
   12.8751   -7.0087    9.0955 C   0  0  0  0  0  0  0  0  0  0  0  0
   13.2933   -5.5578    8.9523 C   0  0  1  0  0  0  0  0  0  0  0  0
   14.4429   -5.2441    9.7230 O   0  0  0  0  0  0  0  0  0  0  0  0
   13.6144   -5.2147    7.5180 C   0  0  1  0  0  0  0  0  0  0  0  0
   12.4573   -4.8708    6.8113 O   0  0  0  0  0  0  0  0  0  0  0  0
   14.5317   -4.0437    7.6979 C   0  0  1  0  0  0  0  0  0  0  0  0
   13.7617   -2.8596    7.7831 O   0  0  0  0  0  0  0  0  0  0  0  0
   15.2372   -4.3169    9.0200 C   0  0  2  0  0  0  0  0  0  0  0  0
   14.6895   -8.1377   13.5351 O   0  0  0  0  0  0  0  0  0  0  0  0
   20.1507   -4.9069   10.8552 N   0  0  0  0  0  0  0  0  0  0  0  0
   19.0915   -4.2430   11.4569 C   0  0  0  0  0  0  0  0  0  0  0  0
   17.8523   -4.1638   10.8327 N   0  0  0  0  0  0  0  0  0  0  0  0
   17.6778   -4.7568    9.6377 C   0  0  0  0  0  0  0  0  0  0  0  0
   18.7332   -5.4415    9.0285 C   0  0  0  0  0  0  0  0  0  0  0  0
   19.9773   -5.5101    9.6281 C   0  0  0  0  0  0  0  0  0  0  0  0
   20.9774   -6.1509    9.0417 N   0  0  0  0  0  0  0  0  0  0  0  0
   18.2904   -5.9419    7.8698 N   0  0  0  0  0  0  0  0  0  0  0  0
   16.9911   -5.5978    7.7302 C   0  0  0  0  0  0  0  0  0  0  0  0
   16.5919   -4.8656    8.8206 N   0  0  0  0  0  0  0  0  0  0  0  0
  2  1  1  1  0  0  0
  2  3  1  0  0  0  0
  2  5  1  0  0  0  0
  3  4  1  0  0  0  0
  3 17  1  0  0  0  0
  5  6  1  0  0  0  0
  7  6  1  6  0  0  0
  7  8  1  0  0  0  0
  7  9  1  0  0  0  0
 10  9  1  6  0  0  0
 10 11  1  0  0  0  0
 10 12  1  0  0  0  0
 11 16  1  0  0  0  0
 12 13  1  6  0  0  0
 12 14  1  0  0  0  0
 14 15  1  1  0  0  0
 14 16  1  0  0  0  0
 16 27  1  6  0  0  0
 18 19  2  0  0  0  0
 18 23  1  0  0  0  0
 19 20  1  0  0  0  0
 20 21  2  0  0  0  0
 21 22  1  0  0  0  0
 21 27  1  0  0  0  0
 22 23  2  0  0  0  0
 22 25  1  0  0  0  0
 23 24  1  0  0  0  0
 25 26  2  0  0  0  0
 26 27  1  0  0  0  0
M  END
>  <CHROM.1>
177.21129395,54.11874507,69.99458371,-155.89394799,174.25908180,48.68270399
-89.32276679,15.27125838,-6.37032985,10.04208938,-2.47216978,-0.15960142
-0.76768073

>  <Name>
ligand

>  <RI>
0

>  <Rbt.Current_Directory>
/home/itssahil/PROJECTS/Mol_Feturizer/Test_systems_manuscript/rnas/2ydh

>  <Rbt.Executable>
rbdock ($Id: //depot/dev/client3/rdock/2013.1/src/exe/rbdock.cxx#4 $)

>  <Rbt.Library>
libRbt.so (2013.1, Build901 2013/11/27)

>  <Rbt.Parameter_File>
/export/apps/rDock/src/rDock_2013.1_src/data/scripts/dock_solv.prm

>  <Rbt.Receptor>
prm/pocket_docking_8.prm

>  <SCORE>
-10.2371

>  <SCORE.INTER>
-10.558

>  <SCORE.INTER.CONST>
1

>  <SCORE.INTER.POLAR>
0

>  <SCORE.INTER.ROT>
7

>  <SCORE.INTER.SOLV>
12.0653

>  <SCORE.INTER.VDW>
-19.3271

>  <SCORE.INTER.norm>
-0.391038

>  <SCORE.INTRA>
0.320975

>  <SCORE.INTRA.DIHEDRAL>
-3.38698

>  <SCORE.INTRA.DIHEDRAL.0>
9.75037

>  <SCORE.INTRA.POLAR>
0

>  <SCORE.INTRA.POLAR.0>
0

>  <SCORE.INTRA.REPUL>
0

>  <SCORE.INTRA.REPUL.0>
0

>  <SCORE.INTRA.SOLV>
-0.00641228

>  <SCORE.INTRA.SOLV.lig_0>
-48.4279

>  <SCORE.INTRA.VDW>
2.01767

>  <SCORE.INTRA.VDW.0>
-4.69037

>  <SCORE.INTRA.norm>
0.011888

>  <SCORE.RESTR>
0

>  <SCORE.RESTR.CAVITY>
0

>  <SCORE.RESTR.norm>
0

>  <SCORE.SYSTEM>
0

>  <SCORE.SYSTEM.CONST>
0

>  <SCORE.SYSTEM.DIHEDRAL>
0

>  <SCORE.SYSTEM.SOLV>
0

>  <SCORE.SYSTEM.norm>
0

>  <SCORE.heavy>
27

>  <SCORE.norm>
-0.37915

>  <RMSD>
4.502

$$$$
ligand
 OpenBabel02271912153D
libRbt.so/2013.1/901 2013/11/27
 27 29  0  0  0  0  0  0  0  0999 V2000
   16.2308   -6.8370   13.2171 N   0  0  0  0  0  0  0  0  0  0  0  0
   16.4372   -5.9798   12.0091 C   0  0  2  0  0  0  0  0  0  0  0  0
   15.7559   -4.6040   12.1808 C   0  0  0  0  0  0  0  0  0  0  0  0
   15.2267   -4.2832   13.2493 O   0  0  0  0  0  0  0  0  0  0  0  0
   15.9356   -6.7173   10.7721 C   0  0  0  0  0  0  0  0  0  0  0  0
   14.5099   -7.2319   10.8803 C   0  0  0  0  0  0  0  0  0  0  0  0
   13.2708   -5.9064   10.9486 S   0  0  2  0  0  0  0  0  0  0  0  0
   11.8125   -6.8361   11.5004 C   0  0  0  0  0  0  0  0  0  0  0  0
   12.8470   -5.5134    9.2440 C   0  0  0  0  0  0  0  0  0  0  0  0
   13.7926   -4.4428    8.7338 C   0  0  1  0  0  0  0  0  0  0  0  0
   15.1344   -4.8971    8.6493 O   0  0  0  0  0  0  0  0  0  0  0  0
   13.3980   -3.9685    7.3563 C   0  0  1  0  0  0  0  0  0  0  0  0
   12.4249   -2.9662    7.4284 O   0  0  0  0  0  0  0  0  0  0  0  0
   14.7053   -3.4464    6.8433 C   0  0  1  0  0  0  0  0  0  0  0  0
   14.8534   -2.0960    7.2392 O   0  0  0  0  0  0  0  0  0  0  0  0
   15.7527   -4.3189    7.5230 C   0  0  2  0  0  0  0  0  0  0  0  0
   15.7042   -3.7674   11.2606 O   0  0  0  0  0  0  0  0  0  0  0  0
   14.7310   -8.6496    4.6839 N   0  0  0  0  0  0  0  0  0  0  0  0
   13.8446   -7.9036    5.4471 C   0  0  0  0  0  0  0  0  0  0  0  0
   14.2761   -6.7874    6.1538 N   0  0  0  0  0  0  0  0  0  0  0  0
   15.5679   -6.4190    6.0782 C   0  0  0  0  0  0  0  0  0  0  0  0
   16.4672   -7.1537    5.3004 C   0  0  0  0  0  0  0  0  0  0  0  0
   16.0564   -8.2786    4.6092 C   0  0  0  0  0  0  0  0  0  0  0  0
   16.9148   -8.9781    3.8821 N   0  0  0  0  0  0  0  0  0  0  0  0
   17.6672   -6.5697    5.3889 N   0  0  0  0  0  0  0  0  0  0  0  0
   17.5532   -5.4902    6.1939 C   0  0  0  0  0  0  0  0  0  0  0  0
   16.2557   -5.3778    6.6276 N   0  0  0  0  0  0  0  0  0  0  0  0
  2  1  1  1  0  0  0
  2  3  1  0  0  0  0
  2  5  1  0  0  0  0
  3  4  1  0  0  0  0
  3 17  1  0  0  0  0
  5  6  1  0  0  0  0
  7  6  1  6  0  0  0
  7  8  1  0  0  0  0
  7  9  1  0  0  0  0
 10  9  1  6  0  0  0
 10 11  1  0  0  0  0
 10 12  1  0  0  0  0
 11 16  1  0  0  0  0
 12 13  1  1  0  0  0
 12 14  1  0  0  0  0
 14 15  1  1  0  0  0
 14 16  1  0  0  0  0
 16 27  1  6  0  0  0
 18 19  2  0  0  0  0
 18 23  1  0  0  0  0
 19 20  1  0  0  0  0
 20 21  2  0  0  0  0
 21 22  1  0  0  0  0
 21 27  1  0  0  0  0
 22 23  2  0  0  0  0
 22 25  1  0  0  0  0
 23 24  1  0  0  0  0
 25 26  2  0  0  0  0
 26 27  1  0  0  0  0
M  END
>  <CHROM.1>
5.61108638,52.78446120,67.25028236,-165.91204121,-89.02274086,65.56796791
54.90614659,14.95487223,-5.70081302,8.48705905,-1.99999512,1.13053652,-1.43527925

>  <Name>
ligand

>  <RI>
0

>  <Rbt.Current_Directory>
/home/itssahil/PROJECTS/Mol_Feturizer/Test_systems_manuscript/rnas/2ydh

>  <Rbt.Executable>
rbdock ($Id: //depot/dev/client3/rdock/2013.1/src/exe/rbdock.cxx#4 $)

>  <Rbt.Library>
libRbt.so (2013.1, Build901 2013/11/27)

>  <Rbt.Parameter_File>
/export/apps/rDock/src/rDock_2013.1_src/data/scripts/dock_solv.prm

>  <Rbt.Receptor>
prm/pocket_docking_4.prm

>  <SCORE>
-12.8424

>  <SCORE.INTER>
-11.0221

>  <SCORE.INTER.CONST>
1

>  <SCORE.INTER.POLAR>
0

>  <SCORE.INTER.ROT>
7

>  <SCORE.INTER.SOLV>
17.3686

>  <SCORE.INTER.VDW>
-21.4042

>  <SCORE.INTER.norm>
-0.408225

>  <SCORE.INTRA>
-1.82032

>  <SCORE.INTRA.DIHEDRAL>
-3.70692

>  <SCORE.INTRA.DIHEDRAL.0>
9.75037

>  <SCORE.INTRA.POLAR>
0

>  <SCORE.INTRA.POLAR.0>
0

>  <SCORE.INTRA.REPUL>
0

>  <SCORE.INTRA.REPUL.0>
0

>  <SCORE.INTRA.SOLV>
0.314752

>  <SCORE.INTRA.SOLV.lig_0>
-48.4279

>  <SCORE.INTRA.VDW>
-0.124237

>  <SCORE.INTRA.VDW.0>
-4.69037

>  <SCORE.INTRA.norm>
-0.0674194

>  <SCORE.RESTR>
0

>  <SCORE.RESTR.CAVITY>
0

>  <SCORE.RESTR.norm>
0

>  <SCORE.SYSTEM>
0

>  <SCORE.SYSTEM.CONST>
0

>  <SCORE.SYSTEM.DIHEDRAL>
0

>  <SCORE.SYSTEM.SOLV>
0

>  <SCORE.SYSTEM.norm>
0

>  <SCORE.heavy>
27

>  <SCORE.norm>
-0.475644

>  <RMSD>
4.533

$$$$
ligand
 OpenBabel02271912153D
libRbt.so/2013.1/901 2013/11/27
 27 29  0  0  0  0  0  0  0  0999 V2000
   14.1649   -7.1060   11.7622 N   0  0  0  0  0  0  0  0  0  0  0  0
   14.8510   -5.8509   11.3256 C   0  0  2  0  0  0  0  0  0  0  0  0
   15.8498   -5.3616   12.3979 C   0  0  0  0  0  0  0  0  0  0  0  0
   17.0389   -5.1735   12.1234 O   0  0  0  0  0  0  0  0  0  0  0  0
   13.8061   -4.7920   10.9901 C   0  0  0  0  0  0  0  0  0  0  0  0
   14.3778   -3.4904   10.4533 C   0  0  0  0  0  0  0  0  0  0  0  0
   14.9848   -3.6220    8.7471 S   0  0  2  0  0  0  0  0  0  0  0  0
   15.5652   -1.9254    8.4638 C   0  0  0  0  0  0  0  0  0  0  0  0
   13.5296   -3.7060    7.6910 C   0  0  0  0  0  0  0  0  0  0  0  0
   13.6327   -4.9320    6.8040 C   0  0  1  0  0  0  0  0  0  0  0  0
   14.7749   -4.9002    5.9623 O   0  0  0  0  0  0  0  0  0  0  0  0
   13.7191   -6.1985    7.6203 C   0  0  1  0  0  0  0  0  0  0  0  0
   12.4460   -6.6569    7.9749 O   0  0  0  0  0  0  0  0  0  0  0  0
   14.3995   -7.1205    6.6549 C   0  0  1  0  0  0  0  0  0  0  0  0
   13.4237   -7.7414    5.8397 O   0  0  0  0  0  0  0  0  0  0  0  0
   15.2866   -6.2053    5.8208 C   0  0  2  0  0  0  0  0  0  0  0  0
   15.5085   -5.1422   13.5746 O   0  0  0  0  0  0  0  0  0  0  0  0
   19.8346   -8.8712    6.0802 N   0  0  0  0  0  0  0  0  0  0  0  0
   18.6439   -9.2747    5.4936 C   0  0  0  0  0  0  0  0  0  0  0  0
   17.5213   -8.4559    5.5221 N   0  0  0  0  0  0  0  0  0  0  0  0
   17.6014   -7.2490    6.1113 C   0  0  0  0  0  0  0  0  0  0  0  0
   18.7999   -6.8251    6.6923 C   0  0  0  0  0  0  0  0  0  0  0  0
   19.9184   -7.6380    6.6901 C   0  0  0  0  0  0  0  0  0  0  0  0
   21.0488   -7.2363    7.2516 N   0  0  0  0  0  0  0  0  0  0  0  0
   18.6101   -5.5976    7.1885 N   0  0  0  0  0  0  0  0  0  0  0  0
   17.3334   -5.2330    6.9369 C   0  0  0  0  0  0  0  0  0  0  0  0
   16.6929   -6.2440    6.2645 N   0  0  0  0  0  0  0  0  0  0  0  0
  2  1  1  1  0  0  0
  2  3  1  0  0  0  0
  2  5  1  0  0  0  0
  3  4  1  0  0  0  0
  3 17  1  0  0  0  0
  5  6  1  0  0  0  0
  7  6  1  1  0  0  0
  7  8  1  0  0  0  0
  7  9  1  0  0  0  0
 10  9  1  1  0  0  0
 10 11  1  0  0  0  0
 10 12  1  0  0  0  0
 11 16  1  0  0  0  0
 12 13  1  6  0  0  0
 12 14  1  0  0  0  0
 14 15  1  6  0  0  0
 14 16  1  0  0  0  0
 16 27  1  1  0  0  0
 18 19  2  0  0  0  0
 18 23  1  0  0  0  0
 19 20  1  0  0  0  0
 20 21  2  0  0  0  0
 21 22  1  0  0  0  0
 21 27  1  0  0  0  0
 22 23  2  0  0  0  0
 22 25  1  0  0  0  0
 23 24  1  0  0  0  0
 25 26  2  0  0  0  0
 26 27  1  0  0  0  0
M  END
>  <CHROM.1>
124.16867571,-176.58389575,73.54241021,179.78095106,-126.42630254,-60.59003198
-169.49019216,15.92417226,-5.86741891,8.17472237,-2.23791103,0.35841917,-1.87586231

>  <Name>
ligand

>  <RI>
0

>  <Rbt.Current_Directory>
/home/itssahil/PROJECTS/Mol_Feturizer/Test_systems_manuscript/rnas/2ydh

>  <Rbt.Executable>
rbdock ($Id: //depot/dev/client3/rdock/2013.1/src/exe/rbdock.cxx#4 $)

>  <Rbt.Library>
libRbt.so (2013.1, Build901 2013/11/27)

>  <Rbt.Parameter_File>
/export/apps/rDock/src/rDock_2013.1_src/data/scripts/dock_solv.prm

>  <Rbt.Receptor>
prm/pocket_docking_8.prm

>  <SCORE>
-13.8276

>  <SCORE.INTER>
-13.3972

>  <SCORE.INTER.CONST>
1

>  <SCORE.INTER.POLAR>
0

>  <SCORE.INTER.ROT>
7

>  <SCORE.INTER.SOLV>
9.17146

>  <SCORE.INTER.VDW>
-20.2553

>  <SCORE.INTER.norm>
-0.496191

>  <SCORE.INTRA>
-0.430474

>  <SCORE.INTRA.DIHEDRAL>
-1.46009

>  <SCORE.INTRA.DIHEDRAL.0>
9.75037

>  <SCORE.INTRA.POLAR>
0

>  <SCORE.INTRA.POLAR.0>
0

>  <SCORE.INTRA.REPUL>
0

>  <SCORE.INTRA.REPUL.0>
0

>  <SCORE.INTRA.SOLV>
-0.686024

>  <SCORE.INTRA.SOLV.lig_0>
-48.4279

>  <SCORE.INTRA.VDW>
0.642584

>  <SCORE.INTRA.VDW.0>
-4.69037

>  <SCORE.INTRA.norm>
-0.0159435

>  <SCORE.RESTR>
0

>  <SCORE.RESTR.CAVITY>
0

>  <SCORE.RESTR.norm>
0

>  <SCORE.SYSTEM>
0

>  <SCORE.SYSTEM.CONST>
0

>  <SCORE.SYSTEM.DIHEDRAL>
0

>  <SCORE.SYSTEM.SOLV>
0

>  <SCORE.SYSTEM.norm>
0

>  <SCORE.heavy>
27

>  <SCORE.norm>
-0.512134

>  <RMSD>
4.542

$$$$
ligand
 OpenBabel02271912153D
libRbt.so/2013.1/901 2013/11/27
 27 29  0  0  0  0  0  0  0  0999 V2000
   15.8131   -8.1470   12.8222 N   0  0  0  0  0  0  0  0  0  0  0  0
   15.4297   -8.1851   11.3771 C   0  0  2  0  0  0  0  0  0  0  0  0
   16.1173   -9.3622   10.6504 C   0  0  0  0  0  0  0  0  0  0  0  0
   15.5185  -10.0210    9.7949 O   0  0  0  0  0  0  0  0  0  0  0  0
   15.7559   -6.8431   10.7303 C   0  0  0  0  0  0  0  0  0  0  0  0
   15.0004   -5.6614   11.3151 C   0  0  0  0  0  0  0  0  0  0  0  0
   13.2438   -5.6337   10.8565 S   0  0  2  0  0  0  0  0  0  0  0  0
   12.5917   -6.9361   11.9401 C   0  0  0  0  0  0  0  0  0  0  0  0
   13.1268   -6.3990    9.2315 C   0  0  0  0  0  0  0  0  0  0  0  0
   13.3850   -5.3469    8.1699 C   0  0  1  0  0  0  0  0  0  0  0  0
   14.6961   -4.8087    8.2444 O   0  0  0  0  0  0  0  0  0  0  0  0
   13.2163   -5.9115    6.7804 C   0  0  1  0  0  0  0  0  0  0  0  0
   11.8761   -5.8750    6.3813 O   0  0  0  0  0  0  0  0  0  0  0  0
   14.0666   -4.9726    5.9801 C   0  0  1  0  0  0  0  0  0  0  0  0
   13.2882   -3.8557    5.5943 O   0  0  0  0  0  0  0  0  0  0  0  0
   15.1679   -4.5477    6.9428 C   0  0  2  0  0  0  0  0  0  0  0  0
   17.2901   -9.7009   10.8939 O   0  0  0  0  0  0  0  0  0  0  0  0
   17.5338   -8.9214    5.1729 N   0  0  0  0  0  0  0  0  0  0  0  0
   16.1762   -8.6365    5.1921 C   0  0  0  0  0  0  0  0  0  0  0  0
   15.7067   -7.4348    5.7088 N   0  0  0  0  0  0  0  0  0  0  0  0
   16.5864   -6.5314    6.1782 C   0  0  0  0  0  0  0  0  0  0  0  0
   17.9576   -6.8007    6.1503 C   0  0  0  0  0  0  0  0  0  0  0  0
   18.4374   -8.0008    5.6587 C   0  0  0  0  0  0  0  0  0  0  0  0
   19.7371   -8.2559    5.6444 N   0  0  0  0  0  0  0  0  0  0  0  0
   18.5996   -5.7427    6.6577 N   0  0  0  0  0  0  0  0  0  0  0  0
   17.6790   -4.8151    7.0015 C   0  0  0  0  0  0  0  0  0  0  0  0
   16.4234   -5.2852    6.7067 N   0  0  0  0  0  0  0  0  0  0  0  0
  2  1  1  1  0  0  0
  2  3  1  0  0  0  0
  2  5  1  0  0  0  0
  3  4  1  0  0  0  0
  3 17  1  0  0  0  0
  5  6  1  0  0  0  0
  7  6  1  1  0  0  0
  7  8  1  0  0  0  0
  7  9  1  0  0  0  0
 10  9  1  1  0  0  0
 10 11  1  0  0  0  0
 10 12  1  0  0  0  0
 11 16  1  0  0  0  0
 12 13  1  6  0  0  0
 12 14  1  0  0  0  0
 14 15  1  1  0  0  0
 14 16  1  0  0  0  0
 16 27  1  6  0  0  0
 18 19  2  0  0  0  0
 18 23  1  0  0  0  0
 19 20  1  0  0  0  0
 20 21  2  0  0  0  0
 21 22  1  0  0  0  0
 21 27  1  0  0  0  0
 22 23  2  0  0  0  0
 22 25  1  0  0  0  0
 23 24  1  0  0  0  0
 25 26  2  0  0  0  0
 26 27  1  0  0  0  0
M  END
>  <CHROM.1>
141.08026104,-62.05911513,-72.55827774,75.68598032,-85.57368077,63.20398862
91.36563530,15.39700649,-6.70858932,8.24978038,-2.19037674,0.61022506,-1.15255732

>  <Name>
ligand

>  <RI>
0

>  <Rbt.Current_Directory>
/home/itssahil/PROJECTS/Mol_Feturizer/Test_systems_manuscript/rnas/2ydh

>  <Rbt.Executable>
rbdock ($Id: //depot/dev/client3/rdock/2013.1/src/exe/rbdock.cxx#4 $)

>  <Rbt.Library>
libRbt.so (2013.1, Build901 2013/11/27)

>  <Rbt.Parameter_File>
/export/apps/rDock/src/rDock_2013.1_src/data/scripts/dock_solv.prm

>  <Rbt.Receptor>
prm/pocket_docking_6.prm

>  <SCORE>
-11.7361

>  <SCORE.INTER>
-12.164

>  <SCORE.INTER.CONST>
1

>  <SCORE.INTER.POLAR>
0

>  <SCORE.INTER.ROT>
7

>  <SCORE.INTER.SOLV>
9.78625

>  <SCORE.INTER.VDW>
-19.6381

>  <SCORE.INTER.norm>
-0.450517

>  <SCORE.INTRA>
0.427843

>  <SCORE.INTRA.DIHEDRAL>
-3.78246

>  <SCORE.INTRA.DIHEDRAL.0>
9.75037

>  <SCORE.INTRA.POLAR>
0

>  <SCORE.INTRA.POLAR.0>
0

>  <SCORE.INTRA.REPUL>
0

>  <SCORE.INTRA.REPUL.0>
0

>  <SCORE.INTRA.SOLV>
0.667388

>  <SCORE.INTRA.SOLV.lig_0>
-48.4279

>  <SCORE.INTRA.VDW>
1.98538

>  <SCORE.INTRA.VDW.0>
-4.69037

>  <SCORE.INTRA.norm>
0.015846

>  <SCORE.RESTR>
0

>  <SCORE.RESTR.CAVITY>
0

>  <SCORE.RESTR.norm>
0

>  <SCORE.SYSTEM>
0

>  <SCORE.SYSTEM.CONST>
0

>  <SCORE.SYSTEM.DIHEDRAL>
0

>  <SCORE.SYSTEM.SOLV>
0

>  <SCORE.SYSTEM.norm>
0

>  <SCORE.heavy>
27

>  <SCORE.norm>
-0.434671

>  <RMSD>
4.548

$$$$
ligand
 OpenBabel02271912153D
libRbt.so/2013.1/901 2013/11/27
 27 29  0  0  0  0  0  0  0  0999 V2000
   15.3290   -6.3318   11.5460 N   0  0  0  0  0  0  0  0  0  0  0  0
   15.0204   -5.3970   10.4202 C   0  0  2  0  0  0  0  0  0  0  0  0
   15.2226   -3.9262   10.8477 C   0  0  0  0  0  0  0  0  0  0  0  0
   14.7853   -3.5091   11.9244 O   0  0  0  0  0  0  0  0  0  0  0  0
   13.6044   -5.6582    9.9178 C   0  0  0  0  0  0  0  0  0  0  0  0
   13.2009   -4.8280    8.7106 C   0  0  0  0  0  0  0  0  0  0  0  0
   14.2469   -5.1205    7.2555 S   0  0  2  0  0  0  0  0  0  0  0  0
   13.1300   -4.5917    5.9256 C   0  0  0  0  0  0  0  0  0  0  0  0
   14.3038   -6.9036    7.0160 C   0  0  0  0  0  0  0  0  0  0  0  0
   15.1285   -7.2104    5.7806 C   0  0  1  0  0  0  0  0  0  0  0  0
   16.3563   -6.4990    5.7555 O   0  0  0  0  0  0  0  0  0  0  0  0
   15.4655   -8.6789    5.6924 C   0  0  1  0  0  0  0  0  0  0  0  0
   14.4302   -9.3975    5.0856 O   0  0  0  0  0  0  0  0  0  0  0  0
   16.6984   -8.6434    4.8417 C   0  0  1  0  0  0  0  0  0  0  0  0
   16.3224   -8.6727    3.4779 O   0  0  0  0  0  0  0  0  0  0  0  0
   17.3552   -7.3125    5.1849 C   0  0  2  0  0  0  0  0  0  0  0  0
   15.8230   -3.1021   10.1338 O   0  0  0  0  0  0  0  0  0  0  0  0
   19.8898   -5.5615    9.4707 N   0  0  0  0  0  0  0  0  0  0  0  0
   18.7511   -5.0331    8.8802 C   0  0  0  0  0  0  0  0  0  0  0  0
   18.2090   -5.6068    7.7363 N   0  0  0  0  0  0  0  0  0  0  0  0
   18.7897   -6.7002    7.2095 C   0  0  0  0  0  0  0  0  0  0  0  0
   19.9285   -7.2506    7.8042 C   0  0  0  0  0  0  0  0  0  0  0  0
   20.4909   -6.6778    8.9301 C   0  0  0  0  0  0  0  0  0  0  0  0
   21.5766   -7.1968    9.4837 N   0  0  0  0  0  0  0  0  0  0  0  0
   20.2885   -8.3267    7.0960 N   0  0  0  0  0  0  0  0  0  0  0  0
   19.4131   -8.4740    6.0772 C   0  0  0  0  0  0  0  0  0  0  0  0
   18.4724   -7.4759    6.1342 N   0  0  0  0  0  0  0  0  0  0  0  0
  2  1  1  1  0  0  0
  2  3  1  0  0  0  0
  2  5  1  0  0  0  0
  3  4  1  0  0  0  0
  3 17  1  0  0  0  0
  5  6  1  0  0  0  0
  7  6  1  1  0  0  0
  7  8  1  0  0  0  0
  7  9  1  0  0  0  0
 10  9  1  1  0  0  0
 10 11  1  0  0  0  0
 10 12  1  0  0  0  0
 11 16  1  0  0  0  0
 12 13  1  6  0  0  0
 12 14  1  0  0  0  0
 14 15  1  6  0  0  0
 14 16  1  0  0  0  0
 16 27  1  1  0  0  0
 18 19  2  0  0  0  0
 18 23  1  0  0  0  0
 19 20  1  0  0  0  0
 20 21  2  0  0  0  0
 21 22  1  0  0  0  0
 21 27  1  0  0  0  0
 22 23  2  0  0  0  0
 22 25  1  0  0  0  0
 23 24  1  0  0  0  0
 25 26  2  0  0  0  0
 26 27  1  0  0  0  0
M  END
>  <CHROM.1>
-45.69501012,-176.28922724,60.83208494,157.04050082,178.08670574,47.33080440
-19.66535216,16.54129451,-6.36639027,7.67828911,-2.20144063,0.22057971,-2.14062025

>  <Name>
ligand

>  <RI>
0

>  <Rbt.Current_Directory>
/home/itssahil/PROJECTS/Mol_Feturizer/Test_systems_manuscript/rnas/2ydh

>  <Rbt.Executable>
rbdock ($Id: //depot/dev/client3/rdock/2013.1/src/exe/rbdock.cxx#4 $)

>  <Rbt.Library>
libRbt.so (2013.1, Build901 2013/11/27)

>  <Rbt.Parameter_File>
/export/apps/rDock/src/rDock_2013.1_src/data/scripts/dock_solv.prm

>  <Rbt.Receptor>
prm/pocket_docking_6.prm

>  <SCORE>
-12.7488

>  <SCORE.INTER>
-10.8778

>  <SCORE.INTER.CONST>
1

>  <SCORE.INTER.POLAR>
0

>  <SCORE.INTER.ROT>
7

>  <SCORE.INTER.SOLV>
7.65776

>  <SCORE.INTER.VDW>
-18.0711

>  <SCORE.INTER.norm>
-0.402883

>  <SCORE.INTRA>
-1.87099

>  <SCORE.INTRA.DIHEDRAL>
-5.30425

>  <SCORE.INTRA.DIHEDRAL.0>
9.75037

>  <SCORE.INTRA.POLAR>
0

>  <SCORE.INTRA.POLAR.0>
0

>  <SCORE.INTRA.REPUL>
0

>  <SCORE.INTRA.REPUL.0>
0

>  <SCORE.INTRA.SOLV>
-1.36124

>  <SCORE.INTRA.SOLV.lig_0>
-48.4279

>  <SCORE.INTRA.VDW>
1.46175

>  <SCORE.INTRA.VDW.0>
-4.69037

>  <SCORE.INTRA.norm>
-0.0692961

>  <SCORE.RESTR>
0

>  <SCORE.RESTR.CAVITY>
0

>  <SCORE.RESTR.norm>
0

>  <SCORE.SYSTEM>
0

>  <SCORE.SYSTEM.CONST>
0

>  <SCORE.SYSTEM.DIHEDRAL>
0

>  <SCORE.SYSTEM.SOLV>
0

>  <SCORE.SYSTEM.norm>
0

>  <SCORE.heavy>
27

>  <SCORE.norm>
-0.472179

>  <RMSD>
4.581

$$$$
ligand
 OpenBabel02271912153D
libRbt.so/2013.1/901 2013/11/27
 27 29  0  0  0  0  0  0  0  0999 V2000
   12.1721   -7.1837   13.0081 N   0  0  0  0  0  0  0  0  0  0  0  0
   11.7971   -7.1564   11.5606 C   0  0  2  0  0  0  0  0  0  0  0  0
   11.4744   -8.5758   11.0431 C   0  0  0  0  0  0  0  0  0  0  0  0
   10.3091   -8.9761   10.9634 O   0  0  0  0  0  0  0  0  0  0  0  0
   12.9135   -6.4945   10.7599 C   0  0  0  0  0  0  0  0  0  0  0  0
   12.6531   -6.4118    9.2650 C   0  0  0  0  0  0  0  0  0  0  0  0
   13.9899   -5.5950    8.3471 S   0  0  2  0  0  0  0  0  0  0  0  0
   13.6359   -3.8528    8.7147 C   0  0  0  0  0  0  0  0  0  0  0  0
   13.5579   -5.7096    6.6034 C   0  0  0  0  0  0  0  0  0  0  0  0
   14.7658   -6.1967    5.8259 C   0  0  1  0  0  0  0  0  0  0  0  0
   15.8764   -5.3206    5.9407 O   0  0  0  0  0  0  0  0  0  0  0  0
   15.2206   -7.5536    6.3055 C   0  0  1  0  0  0  0  0  0  0  0  0
   14.5009   -8.5763    5.6788 O   0  0  0  0  0  0  0  0  0  0  0  0
   16.6595   -7.5419    5.8879 C   0  0  1  0  0  0  0  0  0  0  0  0
   16.7599   -8.0063    4.5551 O   0  0  0  0  0  0  0  0  0  0  0  0
   17.0651   -6.0761    5.9736 C   0  0  2  0  0  0  0  0  0  0  0  0
   12.3626   -9.3740   10.6919 O   0  0  0  0  0  0  0  0  0  0  0  0
   21.5495   -6.5377    8.7187 N   0  0  0  0  0  0  0  0  0  0  0  0
   21.2743   -7.0264    7.4498 C   0  0  0  0  0  0  0  0  0  0  0  0
   20.0286   -6.8317    6.8651 N   0  0  0  0  0  0  0  0  0  0  0  0
   19.0870   -6.1432    7.5354 C   0  0  0  0  0  0  0  0  0  0  0  0
   19.3575   -5.6328    8.8082 C   0  0  0  0  0  0  0  0  0  0  0  0
   20.5851   -5.8373    9.4108 C   0  0  0  0  0  0  0  0  0  0  0  0
   20.8330   -5.3611   10.6217 N   0  0  0  0  0  0  0  0  0  0  0  0
   18.2678   -4.9867    9.2374 N   0  0  0  0  0  0  0  0  0  0  0  0
   17.3213   -5.0705    8.2765 C   0  0  0  0  0  0  0  0  0  0  0  0
   17.8135   -5.7810    7.2100 N   0  0  0  0  0  0  0  0  0  0  0  0
  2  1  1  1  0  0  0
  2  3  1  0  0  0  0
  2  5  1  0  0  0  0
  3  4  1  0  0  0  0
  3 17  1  0  0  0  0
  5  6  1  0  0  0  0
  7  6  1  1  0  0  0
  7  8  1  0  0  0  0
  7  9  1  0  0  0  0
 10  9  1  1  0  0  0
 10 11  1  0  0  0  0
 10 12  1  0  0  0  0
 11 16  1  0  0  0  0
 12 13  1  6  0  0  0
 12 14  1  0  0  0  0
 14 15  1  6  0  0  0
 14 16  1  0  0  0  0
 16 27  1  1  0  0  0
 18 19  2  0  0  0  0
 18 23  1  0  0  0  0
 19 20  1  0  0  0  0
 20 21  2  0  0  0  0
 21 22  1  0  0  0  0
 21 27  1  0  0  0  0
 22 23  2  0  0  0  0
 22 25  1  0  0  0  0
 23 24  1  0  0  0  0
 25 26  2  0  0  0  0
 26 27  1  0  0  0  0
M  END
>  <CHROM.1>
97.71853201,179.72305270,179.07875810,-78.03454921,-132.15141793,-60.46497738
-169.50717933,15.78667538,-6.57211093,8.32730124,-2.81845966,-0.19011670
-1.62399055

>  <Name>
ligand

>  <RI>
0

>  <Rbt.Current_Directory>
/home/itssahil/PROJECTS/Mol_Feturizer/Test_systems_manuscript/rnas/2ydh

>  <Rbt.Executable>
rbdock ($Id: //depot/dev/client3/rdock/2013.1/src/exe/rbdock.cxx#4 $)

>  <Rbt.Library>
libRbt.so (2013.1, Build901 2013/11/27)

>  <Rbt.Parameter_File>
/export/apps/rDock/src/rDock_2013.1_src/data/scripts/dock_solv.prm

>  <Rbt.Receptor>
prm/pocket_docking_8.prm

>  <SCORE>
-9.7076

>  <SCORE.INTER>
-9.86912

>  <SCORE.INTER.CONST>
1

>  <SCORE.INTER.POLAR>
0

>  <SCORE.INTER.ROT>
7

>  <SCORE.INTER.SOLV>
18.0937

>  <SCORE.INTER.VDW>
-20.8773

>  <SCORE.INTER.norm>
-0.365523

>  <SCORE.INTRA>
0.161512

>  <SCORE.INTRA.DIHEDRAL>
-2.00319

>  <SCORE.INTRA.DIHEDRAL.0>
9.75037

>  <SCORE.INTRA.POLAR>
0

>  <SCORE.INTRA.POLAR.0>
0

>  <SCORE.INTRA.REPUL>
0

>  <SCORE.INTRA.REPUL.0>
0

>  <SCORE.INTRA.SOLV>
-1.34018

>  <SCORE.INTRA.SOLV.lig_0>
-48.4279

>  <SCORE.INTRA.VDW>
1.8332

>  <SCORE.INTRA.VDW.0>
-4.69037

>  <SCORE.INTRA.norm>
0.00598193

>  <SCORE.RESTR>
0

>  <SCORE.RESTR.CAVITY>
0

>  <SCORE.RESTR.norm>
0

>  <SCORE.SYSTEM>
0

>  <SCORE.SYSTEM.CONST>
0

>  <SCORE.SYSTEM.DIHEDRAL>
0

>  <SCORE.SYSTEM.SOLV>
0

>  <SCORE.SYSTEM.norm>
0

>  <SCORE.heavy>
27

>  <SCORE.norm>
-0.359541

>  <RMSD>
4.585

$$$$
ligand
 OpenBabel02271912153D
libRbt.so/2013.1/901 2013/11/27
 27 29  0  0  0  0  0  0  0  0999 V2000
   16.2877   -6.0725   11.5298 N   0  0  0  0  0  0  0  0  0  0  0  0
   15.9550   -4.7690   10.8765 C   0  0  2  0  0  0  0  0  0  0  0  0
   15.0572   -3.9034   11.7882 C   0  0  0  0  0  0  0  0  0  0  0  0
   15.4209   -3.5844   12.9243 O   0  0  0  0  0  0  0  0  0  0  0  0
   15.3099   -5.0317    9.5198 C   0  0  0  0  0  0  0  0  0  0  0  0
   15.3831   -3.8638    8.5504 C   0  0  0  0  0  0  0  0  0  0  0  0
   14.4409   -4.1381    7.0227 S   0  0  2  0  0  0  0  0  0  0  0  0
   12.8359   -3.4263    7.4841 C   0  0  0  0  0  0  0  0  0  0  0  0
   14.0704   -5.8983    6.9587 C   0  0  0  0  0  0  0  0  0  0  0  0
   14.7772   -6.5091    5.7637 C   0  0  1  0  0  0  0  0  0  0  0  0
   16.1423   -6.1287    5.6859 O   0  0  0  0  0  0  0  0  0  0  0  0
   14.7397   -8.0172    5.8116 C   0  0  1  0  0  0  0  0  0  0  0  0
   13.5509   -8.5090    5.2625 O   0  0  0  0  0  0  0  0  0  0  0  0
   15.9317   -8.3641    4.9726 C   0  0  1  0  0  0  0  0  0  0  0  0
   15.5419   -8.4218    3.6136 O   0  0  0  0  0  0  0  0  0  0  0  0
   16.9015   -7.2117    5.2004 C   0  0  2  0  0  0  0  0  0  0  0  0
   13.9375   -3.4967   11.4274 O   0  0  0  0  0  0  0  0  0  0  0  0
   19.8199   -5.7791    9.3584 N   0  0  0  0  0  0  0  0  0  0  0  0
   18.8345   -5.0434    8.7162 C   0  0  0  0  0  0  0  0  0  0  0  0
   18.1608   -5.5607    7.6162 N   0  0  0  0  0  0  0  0  0  0  0  0
   18.4592   -6.7994    7.1841 C   0  0  0  0  0  0  0  0  0  0  0  0
   19.4395   -7.5562    7.8322 C   0  0  0  0  0  0  0  0  0  0  0  0
   20.1325   -7.0460    8.9145 C   0  0  0  0  0  0  0  0  0  0  0  0
   21.0683   -7.7629    9.5186 N   0  0  0  0  0  0  0  0  0  0  0  0
   19.5261   -8.7400    7.2157 N   0  0  0  0  0  0  0  0  0  0  0  0
   18.6314   -8.7553    6.2030 C   0  0  0  0  0  0  0  0  0  0  0  0
   17.9562   -7.5605    6.1709 N   0  0  0  0  0  0  0  0  0  0  0  0
  2  1  1  1  0  0  0
  2  3  1  0  0  0  0
  2  5  1  0  0  0  0
  3  4  1  0  0  0  0
  3 17  1  0  0  0  0
  5  6  1  0  0  0  0
  7  6  1  1  0  0  0
  7  8  1  0  0  0  0
  7  9  1  0  0  0  0
 10  9  1  1  0  0  0
 10 11  1  0  0  0  0
 10 12  1  0  0  0  0
 11 16  1  0  0  0  0
 12 13  1  6  0  0  0
 12 14  1  0  0  0  0
 14 15  1  6  0  0  0
 14 16  1  0  0  0  0
 16 27  1  1  0  0  0
 18 19  2  0  0  0  0
 18 23  1  0  0  0  0
 19 20  1  0  0  0  0
 20 21  2  0  0  0  0
 21 22  1  0  0  0  0
 21 27  1  0  0  0  0
 22 23  2  0  0  0  0
 22 25  1  0  0  0  0
 23 24  1  0  0  0  0
 25 26  2  0  0  0  0
 26 27  1  0  0  0  0
M  END
>  <CHROM.1>
57.58571663,-158.77212408,-173.26300935,91.46774712,-115.42934369,48.09911859
-18.85434959,16.40696636,-6.09294019,7.84987132,-1.90263095,0.39364105,-2.10319024

>  <Name>
ligand

>  <RI>
0

>  <Rbt.Current_Directory>
/home/itssahil/PROJECTS/Mol_Feturizer/Test_systems_manuscript/rnas/2ydh

>  <Rbt.Executable>
rbdock ($Id: //depot/dev/client3/rdock/2013.1/src/exe/rbdock.cxx#4 $)

>  <Rbt.Library>
libRbt.so (2013.1, Build901 2013/11/27)

>  <Rbt.Parameter_File>
/export/apps/rDock/src/rDock_2013.1_src/data/scripts/dock_solv.prm

>  <Rbt.Receptor>
prm/pocket_docking_8.prm

>  <SCORE>
-9.88702

>  <SCORE.INTER>
-12.6292

>  <SCORE.INTER.CONST>
1

>  <SCORE.INTER.POLAR>
0

>  <SCORE.INTER.ROT>
7

>  <SCORE.INTER.SOLV>
7.40084

>  <SCORE.INTER.VDW>
-19.1531

>  <SCORE.INTER.norm>
-0.46775

>  <SCORE.INTRA>
2.74222

>  <SCORE.INTRA.DIHEDRAL>
2.72186

>  <SCORE.INTRA.DIHEDRAL.0>
9.75037

>  <SCORE.INTRA.POLAR>
0

>  <SCORE.INTRA.POLAR.0>
0

>  <SCORE.INTRA.REPUL>
0

>  <SCORE.INTRA.REPUL.0>
0

>  <SCORE.INTRA.SOLV>
-1.38665

>  <SCORE.INTRA.SOLV.lig_0>
-48.4279

>  <SCORE.INTRA.VDW>
2.07462

>  <SCORE.INTRA.VDW.0>
-4.69037

>  <SCORE.INTRA.norm>
0.101564

>  <SCORE.RESTR>
0

>  <SCORE.RESTR.CAVITY>
0

>  <SCORE.RESTR.norm>
0

>  <SCORE.SYSTEM>
0

>  <SCORE.SYSTEM.CONST>
0

>  <SCORE.SYSTEM.DIHEDRAL>
0

>  <SCORE.SYSTEM.SOLV>
0

>  <SCORE.SYSTEM.norm>
0

>  <SCORE.heavy>
27

>  <SCORE.norm>
-0.366186

>  <RMSD>
4.596

$$$$
ligand
 OpenBabel02271912153D
libRbt.so/2013.1/901 2013/11/27
 27 29  0  0  0  0  0  0  0  0999 V2000
   15.7079   -6.9648   11.5985 N   0  0  0  0  0  0  0  0  0  0  0  0
   15.3841   -6.1570   12.8147 C   0  0  2  0  0  0  0  0  0  0  0  0
   14.6938   -7.0245   13.8906 C   0  0  0  0  0  0  0  0  0  0  0  0
   13.9645   -7.9700   13.5762 O   0  0  0  0  0  0  0  0  0  0  0  0
   14.5334   -4.9562   12.4144 C   0  0  0  0  0  0  0  0  0  0  0  0
   15.2846   -3.8784   11.6507 C   0  0  0  0  0  0  0  0  0  0  0  0
   15.4253   -4.2230    9.8735 S   0  0  2  0  0  0  0  0  0  0  0  0
   16.5061   -2.8614    9.3505 C   0  0  0  0  0  0  0  0  0  0  0  0
   13.8497   -3.7608    9.1360 C   0  0  0  0  0  0  0  0  0  0  0  0
   13.7937   -4.2918    7.7163 C   0  0  1  0  0  0  0  0  0  0  0  0
   14.9480   -3.9537    6.9629 O   0  0  0  0  0  0  0  0  0  0  0  0
   13.6751   -5.7963    7.6938 C   0  0  1  0  0  0  0  0  0  0  0  0
   12.3408   -6.1981    7.8149 O   0  0  0  0  0  0  0  0  0  0  0  0
   14.2362   -6.1117    6.3408 C   0  0  1  0  0  0  0  0  0  0  0  0
   13.1998   -6.0400    5.3802 O   0  0  0  0  0  0  0  0  0  0  0  0
   15.2669   -5.0172    6.0955 C   0  0  2  0  0  0  0  0  0  0  0  0
   14.8340   -6.8106   15.1088 O   0  0  0  0  0  0  0  0  0  0  0  0
   18.8496   -8.8709    5.6807 N   0  0  0  0  0  0  0  0  0  0  0  0
   17.5364   -8.8779    5.2333 C   0  0  0  0  0  0  0  0  0  0  0  0
   16.7087   -7.7796    5.4335 N   0  0  0  0  0  0  0  0  0  0  0  0
   17.1982   -6.6905    6.0534 C   0  0  0  0  0  0  0  0  0  0  0  0
   18.5241   -6.6657    6.4951 C   0  0  0  0  0  0  0  0  0  0  0  0
   19.3525   -7.7591    6.3217 C   0  0  0  0  0  0  0  0  0  0  0  0
   20.6051   -7.7349    6.7518 N   0  0  0  0  0  0  0  0  0  0  0  0
   18.7528   -5.4739    7.0575 N   0  0  0  0  0  0  0  0  0  0  0  0
   17.6166   -4.7463    6.9821 C   0  0  0  0  0  0  0  0  0  0  0  0
   16.6416   -5.4836    6.3575 N   0  0  0  0  0  0  0  0  0  0  0  0
  2  1  1  6  0  0  0
  2  3  1  0  0  0  0
  2  5  1  0  0  0  0
  3  4  1  0  0  0  0
  3 17  1  0  0  0  0
  5  6  1  0  0  0  0
  7  6  1  1  0  0  0
  7  8  1  0  0  0  0
  7  9  1  0  0  0  0
 10  9  1  1  0  0  0
 10 11  1  0  0  0  0
 10 12  1  0  0  0  0
 11 16  1  0  0  0  0
 12 13  1  6  0  0  0
 12 14  1  0  0  0  0
 14 15  1  6  0  0  0
 14 16  1  0  0  0  0
 16 27  1  1  0  0  0
 18 19  2  0  0  0  0
 18 23  1  0  0  0  0
 19 20  1  0  0  0  0
 20 21  2  0  0  0  0
 21 22  1  0  0  0  0
 21 27  1  0  0  0  0
 22 23  2  0  0  0  0
 22 25  1  0  0  0  0
 23 24  1  0  0  0  0
 25 26  2  0  0  0  0
 26 27  1  0  0  0  0
M  END
>  <CHROM.1>
-31.84486427,-71.62120994,83.14155981,-174.04920924,-168.13475081,-50.25994453
158.65284979,15.80134642,-5.89493040,8.64421093,-2.04785286,0.57400777,-1.44049559

>  <Name>
ligand

>  <RI>
0

>  <Rbt.Current_Directory>
/home/itssahil/PROJECTS/Mol_Feturizer/Test_systems_manuscript/rnas/2ydh

>  <Rbt.Executable>
rbdock ($Id: //depot/dev/client3/rdock/2013.1/src/exe/rbdock.cxx#4 $)

>  <Rbt.Library>
libRbt.so (2013.1, Build901 2013/11/27)

>  <Rbt.Parameter_File>
/export/apps/rDock/src/rDock_2013.1_src/data/scripts/dock_solv.prm

>  <Rbt.Receptor>
prm/pocket_docking_8.prm

>  <SCORE>
-12.8468

>  <SCORE.INTER>
-13.2569

>  <SCORE.INTER.CONST>
1

>  <SCORE.INTER.POLAR>
0

>  <SCORE.INTER.ROT>
7

>  <SCORE.INTER.SOLV>
9.38355

>  <SCORE.INTER.VDW>
-20.2324

>  <SCORE.INTER.norm>
-0.490995

>  <SCORE.INTRA>
0.410075

>  <SCORE.INTRA.DIHEDRAL>
-2.5473

>  <SCORE.INTRA.DIHEDRAL.0>
9.75037

>  <SCORE.INTRA.POLAR>
0

>  <SCORE.INTRA.POLAR.0>
0

>  <SCORE.INTRA.REPUL>
0

>  <SCORE.INTRA.REPUL.0>
0

>  <SCORE.INTRA.SOLV>
0.60228

>  <SCORE.INTRA.SOLV.lig_0>
-48.4279

>  <SCORE.INTRA.VDW>
1.38258

>  <SCORE.INTRA.VDW.0>
-4.69037

>  <SCORE.INTRA.norm>
0.0151879

>  <SCORE.RESTR>
0

>  <SCORE.RESTR.CAVITY>
0

>  <SCORE.RESTR.norm>
0

>  <SCORE.SYSTEM>
0

>  <SCORE.SYSTEM.CONST>
0

>  <SCORE.SYSTEM.DIHEDRAL>
0

>  <SCORE.SYSTEM.SOLV>
0

>  <SCORE.SYSTEM.norm>
0

>  <SCORE.heavy>
27

>  <SCORE.norm>
-0.475807

>  <RMSD>
4.605

$$$$
ligand
 OpenBabel02271912153D
libRbt.so/2013.1/901 2013/11/27
 27 29  0  0  0  0  0  0  0  0999 V2000
   14.7560   -5.4171   12.1549 N   0  0  0  0  0  0  0  0  0  0  0  0
   13.6707   -5.0636   11.1886 C   0  0  2  0  0  0  0  0  0  0  0  0
   12.6651   -6.2260   11.0326 C   0  0  0  0  0  0  0  0  0  0  0  0
   12.9326   -7.2121   10.3393 O   0  0  0  0  0  0  0  0  0  0  0  0
   14.2906   -4.6593    9.8552 C   0  0  0  0  0  0  0  0  0  0  0  0
   15.0917   -3.3687    9.8982 C   0  0  0  0  0  0  0  0  0  0  0  0
   15.9376   -2.9959    8.3354 S   0  0  2  0  0  0  0  0  0  0  0  0
   16.6254   -1.3574    8.7069 C   0  0  0  0  0  0  0  0  0  0  0  0
   14.6519   -2.6046    7.1380 C   0  0  0  0  0  0  0  0  0  0  0  0
   14.3540   -3.8406    6.3109 C   0  0  1  0  0  0  0  0  0  0  0  0
   15.4802   -4.6950    6.1841 O   0  0  0  0  0  0  0  0  0  0  0  0
   13.2434   -4.6596    6.9222 C   0  0  1  0  0  0  0  0  0  0  0  0
   11.9895   -4.1847    6.5236 O   0  0  0  0  0  0  0  0  0  0  0  0
   13.5366   -6.0154    6.3559 C   0  0  1  0  0  0  0  0  0  0  0  0
   12.9024   -6.1397    5.0971 O   0  0  0  0  0  0  0  0  0  0  0  0
   15.0511   -6.0369    6.1940 C   0  0  2  0  0  0  0  0  0  0  0  0
   11.5505   -6.2207   11.5866 O   0  0  0  0  0  0  0  0  0  0  0  0
   19.0299   -6.2881    9.6530 N   0  0  0  0  0  0  0  0  0  0  0  0
   18.7808   -5.2989    8.7128 C   0  0  0  0  0  0  0  0  0  0  0  0
   17.6887   -5.3862    7.8578 N   0  0  0  0  0  0  0  0  0  0  0  0
   16.8545   -6.4369    7.9602 C   0  0  0  0  0  0  0  0  0  0  0  0
   17.0865   -7.4321    8.9138 C   0  0  0  0  0  0  0  0  0  0  0  0
   18.1809   -7.3690    9.7566 C   0  0  0  0  0  0  0  0  0  0  0  0
   18.4027   -8.3202   10.6513 N   0  0  0  0  0  0  0  0  0  0  0  0
   16.1110   -8.3415    8.8116 N   0  0  0  0  0  0  0  0  0  0  0  0
   15.2710   -7.9509    7.8277 C   0  0  0  0  0  0  0  0  0  0  0  0
   15.7139   -6.7677    7.2907 N   0  0  0  0  0  0  0  0  0  0  0  0
  2  1  1  1  0  0  0
  2  3  1  0  0  0  0
  2  5  1  0  0  0  0
  3  4  1  0  0  0  0
  3 17  1  0  0  0  0
  5  6  1  0  0  0  0
  7  6  1  1  0  0  0
  7  8  1  0  0  0  0
  7  9  1  0  0  0  0
 10  9  1  1  0  0  0
 10 11  1  0  0  0  0
 10 12  1  0  0  0  0
 11 16  1  0  0  0  0
 12 13  1  6  0  0  0
 12 14  1  0  0  0  0
 14 15  1  6  0  0  0
 14 16  1  0  0  0  0
 16 27  1  1  0  0  0
 18 19  2  0  0  0  0
 18 23  1  0  0  0  0
 19 20  1  0  0  0  0
 20 21  2  0  0  0  0
 21 22  1  0  0  0  0
 21 27  1  0  0  0  0
 22 23  2  0  0  0  0
 22 25  1  0  0  0  0
 23 24  1  0  0  0  0
 25 26  2  0  0  0  0
 26 27  1  0  0  0  0
M  END
>  <CHROM.1>
-77.78374794,-66.80410404,174.81204699,174.69365658,-97.46769632,-29.06840300
-19.78329188,15.20938177,-5.40735732,8.53959053,0.70665842,-0.12814176,2.20598803

>  <Name>
ligand

>  <RI>
0

>  <Rbt.Current_Directory>
/home/itssahil/PROJECTS/Mol_Feturizer/Test_systems_manuscript/rnas/2ydh

>  <Rbt.Executable>
rbdock ($Id: //depot/dev/client3/rdock/2013.1/src/exe/rbdock.cxx#4 $)

>  <Rbt.Library>
libRbt.so (2013.1, Build901 2013/11/27)

>  <Rbt.Parameter_File>
/export/apps/rDock/src/rDock_2013.1_src/data/scripts/dock_solv.prm

>  <Rbt.Receptor>
prm/pocket_docking_7.prm

>  <SCORE>
-13.4293

>  <SCORE.INTER>
-12.2019

>  <SCORE.INTER.CONST>
1

>  <SCORE.INTER.POLAR>
0

>  <SCORE.INTER.ROT>
7

>  <SCORE.INTER.SOLV>
11.6979

>  <SCORE.INTER.VDW>
-20.3006

>  <SCORE.INTER.norm>
-0.451922

>  <SCORE.INTRA>
-1.22745

>  <SCORE.INTRA.DIHEDRAL>
-1.44117

>  <SCORE.INTRA.DIHEDRAL.0>
9.75037

>  <SCORE.INTRA.POLAR>
0

>  <SCORE.INTRA.POLAR.0>
0

>  <SCORE.INTRA.REPUL>
0

>  <SCORE.INTRA.REPUL.0>
0

>  <SCORE.INTRA.SOLV>
-0.465126

>  <SCORE.INTRA.SOLV.lig_0>
-48.4279

>  <SCORE.INTRA.VDW>
-0.274301

>  <SCORE.INTRA.VDW.0>
-4.69037

>  <SCORE.INTRA.norm>
-0.045461

>  <SCORE.RESTR>
0

>  <SCORE.RESTR.CAVITY>
0

>  <SCORE.RESTR.norm>
0

>  <SCORE.SYSTEM>
0

>  <SCORE.SYSTEM.CONST>
0

>  <SCORE.SYSTEM.DIHEDRAL>
0

>  <SCORE.SYSTEM.SOLV>
0

>  <SCORE.SYSTEM.norm>
0

>  <SCORE.heavy>
27

>  <SCORE.norm>
-0.497383

>  <RMSD>
4.620

$$$$
ligand
 OpenBabel02271912153D
libRbt.so/2013.1/901 2013/11/27
 27 29  0  0  0  0  0  0  0  0999 V2000
   15.3380   -5.1716   13.4158 N   0  0  0  0  0  0  0  0  0  0  0  0
   14.4101   -6.3444   13.4294 C   0  0  2  0  0  0  0  0  0  0  0  0
   14.3975   -7.0272   14.8152 C   0  0  0  0  0  0  0  0  0  0  0  0
   13.5456   -6.7381   15.6609 O   0  0  0  0  0  0  0  0  0  0  0  0
   14.7999   -7.3124   12.3173 C   0  0  0  0  0  0  0  0  0  0  0  0
   14.5957   -6.7723   10.9116 C   0  0  0  0  0  0  0  0  0  0  0  0
   12.9052   -6.1840   10.6066 S   0  0  2  0  0  0  0  0  0  0  0  0
   11.9540   -7.6860   10.9739 C   0  0  0  0  0  0  0  0  0  0  0  0
   12.7247   -6.0485    8.8208 C   0  0  0  0  0  0  0  0  0  0  0  0
   13.5590   -4.8822    8.3267 C   0  0  1  0  0  0  0  0  0  0  0  0
   14.9508   -5.1586    8.3536 O   0  0  0  0  0  0  0  0  0  0  0  0
   13.2078   -4.5150    6.9055 C   0  0  1  0  0  0  0  0  0  0  0  0
   12.1111   -3.6476    6.8659 O   0  0  0  0  0  0  0  0  0  0  0  0
   14.4708   -3.8444    6.4582 C   0  0  1  0  0  0  0  0  0  0  0  0
   14.4145   -2.4726    6.8007 O   0  0  0  0  0  0  0  0  0  0  0  0
   15.5696   -4.5458    7.2461 C   0  0  2  0  0  0  0  0  0  0  0  0
   15.2377   -7.8854   15.1420 O   0  0  0  0  0  0  0  0  0  0  0  0
   15.3302   -9.0896    4.5712 N   0  0  0  0  0  0  0  0  0  0  0  0
   14.3031   -8.4420    5.2423 C   0  0  0  0  0  0  0  0  0  0  0  0
   14.5327   -7.2487    5.9167 N   0  0  0  0  0  0  0  0  0  0  0  0
   15.7651   -6.7092    5.8995 C   0  0  0  0  0  0  0  0  0  0  0  0
   16.8044   -7.3445    5.2141 C   0  0  0  0  0  0  0  0  0  0  0  0
   16.5954   -8.5429    4.5568 C   0  0  0  0  0  0  0  0  0  0  0  0
   17.5861   -9.1468    3.9178 N   0  0  0  0  0  0  0  0  0  0  0  0
   17.9062   -6.5975    5.3444 N   0  0  0  0  0  0  0  0  0  0  0  0
   17.5950   -5.5117    6.0862 C   0  0  0  0  0  0  0  0  0  0  0  0
   16.2685   -5.5614    6.4361 N   0  0  0  0  0  0  0  0  0  0  0  0
  2  1  1  1  0  0  0
  2  3  1  0  0  0  0
  2  5  1  0  0  0  0
  3  4  1  0  0  0  0
  3 17  1  0  0  0  0
  5  6  1  0  0  0  0
  7  6  1  6  0  0  0
  7  8  1  0  0  0  0
  7  9  1  0  0  0  0
 10  9  1  6  0  0  0
 10 11  1  0  0  0  0
 10 12  1  0  0  0  0
 11 16  1  0  0  0  0
 12 13  1  1  0  0  0
 12 14  1  0  0  0  0
 14 15  1  1  0  0  0
 14 16  1  0  0  0  0
 16 27  1  6  0  0  0
 18 19  2  0  0  0  0
 18 23  1  0  0  0  0
 19 20  1  0  0  0  0
 20 21  2  0  0  0  0
 21 22  1  0  0  0  0
 21 27  1  0  0  0  0
 22 23  2  0  0  0  0
 22 25  1  0  0  0  0
 23 24  1  0  0  0  0
 25 26  2  0  0  0  0
 26 27  1  0  0  0  0
M  END
>  <CHROM.1>
94.65284022,-66.53801061,-54.51516535,-57.54132487,-70.60989092,72.89838296
54.29509343,14.70454921,-6.27072526,8.73065821,1.95689889,-0.95757371,1.88546050

>  <Name>
ligand

>  <RI>
0

>  <Rbt.Current_Directory>
/home/itssahil/PROJECTS/Mol_Feturizer/Test_systems_manuscript/rnas/2ydh

>  <Rbt.Executable>
rbdock ($Id: //depot/dev/client3/rdock/2013.1/src/exe/rbdock.cxx#4 $)

>  <Rbt.Library>
libRbt.so (2013.1, Build901 2013/11/27)

>  <Rbt.Parameter_File>
/export/apps/rDock/src/rDock_2013.1_src/data/scripts/dock_solv.prm

>  <Rbt.Receptor>
prm/pocket_docking_6.prm

>  <SCORE>
-11.7199

>  <SCORE.INTER>
-10.7455

>  <SCORE.INTER.CONST>
1

>  <SCORE.INTER.POLAR>
0

>  <SCORE.INTER.ROT>
7

>  <SCORE.INTER.SOLV>
18.8314

>  <SCORE.INTER.VDW>
-21.7074

>  <SCORE.INTER.norm>
-0.397981

>  <SCORE.INTRA>
-0.97442

>  <SCORE.INTRA.DIHEDRAL>
-5.58047

>  <SCORE.INTRA.DIHEDRAL.0>
9.75037

>  <SCORE.INTRA.POLAR>
0

>  <SCORE.INTRA.POLAR.0>
0

>  <SCORE.INTRA.REPUL>
0

>  <SCORE.INTRA.REPUL.0>
0

>  <SCORE.INTRA.SOLV>
-0.189805

>  <SCORE.INTRA.SOLV.lig_0>
-48.4279

>  <SCORE.INTRA.VDW>
1.91072

>  <SCORE.INTRA.VDW.0>
-4.69037

>  <SCORE.INTRA.norm>
-0.0360896

>  <SCORE.RESTR>
0

>  <SCORE.RESTR.CAVITY>
0

>  <SCORE.RESTR.norm>
0

>  <SCORE.SYSTEM>
0

>  <SCORE.SYSTEM.CONST>
0

>  <SCORE.SYSTEM.DIHEDRAL>
0

>  <SCORE.SYSTEM.SOLV>
0

>  <SCORE.SYSTEM.norm>
0

>  <SCORE.heavy>
27

>  <SCORE.norm>
-0.43407

>  <RMSD>
4.629

$$$$
ligand
 OpenBabel02271912153D
libRbt.so/2013.1/901 2013/11/27
 27 29  0  0  0  0  0  0  0  0999 V2000
   16.2358   -8.1489   13.9956 N   0  0  0  0  0  0  0  0  0  0  0  0
   15.6971   -7.2806   12.9035 C   0  0  2  0  0  0  0  0  0  0  0  0
   14.8961   -6.0929   13.4817 C   0  0  0  0  0  0  0  0  0  0  0  0
   15.2123   -4.9266   13.2283 O   0  0  0  0  0  0  0  0  0  0  0  0
   14.8601   -8.1262   11.9496 C   0  0  0  0  0  0  0  0  0  0  0  0
   14.4868   -7.4291   10.6519 C   0  0  0  0  0  0  0  0  0  0  0  0
   13.3493   -6.0336   10.8874 S   0  0  2  0  0  0  0  0  0  0  0  0
   11.8669   -6.9021   11.4738 C   0  0  0  0  0  0  0  0  0  0  0  0
   12.8491   -5.4978    9.2435 C   0  0  0  0  0  0  0  0  0  0  0  0
   13.7915   -4.4073    8.7709 C   0  0  1  0  0  0  0  0  0  0  0  0
   15.1396   -4.8455    8.7015 O   0  0  0  0  0  0  0  0  0  0  0  0
   13.4160   -3.9106    7.3961 C   0  0  1  0  0  0  0  0  0  0  0  0
   12.4308   -2.9204    7.4702 O   0  0  0  0  0  0  0  0  0  0  0  0
   14.7263   -3.3646    6.9165 C   0  0  1  0  0  0  0  0  0  0  0  0
   14.8524   -2.0207    7.3410 O   0  0  0  0  0  0  0  0  0  0  0  0
   15.7711   -4.2389    7.5978 C   0  0  2  0  0  0  0  0  0  0  0  0
   13.9105   -6.2537   14.2248 O   0  0  0  0  0  0  0  0  0  0  0  0
   14.8386   -8.4980    4.6229 N   0  0  0  0  0  0  0  0  0  0  0  0
   13.9294   -7.7720    5.3785 C   0  0  0  0  0  0  0  0  0  0  0  0
   14.3385   -6.6734    6.1250 N   0  0  0  0  0  0  0  0  0  0  0  0
   15.6314   -6.3023    6.0962 C   0  0  0  0  0  0  0  0  0  0  0  0
   16.5540   -7.0167    5.3267 C   0  0  0  0  0  0  0  0  0  0  0  0
   16.1651   -8.1243    4.5960 C   0  0  0  0  0  0  0  0  0  0  0  0
   17.0452   -8.8046    3.8770 N   0  0  0  0  0  0  0  0  0  0  0  0
   17.7501   -6.4341    5.4646 N   0  0  0  0  0  0  0  0  0  0  0  0
   17.6112   -5.3752    6.2926 C   0  0  0  0  0  0  0  0  0  0  0  0
   16.3014   -5.2747    6.6912 N   0  0  0  0  0  0  0  0  0  0  0  0
  2  1  1  1  0  0  0
  2  3  1  0  0  0  0
  2  5  1  0  0  0  0
  3  4  1  0  0  0  0
  3 17  1  0  0  0  0
  5  6  1  0  0  0  0
  7  6  1  6  0  0  0
  7  8  1  0  0  0  0
  7  9  1  0  0  0  0
 10  9  1  6  0  0  0
 10 11  1  0  0  0  0
 10 12  1  0  0  0  0
 11 16  1  0  0  0  0
 12 13  1  1  0  0  0
 12 14  1  0  0  0  0
 14 15  1  1  0  0  0
 14 16  1  0  0  0  0
 16 27  1  6  0  0  0
 18 19  2  0  0  0  0
 18 23  1  0  0  0  0
 19 20  1  0  0  0  0
 20 21  2  0  0  0  0
 21 22  1  0  0  0  0
 21 27  1  0  0  0  0
 22 23  2  0  0  0  0
 22 25  1  0  0  0  0
 23 24  1  0  0  0  0
 25 26  2  0  0  0  0
 26 27  1  0  0  0  0
M  END
>  <CHROM.1>
121.73025058,-168.33602166,-66.93048199,-65.91749257,-91.90728280,60.02620168
55.82308016,14.82900650,-5.97543358,8.75252370,-2.00169478,1.09269312,-1.18205581

>  <Name>
ligand

>  <RI>
0

>  <Rbt.Current_Directory>
/home/itssahil/PROJECTS/Mol_Feturizer/Test_systems_manuscript/rnas/2ydh

>  <Rbt.Executable>
rbdock ($Id: //depot/dev/client3/rdock/2013.1/src/exe/rbdock.cxx#4 $)

>  <Rbt.Library>
libRbt.so (2013.1, Build901 2013/11/27)

>  <Rbt.Parameter_File>
/export/apps/rDock/src/rDock_2013.1_src/data/scripts/dock_solv.prm

>  <Rbt.Receptor>
prm/pocket_docking_4.prm

>  <SCORE>
-13.1955

>  <SCORE.INTER>
-11.0198

>  <SCORE.INTER.CONST>
1

>  <SCORE.INTER.POLAR>
0

>  <SCORE.INTER.ROT>
7

>  <SCORE.INTER.SOLV>
16.2279

>  <SCORE.INTER.VDW>
-21.0225

>  <SCORE.INTER.norm>
-0.408141

>  <SCORE.INTRA>
-2.1757

>  <SCORE.INTRA.DIHEDRAL>
-4.45699

>  <SCORE.INTRA.DIHEDRAL.0>
9.75037

>  <SCORE.INTRA.POLAR>
0

>  <SCORE.INTRA.POLAR.0>
0

>  <SCORE.INTRA.REPUL>
0

>  <SCORE.INTRA.REPUL.0>
0

>  <SCORE.INTRA.SOLV>
-1.33465

>  <SCORE.INTRA.SOLV.lig_0>
-48.4279

>  <SCORE.INTRA.VDW>
0.720128

>  <SCORE.INTRA.VDW.0>
-4.69037

>  <SCORE.INTRA.norm>
-0.0805813

>  <SCORE.RESTR>
0

>  <SCORE.RESTR.CAVITY>
0

>  <SCORE.RESTR.norm>
0

>  <SCORE.SYSTEM>
0

>  <SCORE.SYSTEM.CONST>
0

>  <SCORE.SYSTEM.DIHEDRAL>
0

>  <SCORE.SYSTEM.SOLV>
0

>  <SCORE.SYSTEM.norm>
0

>  <SCORE.heavy>
27

>  <SCORE.norm>
-0.488722

>  <RMSD>
4.632

$$$$
ligand
 OpenBabel02271912153D
libRbt.so/2013.1/901 2013/11/27
 27 29  0  0  0  0  0  0  0  0999 V2000
   14.2577   -8.8696   11.0676 N   0  0  0  0  0  0  0  0  0  0  0  0
   13.2283   -7.9513   10.4897 C   0  0  2  0  0  0  0  0  0  0  0  0
   11.9794   -8.7356   10.0296 C   0  0  0  0  0  0  0  0  0  0  0  0
   10.9861   -8.8365   10.7561 O   0  0  0  0  0  0  0  0  0  0  0  0
   13.8488   -7.1444    9.3541 C   0  0  0  0  0  0  0  0  0  0  0  0
   13.0204   -5.9537    8.9014 C   0  0  0  0  0  0  0  0  0  0  0  0
   13.8301   -4.9637    7.6125 S   0  0  2  0  0  0  0  0  0  0  0  0
   12.7643   -3.4941    7.5967 C   0  0  0  0  0  0  0  0  0  0  0  0
   13.4263   -5.7414    6.0402 C   0  0  0  0  0  0  0  0  0  0  0  0
   14.5951   -6.6021    5.5999 C   0  0  1  0  0  0  0  0  0  0  0  0
   15.8326   -5.9097    5.6565 O   0  0  0  0  0  0  0  0  0  0  0  0
   14.7343   -7.8296    6.4670 C   0  0  1  0  0  0  0  0  0  0  0  0
   13.9042   -8.8613    6.0163 O   0  0  0  0  0  0  0  0  0  0  0  0
   16.1852   -8.1539    6.2806 C   0  0  1  0  0  0  0  0  0  0  0  0
   16.3343   -8.9743    5.1374 O   0  0  0  0  0  0  0  0  0  0  0  0
   16.8481   -6.8010    6.0557 C   0  0  2  0  0  0  0  0  0  0  0  0
   11.9186   -9.2999    8.9217 O   0  0  0  0  0  0  0  0  0  0  0  0
   21.2824   -6.2876    8.8720 N   0  0  0  0  0  0  0  0  0  0  0  0
   21.1246   -6.8999    7.6372 C   0  0  0  0  0  0  0  0  0  0  0  0
   19.8773   -6.9654    7.0277 N   0  0  0  0  0  0  0  0  0  0  0  0
   18.8156   -6.4094    7.6391 C   0  0  0  0  0  0  0  0  0  0  0  0
   18.9650   -5.7764    8.8763 C   0  0  0  0  0  0  0  0  0  0  0  0
   20.1958   -5.7225    9.5041 C   0  0  0  0  0  0  0  0  0  0  0  0
   20.3302   -5.1310   10.6817 N   0  0  0  0  0  0  0  0  0  0  0  0
   17.7703   -5.3040    9.2485 N   0  0  0  0  0  0  0  0  0  0  0  0
   16.8743   -5.6157    8.2861 C   0  0  0  0  0  0  0  0  0  0  0  0
   17.5061   -6.2981    7.2764 N   0  0  0  0  0  0  0  0  0  0  0  0
  2  1  1  6  0  0  0
  2  3  1  0  0  0  0
  2  5  1  0  0  0  0
  3  4  1  0  0  0  0
  3 17  1  0  0  0  0
  5  6  1  0  0  0  0
  7  6  1  1  0  0  0
  7  8  1  0  0  0  0
  7  9  1  0  0  0  0
 10  9  1  1  0  0  0
 10 11  1  0  0  0  0
 10 12  1  0  0  0  0
 11 16  1  0  0  0  0
 12 13  1  6  0  0  0
 12 14  1  0  0  0  0
 14 15  1  6  0  0  0
 14 16  1  0  0  0  0
 16 27  1  1  0  0  0
 18 19  2  0  0  0  0
 18 23  1  0  0  0  0
 19 20  1  0  0  0  0
 20 21  2  0  0  0  0
 21 22  1  0  0  0  0
 21 27  1  0  0  0  0
 22 23  2  0  0  0  0
 22 25  1  0  0  0  0
 23 24  1  0  0  0  0
 25 26  2  0  0  0  0
 26 27  1  0  0  0  0
M  END
>  <CHROM.1>
96.48970773,-166.24360216,176.82662987,-168.23270261,-99.36993246,-49.57134926
-145.57286070,15.72835053,-6.77991383,7.99275055,-3.05656086,-0.19112895
-1.46454790

>  <Name>
ligand

>  <RI>
0

>  <Rbt.Current_Directory>
/home/itssahil/PROJECTS/Mol_Feturizer/Test_systems_manuscript/rnas/2ydh

>  <Rbt.Executable>
rbdock ($Id: //depot/dev/client3/rdock/2013.1/src/exe/rbdock.cxx#4 $)

>  <Rbt.Library>
libRbt.so (2013.1, Build901 2013/11/27)

>  <Rbt.Parameter_File>
/export/apps/rDock/src/rDock_2013.1_src/data/scripts/dock_solv.prm

>  <Rbt.Receptor>
prm/pocket_docking_8.prm

>  <SCORE>
-11.3146

>  <SCORE.INTER>
-10.3834

>  <SCORE.INTER.CONST>
1

>  <SCORE.INTER.POLAR>
0

>  <SCORE.INTER.ROT>
7

>  <SCORE.INTER.SOLV>
15.9446

>  <SCORE.INTER.VDW>
-20.5038

>  <SCORE.INTER.norm>
-0.384571

>  <SCORE.INTRA>
-0.9312

>  <SCORE.INTRA.DIHEDRAL>
-2.20392

>  <SCORE.INTRA.DIHEDRAL.0>
9.75037

>  <SCORE.INTRA.POLAR>
0

>  <SCORE.INTRA.POLAR.0>
0

>  <SCORE.INTRA.REPUL>
0

>  <SCORE.INTRA.REPUL.0>
0

>  <SCORE.INTRA.SOLV>
-1.0567

>  <SCORE.INTRA.SOLV.lig_0>
-48.4279

>  <SCORE.INTRA.VDW>
0.699106

>  <SCORE.INTRA.VDW.0>
-4.69037

>  <SCORE.INTRA.norm>
-0.0344889

>  <SCORE.RESTR>
0

>  <SCORE.RESTR.CAVITY>
0

>  <SCORE.RESTR.norm>
0

>  <SCORE.SYSTEM>
0

>  <SCORE.SYSTEM.CONST>
0

>  <SCORE.SYSTEM.DIHEDRAL>
0

>  <SCORE.SYSTEM.SOLV>
0

>  <SCORE.SYSTEM.norm>
0

>  <SCORE.heavy>
27

>  <SCORE.norm>
-0.41906

>  <RMSD>
4.637

$$$$
ligand
 OpenBabel02271912153D
libRbt.so/2013.1/901 2013/11/27
 27 29  0  0  0  0  0  0  0  0999 V2000
   12.8268   -8.0571   12.4583 N   0  0  0  0  0  0  0  0  0  0  0  0
   12.1756   -7.8031   11.1362 C   0  0  2  0  0  0  0  0  0  0  0  0
   12.4833   -8.9408   10.1373 C   0  0  0  0  0  0  0  0  0  0  0  0
   12.2646   -8.8057    8.9296 O   0  0  0  0  0  0  0  0  0  0  0  0
   12.6151   -6.4419   10.6075 C   0  0  0  0  0  0  0  0  0  0  0  0
   14.0955   -6.3411   10.2801 C   0  0  0  0  0  0  0  0  0  0  0  0
   14.6376   -4.6463    9.9186 S   0  0  2  0  0  0  0  0  0  0  0  0
   14.3625   -3.8536   11.5285 C   0  0  0  0  0  0  0  0  0  0  0  0
   13.3498   -3.9021    8.9049 C   0  0  0  0  0  0  0  0  0  0  0  0
   13.5582   -4.3140    7.4600 C   0  0  1  0  0  0  0  0  0  0  0  0
   14.8135   -3.8922    6.9496 O   0  0  0  0  0  0  0  0  0  0  0  0
   13.4957   -5.8133    7.2988 C   0  0  1  0  0  0  0  0  0  0  0  0
   12.1747   -6.2494    7.1521 O   0  0  0  0  0  0  0  0  0  0  0  0
   14.2928   -6.0041    6.0446 C   0  0  1  0  0  0  0  0  0  0  0  0
   13.4365   -5.8725    4.9258 O   0  0  0  0  0  0  0  0  0  0  0  0
   15.3131   -4.8734    6.0706 C   0  0  2  0  0  0  0  0  0  0  0  0
   12.9549  -10.0345   10.4989 O   0  0  0  0  0  0  0  0  0  0  0  0
   18.9932   -8.6569    6.0765 N   0  0  0  0  0  0  0  0  0  0  0  0
   17.7701   -8.6604    5.4218 C   0  0  0  0  0  0  0  0  0  0  0  0
   16.8988   -7.5834    5.5324 N   0  0  0  0  0  0  0  0  0  0  0  0
   17.2594   -6.5177    6.2703 C   0  0  0  0  0  0  0  0  0  0  0  0
   18.4956   -6.4961    6.9222 C   0  0  0  0  0  0  0  0  0  0  0  0
   19.3632   -7.5695    6.8384 C   0  0  0  0  0  0  0  0  0  0  0  0
   20.5290   -7.5489    7.4670 N   0  0  0  0  0  0  0  0  0  0  0  0
   18.6061   -5.3286    7.5654 N   0  0  0  0  0  0  0  0  0  0  0  0
   17.4825   -4.6131    7.3381 C   0  0  0  0  0  0  0  0  0  0  0  0
   16.6366   -5.3335    6.5319 N   0  0  0  0  0  0  0  0  0  0  0  0
  2  1  1  1  0  0  0
  2  3  1  0  0  0  0
  2  5  1  0  0  0  0
  3  4  1  0  0  0  0
  3 17  1  0  0  0  0
  5  6  1  0  0  0  0
  7  6  1  1  0  0  0
  7  8  1  0  0  0  0
  7  9  1  0  0  0  0
 10  9  1  1  0  0  0
 10 11  1  0  0  0  0
 10 12  1  0  0  0  0
 11 16  1  0  0  0  0
 12 13  1  6  0  0  0
 12 14  1  0  0  0  0
 14 15  1  6  0  0  0
 14 16  1  0  0  0  0
 16 27  1  1  0  0  0
 18 19  2  0  0  0  0
 18 23  1  0  0  0  0
 19 20  1  0  0  0  0
 20 21  2  0  0  0  0
 21 22  1  0  0  0  0
 21 27  1  0  0  0  0
 22 23  2  0  0  0  0
 22 25  1  0  0  0  0
 23 24  1  0  0  0  0
 25 26  2  0  0  0  0
 26 27  1  0  0  0  0
M  END
>  <CHROM.1>
-165.80989787,65.16825671,-170.45834643,64.86821062,-82.67916545,-60.31950403
156.37433313,15.09456477,-6.36077891,8.13092393,-2.86853087,0.57483599,-0.43958440

>  <Name>
ligand

>  <RI>
0

>  <Rbt.Current_Directory>
/home/itssahil/PROJECTS/Mol_Feturizer/Test_systems_manuscript/rnas/2ydh

>  <Rbt.Executable>
rbdock ($Id: //depot/dev/client3/rdock/2013.1/src/exe/rbdock.cxx#4 $)

>  <Rbt.Library>
libRbt.so (2013.1, Build901 2013/11/27)

>  <Rbt.Parameter_File>
/export/apps/rDock/src/rDock_2013.1_src/data/scripts/dock_solv.prm

>  <Rbt.Receptor>
prm/pocket_docking_5.prm

>  <SCORE>
-12.8485

>  <SCORE.INTER>
-12.5187

>  <SCORE.INTER.CONST>
1

>  <SCORE.INTER.POLAR>
0

>  <SCORE.INTER.ROT>
7

>  <SCORE.INTER.SOLV>
8.12568

>  <SCORE.INTER.VDW>
-19.321

>  <SCORE.INTER.norm>
-0.463654

>  <SCORE.INTRA>
-0.334956

>  <SCORE.INTRA.DIHEDRAL>
-5.21521

>  <SCORE.INTRA.DIHEDRAL.0>
9.75037

>  <SCORE.INTRA.POLAR>
0

>  <SCORE.INTRA.POLAR.0>
0

>  <SCORE.INTRA.REPUL>
0

>  <SCORE.INTRA.REPUL.0>
0

>  <SCORE.INTRA.SOLV>
-0.079929

>  <SCORE.INTRA.SOLV.lig_0>
-48.4279

>  <SCORE.INTRA.VDW>
2.31261

>  <SCORE.INTRA.VDW.0>
-4.69037

>  <SCORE.INTRA.norm>
-0.0124058

>  <SCORE.RESTR>
0.0050857

>  <SCORE.RESTR.CAVITY>
0.0050857

>  <SCORE.RESTR.norm>
0.000188359

>  <SCORE.SYSTEM>
0

>  <SCORE.SYSTEM.CONST>
0

>  <SCORE.SYSTEM.DIHEDRAL>
0

>  <SCORE.SYSTEM.SOLV>
0

>  <SCORE.SYSTEM.norm>
0

>  <SCORE.heavy>
27

>  <SCORE.norm>
-0.475871

>  <RMSD>
4.664

$$$$
ligand
 OpenBabel02271912153D
libRbt.so/2013.1/901 2013/11/27
 27 29  0  0  0  0  0  0  0  0999 V2000
   15.9799   -8.3686   14.0391 N   0  0  0  0  0  0  0  0  0  0  0  0
   15.5750   -7.4320   12.9457 C   0  0  2  0  0  0  0  0  0  0  0  0
   14.8013   -6.2199   13.5102 C   0  0  0  0  0  0  0  0  0  0  0  0
   13.7767   -6.3738   14.1820 O   0  0  0  0  0  0  0  0  0  0  0  0
   14.7656   -8.1922   11.9004 C   0  0  0  0  0  0  0  0  0  0  0  0
   14.5076   -7.4186   10.6182 C   0  0  0  0  0  0  0  0  0  0  0  0
   13.3749   -6.0170   10.8403 S   0  0  2  0  0  0  0  0  0  0  0  0
   11.8839   -6.8766   11.4178 C   0  0  0  0  0  0  0  0  0  0  0  0
   12.8901   -5.4842    9.1907 C   0  0  0  0  0  0  0  0  0  0  0  0
   13.8719   -4.4369    8.7010 C   0  0  1  0  0  0  0  0  0  0  0  0
   15.2045   -4.9224    8.6487 O   0  0  0  0  0  0  0  0  0  0  0  0
   13.5207   -3.9567    7.3139 C   0  0  1  0  0  0  0  0  0  0  0  0
   12.5698   -2.9319    7.3615 O   0  0  0  0  0  0  0  0  0  0  0  0
   14.8515   -3.4661    6.8308 C   0  0  1  0  0  0  0  0  0  0  0  0
   15.0216   -2.1186    7.2279 O   0  0  0  0  0  0  0  0  0  0  0  0
   15.8622   -4.3612    7.5363 C   0  0  2  0  0  0  0  0  0  0  0  0
   15.1664   -5.0464   13.3126 O   0  0  0  0  0  0  0  0  0  0  0  0
   14.7590   -8.3116    4.2143 N   0  0  0  0  0  0  0  0  0  0  0  0
   13.8658   -7.4805    4.8748 C   0  0  0  0  0  0  0  0  0  0  0  0
   14.3182   -6.4872    5.7350 N   0  0  0  0  0  0  0  0  0  0  0  0
   15.6418   -6.3215    5.9114 C   0  0  0  0  0  0  0  0  0  0  0  0
   16.5517   -7.1427    5.2398 C   0  0  0  0  0  0  0  0  0  0  0  0
   16.1153   -8.1487    4.3975 C   0  0  0  0  0  0  0  0  0  0  0  0
   16.9814   -8.9315    3.7716 N   0  0  0  0  0  0  0  0  0  0  0  0
   17.7873   -6.7593    5.5796 N   0  0  0  0  0  0  0  0  0  0  0  0
   17.6859   -5.7225    6.4404 C   0  0  0  0  0  0  0  0  0  0  0  0
   16.3612   -5.4334    6.6547 N   0  0  0  0  0  0  0  0  0  0  0  0
  2  1  1  1  0  0  0
  2  3  1  0  0  0  0
  2  5  1  0  0  0  0
  3  4  1  0  0  0  0
  3 17  1  0  0  0  0
  5  6  1  0  0  0  0
  7  6  1  6  0  0  0
  7  8  1  0  0  0  0
  7  9  1  0  0  0  0
 10  9  1  6  0  0  0
 10 11  1  0  0  0  0
 10 12  1  0  0  0  0
 11 16  1  0  0  0  0
 12 13  1  1  0  0  0
 12 14  1  0  0  0  0
 14 15  1  1  0  0  0
 14 16  1  0  0  0  0
 16 27  1  6  0  0  0
 18 19  2  0  0  0  0
 18 23  1  0  0  0  0
 19 20  1  0  0  0  0
 20 21  2  0  0  0  0
 21 22  1  0  0  0  0
 21 27  1  0  0  0  0
 22 23  2  0  0  0  0
 22 25  1  0  0  0  0
 23 24  1  0  0  0  0
 25 26  2  0  0  0  0
 26 27  1  0  0  0  0
M  END
>  <CHROM.1>
-56.83691564,-169.48811815,-68.84833022,-60.55575126,-89.81097889,59.33087230
67.11834840,14.83238970,-6.03438539,8.67089282,-1.99376852,1.09305304,-1.18456514

>  <Name>
ligand

>  <RI>
0

>  <Rbt.Current_Directory>
/home/itssahil/PROJECTS/Mol_Feturizer/Test_systems_manuscript/rnas/2ydh

>  <Rbt.Executable>
rbdock ($Id: //depot/dev/client3/rdock/2013.1/src/exe/rbdock.cxx#4 $)

>  <Rbt.Library>
libRbt.so (2013.1, Build901 2013/11/27)

>  <Rbt.Parameter_File>
/export/apps/rDock/src/rDock_2013.1_src/data/scripts/dock_solv.prm

>  <Rbt.Receptor>
prm/pocket_docking_6.prm

>  <SCORE>
-13.2397

>  <SCORE.INTER>
-11.3939

>  <SCORE.INTER.CONST>
1

>  <SCORE.INTER.POLAR>
0

>  <SCORE.INTER.ROT>
7

>  <SCORE.INTER.SOLV>
15.3656

>  <SCORE.INTER.VDW>
-20.9845

>  <SCORE.INTER.norm>
-0.421996

>  <SCORE.INTRA>
-1.84582

>  <SCORE.INTRA.DIHEDRAL>
-4.55822

>  <SCORE.INTRA.DIHEDRAL.0>
9.75037

>  <SCORE.INTRA.POLAR>
0

>  <SCORE.INTRA.POLAR.0>
0

>  <SCORE.INTRA.REPUL>
0

>  <SCORE.INTRA.REPUL.0>
0

>  <SCORE.INTRA.SOLV>
-1.33723

>  <SCORE.INTRA.SOLV.lig_0>
-48.4279

>  <SCORE.INTRA.VDW>
1.10191

>  <SCORE.INTRA.VDW.0>
-4.69037

>  <SCORE.INTRA.norm>
-0.0683636

>  <SCORE.RESTR>
0

>  <SCORE.RESTR.CAVITY>
0

>  <SCORE.RESTR.norm>
0

>  <SCORE.SYSTEM>
0

>  <SCORE.SYSTEM.CONST>
0

>  <SCORE.SYSTEM.DIHEDRAL>
0

>  <SCORE.SYSTEM.SOLV>
0

>  <SCORE.SYSTEM.norm>
0

>  <SCORE.heavy>
27

>  <SCORE.norm>
-0.490359

>  <RMSD>
4.682

$$$$
ligand
 OpenBabel02271912153D
libRbt.so/2013.1/901 2013/11/27
 27 29  0  0  0  0  0  0  0  0999 V2000
   13.2049   -8.2743   12.7100 N   0  0  0  0  0  0  0  0  0  0  0  0
   12.1663   -7.5266   11.9361 C   0  0  2  0  0  0  0  0  0  0  0  0
   11.5436   -8.4168   10.8377 C   0  0  0  0  0  0  0  0  0  0  0  0
   12.1520   -8.6571    9.7905 O   0  0  0  0  0  0  0  0  0  0  0  0
   12.7797   -6.2536   11.3626 C   0  0  0  0  0  0  0  0  0  0  0  0
   14.0680   -6.4693   10.5862 C   0  0  0  0  0  0  0  0  0  0  0  0
   14.8362   -4.9226   10.0252 S   0  0  2  0  0  0  0  0  0  0  0  0
   14.9337   -4.0075   11.5900 C   0  0  0  0  0  0  0  0  0  0  0  0
   13.5643   -4.0135    9.1332 C   0  0  0  0  0  0  0  0  0  0  0  0
   13.6378   -4.3753    7.6620 C   0  0  1  0  0  0  0  0  0  0  0  0
   14.8449   -3.9416    7.0546 O   0  0  0  0  0  0  0  0  0  0  0  0
   13.5493   -5.8677    7.4554 C   0  0  1  0  0  0  0  0  0  0  0  0
   12.2171   -6.2923    7.4142 O   0  0  0  0  0  0  0  0  0  0  0  0
   14.2281   -6.0180    6.1281 C   0  0  1  0  0  0  0  0  0  0  0  0
   13.2750   -5.8433    5.0969 O   0  0  0  0  0  0  0  0  0  0  0  0
   15.2553   -4.8935    6.1005 C   0  0  2  0  0  0  0  0  0  0  0  0
   10.4121   -8.9225   10.9529 O   0  0  0  0  0  0  0  0  0  0  0  0
   18.8403   -8.7528    5.7650 N   0  0  0  0  0  0  0  0  0  0  0  0
   17.5540   -8.7386    5.2454 C   0  0  0  0  0  0  0  0  0  0  0  0
   16.7208   -7.6423    5.4336 N   0  0  0  0  0  0  0  0  0  0  0  0
   17.1794   -6.5757    6.1134 C   0  0  0  0  0  0  0  0  0  0  0  0
   18.4787   -6.5721    6.6285 C   0  0  0  0  0  0  0  0  0  0  0  0
   19.3112   -7.6643    6.4673 C   0  0  0  0  0  0  0  0  0  0  0  0
   20.5380   -7.6605    6.9668 N   0  0  0  0  0  0  0  0  0  0  0  0
   18.6805   -5.3995    7.2396 N   0  0  0  0  0  0  0  0  0  0  0  0
   17.5531   -4.6635    7.1241 C   0  0  0  0  0  0  0  0  0  0  0  0
   16.6115   -5.3756    6.4236 N   0  0  0  0  0  0  0  0  0  0  0  0
  2  1  1  6  0  0  0
  2  3  1  0  0  0  0
  2  5  1  0  0  0  0
  3  4  1  0  0  0  0
  3 17  1  0  0  0  0
  5  6  1  0  0  0  0
  7  6  1  1  0  0  0
  7  8  1  0  0  0  0
  7  9  1  0  0  0  0
 10  9  1  1  0  0  0
 10 11  1  0  0  0  0
 10 12  1  0  0  0  0
 11 16  1  0  0  0  0
 12 13  1  6  0  0  0
 12 14  1  0  0  0  0
 14 15  1  6  0  0  0
 14 16  1  0  0  0  0
 16 27  1  1  0  0  0
 18 19  2  0  0  0  0
 18 23  1  0  0  0  0
 19 20  1  0  0  0  0
 20 21  2  0  0  0  0
 21 22  1  0  0  0  0
 21 27  1  0  0  0  0
 22 23  2  0  0  0  0
 22 25  1  0  0  0  0
 23 24  1  0  0  0  0
 25 26  2  0  0  0  0
 26 27  1  0  0  0  0
M  END
>  <CHROM.1>
-76.50660815,51.58326993,-175.66041246,53.25090711,-91.53693078,-65.68370259
153.35340384,14.99893452,-6.35421951,8.25179462,-2.73770558,0.57125324,-0.60761728

>  <Name>
ligand

>  <RI>
0

>  <Rbt.Current_Directory>
/home/itssahil/PROJECTS/Mol_Feturizer/Test_systems_manuscript/rnas/2ydh

>  <Rbt.Executable>
rbdock ($Id: //depot/dev/client3/rdock/2013.1/src/exe/rbdock.cxx#4 $)

>  <Rbt.Library>
libRbt.so (2013.1, Build901 2013/11/27)

>  <Rbt.Parameter_File>
/export/apps/rDock/src/rDock_2013.1_src/data/scripts/dock_solv.prm

>  <Rbt.Receptor>
prm/pocket_docking_6.prm

>  <SCORE>
-13.2034

>  <SCORE.INTER>
-13.5798

>  <SCORE.INTER.CONST>
1

>  <SCORE.INTER.POLAR>
0

>  <SCORE.INTER.ROT>
7

>  <SCORE.INTER.SOLV>
8.09606

>  <SCORE.INTER.VDW>
-20.0186

>  <SCORE.INTER.norm>
-0.502956

>  <SCORE.INTRA>
0.376399

>  <SCORE.INTRA.DIHEDRAL>
-4.68865

>  <SCORE.INTRA.DIHEDRAL.0>
9.75037

>  <SCORE.INTRA.POLAR>
0

>  <SCORE.INTRA.POLAR.0>
0

>  <SCORE.INTRA.REPUL>
0

>  <SCORE.INTRA.REPUL.0>
0

>  <SCORE.INTRA.SOLV>
-0.266002

>  <SCORE.INTRA.SOLV.lig_0>
-48.4279

>  <SCORE.INTRA.VDW>
2.85373

>  <SCORE.INTRA.VDW.0>
-4.69037

>  <SCORE.INTRA.norm>
0.0139407

>  <SCORE.RESTR>
0

>  <SCORE.RESTR.CAVITY>
0

>  <SCORE.RESTR.norm>
0

>  <SCORE.SYSTEM>
0

>  <SCORE.SYSTEM.CONST>
0

>  <SCORE.SYSTEM.DIHEDRAL>
0

>  <SCORE.SYSTEM.SOLV>
0

>  <SCORE.SYSTEM.norm>
0

>  <SCORE.heavy>
27

>  <SCORE.norm>
-0.489016

>  <RMSD>
4.710

$$$$
ligand
 OpenBabel02271912153D
libRbt.so/2013.1/901 2013/11/27
 27 29  0  0  0  0  0  0  0  0999 V2000
   13.3205   -9.3457   13.5947 N   0  0  0  0  0  0  0  0  0  0  0  0
   14.7593   -9.7395   13.7009 C   0  0  2  0  0  0  0  0  0  0  0  0
   15.4055   -9.1465   14.9727 C   0  0  0  0  0  0  0  0  0  0  0  0
   15.0110   -8.0782   15.4498 O   0  0  0  0  0  0  0  0  0  0  0  0
   15.4956   -9.3173   12.4339 C   0  0  0  0  0  0  0  0  0  0  0  0
   16.9816   -9.6350   12.4331 C   0  0  0  0  0  0  0  0  0  0  0  0
   17.7568   -9.4410   10.8026 S   0  0  2  0  0  0  0  0  0  0  0  0
   19.4962   -9.7551   11.2167 C   0  0  0  0  0  0  0  0  0  0  0  0
   17.7647   -7.6768   10.4461 C   0  0  0  0  0  0  0  0  0  0  0  0
   18.3881   -7.4509    9.0819 C   0  0  1  0  0  0  0  0  0  0  0  0
   17.4243   -7.4270    8.0404 O   0  0  0  0  0  0  0  0  0  0  0  0
   19.1335   -6.1397    9.0258 C   0  0  1  0  0  0  0  0  0  0  0  0
   20.4371   -6.2804    9.5129 O   0  0  0  0  0  0  0  0  0  0  0  0
   19.1111   -5.8556    7.5548 C   0  0  1  0  0  0  0  0  0  0  0  0
   20.2212   -6.4850    6.9435 O   0  0  0  0  0  0  0  0  0  0  0  0
   17.8099   -6.4815    7.0696 C   0  0  2  0  0  0  0  0  0  0  0  0
   16.3454   -9.7076   15.5653 O   0  0  0  0  0  0  0  0  0  0  0  0
   12.9161   -5.3729    5.4324 N   0  0  0  0  0  0  0  0  0  0  0  0
   13.5673   -6.5974    5.4002 C   0  0  0  0  0  0  0  0  0  0  0  0
   14.8727   -6.7235    5.8603 N   0  0  0  0  0  0  0  0  0  0  0  0
   15.5018   -5.6443    6.3600 C   0  0  0  0  0  0  0  0  0  0  0  0
   14.8507   -4.4085    6.4118 C   0  0  0  0  0  0  0  0  0  0  0  0
   13.5598   -4.2639    5.9379 C   0  0  0  0  0  0  0  0  0  0  0  0
   12.9508   -3.0883    5.9791 N   0  0  0  0  0  0  0  0  0  0  0  0
   15.6874   -3.5204    6.9597 N   0  0  0  0  0  0  0  0  0  0  0  0
   16.8422   -4.1558    7.2573 C   0  0  0  0  0  0  0  0  0  0  0  0
   16.7439   -5.4766    6.8964 N   0  0  0  0  0  0  0  0  0  0  0  0
  2  1  1  6  0  0  0
  2  3  1  0  0  0  0
  2  5  1  0  0  0  0
  3  4  1  0  0  0  0
  3 17  1  0  0  0  0
  5  6  1  0  0  0  0
  7  6  1  1  0  0  0
  7  8  1  0  0  0  0
  7  9  1  0  0  0  0
 10  9  1  1  0  0  0
 10 11  1  0  0  0  0
 10 12  1  0  0  0  0
 11 16  1  0  0  0  0
 12 13  1  6  0  0  0
 12 14  1  0  0  0  0
 14 15  1  6  0  0  0
 14 16  1  0  0  0  0
 16 27  1  1  0  0  0
 18 19  2  0  0  0  0
 18 23  1  0  0  0  0
 19 20  1  0  0  0  0
 20 21  2  0  0  0  0
 21 22  1  0  0  0  0
 21 27  1  0  0  0  0
 22 23  2  0  0  0  0
 22 25  1  0  0  0  0
 23 24  1  0  0  0  0
 25 26  2  0  0  0  0
 26 27  1  0  0  0  0
M  END
>  <CHROM.1>
-29.74471645,178.64904890,168.06722082,175.40795953,-179.31035216,92.22385252
-68.34999607,16.51905843,-7.10967881,9.44217706,1.48076998,-0.15105242,2.08619296

>  <Name>
ligand

>  <RI>
0

>  <Rbt.Current_Directory>
/home/itssahil/PROJECTS/Mol_Feturizer/Test_systems_manuscript/rnas/2ydh

>  <Rbt.Executable>
rbdock ($Id: //depot/dev/client3/rdock/2013.1/src/exe/rbdock.cxx#4 $)

>  <Rbt.Library>
libRbt.so (2013.1, Build901 2013/11/27)

>  <Rbt.Parameter_File>
/export/apps/rDock/src/rDock_2013.1_src/data/scripts/dock_solv.prm

>  <Rbt.Receptor>
prm/pocket_docking_8.prm

>  <SCORE>
-11.5182

>  <SCORE.INTER>
-11.8356

>  <SCORE.INTER.CONST>
1

>  <SCORE.INTER.POLAR>
0

>  <SCORE.INTER.ROT>
7

>  <SCORE.INTER.SOLV>
17.1248

>  <SCORE.INTER.VDW>
-21.8653

>  <SCORE.INTER.norm>
-0.438355

>  <SCORE.INTRA>
0.31741

>  <SCORE.INTRA.DIHEDRAL>
-3.05669

>  <SCORE.INTRA.DIHEDRAL.0>
9.75037

>  <SCORE.INTRA.POLAR>
0

>  <SCORE.INTRA.POLAR.0>
0

>  <SCORE.INTRA.REPUL>
0

>  <SCORE.INTRA.REPUL.0>
0

>  <SCORE.INTRA.SOLV>
-1.51014

>  <SCORE.INTRA.SOLV.lig_0>
-48.4279

>  <SCORE.INTRA.VDW>
2.60083

>  <SCORE.INTRA.VDW.0>
-4.69037

>  <SCORE.INTRA.norm>
0.0117559

>  <SCORE.RESTR>
0

>  <SCORE.RESTR.CAVITY>
0

>  <SCORE.RESTR.norm>
0

>  <SCORE.SYSTEM>
0

>  <SCORE.SYSTEM.CONST>
0

>  <SCORE.SYSTEM.DIHEDRAL>
0

>  <SCORE.SYSTEM.SOLV>
0

>  <SCORE.SYSTEM.norm>
0

>  <SCORE.heavy>
27

>  <SCORE.norm>
-0.426599

>  <RMSD>
4.737

$$$$
ligand
 OpenBabel02271912153D
libRbt.so/2013.1/901 2013/11/27
 27 29  0  0  0  0  0  0  0  0999 V2000
   12.6535   -7.9498   10.0550 N   0  0  0  0  0  0  0  0  0  0  0  0
   13.2457   -6.5780    9.9924 C   0  0  2  0  0  0  0  0  0  0  0  0
   12.8110   -5.7290   11.2078 C   0  0  0  0  0  0  0  0  0  0  0  0
   13.4219   -4.7023   11.5198 O   0  0  0  0  0  0  0  0  0  0  0  0
   12.8658   -5.9214    8.6695 C   0  0  0  0  0  0  0  0  0  0  0  0
   13.2978   -4.4703    8.5393 C   0  0  0  0  0  0  0  0  0  0  0  0
   15.1008   -4.2566    8.5184 S   0  0  2  0  0  0  0  0  0  0  0  0
   15.2303   -2.4612    8.7543 C   0  0  0  0  0  0  0  0  0  0  0  0
   15.6197   -4.4521    6.8060 C   0  0  0  0  0  0  0  0  0  0  0  0
   15.9991   -5.9011    6.5668 C   0  0  1  0  0  0  0  0  0  0  0  0
   16.8097   -6.4299    7.6049 O   0  0  0  0  0  0  0  0  0  0  0  0
   14.7778   -6.7822    6.4661 C   0  0  1  0  0  0  0  0  0  0  0  0
   14.2630   -6.7825    5.1655 O   0  0  0  0  0  0  0  0  0  0  0  0
   15.3490   -8.1147    6.8445 C   0  0  1  0  0  0  0  0  0  0  0  0
   15.8676   -8.7429    5.6876 O   0  0  0  0  0  0  0  0  0  0  0  0
   16.4717   -7.7809    7.8184 C   0  0  2  0  0  0  0  0  0  0  0  0
   11.8408   -6.0389   11.9233 O   0  0  0  0  0  0  0  0  0  0  0  0
   16.0356   -5.7904   12.6873 N   0  0  0  0  0  0  0  0  0  0  0  0
   16.5273   -5.1626   11.5522 C   0  0  0  0  0  0  0  0  0  0  0  0
   16.5899   -5.8333   10.3365 N   0  0  0  0  0  0  0  0  0  0  0  0
   16.1490   -7.1022   10.2612 C   0  0  0  0  0  0  0  0  0  0  0  0
   15.6373   -7.7403   11.3946 C   0  0  0  0  0  0  0  0  0  0  0  0
   15.5888   -7.0924   12.6151 C   0  0  0  0  0  0  0  0  0  0  0  0
   15.1131   -7.7050   13.6889 N   0  0  0  0  0  0  0  0  0  0  0  0
   15.2617   -8.9749   11.0427 N   0  0  0  0  0  0  0  0  0  0  0  0
   15.5169   -9.1346    9.7253 C   0  0  0  0  0  0  0  0  0  0  0  0
   16.0637   -7.9805    9.2219 N   0  0  0  0  0  0  0  0  0  0  0  0
  2  1  1  1  0  0  0
  2  3  1  0  0  0  0
  2  5  1  0  0  0  0
  3  4  1  0  0  0  0
  3 17  1  0  0  0  0
  5  6  1  0  0  0  0
  7  6  1  6  0  0  0
  7  8  1  0  0  0  0
  7  9  1  0  0  0  0
 10  9  1  1  0  0  0
 10 11  1  0  0  0  0
 10 12  1  0  0  0  0
 11 16  1  0  0  0  0
 12 13  1  6  0  0  0
 12 14  1  0  0  0  0
 14 15  1  6  0  0  0
 14 16  1  0  0  0  0
 16 27  1  1  0  0  0
 18 19  2  0  0  0  0
 18 23  1  0  0  0  0
 19 20  1  0  0  0  0
 20 21  2  0  0  0  0
 21 22  1  0  0  0  0
 21 27  1  0  0  0  0
 22 23  2  0  0  0  0
 22 25  1  0  0  0  0
 23 24  1  0  0  0  0
 25 26  2  0  0  0  0
 26 27  1  0  0  0  0
M  END
>  <CHROM.1>
162.56624859,174.47086652,65.18197258,-167.20388830,-92.84720118,-45.16154965
-8.83420986,14.94530756,-6.36846505,9.33295004,-2.03002009,1.20300385,-1.13886598

>  <Name>
ligand

>  <RI>
0

>  <Rbt.Current_Directory>
/home/itssahil/PROJECTS/Mol_Feturizer/Test_systems_manuscript/rnas/2ydh

>  <Rbt.Executable>
rbdock ($Id: //depot/dev/client3/rdock/2013.1/src/exe/rbdock.cxx#4 $)

>  <Rbt.Library>
libRbt.so (2013.1, Build901 2013/11/27)

>  <Rbt.Parameter_File>
/export/apps/rDock/src/rDock_2013.1_src/data/scripts/dock_solv.prm

>  <Rbt.Receptor>
prm/pocket_docking_3.prm

>  <SCORE>
-8.49943

>  <SCORE.INTER>
-5.88203

>  <SCORE.INTER.CONST>
1

>  <SCORE.INTER.POLAR>
0

>  <SCORE.INTER.ROT>
7

>  <SCORE.INTER.SOLV>
7.67914

>  <SCORE.INTER.VDW>
-14.7477

>  <SCORE.INTER.norm>
-0.217853

>  <SCORE.INTRA>
-2.63814

>  <SCORE.INTRA.DIHEDRAL>
-2.96031

>  <SCORE.INTRA.DIHEDRAL.0>
9.75037

>  <SCORE.INTRA.POLAR>
0

>  <SCORE.INTRA.POLAR.0>
0

>  <SCORE.INTRA.REPUL>
0

>  <SCORE.INTRA.REPUL.0>
0

>  <SCORE.INTRA.SOLV>
2.3797

>  <SCORE.INTRA.SOLV.lig_0>
-48.4279

>  <SCORE.INTRA.VDW>
-2.34784

>  <SCORE.INTRA.VDW.0>
-4.69037

>  <SCORE.INTRA.norm>
-0.0977089

>  <SCORE.RESTR>
0.0207438

>  <SCORE.RESTR.CAVITY>
0.0207438

>  <SCORE.RESTR.norm>
0.000768291

>  <SCORE.SYSTEM>
0

>  <SCORE.SYSTEM.CONST>
0

>  <SCORE.SYSTEM.DIHEDRAL>
0

>  <SCORE.SYSTEM.SOLV>
0

>  <SCORE.SYSTEM.norm>
0

>  <SCORE.heavy>
27

>  <SCORE.norm>
-0.314794

>  <RMSD>
4.738

$$$$
ligand
 OpenBabel02271912153D
libRbt.so/2013.1/901 2013/11/27
 27 29  0  0  0  0  0  0  0  0999 V2000
   11.8772   -8.0143   13.8018 N   0  0  0  0  0  0  0  0  0  0  0  0
   13.3052   -7.5701   13.7872 C   0  0  2  0  0  0  0  0  0  0  0  0
   13.7217   -6.9926   15.1582 C   0  0  0  0  0  0  0  0  0  0  0  0
   14.9011   -6.7227   15.4049 O   0  0  0  0  0  0  0  0  0  0  0  0
   13.5132   -6.5682   12.6564 C   0  0  0  0  0  0  0  0  0  0  0  0
   14.9555   -6.1336   12.4569 C   0  0  0  0  0  0  0  0  0  0  0  0
   15.2310   -5.2543   10.8923 S   0  0  2  0  0  0  0  0  0  0  0  0
   14.1077   -3.8429   11.0964 C   0  0  0  0  0  0  0  0  0  0  0  0
   14.4050   -6.2142    9.6133 C   0  0  0  0  0  0  0  0  0  0  0  0
   14.4442   -5.4387    8.3103 C   0  0  1  0  0  0  0  0  0  0  0  0
   15.7645   -5.2654    7.8196 O   0  0  0  0  0  0  0  0  0  0  0  0
   13.6576   -6.1373    7.2281 C   0  0  1  0  0  0  0  0  0  0  0  0
   12.3009   -5.8038    7.2966 O   0  0  0  0  0  0  0  0  0  0  0  0
   14.3093   -5.5891    5.9954 C   0  0  1  0  0  0  0  0  0  0  0  0
   13.6773   -4.3748    5.6370 O   0  0  0  0  0  0  0  0  0  0  0  0
   15.7523   -5.3358    6.4125 C   0  0  2  0  0  0  0  0  0  0  0  0
   12.8998   -6.7804   16.0685 O   0  0  0  0  0  0  0  0  0  0  0  0
   20.5195   -7.5884    6.6550 N   0  0  0  0  0  0  0  0  0  0  0  0
   20.0692   -6.4727    7.3458 C   0  0  0  0  0  0  0  0  0  0  0  0
   18.7790   -5.9910    7.1595 N   0  0  0  0  0  0  0  0  0  0  0  0
   17.9537   -6.6302    6.3107 C   0  0  0  0  0  0  0  0  0  0  0  0
   18.3909   -7.7642    5.6205 C   0  0  0  0  0  0  0  0  0  0  0  0
   19.6786   -8.2420    5.7800 C   0  0  0  0  0  0  0  0  0  0  0  0
   20.0919   -9.3107    5.1154 N   0  0  0  0  0  0  0  0  0  0  0  0
   17.3801   -8.2060    4.8641 N   0  0  0  0  0  0  0  0  0  0  0  0
   16.3203   -7.3901    5.0569 C   0  0  0  0  0  0  0  0  0  0  0  0
   16.6561   -6.4084    5.9557 N   0  0  0  0  0  0  0  0  0  0  0  0
  2  1  1  1  0  0  0
  2  3  1  0  0  0  0
  2  5  1  0  0  0  0
  3  4  1  0  0  0  0
  3 17  1  0  0  0  0
  5  6  1  0  0  0  0
  7  6  1  1  0  0  0
  7  8  1  0  0  0  0
  7  9  1  0  0  0  0
 10  9  1  1  0  0  0
 10 11  1  0  0  0  0
 10 12  1  0  0  0  0
 11 16  1  0  0  0  0
 12 13  1  6  0  0  0
 12 14  1  0  0  0  0
 14 15  1  1  0  0  0
 14 16  1  0  0  0  0
 16 27  1  1  0  0  0
 18 19  2  0  0  0  0
 18 23  1  0  0  0  0
 19 20  1  0  0  0  0
 20 21  2  0  0  0  0
 21 22  1  0  0  0  0
 21 27  1  0  0  0  0
 22 23  2  0  0  0  0
 22 25  1  0  0  0  0
 23 24  1  0  0  0  0
 25 26  2  0  0  0  0
 26 27  1  0  0  0  0
M  END
>  <CHROM.1>
171.01966266,-174.79289442,166.81434247,59.85123280,172.70043079,64.82851255
-50.24845250,15.61232080,-6.41984535,9.05760075,2.11686446,-0.39574714,1.73187621

>  <Name>
ligand

>  <RI>
0

>  <Rbt.Current_Directory>
/home/itssahil/PROJECTS/Mol_Feturizer/Test_systems_manuscript/rnas/2ydh

>  <Rbt.Executable>
rbdock ($Id: //depot/dev/client3/rdock/2013.1/src/exe/rbdock.cxx#4 $)

>  <Rbt.Library>
libRbt.so (2013.1, Build901 2013/11/27)

>  <Rbt.Parameter_File>
/export/apps/rDock/src/rDock_2013.1_src/data/scripts/dock_solv.prm

>  <Rbt.Receptor>
prm/pocket_docking_8.prm

>  <SCORE>
-9.16196

>  <SCORE.INTER>
-9.14753

>  <SCORE.INTER.CONST>
1

>  <SCORE.INTER.POLAR>
0

>  <SCORE.INTER.ROT>
7

>  <SCORE.INTER.SOLV>
9.41702

>  <SCORE.INTER.VDW>
-17.504

>  <SCORE.INTER.norm>
-0.338797

>  <SCORE.INTRA>
-0.0144294

>  <SCORE.INTRA.DIHEDRAL>
-5.78817

>  <SCORE.INTRA.DIHEDRAL.0>
9.75037

>  <SCORE.INTRA.POLAR>
0

>  <SCORE.INTRA.POLAR.0>
0

>  <SCORE.INTRA.REPUL>
0

>  <SCORE.INTRA.REPUL.0>
0

>  <SCORE.INTRA.SOLV>
-1.5333

>  <SCORE.INTRA.SOLV.lig_0>
-48.4279

>  <SCORE.INTRA.VDW>
3.6463

>  <SCORE.INTRA.VDW.0>
-4.69037

>  <SCORE.INTRA.norm>
-0.000534422

>  <SCORE.RESTR>
0

>  <SCORE.RESTR.CAVITY>
0

>  <SCORE.RESTR.norm>
0

>  <SCORE.SYSTEM>
0

>  <SCORE.SYSTEM.CONST>
0

>  <SCORE.SYSTEM.DIHEDRAL>
0

>  <SCORE.SYSTEM.SOLV>
0

>  <SCORE.SYSTEM.norm>
0

>  <SCORE.heavy>
27

>  <SCORE.norm>
-0.339332

>  <RMSD>
4.738

$$$$
ligand
 OpenBabel02271912153D
libRbt.so/2013.1/901 2013/11/27
 27 29  0  0  0  0  0  0  0  0999 V2000
   11.9389   -7.9013   13.4810 N   0  0  0  0  0  0  0  0  0  0  0  0
   13.3729   -7.4856   13.3956 C   0  0  2  0  0  0  0  0  0  0  0  0
   13.8676   -6.9152   14.7434 C   0  0  0  0  0  0  0  0  0  0  0  0
   13.1098   -6.8239   15.7140 O   0  0  0  0  0  0  0  0  0  0  0  0
   13.5449   -6.4892   12.2540 C   0  0  0  0  0  0  0  0  0  0  0  0
   14.9660   -5.9847   12.0667 C   0  0  0  0  0  0  0  0  0  0  0  0
   15.2403   -5.1910   10.4568 S   0  0  2  0  0  0  0  0  0  0  0  0
   16.9295   -4.5625   10.6740 C   0  0  0  0  0  0  0  0  0  0  0  0
   14.2688   -3.6757   10.4609 C   0  0  0  0  0  0  0  0  0  0  0  0
   14.3610   -3.0256    9.0936 C   0  0  1  0  0  0  0  0  0  0  0  0
   15.7003   -2.8937    8.6430 O   0  0  0  0  0  0  0  0  0  0  0  0
   13.6195   -3.8258    8.0507 C   0  0  1  0  0  0  0  0  0  0  0  0
   12.2610   -3.4929    8.0323 O   0  0  0  0  0  0  0  0  0  0  0  0
   14.3209   -3.3929    6.7995 C   0  0  1  0  0  0  0  0  0  0  0  0
   13.7037   -2.2202    6.3033 O   0  0  0  0  0  0  0  0  0  0  0  0
   15.7456   -3.0958    7.2494 C   0  0  2  0  0  0  0  0  0  0  0  0
   15.0363   -6.5209   14.9105 O   0  0  0  0  0  0  0  0  0  0  0  0
   16.4235   -7.9339    5.2514 N   0  0  0  0  0  0  0  0  0  0  0  0
   15.2441   -7.2093    5.3449 C   0  0  0  0  0  0  0  0  0  0  0  0
   15.2288   -5.9421    5.9153 N   0  0  0  0  0  0  0  0  0  0  0  0
   16.3793   -5.4081    6.3642 C   0  0  0  0  0  0  0  0  0  0  0  0
   17.5764   -6.1222    6.2616 C   0  0  0  0  0  0  0  0  0  0  0  0
   17.6028   -7.3924    5.7158 C   0  0  0  0  0  0  0  0  0  0  0  0
   18.7380   -8.0696    5.6308 N   0  0  0  0  0  0  0  0  0  0  0  0
   18.5571   -5.3641    6.7641 N   0  0  0  0  0  0  0  0  0  0  0  0
   18.0183   -4.1956    7.1770 C   0  0  0  0  0  0  0  0  0  0  0  0
   16.6676   -4.2027    6.9324 N   0  0  0  0  0  0  0  0  0  0  0  0
  2  1  1  1  0  0  0
  2  3  1  0  0  0  0
  2  5  1  0  0  0  0
  3  4  1  0  0  0  0
  3 17  1  0  0  0  0
  5  6  1  0  0  0  0
  7  6  1  1  0  0  0
  7  8  1  0  0  0  0
  7  9  1  0  0  0  0
 10  9  1  1  0  0  0
 10 11  1  0  0  0  0
 10 12  1  0  0  0  0
 11 16  1  0  0  0  0
 12 13  1  6  0  0  0
 12 14  1  0  0  0  0
 14 15  1  1  0  0  0
 14 16  1  0  0  0  0
 16 27  1  1  0  0  0
 18 19  2  0  0  0  0
 18 23  1  0  0  0  0
 19 20  1  0  0  0  0
 20 21  2  0  0  0  0
 21 22  1  0  0  0  0
 21 27  1  0  0  0  0
 22 23  2  0  0  0  0
 22 25  1  0  0  0  0
 23 24  1  0  0  0  0
 25 26  2  0  0  0  0
 26 27  1  0  0  0  0
M  END
>  <CHROM.1>
-1.19516311,179.79080996,163.73952082,173.65432336,-175.13217025,-50.38120997
115.81487106,15.22056395,-5.33659922,9.18467018,-2.13555638,0.88169495,-0.96495189

>  <Name>
ligand

>  <RI>
0

>  <Rbt.Current_Directory>
/home/itssahil/PROJECTS/Mol_Feturizer/Test_systems_manuscript/rnas/2ydh

>  <Rbt.Executable>
rbdock ($Id: //depot/dev/client3/rdock/2013.1/src/exe/rbdock.cxx#4 $)

>  <Rbt.Library>
libRbt.so (2013.1, Build901 2013/11/27)

>  <Rbt.Parameter_File>
/export/apps/rDock/src/rDock_2013.1_src/data/scripts/dock_solv.prm

>  <Rbt.Receptor>
prm/pocket_docking_5.prm

>  <SCORE>
-14.4479

>  <SCORE.INTER>
-13.8346

>  <SCORE.INTER.CONST>
1

>  <SCORE.INTER.POLAR>
0

>  <SCORE.INTER.ROT>
7

>  <SCORE.INTER.SOLV>
12.668

>  <SCORE.INTER.VDW>
-21.7124

>  <SCORE.INTER.norm>
-0.512394

>  <SCORE.INTRA>
-0.613303

>  <SCORE.INTRA.DIHEDRAL>
-5.0296

>  <SCORE.INTRA.DIHEDRAL.0>
9.75037

>  <SCORE.INTRA.POLAR>
0

>  <SCORE.INTRA.POLAR.0>
0

>  <SCORE.INTRA.REPUL>
0

>  <SCORE.INTRA.REPUL.0>
0

>  <SCORE.INTRA.SOLV>
-1.274

>  <SCORE.INTRA.SOLV.lig_0>
-48.4279

>  <SCORE.INTRA.VDW>
2.5385

>  <SCORE.INTRA.VDW.0>
-4.69037

>  <SCORE.INTRA.norm>
-0.0227149

>  <SCORE.RESTR>
0

>  <SCORE.RESTR.CAVITY>
0

>  <SCORE.RESTR.norm>
0

>  <SCORE.SYSTEM>
0

>  <SCORE.SYSTEM.CONST>
0

>  <SCORE.SYSTEM.DIHEDRAL>
0

>  <SCORE.SYSTEM.SOLV>
0

>  <SCORE.SYSTEM.norm>
0

>  <SCORE.heavy>
27

>  <SCORE.norm>
-0.535109

>  <RMSD>
4.748

$$$$
ligand
 OpenBabel02271912153D
libRbt.so/2013.1/901 2013/11/27
 27 29  0  0  0  0  0  0  0  0999 V2000
   14.5409   -8.9813    9.6451 N   0  0  0  0  0  0  0  0  0  0  0  0
   14.2301   -7.8127    8.7650 C   0  0  2  0  0  0  0  0  0  0  0  0
   15.5143   -7.0366    8.3975 C   0  0  0  0  0  0  0  0  0  0  0  0
   15.5771   -6.3586    7.3674 O   0  0  0  0  0  0  0  0  0  0  0  0
   13.1986   -6.9223    9.4496 C   0  0  0  0  0  0  0  0  0  0  0  0
   13.5866   -6.4677   10.8467 C   0  0  0  0  0  0  0  0  0  0  0  0
   14.8457   -5.1594   10.8526 S   0  0  2  0  0  0  0  0  0  0  0  0
   15.3216   -5.1572   12.6045 C   0  0  0  0  0  0  0  0  0  0  0  0
   13.9628   -3.5985   10.6977 C   0  0  0  0  0  0  0  0  0  0  0  0
   14.3140   -2.9618    9.3666 C   0  0  1  0  0  0  0  0  0  0  0  0
   15.6994   -2.6772    9.2481 O   0  0  0  0  0  0  0  0  0  0  0  0
   13.9459   -3.8598    8.2108 C   0  0  1  0  0  0  0  0  0  0  0  0
   12.6049   -3.6920    7.8500 O   0  0  0  0  0  0  0  0  0  0  0  0
   14.8796   -3.3642    7.1490 C   0  0  1  0  0  0  0  0  0  0  0  0
   14.2753   -2.2810    6.4681 O   0  0  0  0  0  0  0  0  0  0  0  0
   16.1076   -2.8925    7.9170 C   0  0  2  0  0  0  0  0  0  0  0  0
   16.5344   -7.0621    9.1103 O   0  0  0  0  0  0  0  0  0  0  0  0
   19.6337   -5.7793   10.5800 N   0  0  0  0  0  0  0  0  0  0  0  0
   18.7040   -4.8862   11.0925 C   0  0  0  0  0  0  0  0  0  0  0  0
   17.8476   -4.1866   10.2506 N   0  0  0  0  0  0  0  0  0  0  0  0
   17.9127   -4.3962    8.9232 C   0  0  0  0  0  0  0  0  0  0  0  0
   18.8348   -5.3048    8.3963 C   0  0  0  0  0  0  0  0  0  0  0  0
   19.7073   -5.9918    9.2202 C   0  0  0  0  0  0  0  0  0  0  0  0
   20.5869   -6.8438    8.7152 N   0  0  0  0  0  0  0  0  0  0  0  0
   18.6799   -5.3314    7.0680 N   0  0  0  0  0  0  0  0  0  0  0  0
   17.6894   -4.4723    6.7411 C   0  0  0  0  0  0  0  0  0  0  0  0
   17.1976   -3.8858    7.8806 N   0  0  0  0  0  0  0  0  0  0  0  0
  2  1  1  1  0  0  0
  2  3  1  0  0  0  0
  2  5  1  0  0  0  0
  3  4  1  0  0  0  0
  3 17  1  0  0  0  0
  5  6  1  0  0  0  0
  7  6  1  1  0  0  0
  7  8  1  0  0  0  0
  7  9  1  0  0  0  0
 10  9  1  1  0  0  0
 10 11  1  0  0  0  0
 10 12  1  0  0  0  0
 11 16  1  0  0  0  0
 12 13  1  6  0  0  0
 12 14  1  0  0  0  0
 14 15  1  1  0  0  0
 14 16  1  0  0  0  0
 16 27  1  1  0  0  0
 18 19  2  0  0  0  0
 18 23  1  0  0  0  0
 19 20  1  0  0  0  0
 20 21  2  0  0  0  0
 21 22  1  0  0  0  0
 21 27  1  0  0  0  0
 22 23  2  0  0  0  0
 22 25  1  0  0  0  0
 23 24  1  0  0  0  0
 25 26  2  0  0  0  0
 26 27  1  0  0  0  0
M  END
>  <CHROM.1>
154.90573526,54.50746105,75.37733817,-167.50507098,-113.91877273,-61.04321839
-10.62205998,16.01177086,-5.07744686,9.07875385,2.95720496,0.12278819,-0.61199167

>  <Name>
ligand

>  <RI>
0

>  <Rbt.Current_Directory>
/home/itssahil/PROJECTS/Mol_Feturizer/Test_systems_manuscript/rnas/2ydh

>  <Rbt.Executable>
rbdock ($Id: //depot/dev/client3/rdock/2013.1/src/exe/rbdock.cxx#4 $)

>  <Rbt.Library>
libRbt.so (2013.1, Build901 2013/11/27)

>  <Rbt.Parameter_File>
/export/apps/rDock/src/rDock_2013.1_src/data/scripts/dock_solv.prm

>  <Rbt.Receptor>
prm/pocket_docking_7.prm

>  <SCORE>
-15.0923

>  <SCORE.INTER>
-11.8685

>  <SCORE.INTER.CONST>
1

>  <SCORE.INTER.POLAR>
0

>  <SCORE.INTER.ROT>
7

>  <SCORE.INTER.SOLV>
10.5514

>  <SCORE.INTER.VDW>
-19.6961

>  <SCORE.INTER.norm>
-0.439573

>  <SCORE.INTRA>
-3.22382

>  <SCORE.INTRA.DIHEDRAL>
-0.781202

>  <SCORE.INTRA.DIHEDRAL.0>
9.75037

>  <SCORE.INTRA.POLAR>
0

>  <SCORE.INTRA.POLAR.0>
0

>  <SCORE.INTRA.REPUL>
0

>  <SCORE.INTRA.REPUL.0>
0

>  <SCORE.INTRA.SOLV>
0.307434

>  <SCORE.INTRA.SOLV.lig_0>
-48.4279

>  <SCORE.INTRA.VDW>
-2.98694

>  <SCORE.INTRA.VDW.0>
-4.69037

>  <SCORE.INTRA.norm>
-0.119401

>  <SCORE.RESTR>
0

>  <SCORE.RESTR.CAVITY>
0

>  <SCORE.RESTR.norm>
0

>  <SCORE.SYSTEM>
0

>  <SCORE.SYSTEM.CONST>
0

>  <SCORE.SYSTEM.DIHEDRAL>
0

>  <SCORE.SYSTEM.SOLV>
0

>  <SCORE.SYSTEM.norm>
0

>  <SCORE.heavy>
27

>  <SCORE.norm>
-0.558974

>  <RMSD>
4.762

$$$$
ligand
 OpenBabel02271912153D
libRbt.so/2013.1/901 2013/11/27
 27 29  0  0  0  0  0  0  0  0999 V2000
   10.7076   -7.8940   11.8826 N   0  0  0  0  0  0  0  0  0  0  0  0
   12.1833   -7.7567   12.0828 C   0  0  2  0  0  0  0  0  0  0  0  0
   12.5677   -7.9901   13.5608 C   0  0  0  0  0  0  0  0  0  0  0  0
   12.9537   -7.0590   14.2742 O   0  0  0  0  0  0  0  0  0  0  0  0
   12.6381   -6.3902   11.5813 C   0  0  0  0  0  0  0  0  0  0  0  0
   14.1296   -6.1335   11.7177 C   0  0  0  0  0  0  0  0  0  0  0  0
   14.8162   -5.1471   10.3565 S   0  0  2  0  0  0  0  0  0  0  0  0
   16.3941   -4.6209   11.0839 C   0  0  0  0  0  0  0  0  0  0  0  0
   13.8842   -3.6077   10.3190 C   0  0  0  0  0  0  0  0  0  0  0  0
   14.1132   -2.9236    8.9848 C   0  0  1  0  0  0  0  0  0  0  0  0
   15.4911   -2.7797    8.6765 O   0  0  0  0  0  0  0  0  0  0  0  0
   13.4844   -3.6978    7.8521 C   0  0  1  0  0  0  0  0  0  0  0  0
   12.1339   -3.3653    7.7036 O   0  0  0  0  0  0  0  0  0  0  0  0
   14.3084   -3.2333    6.6901 C   0  0  1  0  0  0  0  0  0  0  0  0
   13.7414   -2.0489    6.1629 O   0  0  0  0  0  0  0  0  0  0  0  0
   15.6788   -2.9468    7.2902 C   0  0  2  0  0  0  0  0  0  0  0  0
   12.5124   -9.1137   14.0935 O   0  0  0  0  0  0  0  0  0  0  0  0
   16.5374   -7.7920    5.3808 N   0  0  0  0  0  0  0  0  0  0  0  0
   15.3462   -7.0810    5.3936 C   0  0  0  0  0  0  0  0  0  0  0  0
   15.2802   -5.8096    5.9509 N   0  0  0  0  0  0  0  0  0  0  0  0
   16.3938   -5.2582    6.4667 C   0  0  0  0  0  0  0  0  0  0  0  0
   17.6032   -5.9585    6.4458 C   0  0  0  0  0  0  0  0  0  0  0  0
   17.6788   -7.2326    5.9138 C   0  0  0  0  0  0  0  0  0  0  0  0
   18.8249   -7.8967    5.9063 N   0  0  0  0  0  0  0  0  0  0  0  0
   18.5415   -5.1847    7.0026 N   0  0  0  0  0  0  0  0  0  0  0  0
   17.9642   -4.0196    7.3706 C   0  0  0  0  0  0  0  0  0  0  0  0
   16.6318   -4.0450    7.0415 N   0  0  0  0  0  0  0  0  0  0  0  0
  2  1  1  1  0  0  0
  2  3  1  0  0  0  0
  2  5  1  0  0  0  0
  3  4  1  0  0  0  0
  3 17  1  0  0  0  0
  5  6  1  0  0  0  0
  7  6  1  1  0  0  0
  7  8  1  0  0  0  0
  7  9  1  0  0  0  0
 10  9  1  1  0  0  0
 10 11  1  0  0  0  0
 10 12  1  0  0  0  0
 11 16  1  0  0  0  0
 12 13  1  6  0  0  0
 12 14  1  0  0  0  0
 14 15  1  1  0  0  0
 14 16  1  0  0  0  0
 16 27  1  1  0  0  0
 18 19  2  0  0  0  0
 18 23  1  0  0  0  0
 19 20  1  0  0  0  0
 20 21  2  0  0  0  0
 21 22  1  0  0  0  0
 21 27  1  0  0  0  0
 22 23  2  0  0  0  0
 22 25  1  0  0  0  0
 23 24  1  0  0  0  0
 25 26  2  0  0  0  0
 26 27  1  0  0  0  0
M  END
>  <CHROM.1>
-109.69177766,-179.40208445,144.68930110,163.34313658,-163.45537221,-52.09218151
112.81814124,14.83960134,-5.40539902,8.94064977,-2.38116941,0.80552314,-0.59600305

>  <Name>
ligand

>  <RI>
0

>  <Rbt.Current_Directory>
/home/itssahil/PROJECTS/Mol_Feturizer/Test_systems_manuscript/rnas/2ydh

>  <Rbt.Executable>
rbdock ($Id: //depot/dev/client3/rdock/2013.1/src/exe/rbdock.cxx#4 $)

>  <Rbt.Library>
libRbt.so (2013.1, Build901 2013/11/27)

>  <Rbt.Parameter_File>
/export/apps/rDock/src/rDock_2013.1_src/data/scripts/dock_solv.prm

>  <Rbt.Receptor>
prm/pocket_docking_4.prm

>  <SCORE>
-10.4436

>  <SCORE.INTER>
-11.6699

>  <SCORE.INTER.CONST>
1

>  <SCORE.INTER.POLAR>
0

>  <SCORE.INTER.ROT>
7

>  <SCORE.INTER.SOLV>
15.2314

>  <SCORE.INTER.VDW>
-21.1238

>  <SCORE.INTER.norm>
-0.432219

>  <SCORE.INTRA>
1.22432

>  <SCORE.INTRA.DIHEDRAL>
-1.18015

>  <SCORE.INTRA.DIHEDRAL.0>
9.75037

>  <SCORE.INTRA.POLAR>
0

>  <SCORE.INTRA.POLAR.0>
0

>  <SCORE.INTRA.REPUL>
0

>  <SCORE.INTRA.REPUL.0>
0

>  <SCORE.INTRA.SOLV>
-1.30858

>  <SCORE.INTRA.SOLV.lig_0>
-48.4279

>  <SCORE.INTRA.VDW>
2.46868

>  <SCORE.INTRA.VDW.0>
-4.69037

>  <SCORE.INTRA.norm>
0.0453452

>  <SCORE.RESTR>
0.00202915

>  <SCORE.RESTR.CAVITY>
0.00202915

>  <SCORE.RESTR.norm>
7.51538e-05

>  <SCORE.SYSTEM>
0

>  <SCORE.SYSTEM.CONST>
0

>  <SCORE.SYSTEM.DIHEDRAL>
0

>  <SCORE.SYSTEM.SOLV>
0

>  <SCORE.SYSTEM.norm>
0

>  <SCORE.heavy>
27

>  <SCORE.norm>
-0.386798

>  <RMSD>
4.768

$$$$
ligand
 OpenBabel02271912153D
libRbt.so/2013.1/901 2013/11/27
 27 29  0  0  0  0  0  0  0  0999 V2000
   11.6969   -8.0517   11.3232 N   0  0  0  0  0  0  0  0  0  0  0  0
   13.1207   -7.6183   11.1759 C   0  0  2  0  0  0  0  0  0  0  0  0
   14.0855   -8.8133   11.3423 C   0  0  0  0  0  0  0  0  0  0  0  0
   13.9808   -9.5896   12.2968 O   0  0  0  0  0  0  0  0  0  0  0  0
   13.4161   -6.5006   12.1705 C   0  0  0  0  0  0  0  0  0  0  0  0
   14.8133   -5.9131   12.0615 C   0  0  0  0  0  0  0  0  0  0  0  0
   15.1408   -5.1319   10.4554 S   0  0  2  0  0  0  0  0  0  0  0  0
   16.8548   -4.5822   10.6912 C   0  0  0  0  0  0  0  0  0  0  0  0
   14.2403   -3.5735   10.4510 C   0  0  0  0  0  0  0  0  0  0  0  0
   14.3412   -2.9481    9.0729 C   0  0  1  0  0  0  0  0  0  0  0  0
   15.6841   -2.8106    8.6347 O   0  0  0  0  0  0  0  0  0  0  0  0
   13.6198   -3.7753    8.0370 C   0  0  1  0  0  0  0  0  0  0  0  0
   12.2583   -3.4570    7.9973 O   0  0  0  0  0  0  0  0  0  0  0  0
   14.3308   -3.3585    6.7857 C   0  0  1  0  0  0  0  0  0  0  0  0
   13.7073   -2.2018    6.2608 O   0  0  0  0  0  0  0  0  0  0  0  0
   15.7472   -3.0382    7.2457 C   0  0  2  0  0  0  0  0  0  0  0  0
   15.0051   -9.0437   10.5356 O   0  0  0  0  0  0  0  0  0  0  0  0
   16.4986   -7.9020    5.3384 N   0  0  0  0  0  0  0  0  0  0  0  0
   15.3112   -7.1875    5.4038 C   0  0  0  0  0  0  0  0  0  0  0  0
   15.2759   -5.9112    5.9527 N   0  0  0  0  0  0  0  0  0  0  0  0
   16.4150   -5.3586    6.4080 C   0  0  0  0  0  0  0  0  0  0  0  0
   17.6202   -6.0625    6.3336 C   0  0  0  0  0  0  0  0  0  0  0  0
   17.6663   -7.3413    5.8096 C   0  0  0  0  0  0  0  0  0  0  0  0
   18.8089   -8.0087    5.7513 N   0  0  0  0  0  0  0  0  0  0  0  0
   18.5867   -5.2867    6.8366 N   0  0  0  0  0  0  0  0  0  0  0  0
   18.0311   -4.1168    7.2226 C   0  0  0  0  0  0  0  0  0  0  0  0
   16.6840   -4.1412    6.9598 N   0  0  0  0  0  0  0  0  0  0  0  0
  2  1  1  1  0  0  0
  2  3  1  0  0  0  0
  2  5  1  0  0  0  0
  3  4  1  0  0  0  0
  3 17  1  0  0  0  0
  5  6  1  0  0  0  0
  7  6  1  1  0  0  0
  7  8  1  0  0  0  0
  7  9  1  0  0  0  0
 10  9  1  1  0  0  0
 10 11  1  0  0  0  0
 10 12  1  0  0  0  0
 11 16  1  0  0  0  0
 12 13  1  6  0  0  0
 12 14  1  0  0  0  0
 14 15  1  1  0  0  0
 14 16  1  0  0  0  0
 16 27  1  1  0  0  0
 18 19  2  0  0  0  0
 18 23  1  0  0  0  0
 19 20  1  0  0  0  0
 20 21  2  0  0  0  0
 21 22  1  0  0  0  0
 21 27  1  0  0  0  0
 22 23  2  0  0  0  0
 22 25  1  0  0  0  0
 23 24  1  0  0  0  0
 25 26  2  0  0  0  0
 26 27  1  0  0  0  0
M  END
>  <CHROM.1>
-48.92691876,-176.43746952,62.13063202,-179.42386075,-173.41354345,-53.95598581
116.00046980,15.23694559,-5.58123203,8.62300998,-2.34235499,0.89215968,-0.47761040

>  <Name>
ligand

>  <RI>
0

>  <Rbt.Current_Directory>
/home/itssahil/PROJECTS/Mol_Feturizer/Test_systems_manuscript/rnas/2ydh

>  <Rbt.Executable>
rbdock ($Id: //depot/dev/client3/rdock/2013.1/src/exe/rbdock.cxx#4 $)

>  <Rbt.Library>
libRbt.so (2013.1, Build901 2013/11/27)

>  <Rbt.Parameter_File>
/export/apps/rDock/src/rDock_2013.1_src/data/scripts/dock_solv.prm

>  <Rbt.Receptor>
prm/pocket_docking_6.prm

>  <SCORE>
-14.1086

>  <SCORE.INTER>
-12.0136

>  <SCORE.INTER.CONST>
1

>  <SCORE.INTER.POLAR>
0

>  <SCORE.INTER.ROT>
7

>  <SCORE.INTER.SOLV>
12.4939

>  <SCORE.INTER.VDW>
-20.4404

>  <SCORE.INTER.norm>
-0.444949

>  <SCORE.INTRA>
-2.09495

>  <SCORE.INTRA.DIHEDRAL>
-5.81667

>  <SCORE.INTRA.DIHEDRAL.0>
9.75037

>  <SCORE.INTRA.POLAR>
0

>  <SCORE.INTRA.POLAR.0>
0

>  <SCORE.INTRA.REPUL>
0

>  <SCORE.INTRA.REPUL.0>
0

>  <SCORE.INTRA.SOLV>
-1.19412

>  <SCORE.INTRA.SOLV.lig_0>
-48.4279

>  <SCORE.INTRA.VDW>
1.41044

>  <SCORE.INTRA.VDW.0>
-4.69037

>  <SCORE.INTRA.norm>
-0.0775909

>  <SCORE.RESTR>
0

>  <SCORE.RESTR.CAVITY>
0

>  <SCORE.RESTR.norm>
0

>  <SCORE.SYSTEM>
0

>  <SCORE.SYSTEM.CONST>
0

>  <SCORE.SYSTEM.DIHEDRAL>
0

>  <SCORE.SYSTEM.SOLV>
0

>  <SCORE.SYSTEM.norm>
0

>  <SCORE.heavy>
27

>  <SCORE.norm>
-0.52254

>  <RMSD>
4.795

$$$$
ligand
 OpenBabel02271912153D
libRbt.so/2013.1/901 2013/11/27
 27 29  0  0  0  0  0  0  0  0999 V2000
   13.4783   -8.8030   11.3269 N   0  0  0  0  0  0  0  0  0  0  0  0
   12.6594   -7.6306   10.8893 C   0  0  2  0  0  0  0  0  0  0  0  0
   12.9732   -7.2487    9.4256 C   0  0  0  0  0  0  0  0  0  0  0  0
   13.7648   -7.9122    8.7490 O   0  0  0  0  0  0  0  0  0  0  0  0
   12.8885   -6.4662   11.8470 C   0  0  0  0  0  0  0  0  0  0  0  0
   14.3309   -5.9958   11.9335 C   0  0  0  0  0  0  0  0  0  0  0  0
   14.8858   -5.1041   10.4523 S   0  0  2  0  0  0  0  0  0  0  0  0
   16.5261   -4.5432   10.9911 C   0  0  0  0  0  0  0  0  0  0  0  0
   13.9557   -3.5639   10.4035 C   0  0  0  0  0  0  0  0  0  0  0  0
   14.1652   -2.9024    9.0547 C   0  0  1  0  0  0  0  0  0  0  0  0
   15.5384   -2.7635    8.7241 O   0  0  0  0  0  0  0  0  0  0  0  0
   13.5205   -3.6960    7.9445 C   0  0  1  0  0  0  0  0  0  0  0  0
   12.1677   -3.3663    7.8099 O   0  0  0  0  0  0  0  0  0  0  0  0
   14.3274   -3.2511    6.7630 C   0  0  1  0  0  0  0  0  0  0  0  0
   13.7523   -2.0759    6.2240 O   0  0  0  0  0  0  0  0  0  0  0  0
   15.7062   -2.9541    7.3383 C   0  0  2  0  0  0  0  0  0  0  0  0
   12.4539   -6.2641    8.8687 O   0  0  0  0  0  0  0  0  0  0  0  0
   16.5347   -7.8396    5.5206 N   0  0  0  0  0  0  0  0  0  0  0  0
   15.3426   -7.1304    5.5422 C   0  0  0  0  0  0  0  0  0  0  0  0
   15.2856   -5.8469    6.0721 N   0  0  0  0  0  0  0  0  0  0  0  0
   16.4086   -5.2823    6.5522 C   0  0  0  0  0  0  0  0  0  0  0  0
   17.6187   -5.9811    6.5220 C   0  0  0  0  0  0  0  0  0  0  0  0
   17.6858   -7.2666    6.0172 C   0  0  0  0  0  0  0  0  0  0  0  0
   18.8328   -7.9289    6.0008 N   0  0  0  0  0  0  0  0  0  0  0  0
   18.5667   -5.1935    7.0416 N   0  0  0  0  0  0  0  0  0  0  0  0
   17.9949   -4.0213    7.3954 C   0  0  0  0  0  0  0  0  0  0  0  0
   16.6560   -4.0561    7.0946 N   0  0  0  0  0  0  0  0  0  0  0  0
  2  1  1  1  0  0  0
  2  3  1  0  0  0  0
  2  5  1  0  0  0  0
  3  4  1  0  0  0  0
  3 17  1  0  0  0  0
  5  6  1  0  0  0  0
  7  6  1  1  0  0  0
  7  8  1  0  0  0  0
  7  9  1  0  0  0  0
 10  9  1  1  0  0  0
 10 11  1  0  0  0  0
 10 12  1  0  0  0  0
 11 16  1  0  0  0  0
 12 13  1  6  0  0  0
 12 14  1  0  0  0  0
 14 15  1  1  0  0  0
 14 16  1  0  0  0  0
 16 27  1  1  0  0  0
 18 19  2  0  0  0  0
 18 23  1  0  0  0  0
 19 20  1  0  0  0  0
 20 21  2  0  0  0  0
 21 22  1  0  0  0  0
 21 27  1  0  0  0  0
 22 23  2  0  0  0  0
 22 25  1  0  0  0  0
 23 24  1  0  0  0  0
 25 26  2  0  0  0  0
 26 27  1  0  0  0  0
M  END
>  <CHROM.1>
3.03667734,59.80443989,72.19619425,173.54383706,-168.79217576,-52.22668510
112.33384239,15.04020663,-5.32837741,8.38551534,-2.82507237,0.82096513,-0.32655937

>  <Name>
ligand

>  <RI>
0

>  <Rbt.Current_Directory>
/home/itssahil/PROJECTS/Mol_Feturizer/Test_systems_manuscript/rnas/2ydh

>  <Rbt.Executable>
rbdock ($Id: //depot/dev/client3/rdock/2013.1/src/exe/rbdock.cxx#4 $)

>  <Rbt.Library>
libRbt.so (2013.1, Build901 2013/11/27)

>  <Rbt.Parameter_File>
/export/apps/rDock/src/rDock_2013.1_src/data/scripts/dock_solv.prm

>  <Rbt.Receptor>
prm/pocket_docking_4.prm

>  <SCORE>
-15.484

>  <SCORE.INTER>
-13.3699

>  <SCORE.INTER.CONST>
1

>  <SCORE.INTER.POLAR>
0

>  <SCORE.INTER.ROT>
7

>  <SCORE.INTER.SOLV>
10.9822

>  <SCORE.INTER.VDW>
-20.8407

>  <SCORE.INTER.norm>
-0.49518

>  <SCORE.INTRA>
-2.1141

>  <SCORE.INTRA.DIHEDRAL>
-5.00801

>  <SCORE.INTRA.DIHEDRAL.0>
9.75037

>  <SCORE.INTRA.POLAR>
0

>  <SCORE.INTRA.POLAR.0>
0

>  <SCORE.INTRA.REPUL>
0

>  <SCORE.INTRA.REPUL.0>
0

>  <SCORE.INTRA.SOLV>
0.0763549

>  <SCORE.INTRA.SOLV.lig_0>
-48.4279

>  <SCORE.INTRA.VDW>
0.351731

>  <SCORE.INTRA.VDW.0>
-4.69037

>  <SCORE.INTRA.norm>
-0.0783

>  <SCORE.RESTR>
0

>  <SCORE.RESTR.CAVITY>
0

>  <SCORE.RESTR.norm>
0

>  <SCORE.SYSTEM>
0

>  <SCORE.SYSTEM.CONST>
0

>  <SCORE.SYSTEM.DIHEDRAL>
0

>  <SCORE.SYSTEM.SOLV>
0

>  <SCORE.SYSTEM.norm>
0

>  <SCORE.heavy>
27

>  <SCORE.norm>
-0.57348

>  <RMSD>
4.797

$$$$
ligand
 OpenBabel02271912153D
libRbt.so/2013.1/901 2013/11/27
 27 29  0  0  0  0  0  0  0  0999 V2000
   12.3263   -8.4496   13.0234 N   0  0  0  0  0  0  0  0  0  0  0  0
   13.6103   -7.7056   13.2088 C   0  0  2  0  0  0  0  0  0  0  0  0
   13.6949   -7.0864   14.6216 C   0  0  0  0  0  0  0  0  0  0  0  0
   14.7607   -6.6448   15.0618 O   0  0  0  0  0  0  0  0  0  0  0  0
   13.7501   -6.6542   12.1130 C   0  0  0  0  0  0  0  0  0  0  0  0
   15.0787   -5.9167   12.1132 C   0  0  0  0  0  0  0  0  0  0  0  0
   15.4224   -5.0554   10.5521 S   0  0  2  0  0  0  0  0  0  0  0  0
   17.0202   -4.2844   10.9370 C   0  0  0  0  0  0  0  0  0  0  0  0
   14.3191   -3.6343   10.4978 C   0  0  0  0  0  0  0  0  0  0  0  0
   14.4055   -2.9936    9.1257 C   0  0  1  0  0  0  0  0  0  0  0  0
   15.7433   -2.8570    8.6720 O   0  0  0  0  0  0  0  0  0  0  0  0
   13.6672   -3.8057    8.0897 C   0  0  1  0  0  0  0  0  0  0  0  0
   12.3068   -3.4809    8.0710 O   0  0  0  0  0  0  0  0  0  0  0  0
   14.3642   -3.3777    6.8343 C   0  0  1  0  0  0  0  0  0  0  0  0
   13.7394   -2.2123    6.3306 O   0  0  0  0  0  0  0  0  0  0  0  0
   15.7877   -3.0689    7.2799 C   0  0  2  0  0  0  0  0  0  0  0  0
   12.7069   -7.0094   15.3748 O   0  0  0  0  0  0  0  0  0  0  0  0
   16.4925   -7.9143    5.3091 N   0  0  0  0  0  0  0  0  0  0  0  0
   15.3092   -7.1955    5.3980 C   0  0  0  0  0  0  0  0  0  0  0  0
   15.2868   -5.9253    5.9614 N   0  0  0  0  0  0  0  0  0  0  0  0
   16.4342   -5.3826    6.4078 C   0  0  0  0  0  0  0  0  0  0  0  0
   17.6352   -6.0909    6.3098 C   0  0  0  0  0  0  0  0  0  0  0  0
   17.6687   -7.3639    5.7711 C   0  0  0  0  0  0  0  0  0  0  0  0
   18.8075   -8.0356    5.6904 N   0  0  0  0  0  0  0  0  0  0  0  0
   18.6116   -5.3249    6.8086 N   0  0  0  0  0  0  0  0  0  0  0  0
   18.0664   -4.1570    7.2148 C   0  0  0  0  0  0  0  0  0  0  0  0
   16.7158   -4.1727    6.9695 N   0  0  0  0  0  0  0  0  0  0  0  0
  2  1  1  1  0  0  0
  2  3  1  0  0  0  0
  2  5  1  0  0  0  0
  3  4  1  0  0  0  0
  3 17  1  0  0  0  0
  5  6  1  0  0  0  0
  7  6  1  1  0  0  0
  7  8  1  0  0  0  0
  7  9  1  0  0  0  0
 10  9  1  1  0  0  0
 10 11  1  0  0  0  0
 10 12  1  0  0  0  0
 11 16  1  0  0  0  0
 12 13  1  6  0  0  0
 12 14  1  0  0  0  0
 14 15  1  1  0  0  0
 14 16  1  0  0  0  0
 16 27  1  1  0  0  0
 18 19  2  0  0  0  0
 18 23  1  0  0  0  0
 19 20  1  0  0  0  0
 20 21  2  0  0  0  0
 21 22  1  0  0  0  0
 21 27  1  0  0  0  0
 22 23  2  0  0  0  0
 22 25  1  0  0  0  0
 23 24  1  0  0  0  0
 25 26  2  0  0  0  0
 26 27  1  0  0  0  0
M  END
>  <CHROM.1>
166.65019339,-174.49700397,162.73528189,178.70360735,-171.41060912,-45.02523607
115.96888136,15.27170417,-5.34700121,9.19101024,-2.19087813,0.92282813,-0.87081150

>  <Name>
ligand

>  <RI>
0

>  <Rbt.Current_Directory>
/home/itssahil/PROJECTS/Mol_Feturizer/Test_systems_manuscript/rnas/2ydh

>  <Rbt.Executable>
rbdock ($Id: //depot/dev/client3/rdock/2013.1/src/exe/rbdock.cxx#4 $)

>  <Rbt.Library>
libRbt.so (2013.1, Build901 2013/11/27)

>  <Rbt.Parameter_File>
/export/apps/rDock/src/rDock_2013.1_src/data/scripts/dock_solv.prm

>  <Rbt.Receptor>
prm/pocket_docking_7.prm

>  <SCORE>
-14.3248

>  <SCORE.INTER>
-13.7502

>  <SCORE.INTER.CONST>
1

>  <SCORE.INTER.POLAR>
0

>  <SCORE.INTER.ROT>
7

>  <SCORE.INTER.SOLV>
11.4022

>  <SCORE.INTER.VDW>
-21.2342

>  <SCORE.INTER.norm>
-0.509268

>  <SCORE.INTRA>
-0.574613

>  <SCORE.INTRA.DIHEDRAL>
-3.97198

>  <SCORE.INTRA.DIHEDRAL.0>
9.75037

>  <SCORE.INTRA.POLAR>
0

>  <SCORE.INTRA.POLAR.0>
0

>  <SCORE.INTRA.REPUL>
0

>  <SCORE.INTRA.REPUL.0>
0

>  <SCORE.INTRA.SOLV>
-1.29676

>  <SCORE.INTRA.SOLV.lig_0>
-48.4279

>  <SCORE.INTRA.VDW>
2.05975

>  <SCORE.INTRA.VDW.0>
-4.69037

>  <SCORE.INTRA.norm>
-0.021282

>  <SCORE.RESTR>
0

>  <SCORE.RESTR.CAVITY>
0

>  <SCORE.RESTR.norm>
0

>  <SCORE.SYSTEM>
0

>  <SCORE.SYSTEM.CONST>
0

>  <SCORE.SYSTEM.DIHEDRAL>
0

>  <SCORE.SYSTEM.SOLV>
0

>  <SCORE.SYSTEM.norm>
0

>  <SCORE.heavy>
27

>  <SCORE.norm>
-0.53055

>  <RMSD>
4.799

$$$$
ligand
 OpenBabel02271912153D
libRbt.so/2013.1/901 2013/11/27
 27 29  0  0  0  0  0  0  0  0999 V2000
   13.0418   -8.8559   11.3306 N   0  0  0  0  0  0  0  0  0  0  0  0
   12.3341   -7.6526   10.7940 C   0  0  2  0  0  0  0  0  0  0  0  0
   12.7223   -7.3898    9.3220 C   0  0  0  0  0  0  0  0  0  0  0  0
   13.3406   -8.2330    8.6651 O   0  0  0  0  0  0  0  0  0  0  0  0
   12.6273   -6.4516   11.6870 C   0  0  0  0  0  0  0  0  0  0  0  0
   14.0986   -6.0855   11.7878 C   0  0  0  0  0  0  0  0  0  0  0  0
   14.7181   -5.1930   10.3329 S   0  0  2  0  0  0  0  0  0  0  0  0
   16.4027   -4.7901   10.8766 C   0  0  0  0  0  0  0  0  0  0  0  0
   13.9202   -3.5796   10.3440 C   0  0  0  0  0  0  0  0  0  0  0  0
   14.1164   -2.9218    8.9914 C   0  0  1  0  0  0  0  0  0  0  0  0
   15.4858   -2.7959    8.6409 O   0  0  0  0  0  0  0  0  0  0  0  0
   13.4484   -3.7109    7.8918 C   0  0  1  0  0  0  0  0  0  0  0  0
   12.0970   -3.3689    7.7761 O   0  0  0  0  0  0  0  0  0  0  0  0
   14.2423   -3.2749    6.6981 C   0  0  1  0  0  0  0  0  0  0  0  0
   13.6703   -2.0952    6.1658 O   0  0  0  0  0  0  0  0  0  0  0  0
   15.6319   -2.9899    7.2531 C   0  0  2  0  0  0  0  0  0  0  0  0
   12.4386   -6.3277    8.7382 O   0  0  0  0  0  0  0  0  0  0  0  0
   16.3873   -7.8891    5.4405 N   0  0  0  0  0  0  0  0  0  0  0  0
   15.2018   -7.1696    5.4799 C   0  0  0  0  0  0  0  0  0  0  0  0
   15.1649   -5.8837    6.0057 N   0  0  0  0  0  0  0  0  0  0  0  0
   16.3008   -5.3269    6.4641 C   0  0  0  0  0  0  0  0  0  0  0  0
   17.5042   -6.0362    6.4157 C   0  0  0  0  0  0  0  0  0  0  0  0
   17.5516   -7.3241    5.9148 C   0  0  0  0  0  0  0  0  0  0  0  0
   18.6925   -7.9963    5.8811 N   0  0  0  0  0  0  0  0  0  0  0  0
   18.4678   -5.2548    6.9157 N   0  0  0  0  0  0  0  0  0  0  0  0
   17.9121   -4.0764    7.2747 C   0  0  0  0  0  0  0  0  0  0  0  0
   16.5680   -4.1009    6.9973 N   0  0  0  0  0  0  0  0  0  0  0  0
  2  1  1  1  0  0  0
  2  3  1  0  0  0  0
  2  5  1  0  0  0  0
  3  4  1  0  0  0  0
  3 17  1  0  0  0  0
  5  6  1  0  0  0  0
  7  6  1  1  0  0  0
  7  8  1  0  0  0  0
  7  9  1  0  0  0  0
 10  9  1  1  0  0  0
 10 11  1  0  0  0  0
 10 12  1  0  0  0  0
 11 16  1  0  0  0  0
 12 13  1  6  0  0  0
 12 14  1  0  0  0  0
 14 15  1  1  0  0  0
 14 16  1  0  0  0  0
 16 27  1  1  0  0  0
 18 19  2  0  0  0  0
 18 23  1  0  0  0  0
 19 20  1  0  0  0  0
 20 21  2  0  0  0  0
 21 22  1  0  0  0  0
 21 27  1  0  0  0  0
 22 23  2  0  0  0  0
 22 25  1  0  0  0  0
 23 24  1  0  0  0  0
 25 26  2  0  0  0  0
 26 27  1  0  0  0  0
M  END
>  <CHROM.1>
12.02585153,60.23332833,77.51960637,174.54656085,-165.90926318,-57.06412244
112.11049413,14.89346833,-5.39360137,8.29479986,-2.85246175,0.81041451,-0.23853973

>  <Name>
ligand

>  <RI>
0

>  <Rbt.Current_Directory>
/home/itssahil/PROJECTS/Mol_Feturizer/Test_systems_manuscript/rnas/2ydh

>  <Rbt.Executable>
rbdock ($Id: //depot/dev/client3/rdock/2013.1/src/exe/rbdock.cxx#4 $)

>  <Rbt.Library>
libRbt.so (2013.1, Build901 2013/11/27)

>  <Rbt.Parameter_File>
/export/apps/rDock/src/rDock_2013.1_src/data/scripts/dock_solv.prm

>  <Rbt.Receptor>
prm/pocket_docking_8.prm

>  <SCORE>
-15.6269

>  <SCORE.INTER>
-13.9175

>  <SCORE.INTER.CONST>
1

>  <SCORE.INTER.POLAR>
0

>  <SCORE.INTER.ROT>
7

>  <SCORE.INTER.SOLV>
11.6848

>  <SCORE.INTER.VDW>
-21.4399

>  <SCORE.INTER.norm>
-0.515462

>  <SCORE.INTRA>
-1.70946

>  <SCORE.INTRA.DIHEDRAL>
-4.35353

>  <SCORE.INTRA.DIHEDRAL.0>
9.75037

>  <SCORE.INTRA.POLAR>
0

>  <SCORE.INTRA.POLAR.0>
0

>  <SCORE.INTRA.REPUL>
0

>  <SCORE.INTRA.REPUL.0>
0

>  <SCORE.INTRA.SOLV>
-0.00976744

>  <SCORE.INTRA.SOLV.lig_0>
-48.4279

>  <SCORE.INTRA.VDW>
0.472182

>  <SCORE.INTRA.VDW.0>
-4.69037

>  <SCORE.INTRA.norm>
-0.0633135

>  <SCORE.RESTR>
0

>  <SCORE.RESTR.CAVITY>
0

>  <SCORE.RESTR.norm>
0

>  <SCORE.SYSTEM>
0

>  <SCORE.SYSTEM.CONST>
0

>  <SCORE.SYSTEM.DIHEDRAL>
0

>  <SCORE.SYSTEM.SOLV>
0

>  <SCORE.SYSTEM.norm>
0

>  <SCORE.heavy>
27

>  <SCORE.norm>
-0.578776

>  <RMSD>
4.810

$$$$
ligand
 OpenBabel02271912153D
libRbt.so/2013.1/901 2013/11/27
 27 29  0  0  0  0  0  0  0  0999 V2000
   12.1660   -6.7782   11.6931 N   0  0  0  0  0  0  0  0  0  0  0  0
   12.7771   -7.6582   10.6496 C   0  0  2  0  0  0  0  0  0  0  0  0
   11.7930   -8.7649   10.2099 C   0  0  0  0  0  0  0  0  0  0  0  0
   10.8054   -9.0491   10.8944 O   0  0  0  0  0  0  0  0  0  0  0  0
   14.0882   -8.2329   11.1752 C   0  0  0  0  0  0  0  0  0  0  0  0
   15.1635   -7.1963   11.4549 C   0  0  0  0  0  0  0  0  0  0  0  0
   15.9005   -6.5011    9.9481 S   0  0  2  0  0  0  0  0  0  0  0  0
   17.4881   -7.3806    9.9124 C   0  0  0  0  0  0  0  0  0  0  0  0
   16.4065   -4.8219   10.3533 C   0  0  0  0  0  0  0  0  0  0  0  0
   15.5685   -3.8456    9.5501 C   0  0  1  0  0  0  0  0  0  0  0  0
   15.8373   -3.9145    8.1583 O   0  0  0  0  0  0  0  0  0  0  0  0
   14.0929   -4.1068    9.7296 C   0  0  1  0  0  0  0  0  0  0  0  0
   13.6037   -3.4667   10.8732 O   0  0  0  0  0  0  0  0  0  0  0  0
   13.5374   -3.5116    8.4718 C   0  0  1  0  0  0  0  0  0  0  0  0
   13.2938   -2.1331    8.6786 O   0  0  0  0  0  0  0  0  0  0  0  0
   14.6419   -3.7088    7.4415 C   0  0  2  0  0  0  0  0  0  0  0  0
   11.9503   -9.4174    9.1616 O   0  0  0  0  0  0  0  0  0  0  0  0
   16.5210   -7.9583    4.9376 N   0  0  0  0  0  0  0  0  0  0  0  0
   17.2153   -7.0716    5.7476 C   0  0  0  0  0  0  0  0  0  0  0  0
   16.5741   -5.9837    6.3280 N   0  0  0  0  0  0  0  0  0  0  0  0
   15.2582   -5.8035    6.1132 C   0  0  0  0  0  0  0  0  0  0  0  0
   14.5447   -6.6987    5.3113 C   0  0  0  0  0  0  0  0  0  0  0  0
   15.1742   -7.7732    4.7103 C   0  0  0  0  0  0  0  0  0  0  0  0
   14.4959   -8.6127    3.9423 N   0  0  0  0  0  0  0  0  0  0  0  0
   13.2687   -6.2992    5.2759 N   0  0  0  0  0  0  0  0  0  0  0  0
   13.1541   -5.1843    6.0309 C   0  0  0  0  0  0  0  0  0  0  0  0
   14.3784   -4.8640    6.5628 N   0  0  0  0  0  0  0  0  0  0  0  0
  2  1  1  1  0  0  0
  2  3  1  0  0  0  0
  2  5  1  0  0  0  0
  3  4  1  0  0  0  0
  3 17  1  0  0  0  0
  5  6  1  0  0  0  0
  7  6  1  1  0  0  0
  7  8  1  0  0  0  0
  7  9  1  0  0  0  0
 10  9  1  1  0  0  0
 10 11  1  0  0  0  0
 10 12  1  0  0  0  0
 11 16  1  0  0  0  0
 12 13  1  1  0  0  0
 12 14  1  0  0  0  0
 14 15  1  1  0  0  0
 14 16  1  0  0  0  0
 16 27  1  1  0  0  0
 18 19  2  0  0  0  0
 18 23  1  0  0  0  0
 19 20  1  0  0  0  0
 20 21  2  0  0  0  0
 21 22  1  0  0  0  0
 21 27  1  0  0  0  0
 22 23  2  0  0  0  0
 22 25  1  0  0  0  0
 23 24  1  0  0  0  0
 25 26  2  0  0  0  0
 26 27  1  0  0  0  0
M  END
>  <CHROM.1>
-16.97595822,-63.82439163,-72.91774649,-103.53796033,-114.02316433,-67.24029645
-20.26034101,14.47637760,-6.17764603,8.43343781,2.46226856,1.07683509,0.82142768

>  <Name>
ligand

>  <RI>
0

>  <Rbt.Current_Directory>
/home/itssahil/PROJECTS/Mol_Feturizer/Test_systems_manuscript/rnas/2ydh

>  <Rbt.Executable>
rbdock ($Id: //depot/dev/client3/rdock/2013.1/src/exe/rbdock.cxx#4 $)

>  <Rbt.Library>
libRbt.so (2013.1, Build901 2013/11/27)

>  <Rbt.Parameter_File>
/export/apps/rDock/src/rDock_2013.1_src/data/scripts/dock_solv.prm

>  <Rbt.Receptor>
prm/pocket_docking_6.prm

>  <SCORE>
-6.42444

>  <SCORE.INTER>
-8.27343

>  <SCORE.INTER.CONST>
1

>  <SCORE.INTER.POLAR>
0

>  <SCORE.INTER.ROT>
7

>  <SCORE.INTER.SOLV>
15.0818

>  <SCORE.INTER.VDW>
-18.8096

>  <SCORE.INTER.norm>
-0.306423

>  <SCORE.INTRA>
1.84899

>  <SCORE.INTRA.DIHEDRAL>
1.03557

>  <SCORE.INTRA.DIHEDRAL.0>
9.75037

>  <SCORE.INTRA.POLAR>
0

>  <SCORE.INTRA.POLAR.0>
0

>  <SCORE.INTRA.REPUL>
0

>  <SCORE.INTRA.REPUL.0>
0

>  <SCORE.INTRA.SOLV>
0.937582

>  <SCORE.INTRA.SOLV.lig_0>
-48.4279

>  <SCORE.INTRA.VDW>
0.862413

>  <SCORE.INTRA.VDW.0>
-4.69037

>  <SCORE.INTRA.norm>
0.068481

>  <SCORE.RESTR>
0

>  <SCORE.RESTR.CAVITY>
0

>  <SCORE.RESTR.norm>
0

>  <SCORE.SYSTEM>
0

>  <SCORE.SYSTEM.CONST>
0

>  <SCORE.SYSTEM.DIHEDRAL>
0

>  <SCORE.SYSTEM.SOLV>
0

>  <SCORE.SYSTEM.norm>
0

>  <SCORE.heavy>
27

>  <SCORE.norm>
-0.237942

>  <RMSD>
4.841

$$$$
ligand
 OpenBabel02271912153D
libRbt.so/2013.1/901 2013/11/27
 27 29  0  0  0  0  0  0  0  0999 V2000
   13.3863   -7.2354   14.2852 N   0  0  0  0  0  0  0  0  0  0  0  0
   13.1757   -7.7953   12.9145 C   0  0  2  0  0  0  0  0  0  0  0  0
   14.0523   -9.0463   12.6843 C   0  0  0  0  0  0  0  0  0  0  0  0
   13.8299   -9.8172   11.7457 O   0  0  0  0  0  0  0  0  0  0  0  0
   13.4422   -6.7100   11.8768 C   0  0  0  0  0  0  0  0  0  0  0  0
   14.8139   -6.0639   11.9788 C   0  0  0  0  0  0  0  0  0  0  0  0
   15.2753   -5.1202   10.4978 S   0  0  2  0  0  0  0  0  0  0  0  0
   16.8531   -4.4005   11.0346 C   0  0  0  0  0  0  0  0  0  0  0  0
   14.1975   -3.6793   10.4524 C   0  0  0  0  0  0  0  0  0  0  0  0
   14.3175   -3.0147    9.0943 C   0  0  1  0  0  0  0  0  0  0  0  0
   15.6661   -2.8693    8.6768 O   0  0  0  0  0  0  0  0  0  0  0  0
   13.6064   -3.8092    8.0261 C   0  0  1  0  0  0  0  0  0  0  0  0
   12.2465   -3.4852    7.9789 O   0  0  0  0  0  0  0  0  0  0  0  0
   14.3342   -3.3589    6.7962 C   0  0  1  0  0  0  0  0  0  0  0  0
   13.7209   -2.1853    6.2974 O   0  0  0  0  0  0  0  0  0  0  0  0
   15.7457   -3.0569    7.2827 C   0  0  2  0  0  0  0  0  0  0  0  0
   15.0081   -9.3353   13.4276 O   0  0  0  0  0  0  0  0  0  0  0  0
   16.4881   -7.9066    5.3365 N   0  0  0  0  0  0  0  0  0  0  0  0
   15.2990   -7.1974    5.4237 C   0  0  0  0  0  0  0  0  0  0  0  0
   15.2668   -5.9244    5.9803 N   0  0  0  0  0  0  0  0  0  0  0  0
   16.4103   -5.3697    6.4219 C   0  0  0  0  0  0  0  0  0  0  0  0
   17.6170   -6.0683    6.3255 C   0  0  0  0  0  0  0  0  0  0  0  0
   17.6604   -7.3439    5.7935 C   0  0  0  0  0  0  0  0  0  0  0  0
   18.8048   -8.0063    5.7144 N   0  0  0  0  0  0  0  0  0  0  0  0
   18.5878   -5.2914    6.8186 N   0  0  0  0  0  0  0  0  0  0  0  0
   18.0334   -4.1260    7.2195 C   0  0  0  0  0  0  0  0  0  0  0  0
   16.6826   -4.1544    6.9766 N   0  0  0  0  0  0  0  0  0  0  0  0
  2  1  1  1  0  0  0
  2  3  1  0  0  0  0
  2  5  1  0  0  0  0
  3  4  1  0  0  0  0
  3 17  1  0  0  0  0
  5  6  1  0  0  0  0
  7  6  1  1  0  0  0
  7  8  1  0  0  0  0
  7  9  1  0  0  0  0
 10  9  1  1  0  0  0
 10 11  1  0  0  0  0
 10 12  1  0  0  0  0
 11 16  1  0  0  0  0
 12 13  1  6  0  0  0
 12 14  1  0  0  0  0
 14 15  1  1  0  0  0
 14 16  1  0  0  0  0
 16 27  1  1  0  0  0
 18 19  2  0  0  0  0
 18 23  1  0  0  0  0
 19 20  1  0  0  0  0
 20 21  2  0  0  0  0
 21 22  1  0  0  0  0
 21 27  1  0  0  0  0
 22 23  2  0  0  0  0
 22 25  1  0  0  0  0
 23 24  1  0  0  0  0
 25 26  2  0  0  0  0
 26 27  1  0  0  0  0
M  END
>  <CHROM.1>
164.52008197,55.52826480,164.47641365,175.31395651,-167.67846535,-46.17898730
113.90790950,15.29929681,-5.60433497,8.93188993,2.13566626,-0.94885735,2.46227161

>  <Name>
ligand

>  <RI>
0

>  <Rbt.Current_Directory>
/home/itssahil/PROJECTS/Mol_Feturizer/Test_systems_manuscript/rnas/2ydh

>  <Rbt.Executable>
rbdock ($Id: //depot/dev/client3/rdock/2013.1/src/exe/rbdock.cxx#4 $)

>  <Rbt.Library>
libRbt.so (2013.1, Build901 2013/11/27)

>  <Rbt.Parameter_File>
/export/apps/rDock/src/rDock_2013.1_src/data/scripts/dock_solv.prm

>  <Rbt.Receptor>
prm/pocket_docking_8.prm

>  <SCORE>
-12.1089

>  <SCORE.INTER>
-11.6916

>  <SCORE.INTER.CONST>
1

>  <SCORE.INTER.POLAR>
0

>  <SCORE.INTER.ROT>
7

>  <SCORE.INTER.SOLV>
13.188

>  <SCORE.INTER.VDW>
-20.4571

>  <SCORE.INTER.norm>
-0.433023

>  <SCORE.INTRA>
-0.417283

>  <SCORE.INTRA.DIHEDRAL>
-4.02611

>  <SCORE.INTRA.DIHEDRAL.0>
9.75037

>  <SCORE.INTRA.POLAR>
0

>  <SCORE.INTRA.POLAR.0>
0

>  <SCORE.INTRA.REPUL>
0

>  <SCORE.INTRA.REPUL.0>
0

>  <SCORE.INTRA.SOLV>
-0.564942

>  <SCORE.INTRA.SOLV.lig_0>
-48.4279

>  <SCORE.INTRA.VDW>
1.87824

>  <SCORE.INTRA.VDW.0>
-4.69037

>  <SCORE.INTRA.norm>
-0.0154549

>  <SCORE.RESTR>
0

>  <SCORE.RESTR.CAVITY>
0

>  <SCORE.RESTR.norm>
0

>  <SCORE.SYSTEM>
0

>  <SCORE.SYSTEM.CONST>
0

>  <SCORE.SYSTEM.DIHEDRAL>
0

>  <SCORE.SYSTEM.SOLV>
0

>  <SCORE.SYSTEM.norm>
0

>  <SCORE.heavy>
27

>  <SCORE.norm>
-0.448477

>  <RMSD>
4.842

$$$$
ligand
 OpenBabel02271912153D
libRbt.so/2013.1/901 2013/11/27
 27 29  0  0  0  0  0  0  0  0999 V2000
   13.1385   -7.8824   12.6024 N   0  0  0  0  0  0  0  0  0  0  0  0
   14.4353   -7.2152   12.2711 C   0  0  2  0  0  0  0  0  0  0  0  0
   15.6352   -8.0797   12.7178 C   0  0  0  0  0  0  0  0  0  0  0  0
   16.3460   -8.6600   11.8915 O   0  0  0  0  0  0  0  0  0  0  0  0
   14.4654   -5.8254   12.8982 C   0  0  0  0  0  0  0  0  0  0  0  0
   15.7084   -5.0141   12.5728 C   0  0  0  0  0  0  0  0  0  0  0  0
   15.9003   -4.6737   10.7996 S   0  0  2  0  0  0  0  0  0  0  0  0
   17.4124   -3.6692   10.8107 C   0  0  0  0  0  0  0  0  0  0  0  0
   14.6420   -3.4596   10.3723 C   0  0  0  0  0  0  0  0  0  0  0  0
   14.6478   -3.2494    8.8701 C   0  0  1  0  0  0  0  0  0  0  0  0
   15.9536   -3.0409    8.3548 O   0  0  0  0  0  0  0  0  0  0  0  0
   14.0698   -4.4396    8.1439 C   0  0  1  0  0  0  0  0  0  0  0  0
   12.6752   -4.3575    8.0727 O   0  0  0  0  0  0  0  0  0  0  0  0
   14.7104   -4.2972    6.7970 C   0  0  1  0  0  0  0  0  0  0  0  0
   13.9138   -3.4495    5.9913 O   0  0  0  0  0  0  0  0  0  0  0  0
   16.0567   -3.6461    7.0867 C   0  0  2  0  0  0  0  0  0  0  0  0
   15.9347   -8.2344   13.9160 O   0  0  0  0  0  0  0  0  0  0  0  0
   17.9566   -8.2517    5.3438 N   0  0  0  0  0  0  0  0  0  0  0  0
   16.7395   -7.6617    5.0353 C   0  0  0  0  0  0  0  0  0  0  0  0
   16.3767   -6.4414    5.5926 N   0  0  0  0  0  0  0  0  0  0  0  0
   17.2290   -5.8193    6.4273 C   0  0  0  0  0  0  0  0  0  0  0  0
   18.4645   -6.3965    6.7338 C   0  0  0  0  0  0  0  0  0  0  0  0
   18.8296   -7.6202    6.2034 C   0  0  0  0  0  0  0  0  0  0  0  0
   19.9970   -8.1684    6.5055 N   0  0  0  0  0  0  0  0  0  0  0  0
   19.1135   -5.5732    7.5645 N   0  0  0  0  0  0  0  0  0  0  0  0
   18.3295   -4.4957    7.7891 C   0  0  0  0  0  0  0  0  0  0  0  0
   17.1571   -4.6286    7.0874 N   0  0  0  0  0  0  0  0  0  0  0  0
  2  1  1  1  0  0  0
  2  3  1  0  0  0  0
  2  5  1  0  0  0  0
  3  4  1  0  0  0  0
  3 17  1  0  0  0  0
  5  6  1  0  0  0  0
  7  6  1  1  0  0  0
  7  8  1  0  0  0  0
  7  9  1  0  0  0  0
 10  9  1  1  0  0  0
 10 11  1  0  0  0  0
 10 12  1  0  0  0  0
 11 16  1  0  0  0  0
 12 13  1  6  0  0  0
 12 14  1  0  0  0  0
 14 15  1  6  0  0  0
 14 16  1  0  0  0  0
 16 27  1  1  0  0  0
 18 19  2  0  0  0  0
 18 23  1  0  0  0  0
 19 20  1  0  0  0  0
 20 21  2  0  0  0  0
 21 22  1  0  0  0  0
 21 27  1  0  0  0  0
 22 23  2  0  0  0  0
 22 25  1  0  0  0  0
 23 24  1  0  0  0  0
 25 26  2  0  0  0  0
 26 27  1  0  0  0  0
M  END
>  <CHROM.1>
108.37890820,-177.00427380,61.97322968,178.14593892,-173.66556359,-48.12210865
144.95915978,16.07845582,-5.64003026,8.99284031,-2.10629981,0.82672822,-1.06794590

>  <Name>
ligand

>  <RI>
0

>  <Rbt.Current_Directory>
/home/itssahil/PROJECTS/Mol_Feturizer/Test_systems_manuscript/rnas/2ydh

>  <Rbt.Executable>
rbdock ($Id: //depot/dev/client3/rdock/2013.1/src/exe/rbdock.cxx#4 $)

>  <Rbt.Library>
libRbt.so (2013.1, Build901 2013/11/27)

>  <Rbt.Parameter_File>
/export/apps/rDock/src/rDock_2013.1_src/data/scripts/dock_solv.prm

>  <Rbt.Receptor>
prm/pocket_docking_5.prm

>  <SCORE>
-13.1886

>  <SCORE.INTER>
-11.6092

>  <SCORE.INTER.CONST>
1

>  <SCORE.INTER.POLAR>
0

>  <SCORE.INTER.ROT>
7

>  <SCORE.INTER.SOLV>
8.59349

>  <SCORE.INTER.VDW>
-18.8706

>  <SCORE.INTER.norm>
-0.42997

>  <SCORE.INTRA>
-1.57942

>  <SCORE.INTRA.DIHEDRAL>
-5.56768

>  <SCORE.INTRA.DIHEDRAL.0>
9.75037

>  <SCORE.INTRA.POLAR>
0

>  <SCORE.INTRA.POLAR.0>
0

>  <SCORE.INTRA.REPUL>
0

>  <SCORE.INTRA.REPUL.0>
0

>  <SCORE.INTRA.SOLV>
-1.22657

>  <SCORE.INTRA.SOLV.lig_0>
-48.4279

>  <SCORE.INTRA.VDW>
1.8177

>  <SCORE.INTRA.VDW.0>
-4.69037

>  <SCORE.INTRA.norm>
-0.0584972

>  <SCORE.RESTR>
0

>  <SCORE.RESTR.CAVITY>
0

>  <SCORE.RESTR.norm>
0

>  <SCORE.SYSTEM>
0

>  <SCORE.SYSTEM.CONST>
0

>  <SCORE.SYSTEM.DIHEDRAL>
0

>  <SCORE.SYSTEM.SOLV>
0

>  <SCORE.SYSTEM.norm>
0

>  <SCORE.heavy>
27

>  <SCORE.norm>
-0.488467

>  <RMSD>
4.848

$$$$
ligand
 OpenBabel02271912153D
libRbt.so/2013.1/901 2013/11/27
 27 29  0  0  0  0  0  0  0  0999 V2000
   13.3167   -9.3096   11.8330 N   0  0  0  0  0  0  0  0  0  0  0  0
   13.1939   -8.6514   10.4957 C   0  0  2  0  0  0  0  0  0  0  0  0
   14.4583   -8.8895    9.6407 C   0  0  0  0  0  0  0  0  0  0  0  0
   14.6276   -8.2935    8.5726 O   0  0  0  0  0  0  0  0  0  0  0  0
   12.9022   -7.1667   10.6862 C   0  0  0  0  0  0  0  0  0  0  0  0
   14.0067   -6.3921   11.3855 C   0  0  0  0  0  0  0  0  0  0  0  0
   14.8658   -5.2225   10.2942 S   0  0  2  0  0  0  0  0  0  0  0  0
   16.2768   -4.7606   11.3388 C   0  0  0  0  0  0  0  0  0  0  0  0
   13.8867   -3.7121   10.2903 C   0  0  0  0  0  0  0  0  0  0  0  0
   14.1014   -2.9872    8.9754 C   0  0  1  0  0  0  0  0  0  0  0  0
   15.4747   -2.8669    8.6382 O   0  0  0  0  0  0  0  0  0  0  0  0
   13.4258   -3.7050    7.8325 C   0  0  1  0  0  0  0  0  0  0  0  0
   12.0812   -3.3337    7.7292 O   0  0  0  0  0  0  0  0  0  0  0  0
   14.2335   -3.2204    6.6672 C   0  0  1  0  0  0  0  0  0  0  0  0
   13.6848   -2.0043    6.1957 O   0  0  0  0  0  0  0  0  0  0  0  0
   15.6248   -2.9896    7.2427 C   0  0  2  0  0  0  0  0  0  0  0  0
   15.3515   -9.6868    9.9811 O   0  0  0  0  0  0  0  0  0  0  0  0
   16.2599   -7.9087    5.4376 N   0  0  0  0  0  0  0  0  0  0  0  0
   15.0784   -7.1911    5.5549 C   0  0  0  0  0  0  0  0  0  0  0  0
   15.0764   -5.8990    6.0668 N   0  0  0  0  0  0  0  0  0  0  0  0
   16.2410   -5.3346    6.4345 C   0  0  0  0  0  0  0  0  0  0  0  0
   17.4397   -6.0420    6.3069 C   0  0  0  0  0  0  0  0  0  0  0  0
   17.4541   -7.3358    5.8192 C   0  0  0  0  0  0  0  0  0  0  0  0
   18.5914   -8.0061    5.7103 N   0  0  0  0  0  0  0  0  0  0  0  0
   18.4349   -5.2528    6.7262 N   0  0  0  0  0  0  0  0  0  0  0  0
   17.9036   -4.0713    7.1108 C   0  0  0  0  0  0  0  0  0  0  0  0
   16.5429   -4.1018    6.9324 N   0  0  0  0  0  0  0  0  0  0  0  0
  2  1  1  1  0  0  0
  2  3  1  0  0  0  0
  2  5  1  0  0  0  0
  3  4  1  0  0  0  0
  3 17  1  0  0  0  0
  5  6  1  0  0  0  0
  7  6  1  1  0  0  0
  7  8  1  0  0  0  0
  7  9  1  0  0  0  0
 10  9  1  1  0  0  0
 10 11  1  0  0  0  0
 10 12  1  0  0  0  0
 11 16  1  0  0  0  0
 12 13  1  6  0  0  0
 12 14  1  0  0  0  0
 14 15  1  1  0  0  0
 14 16  1  0  0  0  0
 16 27  1  1  0  0  0
 18 19  2  0  0  0  0
 18 23  1  0  0  0  0
 19 20  1  0  0  0  0
 20 21  2  0  0  0  0
 21 22  1  0  0  0  0
 21 27  1  0  0  0  0
 22 23  2  0  0  0  0
 22 25  1  0  0  0  0
 23 24  1  0  0  0  0
 25 26  2  0  0  0  0
 26 27  1  0  0  0  0
M  END
>  <CHROM.1>
-170.86980234,63.36221262,110.85168452,-169.05695723,-152.39562733,-48.39504844
106.19261933,15.14357998,-5.67298222,8.29430180,2.05715985,-0.89317594,2.75029007

>  <Name>
ligand

>  <RI>
0

>  <Rbt.Current_Directory>
/home/itssahil/PROJECTS/Mol_Feturizer/Test_systems_manuscript/rnas/2ydh

>  <Rbt.Executable>
rbdock ($Id: //depot/dev/client3/rdock/2013.1/src/exe/rbdock.cxx#4 $)

>  <Rbt.Library>
libRbt.so (2013.1, Build901 2013/11/27)

>  <Rbt.Parameter_File>
/export/apps/rDock/src/rDock_2013.1_src/data/scripts/dock_solv.prm

>  <Rbt.Receptor>
prm/pocket_docking_6.prm

>  <SCORE>
-10.7853

>  <SCORE.INTER>
-12.486

>  <SCORE.INTER.CONST>
1

>  <SCORE.INTER.POLAR>
0

>  <SCORE.INTER.ROT>
7

>  <SCORE.INTER.SOLV>
12.3855

>  <SCORE.INTER.VDW>
-20.7191

>  <SCORE.INTER.norm>
-0.462443

>  <SCORE.INTRA>
1.70065

>  <SCORE.INTRA.DIHEDRAL>
2.67489

>  <SCORE.INTRA.DIHEDRAL.0>
9.75037

>  <SCORE.INTRA.POLAR>
0

>  <SCORE.INTRA.POLAR.0>
0

>  <SCORE.INTRA.REPUL>
0

>  <SCORE.INTRA.REPUL.0>
0

>  <SCORE.INTRA.SOLV>
-0.581701

>  <SCORE.INTRA.SOLV.lig_0>
-48.4279

>  <SCORE.INTRA.VDW>
0.654059

>  <SCORE.INTRA.VDW.0>
-4.69037

>  <SCORE.INTRA.norm>
0.0629871

>  <SCORE.RESTR>
0

>  <SCORE.RESTR.CAVITY>
0

>  <SCORE.RESTR.norm>
0

>  <SCORE.SYSTEM>
0

>  <SCORE.SYSTEM.CONST>
0

>  <SCORE.SYSTEM.DIHEDRAL>
0

>  <SCORE.SYSTEM.SOLV>
0

>  <SCORE.SYSTEM.norm>
0

>  <SCORE.heavy>
27

>  <SCORE.norm>
-0.399456

>  <RMSD>
4.853

$$$$
ligand
 OpenBabel02271912153D
libRbt.so/2013.1/901 2013/11/27
 27 29  0  0  0  0  0  0  0  0999 V2000
   16.1393   -8.9379   13.9472 N   0  0  0  0  0  0  0  0  0  0  0  0
   15.4743   -7.6001   13.8772 C   0  0  2  0  0  0  0  0  0  0  0  0
   14.0145   -7.6782   14.3768 C   0  0  0  0  0  0  0  0  0  0  0  0
   13.2742   -8.6075   14.0408 O   0  0  0  0  0  0  0  0  0  0  0  0
   15.5645   -7.0629   12.4528 C   0  0  0  0  0  0  0  0  0  0  0  0
   14.8759   -5.7252   12.2390 C   0  0  0  0  0  0  0  0  0  0  0  0
   15.1090   -5.0563   10.5671 S   0  0  2  0  0  0  0  0  0  0  0  0
   16.8328   -4.4956   10.6655 C   0  0  0  0  0  0  0  0  0  0  0  0
   14.2070   -3.4998   10.5082 C   0  0  0  0  0  0  0  0  0  0  0  0
   14.3218   -2.9144    9.1137 C   0  0  1  0  0  0  0  0  0  0  0  0
   15.6700   -2.7536    8.7003 O   0  0  0  0  0  0  0  0  0  0  0  0
   13.6460   -3.7924    8.0889 C   0  0  1  0  0  0  0  0  0  0  0  0
   12.2777   -3.5129    8.0101 O   0  0  0  0  0  0  0  0  0  0  0  0
   14.3733   -3.3948    6.8407 C   0  0  1  0  0  0  0  0  0  0  0  0
   13.7310   -2.2722    6.2668 O   0  0  0  0  0  0  0  0  0  0  0  0
   15.7700   -3.0218    7.3208 C   0  0  2  0  0  0  0  0  0  0  0  0
   13.5209   -6.8164   15.1271 O   0  0  0  0  0  0  0  0  0  0  0  0
   16.7326   -7.8481    5.4130 N   0  0  0  0  0  0  0  0  0  0  0  0
   15.5325   -7.1522    5.4015 C   0  0  0  0  0  0  0  0  0  0  0  0
   15.4380   -5.8840    5.9620 N   0  0  0  0  0  0  0  0  0  0  0  0
   16.5326   -5.3207    6.5050 C   0  0  0  0  0  0  0  0  0  0  0  0
   17.7509   -6.0058    6.5089 C   0  0  0  0  0  0  0  0  0  0  0  0
   17.8545   -7.2766    5.9740 C   0  0  0  0  0  0  0  0  0  0  0  0
   19.0087   -7.9263    5.9899 N   0  0  0  0  0  0  0  0  0  0  0  0
   18.6664   -5.2226    7.0897 N   0  0  0  0  0  0  0  0  0  0  0  0
   18.0664   -4.0663    7.4490 C   0  0  0  0  0  0  0  0  0  0  0  0
   16.7421   -4.1070    7.0896 N   0  0  0  0  0  0  0  0  0  0  0  0
  2  1  1  6  0  0  0
  2  3  1  0  0  0  0
  2  5  1  0  0  0  0
  3  4  1  0  0  0  0
  3 17  1  0  0  0  0
  5  6  1  0  0  0  0
  7  6  1  1  0  0  0
  7  8  1  0  0  0  0
  7  9  1  0  0  0  0
 10  9  1  1  0  0  0
 10 11  1  0  0  0  0
 10 12  1  0  0  0  0
 11 16  1  0  0  0  0
 12 13  1  6  0  0  0
 12 14  1  0  0  0  0
 14 15  1  1  0  0  0
 14 16  1  0  0  0  0
 16 27  1  1  0  0  0
 18 19  2  0  0  0  0
 18 23  1  0  0  0  0
 19 20  1  0  0  0  0
 20 21  2  0  0  0  0
 21 22  1  0  0  0  0
 21 27  1  0  0  0  0
 22 23  2  0  0  0  0
 22 25  1  0  0  0  0
 23 24  1  0  0  0  0
 25 26  2  0  0  0  0
 26 27  1  0  0  0  0
M  END
>  <CHROM.1>
-43.47320338,177.82242284,175.66176979,-74.60628401,-177.93343677,-55.58261939
119.87224168,15.50889617,-5.43322832,9.24356778,-1.93174460,0.85560504,-0.99511562

>  <Name>
ligand

>  <RI>
0

>  <Rbt.Current_Directory>
/home/itssahil/PROJECTS/Mol_Feturizer/Test_systems_manuscript/rnas/2ydh

>  <Rbt.Executable>
rbdock ($Id: //depot/dev/client3/rdock/2013.1/src/exe/rbdock.cxx#4 $)

>  <Rbt.Library>
libRbt.so (2013.1, Build901 2013/11/27)

>  <Rbt.Parameter_File>
/export/apps/rDock/src/rDock_2013.1_src/data/scripts/dock_solv.prm

>  <Rbt.Receptor>
prm/pocket_docking_5.prm

>  <SCORE>
-13.1347

>  <SCORE.INTER>
-11.9149

>  <SCORE.INTER.CONST>
1

>  <SCORE.INTER.POLAR>
0

>  <SCORE.INTER.ROT>
7

>  <SCORE.INTER.SOLV>
13.4082

>  <SCORE.INTER.VDW>
-20.6794

>  <SCORE.INTER.norm>
-0.441294

>  <SCORE.INTRA>
-1.21976

>  <SCORE.INTRA.DIHEDRAL>
-6.13497

>  <SCORE.INTRA.DIHEDRAL.0>
9.75037

>  <SCORE.INTRA.POLAR>
0

>  <SCORE.INTRA.POLAR.0>
0

>  <SCORE.INTRA.REPUL>
0

>  <SCORE.INTRA.REPUL.0>
0

>  <SCORE.INTRA.SOLV>
-1.27664

>  <SCORE.INTRA.SOLV.lig_0>
-48.4279

>  <SCORE.INTRA.VDW>
2.48604

>  <SCORE.INTRA.VDW.0>
-4.69037

>  <SCORE.INTRA.norm>
-0.0451764

>  <SCORE.RESTR>
0

>  <SCORE.RESTR.CAVITY>
0

>  <SCORE.RESTR.norm>
0

>  <SCORE.SYSTEM>
0

>  <SCORE.SYSTEM.CONST>
0

>  <SCORE.SYSTEM.DIHEDRAL>
0

>  <SCORE.SYSTEM.SOLV>
0

>  <SCORE.SYSTEM.norm>
0

>  <SCORE.heavy>
27

>  <SCORE.norm>
-0.48647

>  <RMSD>
4.886

$$$$
ligand
 OpenBabel02271912153D
libRbt.so/2013.1/901 2013/11/27
 27 29  0  0  0  0  0  0  0  0999 V2000
   16.4413   -8.9333   13.8195 N   0  0  0  0  0  0  0  0  0  0  0  0
   15.6918   -7.6402   13.7642 C   0  0  2  0  0  0  0  0  0  0  0  0
   14.2490   -7.8112   14.2893 C   0  0  0  0  0  0  0  0  0  0  0  0
   13.6180   -8.8542   14.0926 O   0  0  0  0  0  0  0  0  0  0  0  0
   15.7225   -7.0967   12.3397 C   0  0  0  0  0  0  0  0  0  0  0  0
   14.9744   -5.7879   12.1484 C   0  0  0  0  0  0  0  0  0  0  0  0
   15.1843   -5.0761   10.4912 S   0  0  2  0  0  0  0  0  0  0  0  0
   16.8936   -4.4738   10.5969 C   0  0  0  0  0  0  0  0  0  0  0  0
   14.2427   -3.5422   10.4699 C   0  0  0  0  0  0  0  0  0  0  0  0
   14.3150   -2.9370    9.0810 C   0  0  1  0  0  0  0  0  0  0  0  0
   15.6493   -2.7901    8.6202 O   0  0  0  0  0  0  0  0  0  0  0  0
   13.5881   -3.7887    8.0691 C   0  0  1  0  0  0  0  0  0  0  0  0
   12.2224   -3.4875    8.0455 O   0  0  0  0  0  0  0  0  0  0  0  0
   14.2749   -3.3827    6.8008 C   0  0  1  0  0  0  0  0  0  0  0  0
   13.6293   -2.2419    6.2680 O   0  0  0  0  0  0  0  0  0  0  0  0
   15.6941   -3.0383    7.2341 C   0  0  2  0  0  0  0  0  0  0  0  0
   13.6605   -6.9154   14.9222 O   0  0  0  0  0  0  0  0  0  0  0  0
   16.4799   -7.9125    5.3676 N   0  0  0  0  0  0  0  0  0  0  0  0
   15.2857   -7.2099    5.4366 C   0  0  0  0  0  0  0  0  0  0  0  0
   15.2418   -5.9287    5.9733 N   0  0  0  0  0  0  0  0  0  0  0  0
   16.3789   -5.3597    6.4131 C   0  0  0  0  0  0  0  0  0  0  0  0
   17.5908   -6.0517    6.3349 C   0  0  0  0  0  0  0  0  0  0  0  0
   17.6457   -7.3351    5.8230 C   0  0  0  0  0  0  0  0  0  0  0  0
   18.7948   -7.9910    5.7611 N   0  0  0  0  0  0  0  0  0  0  0  0
   18.5534   -5.2609    6.8218 N   0  0  0  0  0  0  0  0  0  0  0  0
   17.9890   -4.0932    7.2012 C   0  0  0  0  0  0  0  0  0  0  0  0
   16.6399   -4.1342    6.9507 N   0  0  0  0  0  0  0  0  0  0  0  0
  2  1  1  6  0  0  0
  2  3  1  0  0  0  0
  2  5  1  0  0  0  0
  3  4  1  0  0  0  0
  3 17  1  0  0  0  0
  5  6  1  0  0  0  0
  7  6  1  1  0  0  0
  7  8  1  0  0  0  0
  7  9  1  0  0  0  0
 10  9  1  1  0  0  0
 10 11  1  0  0  0  0
 10 12  1  0  0  0  0
 11 16  1  0  0  0  0
 12 13  1  6  0  0  0
 12 14  1  0  0  0  0
 14 15  1  1  0  0  0
 14 16  1  0  0  0  0
 16 27  1  1  0  0  0
 18 19  2  0  0  0  0
 18 23  1  0  0  0  0
 19 20  1  0  0  0  0
 20 21  2  0  0  0  0
 21 22  1  0  0  0  0
 21 27  1  0  0  0  0
 22 23  2  0  0  0  0
 22 25  1  0  0  0  0
 23 24  1  0  0  0  0
 25 26  2  0  0  0  0
 26 27  1  0  0  0  0
M  END
>  <CHROM.1>
-35.02895692,179.19882210,173.60612930,-73.34616918,-176.83352921,-53.05771558
116.49784757,15.50021229,-5.47402821,9.15753803,-1.86099984,0.88921507,-1.02475592

>  <Name>
ligand

>  <RI>
0

>  <Rbt.Current_Directory>
/home/itssahil/PROJECTS/Mol_Feturizer/Test_systems_manuscript/rnas/2ydh

>  <Rbt.Executable>
rbdock ($Id: //depot/dev/client3/rdock/2013.1/src/exe/rbdock.cxx#4 $)

>  <Rbt.Library>
libRbt.so (2013.1, Build901 2013/11/27)

>  <Rbt.Parameter_File>
/export/apps/rDock/src/rDock_2013.1_src/data/scripts/dock_solv.prm

>  <Rbt.Receptor>
prm/pocket_docking_6.prm

>  <SCORE>
-12.9522

>  <SCORE.INTER>
-11.7544

>  <SCORE.INTER.CONST>
1

>  <SCORE.INTER.POLAR>
0

>  <SCORE.INTER.ROT>
7

>  <SCORE.INTER.SOLV>
14.2907

>  <SCORE.INTER.VDW>
-20.8665

>  <SCORE.INTER.norm>
-0.435348

>  <SCORE.INTRA>
-1.1978

>  <SCORE.INTRA.DIHEDRAL>
-5.96363

>  <SCORE.INTRA.DIHEDRAL.0>
9.75037

>  <SCORE.INTRA.POLAR>
0

>  <SCORE.INTRA.POLAR.0>
0

>  <SCORE.INTRA.REPUL>
0

>  <SCORE.INTRA.REPUL.0>
0

>  <SCORE.INTRA.SOLV>
-1.27602

>  <SCORE.INTRA.SOLV.lig_0>
-48.4279

>  <SCORE.INTRA.VDW>
2.42203

>  <SCORE.INTRA.VDW.0>
-4.69037

>  <SCORE.INTRA.norm>
-0.0443629

>  <SCORE.RESTR>
0

>  <SCORE.RESTR.CAVITY>
0

>  <SCORE.RESTR.norm>
0

>  <SCORE.SYSTEM>
0

>  <SCORE.SYSTEM.CONST>
0

>  <SCORE.SYSTEM.DIHEDRAL>
0

>  <SCORE.SYSTEM.SOLV>
0

>  <SCORE.SYSTEM.norm>
0

>  <SCORE.heavy>
27

>  <SCORE.norm>
-0.479711

>  <RMSD>
4.888

$$$$
ligand
 OpenBabel02271912153D
libRbt.so/2013.1/901 2013/11/27
 27 29  0  0  0  0  0  0  0  0999 V2000
   15.1440   -4.9169   12.6038 N   0  0  0  0  0  0  0  0  0  0  0  0
   13.9141   -4.8363   11.7568 C   0  0  2  0  0  0  0  0  0  0  0  0
   12.9761   -6.0345   12.0234 C   0  0  0  0  0  0  0  0  0  0  0  0
   11.7757   -5.9806   11.7389 O   0  0  0  0  0  0  0  0  0  0  0  0
   14.3148   -4.7380   10.2887 C   0  0  0  0  0  0  0  0  0  0  0  0
   14.9457   -3.4127    9.8951 C   0  0  0  0  0  0  0  0  0  0  0  0
   15.4395   -3.3425    8.1492 S   0  0  2  0  0  0  0  0  0  0  0  0
   15.8572   -1.5833    7.9874 C   0  0  0  0  0  0  0  0  0  0  0  0
   13.9252   -3.4627    7.1837 C   0  0  0  0  0  0  0  0  0  0  0  0
   13.8857   -4.8121    6.4921 C   0  0  1  0  0  0  0  0  0  0  0  0
   15.0165   -5.0321    5.6633 O   0  0  0  0  0  0  0  0  0  0  0  0
   13.8414   -5.9431    7.4904 C   0  0  1  0  0  0  0  0  0  0  0  0
   12.5294   -6.2013    7.9010 O   0  0  0  0  0  0  0  0  0  0  0  0
   14.4081   -7.0685    6.6797 C   0  0  1  0  0  0  0  0  0  0  0  0
   13.3628   -7.6949    5.9605 O   0  0  0  0  0  0  0  0  0  0  0  0
   15.3817   -6.3916    5.7236 C   0  0  2  0  0  0  0  0  0  0  0  0
   13.3797   -7.0946   12.5359 O   0  0  0  0  0  0  0  0  0  0  0  0
   19.9076   -9.1048    5.6115 N   0  0  0  0  0  0  0  0  0  0  0  0
   18.7251   -9.3944    4.9464 C   0  0  0  0  0  0  0  0  0  0  0  0
   17.6073   -8.5815    5.0920 N   0  0  0  0  0  0  0  0  0  0  0  0
   17.6843   -7.4900    5.8749 C   0  0  0  0  0  0  0  0  0  0  0  0
   18.8748   -7.1795    6.5381 C   0  0  0  0  0  0  0  0  0  0  0  0
   19.9882   -7.9909    6.4193 C   0  0  0  0  0  0  0  0  0  0  0  0
   21.1109   -7.6984    7.0585 N   0  0  0  0  0  0  0  0  0  0  0  0
   18.6839   -6.0498    7.2282 N   0  0  0  0  0  0  0  0  0  0  0  0
   17.4142   -5.6369    7.0196 C   0  0  0  0  0  0  0  0  0  0  0  0
   16.7795   -6.5162    6.1779 N   0  0  0  0  0  0  0  0  0  0  0  0
  2  1  1  1  0  0  0
  2  3  1  0  0  0  0
  2  5  1  0  0  0  0
  3  4  1  0  0  0  0
  3 17  1  0  0  0  0
  5  6  1  0  0  0  0
  7  6  1  1  0  0  0
  7  8  1  0  0  0  0
  7  9  1  0  0  0  0
 10  9  1  1  0  0  0
 10 11  1  0  0  0  0
 10 12  1  0  0  0  0
 11 16  1  0  0  0  0
 12 13  1  6  0  0  0
 12 14  1  0  0  0  0
 14 15  1  6  0  0  0
 14 16  1  0  0  0  0
 16 27  1  1  0  0  0
 18 19  2  0  0  0  0
 18 23  1  0  0  0  0
 19 20  1  0  0  0  0
 20 21  2  0  0  0  0
 21 22  1  0  0  0  0
 21 27  1  0  0  0  0
 22 23  2  0  0  0  0
 22 25  1  0  0  0  0
 23 24  1  0  0  0  0
 25 26  2  0  0  0  0
 26 27  1  0  0  0  0
M  END
>  <CHROM.1>
159.12109342,-70.55865873,178.88080215,170.58726389,-109.61469523,-57.29781584
-150.30878784,15.69063531,-5.91679350,7.91551852,-2.58441777,0.63580603,-1.34933141

>  <Name>
ligand

>  <RI>
0

>  <Rbt.Current_Directory>
/home/itssahil/PROJECTS/Mol_Feturizer/Test_systems_manuscript/rnas/2ydh

>  <Rbt.Executable>
rbdock ($Id: //depot/dev/client3/rdock/2013.1/src/exe/rbdock.cxx#4 $)

>  <Rbt.Library>
libRbt.so (2013.1, Build901 2013/11/27)

>  <Rbt.Parameter_File>
/export/apps/rDock/src/rDock_2013.1_src/data/scripts/dock_solv.prm

>  <Rbt.Receptor>
prm/pocket_docking_8.prm

>  <SCORE>
-12.7406

>  <SCORE.INTER>
-12.4333

>  <SCORE.INTER.CONST>
1

>  <SCORE.INTER.POLAR>
0

>  <SCORE.INTER.ROT>
7

>  <SCORE.INTER.SOLV>
11.8153

>  <SCORE.INTER.VDW>
-20.494

>  <SCORE.INTER.norm>
-0.460492

>  <SCORE.INTRA>
-0.307284

>  <SCORE.INTRA.DIHEDRAL>
-2.69247

>  <SCORE.INTRA.DIHEDRAL.0>
9.75037

>  <SCORE.INTRA.POLAR>
0

>  <SCORE.INTRA.POLAR.0>
0

>  <SCORE.INTRA.REPUL>
0

>  <SCORE.INTRA.REPUL.0>
0

>  <SCORE.INTRA.SOLV>
-0.414936

>  <SCORE.INTRA.SOLV.lig_0>
-48.4279

>  <SCORE.INTRA.VDW>
1.24642

>  <SCORE.INTRA.VDW.0>
-4.69037

>  <SCORE.INTRA.norm>
-0.0113809

>  <SCORE.RESTR>
0

>  <SCORE.RESTR.CAVITY>
0

>  <SCORE.RESTR.norm>
0

>  <SCORE.SYSTEM>
0

>  <SCORE.SYSTEM.CONST>
0

>  <SCORE.SYSTEM.DIHEDRAL>
0

>  <SCORE.SYSTEM.SOLV>
0

>  <SCORE.SYSTEM.norm>
0

>  <SCORE.heavy>
27

>  <SCORE.norm>
-0.471873

>  <RMSD>
4.892

$$$$
ligand
 OpenBabel02271912153D
libRbt.so/2013.1/901 2013/11/27
 27 29  0  0  0  0  0  0  0  0999 V2000
   11.5039   -7.9460   12.6859 N   0  0  0  0  0  0  0  0  0  0  0  0
   11.9714   -8.4868   11.3723 C   0  0  2  0  0  0  0  0  0  0  0  0
   12.9220   -9.6881   11.5723 C   0  0  0  0  0  0  0  0  0  0  0  0
   13.1895  -10.4520   10.6398 O   0  0  0  0  0  0  0  0  0  0  0  0
   12.6234   -7.3683   10.5664 C   0  0  0  0  0  0  0  0  0  0  0  0
   13.8399   -6.7420   11.2274 C   0  0  0  0  0  0  0  0  0  0  0  0
   14.7202   -5.5736   10.1518 S   0  0  2  0  0  0  0  0  0  0  0  0
   16.1890   -5.2272   11.1609 C   0  0  0  0  0  0  0  0  0  0  0  0
   13.8217   -4.0167   10.2434 C   0  0  0  0  0  0  0  0  0  0  0  0
   14.1253   -3.1971    9.0037 C   0  0  1  0  0  0  0  0  0  0  0  0
   15.5174   -3.0907    8.7490 O   0  0  0  0  0  0  0  0  0  0  0  0
   13.4949   -3.8028    7.7734 C   0  0  1  0  0  0  0  0  0  0  0  0
   12.1674   -3.3855    7.6304 O   0  0  0  0  0  0  0  0  0  0  0  0
   14.3762   -3.2518    6.6942 C   0  0  1  0  0  0  0  0  0  0  0  0
   13.8844   -1.9869    6.2938 O   0  0  0  0  0  0  0  0  0  0  0  0
   15.7397   -3.1076    7.3579 C   0  0  2  0  0  0  0  0  0  0  0  0
   13.4515   -9.9424   12.6697 O   0  0  0  0  0  0  0  0  0  0  0  0
   16.3334   -7.9252    5.2852 N   0  0  0  0  0  0  0  0  0  0  0  0
   15.1626   -7.1920    5.4126 C   0  0  0  0  0  0  0  0  0  0  0  0
   15.1703   -5.9321    5.9992 N   0  0  0  0  0  0  0  0  0  0  0  0
   16.3345   -5.4136    6.4304 C   0  0  0  0  0  0  0  0  0  0  0  0
   17.5230   -6.1365    6.2937 C   0  0  0  0  0  0  0  0  0  0  0  0
   17.5269   -7.3997    5.7315 C   0  0  0  0  0  0  0  0  0  0  0  0
   18.6541   -8.0854    5.6141 N   0  0  0  0  0  0  0  0  0  0  0  0
   18.5206   -5.3933    6.7851 N   0  0  0  0  0  0  0  0  0  0  0  0
   18.0008   -4.2256    7.2239 C   0  0  0  0  0  0  0  0  0  0  0  0
   16.6452   -4.2182    7.0076 N   0  0  0  0  0  0  0  0  0  0  0  0
  2  1  1  1  0  0  0
  2  3  1  0  0  0  0
  2  5  1  0  0  0  0
  3  4  1  0  0  0  0
  3 17  1  0  0  0  0
  5  6  1  0  0  0  0
  7  6  1  1  0  0  0
  7  8  1  0  0  0  0
  7  9  1  0  0  0  0
 10  9  1  1  0  0  0
 10 11  1  0  0  0  0
 10 12  1  0  0  0  0
 11 16  1  0  0  0  0
 12 13  1  6  0  0  0
 12 14  1  0  0  0  0
 14 15  1  1  0  0  0
 14 16  1  0  0  0  0
 16 27  1  1  0  0  0
 18 19  2  0  0  0  0
 18 23  1  0  0  0  0
 19 20  1  0  0  0  0
 20 21  2  0  0  0  0
 21 22  1  0  0  0  0
 21 27  1  0  0  0  0
 22 23  2  0  0  0  0
 22 25  1  0  0  0  0
 23 24  1  0  0  0  0
 25 26  2  0  0  0  0
 26 27  1  0  0  0  0
M  END
>  <CHROM.1>
164.25615513,60.79171104,172.30547911,-172.48741590,-157.30337022,-50.19656399
104.23639551,14.87341196,-5.87139033,8.57583866,2.33833635,-0.81863591,2.80789930

>  <Name>
ligand

>  <RI>
0

>  <Rbt.Current_Directory>
/home/itssahil/PROJECTS/Mol_Feturizer/Test_systems_manuscript/rnas/2ydh

>  <Rbt.Executable>
rbdock ($Id: //depot/dev/client3/rdock/2013.1/src/exe/rbdock.cxx#4 $)

>  <Rbt.Library>
libRbt.so (2013.1, Build901 2013/11/27)

>  <Rbt.Parameter_File>
/export/apps/rDock/src/rDock_2013.1_src/data/scripts/dock_solv.prm

>  <Rbt.Receptor>
prm/pocket_docking_4.prm

>  <SCORE>
-13.2372

>  <SCORE.INTER>
-12.6537

>  <SCORE.INTER.CONST>
1

>  <SCORE.INTER.POLAR>
0

>  <SCORE.INTER.ROT>
7

>  <SCORE.INTER.SOLV>
12.8721

>  <SCORE.INTER.VDW>
-20.9932

>  <SCORE.INTER.norm>
-0.468656

>  <SCORE.INTRA>
-0.583513

>  <SCORE.INTRA.DIHEDRAL>
-3.33626

>  <SCORE.INTRA.DIHEDRAL.0>
9.75037

>  <SCORE.INTRA.POLAR>
0

>  <SCORE.INTRA.POLAR.0>
0

>  <SCORE.INTRA.REPUL>
0

>  <SCORE.INTRA.REPUL.0>
0

>  <SCORE.INTRA.SOLV>
-0.603506

>  <SCORE.INTRA.SOLV.lig_0>
-48.4279

>  <SCORE.INTRA.VDW>
1.38637

>  <SCORE.INTRA.VDW.0>
-4.69037

>  <SCORE.INTRA.norm>
-0.0216116

>  <SCORE.RESTR>
0

>  <SCORE.RESTR.CAVITY>
0

>  <SCORE.RESTR.norm>
0

>  <SCORE.SYSTEM>
0

>  <SCORE.SYSTEM.CONST>
0

>  <SCORE.SYSTEM.DIHEDRAL>
0

>  <SCORE.SYSTEM.SOLV>
0

>  <SCORE.SYSTEM.norm>
0

>  <SCORE.heavy>
27

>  <SCORE.norm>
-0.490268

>  <RMSD>
4.899

$$$$
ligand
 OpenBabel02271912153D
libRbt.so/2013.1/901 2013/11/27
 27 29  0  0  0  0  0  0  0  0999 V2000
   16.3023   -6.5628   11.9796 N   0  0  0  0  0  0  0  0  0  0  0  0
   16.1355   -5.0978   12.2300 C   0  0  2  0  0  0  0  0  0  0  0  0
   14.6757   -4.7611   12.6073 C   0  0  0  0  0  0  0  0  0  0  0  0
   14.0964   -5.3642   13.5158 O   0  0  0  0  0  0  0  0  0  0  0  0
   16.6057   -4.3175   11.0070 C   0  0  0  0  0  0  0  0  0  0  0  0
   15.6712   -4.3966    9.8114 C   0  0  0  0  0  0  0  0  0  0  0  0
   16.3306   -3.5815    8.3289 S   0  0  2  0  0  0  0  0  0  0  0  0
   16.5961   -1.8997    8.9587 C   0  0  0  0  0  0  0  0  0  0  0  0
   14.9399   -3.3519    7.2095 C   0  0  0  0  0  0  0  0  0  0  0  0
   14.7840   -4.5942    6.3534 C   0  0  1  0  0  0  0  0  0  0  0  0
   15.5611   -5.6830    6.8277 O   0  0  0  0  0  0  0  0  0  0  0  0
   13.3488   -5.0593    6.3116 C   0  0  1  0  0  0  0  0  0  0  0  0
   12.6283   -4.3812    5.3228 O   0  0  0  0  0  0  0  0  0  0  0  0
   13.5234   -6.5108    5.9835 C   0  0  1  0  0  0  0  0  0  0  0  0
   13.5887   -6.6646    4.5784 O   0  0  0  0  0  0  0  0  0  0  0  0
   14.8545   -6.8845    6.6229 C   0  0  2  0  0  0  0  0  0  0  0  0
   14.0218   -3.8814   12.0176 O   0  0  0  0  0  0  0  0  0  0  0  0
   12.3568   -7.1634   11.2643 N   0  0  0  0  0  0  0  0  0  0  0  0
   12.1748   -6.2295   10.2546 C   0  0  0  0  0  0  0  0  0  0  0  0
   12.9276   -6.2847    9.0877 N   0  0  0  0  0  0  0  0  0  0  0  0
   13.8303   -7.2702    8.9325 C   0  0  0  0  0  0  0  0  0  0  0  0
   14.0119   -8.2258    9.9362 C   0  0  0  0  0  0  0  0  0  0  0  0
   13.2851   -8.1707   11.1112 C   0  0  0  0  0  0  0  0  0  0  0  0
   13.4686   -9.0723   12.0641 N   0  0  0  0  0  0  0  0  0  0  0  0
   14.9475   -9.0885    9.5246 N   0  0  0  0  0  0  0  0  0  0  0  0
   15.3590   -8.7100    8.2943 C   0  0  0  0  0  0  0  0  0  0  0  0
   14.6730   -7.5855    7.9081 N   0  0  0  0  0  0  0  0  0  0  0  0
  2  1  1  6  0  0  0
  2  3  1  0  0  0  0
  2  5  1  0  0  0  0
  3  4  1  0  0  0  0
  3 17  1  0  0  0  0
  5  6  1  0  0  0  0
  7  6  1  1  0  0  0
  7  8  1  0  0  0  0
  7  9  1  0  0  0  0
 10  9  1  1  0  0  0
 10 11  1  0  0  0  0
 10 12  1  0  0  0  0
 11 16  1  0  0  0  0
 12 13  1  6  0  0  0
 12 14  1  0  0  0  0
 14 15  1  6  0  0  0
 14 16  1  0  0  0  0
 16 27  1  1  0  0  0
 18 19  2  0  0  0  0
 18 23  1  0  0  0  0
 19 20  1  0  0  0  0
 20 21  2  0  0  0  0
 21 22  1  0  0  0  0
 21 27  1  0  0  0  0
 22 23  2  0  0  0  0
 22 25  1  0  0  0  0
 23 24  1  0  0  0  0
 25 26  2  0  0  0  0
 26 27  1  0  0  0  0
M  END
>  <CHROM.1>
52.27102744,72.92113767,-174.86089306,-57.51712537,-87.66729866,12.10378449
73.63355041,14.56668507,-5.78020192,9.11839664,-1.49277119,-1.11529018,-1.34324878

>  <Name>
ligand

>  <RI>
0

>  <Rbt.Current_Directory>
/home/itssahil/PROJECTS/Mol_Feturizer/Test_systems_manuscript/rnas/2ydh

>  <Rbt.Executable>
rbdock ($Id: //depot/dev/client3/rdock/2013.1/src/exe/rbdock.cxx#4 $)

>  <Rbt.Library>
libRbt.so (2013.1, Build901 2013/11/27)

>  <Rbt.Parameter_File>
/export/apps/rDock/src/rDock_2013.1_src/data/scripts/dock_solv.prm

>  <Rbt.Receptor>
prm/pocket_docking_2.prm

>  <SCORE>
-7.78139

>  <SCORE.INTER>
-10.9026

>  <SCORE.INTER.CONST>
1

>  <SCORE.INTER.POLAR>
0

>  <SCORE.INTER.ROT>
7

>  <SCORE.INTER.SOLV>
9.15322

>  <SCORE.INTER.VDW>
-18.5861

>  <SCORE.INTER.norm>
-0.4038

>  <SCORE.INTRA>
2.03801

>  <SCORE.INTRA.DIHEDRAL>
0.144711

>  <SCORE.INTRA.DIHEDRAL.0>
9.75037

>  <SCORE.INTRA.POLAR>
0

>  <SCORE.INTRA.POLAR.0>
0

>  <SCORE.INTRA.REPUL>
0

>  <SCORE.INTRA.REPUL.0>
0

>  <SCORE.INTRA.SOLV>
0.968704

>  <SCORE.INTRA.SOLV.lig_0>
-48.4279

>  <SCORE.INTRA.VDW>
1.48131

>  <SCORE.INTRA.VDW.0>
-4.69037

>  <SCORE.INTRA.norm>
0.0754819

>  <SCORE.RESTR>
1.08319

>  <SCORE.RESTR.CAVITY>
1.08319

>  <SCORE.RESTR.norm>
0.0401183

>  <SCORE.SYSTEM>
0

>  <SCORE.SYSTEM.CONST>
0

>  <SCORE.SYSTEM.DIHEDRAL>
0

>  <SCORE.SYSTEM.SOLV>
0

>  <SCORE.SYSTEM.norm>
0

>  <SCORE.heavy>
27

>  <SCORE.norm>
-0.2882

>  <RMSD>
4.906

$$$$
ligand
 OpenBabel02271912153D
libRbt.so/2013.1/901 2013/11/27
 27 29  0  0  0  0  0  0  0  0999 V2000
   13.8834   -7.4195   12.9219 N   0  0  0  0  0  0  0  0  0  0  0  0
   14.6315   -7.8323   11.6945 C   0  0  2  0  0  0  0  0  0  0  0  0
   14.2713   -9.2773   11.2837 C   0  0  0  0  0  0  0  0  0  0  0  0
   14.6305   -9.7397   10.1965 O   0  0  0  0  0  0  0  0  0  0  0  0
   16.1282   -7.6600   11.9309 C   0  0  0  0  0  0  0  0  0  0  0  0
   16.5929   -6.2148   12.0007 C   0  0  0  0  0  0  0  0  0  0  0  0
   16.3561   -5.3081   10.4455 S   0  0  2  0  0  0  0  0  0  0  0  0
   17.6004   -3.9986   10.6258 C   0  0  0  0  0  0  0  0  0  0  0  0
   14.8155   -4.3930   10.6159 C   0  0  0  0  0  0  0  0  0  0  0  0
   14.1193   -4.3421    9.2693 C   0  0  1  0  0  0  0  0  0  0  0  0
   14.9987   -3.9820    8.2152 O   0  0  0  0  0  0  0  0  0  0  0  0
   13.5182   -5.6784    8.9077 C   0  0  1  0  0  0  0  0  0  0  0  0
   12.2474   -5.8285    9.4727 O   0  0  0  0  0  0  0  0  0  0  0  0
   13.4603   -5.5762    7.4139 C   0  0  1  0  0  0  0  0  0  0  0  0
   12.2456   -4.9555    7.0378 O   0  0  0  0  0  0  0  0  0  0  0  0
   14.6458   -4.6915    7.0503 C   0  0  2  0  0  0  0  0  0  0  0  0
   13.6063  -10.0317   12.0172 O   0  0  0  0  0  0  0  0  0  0  0  0
   16.4213   -9.0995    4.7533 N   0  0  0  0  0  0  0  0  0  0  0  0
   15.1056   -8.7490    5.0194 C   0  0  0  0  0  0  0  0  0  0  0  0
   14.8006   -7.5480    5.6487 N   0  0  0  0  0  0  0  0  0  0  0  0
   15.7973   -6.7094    5.9854 C   0  0  0  0  0  0  0  0  0  0  0  0
   17.1257   -7.0445    5.7088 C   0  0  0  0  0  0  0  0  0  0  0  0
   17.4453   -8.2454    5.1024 C   0  0  0  0  0  0  0  0  0  0  0  0
   18.7065   -8.5635    4.8522 N   0  0  0  0  0  0  0  0  0  0  0  0
   17.9039   -6.0413    6.1295 N   0  0  0  0  0  0  0  0  0  0  0  0
   17.1101   -5.0845    6.6591 C   0  0  0  0  0  0  0  0  0  0  0  0
   15.7982   -5.4796    6.5741 N   0  0  0  0  0  0  0  0  0  0  0  0
  2  1  1  1  0  0  0
  2  3  1  0  0  0  0
  2  5  1  0  0  0  0
  3  4  1  0  0  0  0
  3 17  1  0  0  0  0
  5  6  1  0  0  0  0
  7  6  1  1  0  0  0
  7  8  1  0  0  0  0
  7  9  1  0  0  0  0
 10  9  1  1  0  0  0
 10 11  1  0  0  0  0
 10 12  1  0  0  0  0
 11 16  1  0  0  0  0
 12 13  1  1  0  0  0
 12 14  1  0  0  0  0
 14 15  1  1  0  0  0
 14 16  1  0  0  0  0
 16 27  1  1  0  0  0
 18 19  2  0  0  0  0
 18 23  1  0  0  0  0
 19 20  1  0  0  0  0
 20 21  2  0  0  0  0
 21 22  1  0  0  0  0
 21 27  1  0  0  0  0
 22 23  2  0  0  0  0
 22 25  1  0  0  0  0
 23 24  1  0  0  0  0
 25 26  2  0  0  0  0
 26 27  1  0  0  0  0
M  END
>  <CHROM.1>
169.52296602,-70.59071412,-63.84501415,-156.35249263,-145.20787286,-46.89573677
144.49819628,15.33091776,-6.57178253,8.60092253,-2.90570692,1.26246029,-0.27515266

>  <Name>
ligand

>  <RI>
0

>  <Rbt.Current_Directory>
/home/itssahil/PROJECTS/Mol_Feturizer/Test_systems_manuscript/rnas/2ydh

>  <Rbt.Executable>
rbdock ($Id: //depot/dev/client3/rdock/2013.1/src/exe/rbdock.cxx#4 $)

>  <Rbt.Library>
libRbt.so (2013.1, Build901 2013/11/27)

>  <Rbt.Parameter_File>
/export/apps/rDock/src/rDock_2013.1_src/data/scripts/dock_solv.prm

>  <Rbt.Receptor>
prm/pocket_docking_3.prm

>  <SCORE>
-5.0791

>  <SCORE.INTER>
-7.25953

>  <SCORE.INTER.CONST>
1

>  <SCORE.INTER.POLAR>
0

>  <SCORE.INTER.ROT>
7

>  <SCORE.INTER.SOLV>
10.2523

>  <SCORE.INTER.VDW>
-16.5238

>  <SCORE.INTER.norm>
-0.268871

>  <SCORE.INTRA>
1.28539

>  <SCORE.INTRA.DIHEDRAL>
0.238082

>  <SCORE.INTRA.DIHEDRAL.0>
9.75037

>  <SCORE.INTRA.POLAR>
0

>  <SCORE.INTRA.POLAR.0>
0

>  <SCORE.INTRA.REPUL>
0

>  <SCORE.INTRA.REPUL.0>
0

>  <SCORE.INTRA.SOLV>
0.761079

>  <SCORE.INTRA.SOLV.lig_0>
-48.4279

>  <SCORE.INTRA.VDW>
0.785813

>  <SCORE.INTRA.VDW.0>
-4.69037

>  <SCORE.INTRA.norm>
0.0476072

>  <SCORE.RESTR>
0.895027

>  <SCORE.RESTR.CAVITY>
0.895027

>  <SCORE.RESTR.norm>
0.0331492

>  <SCORE.SYSTEM>
0

>  <SCORE.SYSTEM.CONST>
0

>  <SCORE.SYSTEM.DIHEDRAL>
0

>  <SCORE.SYSTEM.SOLV>
0

>  <SCORE.SYSTEM.norm>
0

>  <SCORE.heavy>
27

>  <SCORE.norm>
-0.188115

>  <RMSD>
4.918

$$$$
ligand
 OpenBabel02271912153D
libRbt.so/2013.1/901 2013/11/27
 27 29  0  0  0  0  0  0  0  0999 V2000
   14.6193   -4.9797   12.5343 N   0  0  0  0  0  0  0  0  0  0  0  0
   13.4596   -4.9583   11.5902 C   0  0  2  0  0  0  0  0  0  0  0  0
   12.5632   -6.2017   11.7827 C   0  0  0  0  0  0  0  0  0  0  0  0
   11.3445   -6.1450   11.5925 O   0  0  0  0  0  0  0  0  0  0  0  0
   13.9728   -4.8379   10.1592 C   0  0  0  0  0  0  0  0  0  0  0  0
   14.6233   -3.5038    9.8332 C   0  0  0  0  0  0  0  0  0  0  0  0
   15.4513   -3.4841    8.2173 S   0  0  2  0  0  0  0  0  0  0  0  0
   15.7928   -1.7105    8.0350 C   0  0  0  0  0  0  0  0  0  0  0  0
   14.1699   -3.7522    6.9821 C   0  0  0  0  0  0  0  0  0  0  0  0
   14.4163   -5.0817    6.2947 C   0  0  1  0  0  0  0  0  0  0  0  0
   15.6999   -5.1539    5.6936 O   0  0  0  0  0  0  0  0  0  0  0  0
   14.3169   -6.2324    7.2663 C   0  0  1  0  0  0  0  0  0  0  0  0
   12.9899   -6.6464    7.4222 O   0  0  0  0  0  0  0  0  0  0  0  0
   15.1511   -7.2681    6.5762 C   0  0  1  0  0  0  0  0  0  0  0  0
   14.3380   -7.9926    5.6726 O   0  0  0  0  0  0  0  0  0  0  0  0
   16.2016   -6.4642    5.8208 C   0  0  2  0  0  0  0  0  0  0  0  0
   13.0204   -7.3032   12.1391 O   0  0  0  0  0  0  0  0  0  0  0  0
   20.8345   -8.8044    6.7792 N   0  0  0  0  0  0  0  0  0  0  0  0
   19.8188   -9.2394    5.9403 C   0  0  0  0  0  0  0  0  0  0  0  0
   18.6432   -8.5104    5.8060 N   0  0  0  0  0  0  0  0  0  0  0  0
   18.5014   -7.3584    6.4866 C   0  0  0  0  0  0  0  0  0  0  0  0
   19.5240   -6.9022    7.3231 C   0  0  0  0  0  0  0  0  0  0  0  0
   20.6900   -7.6280    7.4827 C   0  0  0  0  0  0  0  0  0  0  0  0
   21.6518   -7.1970    8.2850 N   0  0  0  0  0  0  0  0  0  0  0  0
   19.1344   -5.7411    7.8608 N   0  0  0  0  0  0  0  0  0  0  0  0
   17.9022   -5.4494    7.3888 C   0  0  0  0  0  0  0  0  0  0  0  0
   17.4947   -6.4400    6.5303 N   0  0  0  0  0  0  0  0  0  0  0  0
  2  1  1  1  0  0  0
  2  3  1  0  0  0  0
  2  5  1  0  0  0  0
  3  4  1  0  0  0  0
  3 17  1  0  0  0  0
  5  6  1  0  0  0  0
  7  6  1  1  0  0  0
  7  8  1  0  0  0  0
  7  9  1  0  0  0  0
 10  9  1  1  0  0  0
 10 11  1  0  0  0  0
 10 12  1  0  0  0  0
 11 16  1  0  0  0  0
 12 13  1  6  0  0  0
 12 14  1  0  0  0  0
 14 15  1  6  0  0  0
 14 16  1  0  0  0  0
 16 27  1  1  0  0  0
 18 19  2  0  0  0  0
 18 23  1  0  0  0  0
 19 20  1  0  0  0  0
 20 21  2  0  0  0  0
 21 22  1  0  0  0  0
 21 27  1  0  0  0  0
 22 23  2  0  0  0  0
 22 25  1  0  0  0  0
 23 24  1  0  0  0  0
 25 26  2  0  0  0  0
 26 27  1  0  0  0  0
M  END
>  <CHROM.1>
147.97965962,-67.97227997,170.94103595,169.15344867,-114.45188891,-57.38306536
-156.35608851,16.01454368,-5.96106599,8.09115038,-2.70810630,0.46254432,-1.37232287

>  <Name>
ligand

>  <RI>
0

>  <Rbt.Current_Directory>
/home/itssahil/PROJECTS/Mol_Feturizer/Test_systems_manuscript/rnas/2ydh

>  <Rbt.Executable>
rbdock ($Id: //depot/dev/client3/rdock/2013.1/src/exe/rbdock.cxx#4 $)

>  <Rbt.Library>
libRbt.so (2013.1, Build901 2013/11/27)

>  <Rbt.Parameter_File>
/export/apps/rDock/src/rDock_2013.1_src/data/scripts/dock_solv.prm

>  <Rbt.Receptor>
prm/pocket_docking_7.prm

>  <SCORE>
-11.7941

>  <SCORE.INTER>
-11.6033

>  <SCORE.INTER.CONST>
1

>  <SCORE.INTER.POLAR>
0

>  <SCORE.INTER.ROT>
7

>  <SCORE.INTER.SOLV>
11.053

>  <SCORE.INTER.VDW>
-19.6866

>  <SCORE.INTER.norm>
-0.429753

>  <SCORE.INTRA>
-0.19081

>  <SCORE.INTRA.DIHEDRAL>
-2.14662

>  <SCORE.INTRA.DIHEDRAL.0>
9.75037

>  <SCORE.INTRA.POLAR>
0

>  <SCORE.INTRA.POLAR.0>
0

>  <SCORE.INTRA.REPUL>
0

>  <SCORE.INTRA.REPUL.0>
0

>  <SCORE.INTRA.SOLV>
-0.463577

>  <SCORE.INTRA.SOLV.lig_0>
-48.4279

>  <SCORE.INTRA.VDW>
1.11429

>  <SCORE.INTRA.VDW.0>
-4.69037

>  <SCORE.INTRA.norm>
-0.00706704

>  <SCORE.RESTR>
0

>  <SCORE.RESTR.CAVITY>
0

>  <SCORE.RESTR.norm>
0

>  <SCORE.SYSTEM>
0

>  <SCORE.SYSTEM.CONST>
0

>  <SCORE.SYSTEM.DIHEDRAL>
0

>  <SCORE.SYSTEM.SOLV>
0

>  <SCORE.SYSTEM.norm>
0

>  <SCORE.heavy>
27

>  <SCORE.norm>
-0.43682

>  <RMSD>
4.925

$$$$
ligand
 OpenBabel02271912153D
libRbt.so/2013.1/901 2013/11/27
 27 29  0  0  0  0  0  0  0  0999 V2000
   14.8199   -8.2367   14.6582 N   0  0  0  0  0  0  0  0  0  0  0  0
   14.4975   -8.0817   13.2060 C   0  0  2  0  0  0  0  0  0  0  0  0
   14.8477   -9.3641   12.4190 C   0  0  0  0  0  0  0  0  0  0  0  0
   15.9748   -9.8643   12.4834 O   0  0  0  0  0  0  0  0  0  0  0  0
   15.2182   -6.8561   12.6545 C   0  0  0  0  0  0  0  0  0  0  0  0
   14.8614   -6.5081   11.2190 C   0  0  0  0  0  0  0  0  0  0  0  0
   13.3477   -5.5156   11.0754 S   0  0  2  0  0  0  0  0  0  0  0  0
   12.1049   -6.7124   11.6399 C   0  0  0  0  0  0  0  0  0  0  0  0
   12.9823   -5.3906    9.3173 C   0  0  0  0  0  0  0  0  0  0  0  0
   13.8512   -4.3071    8.7077 C   0  0  1  0  0  0  0  0  0  0  0  0
   15.2178   -4.6827    8.6337 O   0  0  0  0  0  0  0  0  0  0  0  0
   13.4084   -3.9683    7.3052 C   0  0  1  0  0  0  0  0  0  0  0  0
   12.3750   -3.0256    7.3172 O   0  0  0  0  0  0  0  0  0  0  0  0
   14.6729   -3.4083    6.7286 C   0  0  1  0  0  0  0  0  0  0  0  0
   14.7408   -2.0243    7.0153 O   0  0  0  0  0  0  0  0  0  0  0  0
   15.7826   -4.1580    7.4545 C   0  0  2  0  0  0  0  0  0  0  0  0
   14.0228   -9.9427   11.6882 O   0  0  0  0  0  0  0  0  0  0  0  0
   14.8967   -8.2581    4.2509 N   0  0  0  0  0  0  0  0  0  0  0  0
   13.9605   -7.4239    4.8443 C   0  0  0  0  0  0  0  0  0  0  0  0
   14.3571   -6.3877    5.6812 N   0  0  0  0  0  0  0  0  0  0  0  0
   15.6688   -6.1839    5.9006 C   0  0  0  0  0  0  0  0  0  0  0  0
   16.6221   -7.0083    5.2963 C   0  0  0  0  0  0  0  0  0  0  0  0
   16.2411   -8.0560    4.4784 C   0  0  0  0  0  0  0  0  0  0  0  0
   17.1479   -8.8413    3.9167 N   0  0  0  0  0  0  0  0  0  0  0  0
   17.8348   -6.5828    5.6671 N   0  0  0  0  0  0  0  0  0  0  0  0
   17.6772   -5.5164    6.4821 C   0  0  0  0  0  0  0  0  0  0  0  0
   16.3391   -5.2510    6.6349 N   0  0  0  0  0  0  0  0  0  0  0  0
  2  1  1  1  0  0  0
  2  3  1  0  0  0  0
  2  5  1  0  0  0  0
  3  4  1  0  0  0  0
  3 17  1  0  0  0  0
  5  6  1  0  0  0  0
  7  6  1  6  0  0  0
  7  8  1  0  0  0  0
  7  9  1  0  0  0  0
 10  9  1  6  0  0  0
 10 11  1  0  0  0  0
 10 12  1  0  0  0  0
 11 16  1  0  0  0  0
 12 13  1  1  0  0  0
 12 14  1  0  0  0  0
 14 15  1  1  0  0  0
 14 16  1  0  0  0  0
 16 27  1  6  0  0  0
 18 19  2  0  0  0  0
 18 23  1  0  0  0  0
 19 20  1  0  0  0  0
 20 21  2  0  0  0  0
 21 22  1  0  0  0  0
 21 27  1  0  0  0  0
 22 23  2  0  0  0  0
 22 25  1  0  0  0  0
 23 24  1  0  0  0  0
 25 26  2  0  0  0  0
 26 27  1  0  0  0  0
M  END
>  <CHROM.1>
-53.49534985,-174.14853235,83.80740183,-66.66592786,-80.60679364,70.74660794
73.25704967,14.82878382,-6.29679391,8.60702340,-1.94767598,1.08179435,-0.96453885

>  <Name>
ligand

>  <RI>
0

>  <Rbt.Current_Directory>
/home/itssahil/PROJECTS/Mol_Feturizer/Test_systems_manuscript/rnas/2ydh

>  <Rbt.Executable>
rbdock ($Id: //depot/dev/client3/rdock/2013.1/src/exe/rbdock.cxx#4 $)

>  <Rbt.Library>
libRbt.so (2013.1, Build901 2013/11/27)

>  <Rbt.Parameter_File>
/export/apps/rDock/src/rDock_2013.1_src/data/scripts/dock_solv.prm

>  <Rbt.Receptor>
prm/pocket_docking_8.prm

>  <SCORE>
-13.6087

>  <SCORE.INTER>
-12.7505

>  <SCORE.INTER.CONST>
1

>  <SCORE.INTER.POLAR>
0

>  <SCORE.INTER.ROT>
7

>  <SCORE.INTER.SOLV>
13.455

>  <SCORE.INTER.VDW>
-21.252

>  <SCORE.INTER.norm>
-0.472242

>  <SCORE.INTRA>
-0.858122

>  <SCORE.INTRA.DIHEDRAL>
-3.82867

>  <SCORE.INTRA.DIHEDRAL.0>
9.75037

>  <SCORE.INTRA.POLAR>
0

>  <SCORE.INTRA.POLAR.0>
0

>  <SCORE.INTRA.REPUL>
0

>  <SCORE.INTRA.REPUL.0>
0

>  <SCORE.INTRA.SOLV>
-1.07371

>  <SCORE.INTRA.SOLV.lig_0>
-48.4279

>  <SCORE.INTRA.VDW>
1.59307

>  <SCORE.INTRA.VDW.0>
-4.69037

>  <SCORE.INTRA.norm>
-0.0317823

>  <SCORE.RESTR>
0

>  <SCORE.RESTR.CAVITY>
0

>  <SCORE.RESTR.norm>
0

>  <SCORE.SYSTEM>
0

>  <SCORE.SYSTEM.CONST>
0

>  <SCORE.SYSTEM.DIHEDRAL>
0

>  <SCORE.SYSTEM.SOLV>
0

>  <SCORE.SYSTEM.norm>
0

>  <SCORE.heavy>
27

>  <SCORE.norm>
-0.504024

>  <RMSD>
4.929

$$$$
ligand
 OpenBabel02271912153D
libRbt.so/2013.1/901 2013/11/27
 27 29  0  0  0  0  0  0  0  0999 V2000
   15.4349   -7.3036   12.3195 N   0  0  0  0  0  0  0  0  0  0  0  0
   14.7225   -7.7178   11.0715 C   0  0  2  0  0  0  0  0  0  0  0  0
   14.7440   -9.2533   10.9028 C   0  0  0  0  0  0  0  0  0  0  0  0
   15.8067   -9.8818   10.9180 O   0  0  0  0  0  0  0  0  0  0  0  0
   15.3382   -7.0011    9.8744 C   0  0  0  0  0  0  0  0  0  0  0  0
   16.8262   -7.2475    9.6895 C   0  0  0  0  0  0  0  0  0  0  0  0
   17.5003   -6.4800    8.1883 S   0  0  2  0  0  0  0  0  0  0  0  0
   18.8714   -7.6107    7.8181 C   0  0  0  0  0  0  0  0  0  0  0  0
   18.3671   -4.9941    8.7181 C   0  0  0  0  0  0  0  0  0  0  0  0
   17.4642   -3.7936    8.5079 C   0  0  1  0  0  0  0  0  0  0  0  0
   16.9669   -3.7123    7.1812 O   0  0  0  0  0  0  0  0  0  0  0  0
   16.2681   -3.8347    9.4275 C   0  0  1  0  0  0  0  0  0  0  0  0
   16.5753   -3.2879   10.6778 O   0  0  0  0  0  0  0  0  0  0  0  0
   15.2900   -2.9896    8.6698 C   0  0  1  0  0  0  0  0  0  0  0  0
   15.4814   -1.6318    9.0191 O   0  0  0  0  0  0  0  0  0  0  0  0
   15.6474   -3.2190    7.2069 C   0  0  2  0  0  0  0  0  0  0  0  0
   13.7053   -9.9196   10.7402 O   0  0  0  0  0  0  0  0  0  0  0  0
   15.0400   -7.8339    4.7186 N   0  0  0  0  0  0  0  0  0  0  0  0
   16.2140   -7.2775    5.2052 C   0  0  0  0  0  0  0  0  0  0  0  0
   16.2096   -6.0359    5.8297 N   0  0  0  0  0  0  0  0  0  0  0  0
   15.0456   -5.3777    5.9783 C   0  0  0  0  0  0  0  0  0  0  0  0
   13.8541   -5.9349    5.5057 C   0  0  0  0  0  0  0  0  0  0  0  0
   13.8467   -7.1595    4.8636 C   0  0  0  0  0  0  0  0  0  0  0  0
   12.7165   -7.6785    4.4077 N   0  0  0  0  0  0  0  0  0  0  0  0
   12.8576   -5.0899    5.7919 N   0  0  0  0  0  0  0  0  0  0  0  0
   13.3811   -4.0207    6.4313 C   0  0  0  0  0  0  0  0  0  0  0  0
   14.7380   -4.1838    6.5604 N   0  0  0  0  0  0  0  0  0  0  0  0
  2  1  1  1  0  0  0
  2  3  1  0  0  0  0
  2  5  1  0  0  0  0
  3  4  1  0  0  0  0
  3 17  1  0  0  0  0
  5  6  1  0  0  0  0
  7  6  1  1  0  0  0
  7  8  1  0  0  0  0
  7  9  1  0  0  0  0
 10  9  1  6  0  0  0
 10 11  1  0  0  0  0
 10 12  1  0  0  0  0
 11 16  1  0  0  0  0
 12 13  1  1  0  0  0
 12 14  1  0  0  0  0
 14 15  1  1  0  0  0
 14 16  1  0  0  0  0
 16 27  1  1  0  0  0
 18 19  2  0  0  0  0
 18 23  1  0  0  0  0
 19 20  1  0  0  0  0
 20 21  2  0  0  0  0
 21 22  1  0  0  0  0
 21 27  1  0  0  0  0
 22 23  2  0  0  0  0
 22 25  1  0  0  0  0
 23 24  1  0  0  0  0
 25 26  2  0  0  0  0
 26 27  1  0  0  0  0
M  END
>  <CHROM.1>
-54.39588434,57.75535530,175.74815268,-151.34721795,-98.59058474,-53.31878997
-1.27096131,15.64715586,-5.96955371,8.09426527,-1.30818995,-1.10855252,-0.64341559

>  <Name>
ligand

>  <RI>
0

>  <Rbt.Current_Directory>
/home/itssahil/PROJECTS/Mol_Feturizer/Test_systems_manuscript/rnas/2ydh

>  <Rbt.Executable>
rbdock ($Id: //depot/dev/client3/rdock/2013.1/src/exe/rbdock.cxx#4 $)

>  <Rbt.Library>
libRbt.so (2013.1, Build901 2013/11/27)

>  <Rbt.Parameter_File>
/export/apps/rDock/src/rDock_2013.1_src/data/scripts/dock_solv.prm

>  <Rbt.Receptor>
prm/pocket_docking_4.prm

>  <SCORE>
-6.25359

>  <SCORE.INTER>
-6.30132

>  <SCORE.INTER.CONST>
1

>  <SCORE.INTER.POLAR>
0

>  <SCORE.INTER.ROT>
7

>  <SCORE.INTER.SOLV>
17.1946

>  <SCORE.INTER.VDW>
-18.1991

>  <SCORE.INTER.norm>
-0.233382

>  <SCORE.INTRA>
0.0473455

>  <SCORE.INTRA.DIHEDRAL>
-1.24352

>  <SCORE.INTRA.DIHEDRAL.0>
9.75037

>  <SCORE.INTRA.POLAR>
0

>  <SCORE.INTRA.POLAR.0>
0

>  <SCORE.INTRA.REPUL>
0

>  <SCORE.INTRA.REPUL.0>
0

>  <SCORE.INTRA.SOLV>
-0.326541

>  <SCORE.INTRA.SOLV.lig_0>
-48.4279

>  <SCORE.INTRA.VDW>
0.832374

>  <SCORE.INTRA.VDW.0>
-4.69037

>  <SCORE.INTRA.norm>
0.00175354

>  <SCORE.RESTR>
0.000384191

>  <SCORE.RESTR.CAVITY>
0.000384191

>  <SCORE.RESTR.norm>
1.42293e-05

>  <SCORE.SYSTEM>
0

>  <SCORE.SYSTEM.CONST>
0

>  <SCORE.SYSTEM.DIHEDRAL>
0

>  <SCORE.SYSTEM.SOLV>
0

>  <SCORE.SYSTEM.norm>
0

>  <SCORE.heavy>
27

>  <SCORE.norm>
-0.231614

>  <RMSD>
4.943

$$$$
ligand
 OpenBabel02271912153D
libRbt.so/2013.1/901 2013/11/27
 27 29  0  0  0  0  0  0  0  0999 V2000
   13.2035   -8.5012   13.3133 N   0  0  0  0  0  0  0  0  0  0  0  0
   12.4084   -7.2480   13.1288 C   0  0  2  0  0  0  0  0  0  0  0  0
   10.8952   -7.5535   13.0691 C   0  0  0  0  0  0  0  0  0  0  0  0
   10.3688   -8.3287   13.8732 O   0  0  0  0  0  0  0  0  0  0  0  0
   12.8952   -6.5175   11.8818 C   0  0  0  0  0  0  0  0  0  0  0  0
   14.3472   -6.0730   11.9383 C   0  0  0  0  0  0  0  0  0  0  0  0
   14.8889   -5.1965   10.4432 S   0  0  2  0  0  0  0  0  0  0  0  0
   16.5675   -4.7056   10.9297 C   0  0  0  0  0  0  0  0  0  0  0  0
   14.0212   -3.6195   10.4317 C   0  0  0  0  0  0  0  0  0  0  0  0
   14.2267   -2.9520    9.0853 C   0  0  1  0  0  0  0  0  0  0  0  0
   15.5990   -2.8006    8.7566 O   0  0  0  0  0  0  0  0  0  0  0  0
   13.5897   -3.7474    7.9719 C   0  0  1  0  0  0  0  0  0  0  0  0
   12.2345   -3.4285    7.8368 O   0  0  0  0  0  0  0  0  0  0  0  0
   14.3942   -3.2921    6.7927 C   0  0  1  0  0  0  0  0  0  0  0  0
   13.8099   -2.1200    6.2568 O   0  0  0  0  0  0  0  0  0  0  0  0
   15.7699   -2.9855    7.3704 C   0  0  2  0  0  0  0  0  0  0  0  0
   10.1464   -7.0435   12.2155 O   0  0  0  0  0  0  0  0  0  0  0  0
   16.6634   -7.8166    5.4416 N   0  0  0  0  0  0  0  0  0  0  0  0
   15.4695   -7.1100    5.4475 C   0  0  0  0  0  0  0  0  0  0  0  0
   15.3938   -5.8420    6.0114 N   0  0  0  0  0  0  0  0  0  0  0  0
   16.5007   -5.2895    6.5404 C   0  0  0  0  0  0  0  0  0  0  0  0
   17.7128   -5.9854    6.5267 C   0  0  0  0  0  0  0  0  0  0  0  0
   17.7978   -7.2562    5.9882 C   0  0  0  0  0  0  0  0  0  0  0  0
   18.9463   -7.9161    5.9873 N   0  0  0  0  0  0  0  0  0  0  0  0
   18.6431   -5.2114    7.0963 N   0  0  0  0  0  0  0  0  0  0  0  0
   18.0583   -4.0505    7.4656 C   0  0  0  0  0  0  0  0  0  0  0  0
   16.7290   -4.0788    7.1242 N   0  0  0  0  0  0  0  0  0  0  0  0
  2  1  1  6  0  0  0
  2  3  1  0  0  0  0
  2  5  1  0  0  0  0
  3  4  1  0  0  0  0
  3 17  1  0  0  0  0
  5  6  1  0  0  0  0
  7  6  1  1  0  0  0
  7  8  1  0  0  0  0
  7  9  1  0  0  0  0
 10  9  1  1  0  0  0
 10 11  1  0  0  0  0
 10 12  1  0  0  0  0
 11 16  1  0  0  0  0
 12 13  1  6  0  0  0
 12 14  1  0  0  0  0
 14 15  1  1  0  0  0
 14 16  1  0  0  0  0
 16 27  1  1  0  0  0
 18 19  2  0  0  0  0
 18 23  1  0  0  0  0
 19 20  1  0  0  0  0
 20 21  2  0  0  0  0
 21 22  1  0  0  0  0
 21 27  1  0  0  0  0
 22 23  2  0  0  0  0
 22 25  1  0  0  0  0
 23 24  1  0  0  0  0
 25 26  2  0  0  0  0
 26 27  1  0  0  0  0
M  END
>  <CHROM.1>
44.92644350,-61.80812914,-179.57042382,175.12321293,-169.45820728,-55.37258147
114.54535508,14.77856734,-5.39559949,8.99353037,-2.52927590,0.73233661,-0.52244031

>  <Name>
ligand

>  <RI>
0

>  <Rbt.Current_Directory>
/home/itssahil/PROJECTS/Mol_Feturizer/Test_systems_manuscript/rnas/2ydh

>  <Rbt.Executable>
rbdock ($Id: //depot/dev/client3/rdock/2013.1/src/exe/rbdock.cxx#4 $)

>  <Rbt.Library>
libRbt.so (2013.1, Build901 2013/11/27)

>  <Rbt.Parameter_File>
/export/apps/rDock/src/rDock_2013.1_src/data/scripts/dock_solv.prm

>  <Rbt.Receptor>
prm/pocket_docking_7.prm

>  <SCORE>
-15.1073

>  <SCORE.INTER>
-14.2027

>  <SCORE.INTER.CONST>
1

>  <SCORE.INTER.POLAR>
0

>  <SCORE.INTER.ROT>
7

>  <SCORE.INTER.SOLV>
10.7538

>  <SCORE.INTER.VDW>
-21.3197

>  <SCORE.INTER.norm>
-0.526024

>  <SCORE.INTRA>
-0.904686

>  <SCORE.INTRA.DIHEDRAL>
-5.71743

>  <SCORE.INTRA.DIHEDRAL.0>
9.75037

>  <SCORE.INTRA.POLAR>
0

>  <SCORE.INTRA.POLAR.0>
0

>  <SCORE.INTRA.REPUL>
0

>  <SCORE.INTRA.REPUL.0>
0

>  <SCORE.INTRA.SOLV>
-0.593992

>  <SCORE.INTRA.SOLV.lig_0>
-48.4279

>  <SCORE.INTRA.VDW>
2.25103

>  <SCORE.INTRA.VDW.0>
-4.69037

>  <SCORE.INTRA.norm>
-0.0335069

>  <SCORE.RESTR>
0

>  <SCORE.RESTR.CAVITY>
0

>  <SCORE.RESTR.norm>
0

>  <SCORE.SYSTEM>
0

>  <SCORE.SYSTEM.CONST>
0

>  <SCORE.SYSTEM.DIHEDRAL>
0

>  <SCORE.SYSTEM.SOLV>
0

>  <SCORE.SYSTEM.norm>
0

>  <SCORE.heavy>
27

>  <SCORE.norm>
-0.559531

>  <RMSD>
4.945

$$$$
ligand
 OpenBabel02271912153D
libRbt.so/2013.1/901 2013/11/27
 27 29  0  0  0  0  0  0  0  0999 V2000
   15.7878   -8.5713   12.6325 N   0  0  0  0  0  0  0  0  0  0  0  0
   14.8633   -8.4218   11.4665 C   0  0  2  0  0  0  0  0  0  0  0  0
   14.7929   -9.7265   10.6422 C   0  0  0  0  0  0  0  0  0  0  0  0
   13.8052  -10.4652   10.7003 O   0  0  0  0  0  0  0  0  0  0  0  0
   15.3029   -7.2320   10.6199 C   0  0  0  0  0  0  0  0  0  0  0  0
   15.1698   -5.8845   11.3095 C   0  0  0  0  0  0  0  0  0  0  0  0
   13.5171   -5.1514   11.1409 S   0  0  2  0  0  0  0  0  0  0  0  0
   12.4982   -6.4331   11.9249 C   0  0  0  0  0  0  0  0  0  0  0  0
   13.0603   -5.3120    9.4073 C   0  0  0  0  0  0  0  0  0  0  0  0
   13.7500   -4.2206    8.6112 C   0  0  1  0  0  0  0  0  0  0  0  0
   15.1529   -4.4159    8.5220 O   0  0  0  0  0  0  0  0  0  0  0  0
   13.2220   -4.1497    7.1990 C   0  0  1  0  0  0  0  0  0  0  0  0
   12.0677   -3.3626    7.1319 O   0  0  0  0  0  0  0  0  0  0  0  0
   14.3777   -3.5137    6.4884 C   0  0  1  0  0  0  0  0  0  0  0  0
   14.2597   -2.1064    6.5772 O   0  0  0  0  0  0  0  0  0  0  0  0
   15.6029   -3.9952    7.2549 C   0  0  2  0  0  0  0  0  0  0  0  0
   15.7185  -10.0922    9.8946 O   0  0  0  0  0  0  0  0  0  0  0  0
   15.1954   -8.5072    4.5466 N   0  0  0  0  0  0  0  0  0  0  0  0
   14.1688   -7.7143    5.0388 C   0  0  0  0  0  0  0  0  0  0  0  0
   14.4433   -6.5526    5.7505 N   0  0  0  0  0  0  0  0  0  0  0  0
   15.7232   -6.1869    5.9458 C   0  0  0  0  0  0  0  0  0  0  0  0
   16.7659   -6.9695    5.4417 C   0  0  0  0  0  0  0  0  0  0  0  0
   16.5079   -8.1388    4.7502 C   0  0  0  0  0  0  0  0  0  0  0  0
   17.4996   -8.8828    4.2839 N   0  0  0  0  0  0  0  0  0  0  0  0
   17.9220   -6.3780    5.7617 N   0  0  0  0  0  0  0  0  0  0  0  0
   17.6425   -5.2478    6.4477 C   0  0  0  0  0  0  0  0  0  0  0  0
   16.2820   -5.1100    6.5678 N   0  0  0  0  0  0  0  0  0  0  0  0
  2  1  1  1  0  0  0
  2  3  1  0  0  0  0
  2  5  1  0  0  0  0
  3  4  1  0  0  0  0
  3 17  1  0  0  0  0
  5  6  1  0  0  0  0
  7  6  1  6  0  0  0
  7  8  1  0  0  0  0
  7  9  1  0  0  0  0
 10  9  1  1  0  0  0
 10 11  1  0  0  0  0
 10 12  1  0  0  0  0
 11 16  1  0  0  0  0
 12 13  1  1  0  0  0
 12 14  1  0  0  0  0
 14 15  1  1  0  0  0
 14 16  1  0  0  0  0
 16 27  1  6  0  0  0
 18 19  2  0  0  0  0
 18 23  1  0  0  0  0
 19 20  1  0  0  0  0
 20 21  2  0  0  0  0
 21 22  1  0  0  0  0
 21 27  1  0  0  0  0
 22 23  2  0  0  0  0
 22 25  1  0  0  0  0
 23 24  1  0  0  0  0
 25 26  2  0  0  0  0
 26 27  1  0  0  0  0
M  END
>  <CHROM.1>
105.39608691,-66.01307878,-85.88652148,59.76599307,-79.35982123,69.68883888
76.84896045,14.88734695,-6.32321415,8.21965702,-2.08627438,1.07463900,-0.81178812

>  <Name>
ligand

>  <RI>
0

>  <Rbt.Current_Directory>
/home/itssahil/PROJECTS/Mol_Feturizer/Test_systems_manuscript/rnas/2ydh

>  <Rbt.Executable>
rbdock ($Id: //depot/dev/client3/rdock/2013.1/src/exe/rbdock.cxx#4 $)

>  <Rbt.Library>
libRbt.so (2013.1, Build901 2013/11/27)

>  <Rbt.Parameter_File>
/export/apps/rDock/src/rDock_2013.1_src/data/scripts/dock_solv.prm

>  <Rbt.Receptor>
prm/pocket_docking_7.prm

>  <SCORE>
-13.7066

>  <SCORE.INTER>
-14.1511

>  <SCORE.INTER.CONST>
1

>  <SCORE.INTER.POLAR>
0

>  <SCORE.INTER.ROT>
7

>  <SCORE.INTER.SOLV>
13.7016

>  <SCORE.INTER.VDW>
-22.268

>  <SCORE.INTER.norm>
-0.524116

>  <SCORE.INTRA>
0.444558

>  <SCORE.INTRA.DIHEDRAL>
-3.54514

>  <SCORE.INTRA.DIHEDRAL.0>
9.75037

>  <SCORE.INTRA.POLAR>
0

>  <SCORE.INTRA.POLAR.0>
0

>  <SCORE.INTRA.REPUL>
0

>  <SCORE.INTRA.REPUL.0>
0

>  <SCORE.INTRA.SOLV>
0.0728918

>  <SCORE.INTRA.SOLV.lig_0>
-48.4279

>  <SCORE.INTRA.VDW>
2.18068

>  <SCORE.INTRA.VDW.0>
-4.69037

>  <SCORE.INTRA.norm>
0.0164651

>  <SCORE.RESTR>
0

>  <SCORE.RESTR.CAVITY>
0

>  <SCORE.RESTR.norm>
0

>  <SCORE.SYSTEM>
0

>  <SCORE.SYSTEM.CONST>
0

>  <SCORE.SYSTEM.DIHEDRAL>
0

>  <SCORE.SYSTEM.SOLV>
0

>  <SCORE.SYSTEM.norm>
0

>  <SCORE.heavy>
27

>  <SCORE.norm>
-0.507651

>  <RMSD>
4.950

$$$$
ligand
 OpenBabel02271912153D
libRbt.so/2013.1/901 2013/11/27
 27 29  0  0  0  0  0  0  0  0999 V2000
   12.8913   -9.5857   12.9171 N   0  0  0  0  0  0  0  0  0  0  0  0
   13.2339   -9.6714   11.4638 C   0  0  2  0  0  0  0  0  0  0  0  0
   14.7602   -9.5742   11.2458 C   0  0  0  0  0  0  0  0  0  0  0  0
   15.3189  -10.2160   10.3511 O   0  0  0  0  0  0  0  0  0  0  0  0
   12.4759   -8.5911   10.6995 C   0  0  0  0  0  0  0  0  0  0  0  0
   12.4141   -8.8082    9.1968 C   0  0  0  0  0  0  0  0  0  0  0  0
   13.2669   -7.5157    8.2485 S   0  0  2  0  0  0  0  0  0  0  0  0
   14.9969   -7.8832    8.6578 C   0  0  0  0  0  0  0  0  0  0  0  0
   12.9900   -5.9693    9.1271 C   0  0  0  0  0  0  0  0  0  0  0  0
   13.6580   -4.8410    8.3645 C   0  0  1  0  0  0  0  0  0  0  0  0
   15.0689   -4.9834    8.3075 O   0  0  0  0  0  0  0  0  0  0  0  0
   13.1623   -4.7675    6.9409 C   0  0  1  0  0  0  0  0  0  0  0  0
   11.9816   -4.0222    6.8567 O   0  0  0  0  0  0  0  0  0  0  0  0
   14.3106   -4.0785    6.2687 C   0  0  1  0  0  0  0  0  0  0  0  0
   14.1385   -2.6781    6.3753 O   0  0  0  0  0  0  0  0  0  0  0  0
   15.5337   -4.5267    7.0583 C   0  0  2  0  0  0  0  0  0  0  0  0
   15.4897   -8.8580   11.9560 O   0  0  0  0  0  0  0  0  0  0  0  0
   15.3622   -8.8982    4.1054 N   0  0  0  0  0  0  0  0  0  0  0  0
   14.2963   -8.1321    4.5544 C   0  0  0  0  0  0  0  0  0  0  0  0
   14.5083   -7.0071    5.3423 N   0  0  0  0  0  0  0  0  0  0  0  0
   15.7672   -6.6502    5.6553 C   0  0  0  0  0  0  0  0  0  0  0  0
   16.8500   -7.4054    5.1963 C   0  0  0  0  0  0  0  0  0  0  0  0
   16.6529   -8.5390    4.4294 C   0  0  0  0  0  0  0  0  0  0  0  0
   17.6818   -9.2577    4.0058 N   0  0  0  0  0  0  0  0  0  0  0  0
   17.9746   -6.8293    5.6349 N   0  0  0  0  0  0  0  0  0  0  0  0
   17.6365   -5.7351    6.3523 C   0  0  0  0  0  0  0  0  0  0  0  0
   16.2701   -5.6050    6.3720 N   0  0  0  0  0  0  0  0  0  0  0  0
  2  1  1  1  0  0  0
  2  3  1  0  0  0  0
  2  5  1  0  0  0  0
  3  4  1  0  0  0  0
  3 17  1  0  0  0  0
  5  6  1  0  0  0  0
  7  6  1  1  0  0  0
  7  8  1  0  0  0  0
  7  9  1  0  0  0  0
 10  9  1  6  0  0  0
 10 11  1  0  0  0  0
 10 12  1  0  0  0  0
 11 16  1  0  0  0  0
 12 13  1  1  0  0  0
 12 14  1  0  0  0  0
 14 15  1  1  0  0  0
 14 16  1  0  0  0  0
 16 27  1  6  0  0  0
 18 19  2  0  0  0  0
 18 23  1  0  0  0  0
 19 20  1  0  0  0  0
 20 21  2  0  0  0  0
 21 22  1  0  0  0  0
 21 27  1  0  0  0  0
 22 23  2  0  0  0  0
 22 25  1  0  0  0  0
 23 24  1  0  0  0  0
 25 26  2  0  0  0  0
 26 27  1  0  0  0  0
M  END
>  <CHROM.1>
144.66141169,-163.28277905,-116.16059999,70.15866778,-178.85999865,-63.92970064
80.99660029,14.66021302,-7.06046450,7.71674360,-2.08842112,0.89495670,-0.68787587

>  <Name>
ligand

>  <RI>
0

>  <Rbt.Current_Directory>
/home/itssahil/PROJECTS/Mol_Feturizer/Test_systems_manuscript/rnas/2ydh

>  <Rbt.Executable>
rbdock ($Id: //depot/dev/client3/rdock/2013.1/src/exe/rbdock.cxx#4 $)

>  <Rbt.Library>
libRbt.so (2013.1, Build901 2013/11/27)

>  <Rbt.Parameter_File>
/export/apps/rDock/src/rDock_2013.1_src/data/scripts/dock_solv.prm

>  <Rbt.Receptor>
prm/pocket_docking_6.prm

>  <SCORE>
-12.4601

>  <SCORE.INTER>
-13.9494

>  <SCORE.INTER.CONST>
1

>  <SCORE.INTER.POLAR>
0

>  <SCORE.INTER.ROT>
7

>  <SCORE.INTER.SOLV>
14.051

>  <SCORE.INTER.VDW>
-22.2499

>  <SCORE.INTER.norm>
-0.516643

>  <SCORE.INTRA>
1.48925

>  <SCORE.INTRA.DIHEDRAL>
0.851919

>  <SCORE.INTRA.DIHEDRAL.0>
9.75037

>  <SCORE.INTRA.POLAR>
0

>  <SCORE.INTRA.POLAR.0>
0

>  <SCORE.INTRA.REPUL>
0

>  <SCORE.INTRA.REPUL.0>
0

>  <SCORE.INTRA.SOLV>
-1.13315

>  <SCORE.INTRA.SOLV.lig_0>
-48.4279

>  <SCORE.INTRA.VDW>
1.62986

>  <SCORE.INTRA.VDW.0>
-4.69037

>  <SCORE.INTRA.norm>
0.0551573

>  <SCORE.RESTR>
0

>  <SCORE.RESTR.CAVITY>
0

>  <SCORE.RESTR.norm>
0

>  <SCORE.SYSTEM>
0

>  <SCORE.SYSTEM.CONST>
0

>  <SCORE.SYSTEM.DIHEDRAL>
0

>  <SCORE.SYSTEM.SOLV>
0

>  <SCORE.SYSTEM.norm>
0

>  <SCORE.heavy>
27

>  <SCORE.norm>
-0.461485

>  <RMSD>
4.951

$$$$
ligand
 OpenBabel02271912153D
libRbt.so/2013.1/901 2013/11/27
 27 29  0  0  0  0  0  0  0  0999 V2000
   15.9509   -7.8331   11.2218 N   0  0  0  0  0  0  0  0  0  0  0  0
   16.4933   -8.4848    9.9898 C   0  0  2  0  0  0  0  0  0  0  0  0
   18.0286   -8.6364   10.0712 C   0  0  0  0  0  0  0  0  0  0  0  0
   18.7766   -7.6787    9.8524 O   0  0  0  0  0  0  0  0  0  0  0  0
   16.0603   -7.6895    8.7627 C   0  0  0  0  0  0  0  0  0  0  0  0
   16.2979   -8.3954    7.4382 C   0  0  0  0  0  0  0  0  0  0  0  0
   15.7614   -7.4247    6.0005 S   0  0  2  0  0  0  0  0  0  0  0  0
   16.0364   -8.6219    4.6638 C   0  0  0  0  0  0  0  0  0  0  0  0
   17.0529   -6.2095    5.6924 C   0  0  0  0  0  0  0  0  0  0  0  0
   16.7243   -4.9364    6.4486 C   0  0  1  0  0  0  0  0  0  0  0  0
   15.3268   -4.7223    6.5725 O   0  0  0  0  0  0  0  0  0  0  0  0
   17.2942   -4.9614    7.8459 C   0  0  1  0  0  0  0  0  0  0  0  0
   18.6253   -4.5317    7.8546 O   0  0  0  0  0  0  0  0  0  0  0  0
   16.3877   -3.9960    8.5467 C   0  0  1  0  0  0  0  0  0  0  0  0
   16.8953   -2.6846    8.3894 O   0  0  0  0  0  0  0  0  0  0  0  0
   15.0533   -4.1409    7.8264 C   0  0  2  0  0  0  0  0  0  0  0  0
   18.5766   -9.7181   10.3520 O   0  0  0  0  0  0  0  0  0  0  0  0
   13.2803   -5.8191   12.5059 N   0  0  0  0  0  0  0  0  0  0  0  0
   14.2981   -4.9097   12.2579 C   0  0  0  0  0  0  0  0  0  0  0  0
   14.6587   -4.5800   10.9568 N   0  0  0  0  0  0  0  0  0  0  0  0
   13.9960   -5.1392    9.9281 C   0  0  0  0  0  0  0  0  0  0  0  0
   12.9586   -6.0453   10.1656 C   0  0  0  0  0  0  0  0  0  0  0  0
   12.6034   -6.3986   11.4544 C   0  0  0  0  0  0  0  0  0  0  0  0
   11.6268   -7.2661   11.6742 N   0  0  0  0  0  0  0  0  0  0  0  0
   12.4673   -6.4340    8.9838 N   0  0  0  0  0  0  0  0  0  0  0  0
   13.1584   -5.8009    8.0103 C   0  0  0  0  0  0  0  0  0  0  0  0
   14.1087   -4.9890    8.5777 N   0  0  0  0  0  0  0  0  0  0  0  0
  2  1  1  1  0  0  0
  2  3  1  0  0  0  0
  2  5  1  0  0  0  0
  3  4  1  0  0  0  0
  3 17  1  0  0  0  0
  5  6  1  0  0  0  0
  7  6  1  1  0  0  0
  7  8  1  0  0  0  0
  7  9  1  0  0  0  0
 10  9  1  1  0  0  0
 10 11  1  0  0  0  0
 10 12  1  0  0  0  0
 11 16  1  0  0  0  0
 12 13  1  6  0  0  0
 12 14  1  0  0  0  0
 14 15  1  6  0  0  0
 14 16  1  0  0  0  0
 16 27  1  1  0  0  0
 18 19  2  0  0  0  0
 18 23  1  0  0  0  0
 19 20  1  0  0  0  0
 20 21  2  0  0  0  0
 21 22  1  0  0  0  0
 21 27  1  0  0  0  0
 22 23  2  0  0  0  0
 22 25  1  0  0  0  0
 23 24  1  0  0  0  0
 25 26  2  0  0  0  0
 26 27  1  0  0  0  0
M  END
>  <CHROM.1>
-78.58226122,-167.94612663,179.63480442,-174.55026599,-91.59779905,-31.47475762
150.36676829,15.59762571,-6.29065392,8.77583930,-2.60832555,0.72755143,-0.89560259

>  <Name>
ligand

>  <RI>
0

>  <Rbt.Current_Directory>
/home/itssahil/PROJECTS/Mol_Feturizer/Test_systems_manuscript/rnas/2ydh

>  <Rbt.Executable>
rbdock ($Id: //depot/dev/client3/rdock/2013.1/src/exe/rbdock.cxx#4 $)

>  <Rbt.Library>
libRbt.so (2013.1, Build901 2013/11/27)

>  <Rbt.Parameter_File>
/export/apps/rDock/src/rDock_2013.1_src/data/scripts/dock_solv.prm

>  <Rbt.Receptor>
prm/pocket_docking_8.prm

>  <SCORE>
-9.93646

>  <SCORE.INTER>
-8.73481

>  <SCORE.INTER.CONST>
1

>  <SCORE.INTER.POLAR>
0

>  <SCORE.INTER.ROT>
7

>  <SCORE.INTER.SOLV>
9.50167

>  <SCORE.INTER.VDW>
-17.2571

>  <SCORE.INTER.norm>
-0.323511

>  <SCORE.INTRA>
-1.20166

>  <SCORE.INTRA.DIHEDRAL>
-1.7351

>  <SCORE.INTRA.DIHEDRAL.0>
9.75037

>  <SCORE.INTRA.POLAR>
0

>  <SCORE.INTRA.POLAR.0>
0

>  <SCORE.INTRA.REPUL>
0

>  <SCORE.INTRA.REPUL.0>
0

>  <SCORE.INTRA.SOLV>
0.416609

>  <SCORE.INTRA.SOLV.lig_0>
-48.4279

>  <SCORE.INTRA.VDW>
-0.542413

>  <SCORE.INTRA.VDW.0>
-4.69037

>  <SCORE.INTRA.norm>
-0.0445059

>  <SCORE.RESTR>
0

>  <SCORE.RESTR.CAVITY>
0

>  <SCORE.RESTR.norm>
0

>  <SCORE.SYSTEM>
0

>  <SCORE.SYSTEM.CONST>
0

>  <SCORE.SYSTEM.DIHEDRAL>
0

>  <SCORE.SYSTEM.SOLV>
0

>  <SCORE.SYSTEM.norm>
0

>  <SCORE.heavy>
27

>  <SCORE.norm>
-0.368017

>  <RMSD>
4.954

$$$$
ligand
 OpenBabel02271912153D
libRbt.so/2013.1/901 2013/11/27
 27 29  0  0  0  0  0  0  0  0999 V2000
   15.3955   -7.3278   12.3568 N   0  0  0  0  0  0  0  0  0  0  0  0
   16.0393   -8.6714   12.2263 C   0  0  2  0  0  0  0  0  0  0  0  0
   17.3315   -8.5891   11.3835 C   0  0  0  0  0  0  0  0  0  0  0  0
   17.5899   -7.5881   10.7083 O   0  0  0  0  0  0  0  0  0  0  0  0
   15.0360   -9.6599   11.6418 C   0  0  0  0  0  0  0  0  0  0  0  0
   14.5862   -9.3386   10.2263 C   0  0  0  0  0  0  0  0  0  0  0  0
   13.3673   -7.9951   10.1474 S   0  0  2  0  0  0  0  0  0  0  0  0
   11.8605   -8.8771   10.6443 C   0  0  0  0  0  0  0  0  0  0  0  0
   13.0641   -7.6810    8.4012 C   0  0  0  0  0  0  0  0  0  0  0  0
   13.7549   -6.3905    8.0037 C   0  0  1  0  0  0  0  0  0  0  0  0
   15.1650   -6.4611    8.1487 O   0  0  0  0  0  0  0  0  0  0  0  0
   13.4749   -6.0351    6.5639 C   0  0  1  0  0  0  0  0  0  0  0  0
   12.2691   -5.3366    6.4430 O   0  0  0  0  0  0  0  0  0  0  0  0
   14.6578   -5.1736    6.2420 C   0  0  1  0  0  0  0  0  0  0  0  0
   14.3698   -3.8360    6.6027 O   0  0  0  0  0  0  0  0  0  0  0  0
   15.7777   -5.7307    7.1114 C   0  0  2  0  0  0  0  0  0  0  0  0
   18.1592   -9.5178   11.3418 O   0  0  0  0  0  0  0  0  0  0  0  0
   16.3630   -9.4307    3.3931 N   0  0  0  0  0  0  0  0  0  0  0  0
   15.1869   -8.8305    3.8187 C   0  0  0  0  0  0  0  0  0  0  0  0
   15.1984   -7.8744    4.8273 N   0  0  0  0  0  0  0  0  0  0  0  0
   16.3708   -7.5163    5.3818 C   0  0  0  0  0  0  0  0  0  0  0  0
   17.5640   -8.1029    4.9508 C   0  0  0  0  0  0  0  0  0  0  0  0
   17.5651   -9.0708    3.9633 C   0  0  0  0  0  0  0  0  0  0  0  0
   18.6974   -9.6317    3.5658 N   0  0  0  0  0  0  0  0  0  0  0  0
   18.5689   -7.5630    5.6492 N   0  0  0  0  0  0  0  0  0  0  0  0
   18.0489   -6.6540    6.5033 C   0  0  0  0  0  0  0  0  0  0  0  0
   16.6857   -6.6077    6.3483 N   0  0  0  0  0  0  0  0  0  0  0  0
  2  1  1  6  0  0  0
  2  3  1  0  0  0  0
  2  5  1  0  0  0  0
  3  4  1  0  0  0  0
  3 17  1  0  0  0  0
  5  6  1  0  0  0  0
  7  6  1  6  0  0  0
  7  8  1  0  0  0  0
  7  9  1  0  0  0  0
 10  9  1  6  0  0  0
 10 11  1  0  0  0  0
 10 12  1  0  0  0  0
 11 16  1  0  0  0  0
 12 13  1  1  0  0  0
 12 14  1  0  0  0  0
 14 15  1  1  0  0  0
 14 16  1  0  0  0  0
 16 27  1  6  0  0  0
 18 19  2  0  0  0  0
 18 23  1  0  0  0  0
 19 20  1  0  0  0  0
 20 21  2  0  0  0  0
 21 22  1  0  0  0  0
 21 27  1  0  0  0  0
 22 23  2  0  0  0  0
 22 25  1  0  0  0  0
 23 24  1  0  0  0  0
 25 26  2  0  0  0  0
 26 27  1  0  0  0  0
M  END
>  <CHROM.1>
-13.66209037,64.16242935,-77.18202160,-78.13373117,-105.51694036,62.72448097
79.42524969,15.48599772,-7.60444607,7.84665578,-1.85455109,0.50359181,-1.33924511

>  <Name>
ligand

>  <RI>
0

>  <Rbt.Current_Directory>
/home/itssahil/PROJECTS/Mol_Feturizer/Test_systems_manuscript/rnas/2ydh

>  <Rbt.Executable>
rbdock ($Id: //depot/dev/client3/rdock/2013.1/src/exe/rbdock.cxx#4 $)

>  <Rbt.Library>
libRbt.so (2013.1, Build901 2013/11/27)

>  <Rbt.Parameter_File>
/export/apps/rDock/src/rDock_2013.1_src/data/scripts/dock_solv.prm

>  <Rbt.Receptor>
prm/pocket_docking_7.prm

>  <SCORE>
-11.6099

>  <SCORE.INTER>
-12.1543

>  <SCORE.INTER.CONST>
1

>  <SCORE.INTER.POLAR>
0

>  <SCORE.INTER.ROT>
7

>  <SCORE.INTER.SOLV>
11.6194

>  <SCORE.INTER.VDW>
-20.2427

>  <SCORE.INTER.norm>
-0.45016

>  <SCORE.INTRA>
0.544476

>  <SCORE.INTRA.DIHEDRAL>
-2.10916

>  <SCORE.INTRA.DIHEDRAL.0>
9.75037

>  <SCORE.INTRA.POLAR>
0

>  <SCORE.INTRA.POLAR.0>
0

>  <SCORE.INTRA.REPUL>
0

>  <SCORE.INTRA.REPUL.0>
0

>  <SCORE.INTRA.SOLV>
0.833181

>  <SCORE.INTRA.SOLV.lig_0>
-48.4279

>  <SCORE.INTRA.VDW>
1.18247

>  <SCORE.INTRA.VDW.0>
-4.69037

>  <SCORE.INTRA.norm>
0.0201658

>  <SCORE.RESTR>
0

>  <SCORE.RESTR.CAVITY>
0

>  <SCORE.RESTR.norm>
0

>  <SCORE.SYSTEM>
0

>  <SCORE.SYSTEM.CONST>
0

>  <SCORE.SYSTEM.DIHEDRAL>
0

>  <SCORE.SYSTEM.SOLV>
0

>  <SCORE.SYSTEM.norm>
0

>  <SCORE.heavy>
27

>  <SCORE.norm>
-0.429995

>  <RMSD>
4.960

$$$$
ligand
 OpenBabel02271912153D
libRbt.so/2013.1/901 2013/11/27
 27 29  0  0  0  0  0  0  0  0999 V2000
   11.6969   -7.9134   12.4473 N   0  0  0  0  0  0  0  0  0  0  0  0
   11.3449   -9.1852   11.7435 C   0  0  2  0  0  0  0  0  0  0  0  0
   11.9004  -10.4117   12.5009 C   0  0  0  0  0  0  0  0  0  0  0  0
   13.1157  -10.5751   12.6459 O   0  0  0  0  0  0  0  0  0  0  0  0
   11.8470   -9.1244   10.3048 C   0  0  0  0  0  0  0  0  0  0  0  0
   13.3537   -8.9812   10.1688 C   0  0  0  0  0  0  0  0  0  0  0  0
   13.8510   -7.8704    8.8213 S   0  0  2  0  0  0  0  0  0  0  0  0
   15.6137   -7.6528    9.1967 C   0  0  0  0  0  0  0  0  0  0  0  0
   13.1761   -6.2496    9.2184 C   0  0  0  0  0  0  0  0  0  0  0  0
   13.4568   -5.3019    8.0680 C   0  0  1  0  0  0  0  0  0  0  0  0
   14.8090   -4.8723    8.0342 O   0  0  0  0  0  0  0  0  0  0  0  0
   13.1640   -5.9484    6.7360 C   0  0  1  0  0  0  0  0  0  0  0  0
   11.8105   -5.8276    6.4043 O   0  0  0  0  0  0  0  0  0  0  0  0
   14.0398   -5.1444    5.8241 C   0  0  1  0  0  0  0  0  0  0  0  0
   13.3329   -3.9963    5.3946 O   0  0  0  0  0  0  0  0  0  0  0  0
   15.2250   -4.7460    6.6940 C   0  0  2  0  0  0  0  0  0  0  0  0
   11.1592  -11.2842   12.9893 O   0  0  0  0  0  0  0  0  0  0  0  0
   17.2175   -9.1090    4.4911 N   0  0  0  0  0  0  0  0  0  0  0  0
   15.9074   -8.6549    4.4458 C   0  0  0  0  0  0  0  0  0  0  0  0
   15.5355   -7.4838    5.0951 N   0  0  0  0  0  0  0  0  0  0  0  0
   16.4665   -6.7751    5.7594 C   0  0  0  0  0  0  0  0  0  0  0  0
   17.7927   -7.2145    5.7994 C   0  0  0  0  0  0  0  0  0  0  0  0
   18.1725   -8.3887    5.1759 C   0  0  0  0  0  0  0  0  0  0  0  0
   19.4284   -8.8067    5.2258 N   0  0  0  0  0  0  0  0  0  0  0  0
   18.5033   -6.3281    6.5054 N   0  0  0  0  0  0  0  0  0  0  0  0
   17.6698   -5.3438    6.9087 C   0  0  0  0  0  0  0  0  0  0  0  0
   16.4016   -5.6018    6.4509 N   0  0  0  0  0  0  0  0  0  0  0  0
  2  1  1  1  0  0  0
  2  3  1  0  0  0  0
  2  5  1  0  0  0  0
  3  4  1  0  0  0  0
  3 17  1  0  0  0  0
  5  6  1  0  0  0  0
  7  6  1  1  0  0  0
  7  8  1  0  0  0  0
  7  9  1  0  0  0  0
 10  9  1  1  0  0  0
 10 11  1  0  0  0  0
 10 12  1  0  0  0  0
 11 16  1  0  0  0  0
 12 13  1  6  0  0  0
 12 14  1  0  0  0  0
 14 15  1  1  0  0  0
 14 16  1  0  0  0  0
 16 27  1  1  0  0  0
 18 19  2  0  0  0  0
 18 23  1  0  0  0  0
 19 20  1  0  0  0  0
 20 21  2  0  0  0  0
 21 22  1  0  0  0  0
 21 27  1  0  0  0  0
 22 23  2  0  0  0  0
 22 25  1  0  0  0  0
 23 24  1  0  0  0  0
 25 26  2  0  0  0  0
 26 27  1  0  0  0  0
M  END
>  <CHROM.1>
-63.19442558,61.51621258,-141.12409781,167.80352759,-175.17030303,-75.74940324
106.39426215,14.54913711,-7.38874500,8.00373579,2.32080075,-0.57900856,2.46496539

>  <Name>
ligand

>  <RI>
0

>  <Rbt.Current_Directory>
/home/itssahil/PROJECTS/Mol_Feturizer/Test_systems_manuscript/rnas/2ydh

>  <Rbt.Executable>
rbdock ($Id: //depot/dev/client3/rdock/2013.1/src/exe/rbdock.cxx#4 $)

>  <Rbt.Library>
libRbt.so (2013.1, Build901 2013/11/27)

>  <Rbt.Parameter_File>
/export/apps/rDock/src/rDock_2013.1_src/data/scripts/dock_solv.prm

>  <Rbt.Receptor>
prm/pocket_docking_6.prm

>  <SCORE>
-12.0431

>  <SCORE.INTER>
-13.603

>  <SCORE.INTER.CONST>
1

>  <SCORE.INTER.POLAR>
0

>  <SCORE.INTER.ROT>
7

>  <SCORE.INTER.SOLV>
11.8298

>  <SCORE.INTER.VDW>
-21.2786

>  <SCORE.INTER.norm>
-0.503814

>  <SCORE.INTRA>
1.55987

>  <SCORE.INTRA.DIHEDRAL>
-1.3653

>  <SCORE.INTRA.DIHEDRAL.0>
9.75037

>  <SCORE.INTRA.POLAR>
0

>  <SCORE.INTRA.POLAR.0>
0

>  <SCORE.INTRA.REPUL>
0

>  <SCORE.INTRA.REPUL.0>
0

>  <SCORE.INTRA.SOLV>
0.283306

>  <SCORE.INTRA.SOLV.lig_0>
-48.4279

>  <SCORE.INTRA.VDW>
2.10087

>  <SCORE.INTRA.VDW.0>
-4.69037

>  <SCORE.INTRA.norm>
0.057773

>  <SCORE.RESTR>
0

>  <SCORE.RESTR.CAVITY>
0

>  <SCORE.RESTR.norm>
0

>  <SCORE.SYSTEM>
0

>  <SCORE.SYSTEM.CONST>
0

>  <SCORE.SYSTEM.DIHEDRAL>
0

>  <SCORE.SYSTEM.SOLV>
0

>  <SCORE.SYSTEM.norm>
0

>  <SCORE.heavy>
27

>  <SCORE.norm>
-0.446041

>  <RMSD>
4.961

$$$$
ligand
 OpenBabel02271912153D
libRbt.so/2013.1/901 2013/11/27
 27 29  0  0  0  0  0  0  0  0999 V2000
   16.0607   -8.9170   12.0109 N   0  0  0  0  0  0  0  0  0  0  0  0
   15.8030   -9.5624   10.6866 C   0  0  2  0  0  0  0  0  0  0  0  0
   16.1548   -8.6069    9.5247 C   0  0  0  0  0  0  0  0  0  0  0  0
   16.6863   -7.5129    9.7373 O   0  0  0  0  0  0  0  0  0  0  0  0
   14.3530  -10.0308   10.6243 C   0  0  0  0  0  0  0  0  0  0  0  0
   13.3465   -9.0416   11.1877 C   0  0  0  0  0  0  0  0  0  0  0  0
   13.5143   -7.3721   10.4937 S   0  0  2  0  0  0  0  0  0  0  0  0
   12.0277   -6.5764   11.1664 C   0  0  0  0  0  0  0  0  0  0  0  0
   13.1151   -7.5027    8.7435 C   0  0  0  0  0  0  0  0  0  0  0  0
   13.5626   -6.2364    8.0385 C   0  0  1  0  0  0  0  0  0  0  0  0
   14.9601   -6.0161    8.1504 O   0  0  0  0  0  0  0  0  0  0  0  0
   13.2377   -6.2804    6.5653 C   0  0  1  0  0  0  0  0  0  0  0  0
   11.9258   -5.8581    6.3262 O   0  0  0  0  0  0  0  0  0  0  0  0
   14.2464   -5.3180    6.0165 C   0  0  1  0  0  0  0  0  0  0  0  0
   13.7149   -4.0077    6.0698 O   0  0  0  0  0  0  0  0  0  0  0  0
   15.4400   -5.4473    6.9541 C   0  0  2  0  0  0  0  0  0  0  0  0
   15.9170   -8.8888    8.3359 O   0  0  0  0  0  0  0  0  0  0  0  0
   16.7478   -9.4806    3.8107 N   0  0  0  0  0  0  0  0  0  0  0  0
   15.4810   -8.9749    4.0638 C   0  0  0  0  0  0  0  0  0  0  0  0
   15.2999   -7.9078    4.9355 N   0  0  0  0  0  0  0  0  0  0  0  0
   16.3730   -7.3494    5.5246 C   0  0  0  0  0  0  0  0  0  0  0  0
   17.6558   -7.8404    5.2658 C   0  0  0  0  0  0  0  0  0  0  0  0
   17.8487   -8.9150    4.4174 C   0  0  0  0  0  0  0  0  0  0  0  0
   19.0654   -9.3837    4.1837 N   0  0  0  0  0  0  0  0  0  0  0  0
   18.5305   -7.1048    5.9605 N   0  0  0  0  0  0  0  0  0  0  0  0
   17.8421   -6.1653    6.6458 C   0  0  0  0  0  0  0  0  0  0  0  0
   16.5012   -6.2987    6.3838 N   0  0  0  0  0  0  0  0  0  0  0  0
  2  1  1  1  0  0  0
  2  3  1  0  0  0  0
  2  5  1  0  0  0  0
  3  4  1  0  0  0  0
  3 17  1  0  0  0  0
  5  6  1  0  0  0  0
  7  6  1  1  0  0  0
  7  8  1  0  0  0  0
  7  9  1  0  0  0  0
 10  9  1  6  0  0  0
 10 11  1  0  0  0  0
 10 12  1  0  0  0  0
 11 16  1  0  0  0  0
 12 13  1  1  0  0  0
 12 14  1  0  0  0  0
 14 15  1  1  0  0  0
 14 16  1  0  0  0  0
 16 27  1  6  0  0  0
 18 19  2  0  0  0  0
 18 23  1  0  0  0  0
 19 20  1  0  0  0  0
 20 21  2  0  0  0  0
 21 22  1  0  0  0  0
 21 27  1  0  0  0  0
 22 23  2  0  0  0  0
 22 25  1  0  0  0  0
 23 24  1  0  0  0  0
 25 26  2  0  0  0  0
 26 27  1  0  0  0  0
M  END
>  <CHROM.1>
5.78922356,42.47221576,51.63155822,171.14033065,-166.09503318,60.40134645
88.50336800,15.23644308,-7.46588273,7.67689383,-2.24466368,0.63998208,-1.13355091

>  <Name>
ligand

>  <RI>
0

>  <Rbt.Current_Directory>
/home/itssahil/PROJECTS/Mol_Feturizer/Test_systems_manuscript/rnas/2ydh

>  <Rbt.Executable>
rbdock ($Id: //depot/dev/client3/rdock/2013.1/src/exe/rbdock.cxx#4 $)

>  <Rbt.Library>
libRbt.so (2013.1, Build901 2013/11/27)

>  <Rbt.Parameter_File>
/export/apps/rDock/src/rDock_2013.1_src/data/scripts/dock_solv.prm

>  <Rbt.Receptor>
prm/pocket_docking_4.prm

>  <SCORE>
-13.6329

>  <SCORE.INTER>
-11.6324

>  <SCORE.INTER.CONST>
1

>  <SCORE.INTER.POLAR>
0

>  <SCORE.INTER.ROT>
7

>  <SCORE.INTER.SOLV>
12.3585

>  <SCORE.INTER.VDW>
-20.1411

>  <SCORE.INTER.norm>
-0.430828

>  <SCORE.INTRA>
-2.00056

>  <SCORE.INTRA.DIHEDRAL>
-4.06355

>  <SCORE.INTRA.DIHEDRAL.0>
9.75037

>  <SCORE.INTRA.POLAR>
0

>  <SCORE.INTRA.POLAR.0>
0

>  <SCORE.INTRA.REPUL>
0

>  <SCORE.INTRA.REPUL.0>
0

>  <SCORE.INTRA.SOLV>
0.662102

>  <SCORE.INTRA.SOLV.lig_0>
-48.4279

>  <SCORE.INTRA.VDW>
-0.299833

>  <SCORE.INTRA.VDW.0>
-4.69037

>  <SCORE.INTRA.norm>
-0.0740948

>  <SCORE.RESTR>
0

>  <SCORE.RESTR.CAVITY>
0

>  <SCORE.RESTR.norm>
0

>  <SCORE.SYSTEM>
0

>  <SCORE.SYSTEM.CONST>
0

>  <SCORE.SYSTEM.DIHEDRAL>
0

>  <SCORE.SYSTEM.SOLV>
0

>  <SCORE.SYSTEM.norm>
0

>  <SCORE.heavy>
27

>  <SCORE.norm>
-0.504923

>  <RMSD>
4.962

$$$$
ligand
 OpenBabel02271912153D
libRbt.so/2013.1/901 2013/11/27
 27 29  0  0  0  0  0  0  0  0999 V2000
   12.8885   -8.2239   14.0232 N   0  0  0  0  0  0  0  0  0  0  0  0
   12.8096   -8.6085   12.5801 C   0  0  2  0  0  0  0  0  0  0  0  0
   13.1054  -10.1127   12.3889 C   0  0  0  0  0  0  0  0  0  0  0  0
   12.9986  -10.6480   11.2813 O   0  0  0  0  0  0  0  0  0  0  0  0
   13.7564   -7.7307   11.7687 C   0  0  0  0  0  0  0  0  0  0  0  0
   13.3056   -6.2871   11.6201 C   0  0  0  0  0  0  0  0  0  0  0  0
   14.5396   -5.2287   10.8114 S   0  0  2  0  0  0  0  0  0  0  0  0
   15.6874   -4.9372   12.1872 C   0  0  0  0  0  0  0  0  0  0  0  0
   13.7735   -3.6126   10.6080 C   0  0  0  0  0  0  0  0  0  0  0  0
   14.1730   -3.0422    9.2606 C   0  0  1  0  0  0  0  0  0  0  0  0
   15.5562   -2.7327    9.1891 O   0  0  0  0  0  0  0  0  0  0  0  0
   13.8774   -4.0107    8.1415 C   0  0  1  0  0  0  0  0  0  0  0  0
   12.5514   -3.8939    7.7115 O   0  0  0  0  0  0  0  0  0  0  0  0
   14.8491   -3.5529    7.0968 C   0  0  1  0  0  0  0  0  0  0  0  0
   14.2549   -2.5229    6.3297 O   0  0  0  0  0  0  0  0  0  0  0  0
   16.0302   -3.0115    7.8919 C   0  0  2  0  0  0  0  0  0  0  0  0
   13.4553  -10.8473   13.3308 O   0  0  0  0  0  0  0  0  0  0  0  0
   19.7318   -5.3893   10.8078 N   0  0  0  0  0  0  0  0  0  0  0  0
   18.8036   -4.4430   11.2173 C   0  0  0  0  0  0  0  0  0  0  0  0
   17.8964   -3.8974   10.3169 N   0  0  0  0  0  0  0  0  0  0  0  0
   17.9108   -4.3098    9.0362 C   0  0  0  0  0  0  0  0  0  0  0  0
   18.8312   -5.2737    8.6152 C   0  0  0  0  0  0  0  0  0  0  0  0
   19.7534   -5.8094    9.4953 C   0  0  0  0  0  0  0  0  0  0  0  0
   20.6309   -6.7147    9.0890 N   0  0  0  0  0  0  0  0  0  0  0  0
   18.6215   -5.5091    7.3154 N   0  0  0  0  0  0  0  0  0  0  0  0
   17.5981   -4.7281    6.9044 C   0  0  0  0  0  0  0  0  0  0  0  0
   17.1408   -3.9798    7.9606 N   0  0  0  0  0  0  0  0  0  0  0  0
  2  1  1  1  0  0  0
  2  3  1  0  0  0  0
  2  5  1  0  0  0  0
  3  4  1  0  0  0  0
  3 17  1  0  0  0  0
  5  6  1  0  0  0  0
  7  6  1  1  0  0  0
  7  8  1  0  0  0  0
  7  9  1  0  0  0  0
 10  9  1  1  0  0  0
 10 11  1  0  0  0  0
 10 12  1  0  0  0  0
 11 16  1  0  0  0  0
 12 13  1  6  0  0  0
 12 14  1  0  0  0  0
 14 15  1  1  0  0  0
 14 16  1  0  0  0  0
 16 27  1  1  0  0  0
 18 19  2  0  0  0  0
 18 23  1  0  0  0  0
 19 20  1  0  0  0  0
 20 21  2  0  0  0  0
 21 22  1  0  0  0  0
 21 27  1  0  0  0  0
 22 23  2  0  0  0  0
 22 25  1  0  0  0  0
 23 24  1  0  0  0  0
 25 26  2  0  0  0  0
 26 27  1  0  0  0  0
M  END
>  <CHROM.1>
174.89190389,-71.50050974,173.54909343,-78.32639721,-140.68174826,-67.20272945
-18.32084095,15.57594321,-5.52687938,9.94877427,-2.11783658,0.07042630,-0.66372608

>  <Name>
ligand

>  <RI>
0

>  <Rbt.Current_Directory>
/home/itssahil/PROJECTS/Mol_Feturizer/Test_systems_manuscript/rnas/2ydh

>  <Rbt.Executable>
rbdock ($Id: //depot/dev/client3/rdock/2013.1/src/exe/rbdock.cxx#4 $)

>  <Rbt.Library>
libRbt.so (2013.1, Build901 2013/11/27)

>  <Rbt.Parameter_File>
/export/apps/rDock/src/rDock_2013.1_src/data/scripts/dock_solv.prm

>  <Rbt.Receptor>
prm/pocket_docking_8.prm

>  <SCORE>
-13.1284

>  <SCORE.INTER>
-13.7579

>  <SCORE.INTER.CONST>
1

>  <SCORE.INTER.POLAR>
0

>  <SCORE.INTER.ROT>
7

>  <SCORE.INTER.SOLV>
9.59745

>  <SCORE.INTER.VDW>
-20.6378

>  <SCORE.INTER.norm>
-0.509553

>  <SCORE.INTRA>
0.629566

>  <SCORE.INTRA.DIHEDRAL>
-1.55433

>  <SCORE.INTRA.DIHEDRAL.0>
9.75037

>  <SCORE.INTRA.POLAR>
0

>  <SCORE.INTRA.POLAR.0>
0

>  <SCORE.INTRA.REPUL>
0

>  <SCORE.INTRA.REPUL.0>
0

>  <SCORE.INTRA.SOLV>
-0.58556

>  <SCORE.INTRA.SOLV.lig_0>
-48.4279

>  <SCORE.INTRA.VDW>
1.69951

>  <SCORE.INTRA.VDW.0>
-4.69037

>  <SCORE.INTRA.norm>
0.0233173

>  <SCORE.RESTR>
0

>  <SCORE.RESTR.CAVITY>
0

>  <SCORE.RESTR.norm>
0

>  <SCORE.SYSTEM>
0

>  <SCORE.SYSTEM.CONST>
0

>  <SCORE.SYSTEM.DIHEDRAL>
0

>  <SCORE.SYSTEM.SOLV>
0

>  <SCORE.SYSTEM.norm>
0

>  <SCORE.heavy>
27

>  <SCORE.norm>
-0.486236

>  <RMSD>
4.964

$$$$
ligand
 OpenBabel02271912153D
libRbt.so/2013.1/901 2013/11/27
 27 29  0  0  0  0  0  0  0  0999 V2000
   15.6030   -5.2475   12.6128 N   0  0  0  0  0  0  0  0  0  0  0  0
   14.3683   -4.8468   11.8701 C   0  0  2  0  0  0  0  0  0  0  0  0
   13.2321   -5.8709   12.0870 C   0  0  0  0  0  0  0  0  0  0  0  0
   13.1171   -6.4792   13.1553 O   0  0  0  0  0  0  0  0  0  0  0  0
   14.7015   -4.6648   10.3931 C   0  0  0  0  0  0  0  0  0  0  0  0
   15.5720   -3.4574   10.0875 C   0  0  0  0  0  0  0  0  0  0  0  0
   15.8639   -3.2130    8.3122 S   0  0  2  0  0  0  0  0  0  0  0  0
   16.3595   -1.4667    8.2891 C   0  0  0  0  0  0  0  0  0  0  0  0
   14.2438   -3.1574    7.5298 C   0  0  0  0  0  0  0  0  0  0  0  0
   14.0445   -4.4215    6.7155 C   0  0  1  0  0  0  0  0  0  0  0  0
   15.1308   -4.6820    5.8402 O   0  0  0  0  0  0  0  0  0  0  0  0
   13.8913   -5.6320    7.6038 C   0  0  1  0  0  0  0  0  0  0  0  0
   12.5655   -5.7848    8.0227 O   0  0  0  0  0  0  0  0  0  0  0  0
   14.3172   -6.7288    6.6761 C   0  0  1  0  0  0  0  0  0  0  0  0
   13.1978   -7.1657    5.9290 O   0  0  0  0  0  0  0  0  0  0  0  0
   15.3443   -6.0724    5.7626 C   0  0  2  0  0  0  0  0  0  0  0  0
   12.3936   -6.1315   11.2048 O   0  0  0  0  0  0  0  0  0  0  0  0
   19.5794   -9.1709    5.1949 N   0  0  0  0  0  0  0  0  0  0  0  0
   18.3685   -9.2532    4.5230 C   0  0  0  0  0  0  0  0  0  0  0  0
   17.3376   -8.3629    4.7989 N   0  0  0  0  0  0  0  0  0  0  0  0
   17.5286   -7.3986    5.7175 C   0  0  0  0  0  0  0  0  0  0  0  0
   18.7495   -7.2961    6.3901 C   0  0  0  0  0  0  0  0  0  0  0  0
   19.7763   -8.1881    6.1410 C   0  0  0  0  0  0  0  0  0  0  0  0
   20.9278   -8.0936    6.7889 N   0  0  0  0  0  0  0  0  0  0  0  0
   18.6769   -6.2558    7.2276 N   0  0  0  0  0  0  0  0  0  0  0  0
   17.4524   -5.6980    7.1029 C   0  0  0  0  0  0  0  0  0  0  0  0
   16.7269   -6.3913    6.1662 N   0  0  0  0  0  0  0  0  0  0  0  0
  2  1  1  1  0  0  0
  2  3  1  0  0  0  0
  2  5  1  0  0  0  0
  3  4  1  0  0  0  0
  3 17  1  0  0  0  0
  5  6  1  0  0  0  0
  7  6  1  1  0  0  0
  7  8  1  0  0  0  0
  7  9  1  0  0  0  0
 10  9  1  1  0  0  0
 10 11  1  0  0  0  0
 10 12  1  0  0  0  0
 11 16  1  0  0  0  0
 12 13  1  6  0  0  0
 12 14  1  0  0  0  0
 14 15  1  6  0  0  0
 14 16  1  0  0  0  0
 16 27  1  1  0  0  0
 18 19  2  0  0  0  0
 18 23  1  0  0  0  0
 19 20  1  0  0  0  0
 20 21  2  0  0  0  0
 21 22  1  0  0  0  0
 21 27  1  0  0  0  0
 22 23  2  0  0  0  0
 22 25  1  0  0  0  0
 23 24  1  0  0  0  0
 25 26  2  0  0  0  0
 26 27  1  0  0  0  0
M  END
>  <CHROM.1>
32.91443481,-69.67581179,-176.44551995,160.33911385,-109.25570592,-50.82906686
-148.00220148,15.79370755,-5.79531204,7.93254527,-2.41946805,0.60987375,-1.52243692

>  <Name>
ligand

>  <RI>
0

>  <Rbt.Current_Directory>
/home/itssahil/PROJECTS/Mol_Feturizer/Test_systems_manuscript/rnas/2ydh

>  <Rbt.Executable>
rbdock ($Id: //depot/dev/client3/rdock/2013.1/src/exe/rbdock.cxx#4 $)

>  <Rbt.Library>
libRbt.so (2013.1, Build901 2013/11/27)

>  <Rbt.Parameter_File>
/export/apps/rDock/src/rDock_2013.1_src/data/scripts/dock_solv.prm

>  <Rbt.Receptor>
prm/pocket_docking_7.prm

>  <SCORE>
-12.7832

>  <SCORE.INTER>
-13.1346

>  <SCORE.INTER.CONST>
1

>  <SCORE.INTER.POLAR>
0

>  <SCORE.INTER.ROT>
7

>  <SCORE.INTER.SOLV>
10.658

>  <SCORE.INTER.VDW>
-20.5757

>  <SCORE.INTER.norm>
-0.486466

>  <SCORE.INTRA>
0.351407

>  <SCORE.INTRA.DIHEDRAL>
-2.01524

>  <SCORE.INTRA.DIHEDRAL.0>
9.75037

>  <SCORE.INTRA.POLAR>
0

>  <SCORE.INTRA.POLAR.0>
0

>  <SCORE.INTRA.REPUL>
0

>  <SCORE.INTRA.REPUL.0>
0

>  <SCORE.INTRA.SOLV>
-0.36036

>  <SCORE.INTRA.SOLV.lig_0>
-48.4279

>  <SCORE.INTRA.VDW>
1.5392

>  <SCORE.INTRA.VDW.0>
-4.69037

>  <SCORE.INTRA.norm>
0.0130151

>  <SCORE.RESTR>
0

>  <SCORE.RESTR.CAVITY>
0

>  <SCORE.RESTR.norm>
0

>  <SCORE.SYSTEM>
0

>  <SCORE.SYSTEM.CONST>
0

>  <SCORE.SYSTEM.DIHEDRAL>
0

>  <SCORE.SYSTEM.SOLV>
0

>  <SCORE.SYSTEM.norm>
0

>  <SCORE.heavy>
27

>  <SCORE.norm>
-0.473451

>  <RMSD>
4.975

$$$$
ligand
 OpenBabel02271912153D
libRbt.so/2013.1/901 2013/11/27
 27 29  0  0  0  0  0  0  0  0999 V2000
   14.0590   -7.9362    9.2988 N   0  0  0  0  0  0  0  0  0  0  0  0
   13.2452   -8.2371   10.5170 C   0  0  2  0  0  0  0  0  0  0  0  0
   11.9376   -8.9706   10.1447 C   0  0  0  0  0  0  0  0  0  0  0  0
   11.0213   -9.0959   10.9629 O   0  0  0  0  0  0  0  0  0  0  0  0
   12.9795   -6.9445   11.2813 C   0  0  0  0  0  0  0  0  0  0  0  0
   14.2307   -6.2238   11.7548 C   0  0  0  0  0  0  0  0  0  0  0  0
   14.9728   -5.1617   10.4827 S   0  0  2  0  0  0  0  0  0  0  0  0
   16.4591   -4.5842   11.3505 C   0  0  0  0  0  0  0  0  0  0  0  0
   13.9701   -3.6686   10.4136 C   0  0  0  0  0  0  0  0  0  0  0  0
   14.1828   -2.9917    9.0730 C   0  0  1  0  0  0  0  0  0  0  0  0
   15.5570   -2.8291    8.7575 O   0  0  0  0  0  0  0  0  0  0  0  0
   13.5613   -3.7848    7.9493 C   0  0  1  0  0  0  0  0  0  0  0  0
   12.2051   -3.4743    7.8041 O   0  0  0  0  0  0  0  0  0  0  0  0
   14.3730   -3.3170    6.7800 C   0  0  1  0  0  0  0  0  0  0  0  0
   13.7855   -2.1458    6.2458 O   0  0  0  0  0  0  0  0  0  0  0  0
   15.7414   -3.0045    7.3718 C   0  0  2  0  0  0  0  0  0  0  0  0
   11.7507   -9.4681    9.0191 O   0  0  0  0  0  0  0  0  0  0  0  0
   16.6759   -7.8341    5.4586 N   0  0  0  0  0  0  0  0  0  0  0  0
   15.4756   -7.1386    5.4643 C   0  0  0  0  0  0  0  0  0  0  0  0
   15.3892   -5.8693    6.0238 N   0  0  0  0  0  0  0  0  0  0  0  0
   16.4919   -5.3047    6.5487 C   0  0  0  0  0  0  0  0  0  0  0  0
   17.7104   -5.9894    6.5352 C   0  0  0  0  0  0  0  0  0  0  0  0
   17.8061   -7.2613    6.0011 C   0  0  0  0  0  0  0  0  0  0  0  0
   18.9607   -7.9106    6.0004 N   0  0  0  0  0  0  0  0  0  0  0  0
   18.6345   -5.2048    7.1003 N   0  0  0  0  0  0  0  0  0  0  0  0
   18.0397   -4.0480    7.4665 C   0  0  0  0  0  0  0  0  0  0  0  0
   16.7101   -4.0898    7.1277 N   0  0  0  0  0  0  0  0  0  0  0  0
  2  1  1  6  0  0  0
  2  3  1  0  0  0  0
  2  5  1  0  0  0  0
  3  4  1  0  0  0  0
  3 17  1  0  0  0  0
  5  6  1  0  0  0  0
  7  6  1  1  0  0  0
  7  8  1  0  0  0  0
  7  9  1  0  0  0  0
 10  9  1  1  0  0  0
 10 11  1  0  0  0  0
 10 12  1  0  0  0  0
 11 16  1  0  0  0  0
 12 13  1  6  0  0  0
 12 14  1  0  0  0  0
 14 15  1  1  0  0  0
 14 16  1  0  0  0  0
 16 27  1  1  0  0  0
 18 19  2  0  0  0  0
 18 23  1  0  0  0  0
 19 20  1  0  0  0  0
 20 21  2  0  0  0  0
 21 22  1  0  0  0  0
 21 27  1  0  0  0  0
 22 23  2  0  0  0  0
 22 25  1  0  0  0  0
 23 24  1  0  0  0  0
 25 26  2  0  0  0  0
 26 27  1  0  0  0  0
M  END
>  <CHROM.1>
-166.87929338,-60.11668622,83.77011549,-176.21097946,-158.77481726,-50.04107207
113.71160072,14.95280289,-5.60898192,8.41270127,-2.72729742,0.74687738,0.04485441

>  <Name>
ligand

>  <RI>
0

>  <Rbt.Current_Directory>
/home/itssahil/PROJECTS/Mol_Feturizer/Test_systems_manuscript/rnas/2ydh

>  <Rbt.Executable>
rbdock ($Id: //depot/dev/client3/rdock/2013.1/src/exe/rbdock.cxx#4 $)

>  <Rbt.Library>
libRbt.so (2013.1, Build901 2013/11/27)

>  <Rbt.Parameter_File>
/export/apps/rDock/src/rDock_2013.1_src/data/scripts/dock_solv.prm

>  <Rbt.Receptor>
prm/pocket_docking_6.prm

>  <SCORE>
-14.1486

>  <SCORE.INTER>
-14.9311

>  <SCORE.INTER.CONST>
1

>  <SCORE.INTER.POLAR>
0

>  <SCORE.INTER.ROT>
7

>  <SCORE.INTER.SOLV>
11.63

>  <SCORE.INTER.VDW>
-22.0974

>  <SCORE.INTER.norm>
-0.553003

>  <SCORE.INTRA>
0.782469

>  <SCORE.INTRA.DIHEDRAL>
-2.11984

>  <SCORE.INTRA.DIHEDRAL.0>
9.75037

>  <SCORE.INTRA.POLAR>
0

>  <SCORE.INTRA.POLAR.0>
0

>  <SCORE.INTRA.REPUL>
0

>  <SCORE.INTRA.REPUL.0>
0

>  <SCORE.INTRA.SOLV>
0.989701

>  <SCORE.INTRA.SOLV.lig_0>
-48.4279

>  <SCORE.INTRA.VDW>
1.34754

>  <SCORE.INTRA.VDW.0>
-4.69037

>  <SCORE.INTRA.norm>
0.0289804

>  <SCORE.RESTR>
0

>  <SCORE.RESTR.CAVITY>
0

>  <SCORE.RESTR.norm>
0

>  <SCORE.SYSTEM>
0

>  <SCORE.SYSTEM.CONST>
0

>  <SCORE.SYSTEM.DIHEDRAL>
0

>  <SCORE.SYSTEM.SOLV>
0

>  <SCORE.SYSTEM.norm>
0

>  <SCORE.heavy>
27

>  <SCORE.norm>
-0.524023

>  <RMSD>
4.978

$$$$
ligand
 OpenBabel02271912153D
libRbt.so/2013.1/901 2013/11/27
 27 29  0  0  0  0  0  0  0  0999 V2000
   18.4136   -4.4988   11.3978 N   0  0  0  0  0  0  0  0  0  0  0  0
   17.0464   -4.0570   10.9827 C   0  0  2  0  0  0  0  0  0  0  0  0
   16.0206   -4.2858   12.1150 C   0  0  0  0  0  0  0  0  0  0  0  0
   16.0958   -5.2720   12.8541 O   0  0  0  0  0  0  0  0  0  0  0  0
   16.6501   -4.7747    9.6968 C   0  0  0  0  0  0  0  0  0  0  0  0
   17.3844   -4.2956    8.4557 C   0  0  0  0  0  0  0  0  0  0  0  0
   16.5634   -2.9038    7.6276 S   0  0  2  0  0  0  0  0  0  0  0  0
   16.7228   -1.6150    8.8961 C   0  0  0  0  0  0  0  0  0  0  0  0
   14.7984   -3.2553    7.6642 C   0  0  0  0  0  0  0  0  0  0  0  0
   14.5145   -4.4534    6.7786 C   0  0  1  0  0  0  0  0  0  0  0  0
   14.9185   -5.6773    7.3727 O   0  0  0  0  0  0  0  0  0  0  0  0
   13.0421   -4.5755    6.4702 C   0  0  1  0  0  0  0  0  0  0  0  0
   12.6892   -3.7796    5.3754 O   0  0  0  0  0  0  0  0  0  0  0  0
   12.9303   -6.0374    6.1613 C   0  0  1  0  0  0  0  0  0  0  0  0
   13.2098   -6.2447    4.7897 O   0  0  0  0  0  0  0  0  0  0  0  0
   14.0005   -6.6889    7.0276 C   0  0  2  0  0  0  0  0  0  0  0  0
   15.0793   -3.5000   12.3292 O   0  0  0  0  0  0  0  0  0  0  0  0
   12.7176   -6.1343   12.1174 N   0  0  0  0  0  0  0  0  0  0  0  0
   13.2880   -5.1904   11.2758 C   0  0  0  0  0  0  0  0  0  0  0  0
   13.5807   -5.4986    9.9526 N   0  0  0  0  0  0  0  0  0  0  0  0
   13.2876   -6.7244    9.4817 C   0  0  0  0  0  0  0  0  0  0  0  0
   12.6989   -7.6790   10.3158 C   0  0  0  0  0  0  0  0  0  0  0  0
   12.4218   -7.3931   11.6400 C   0  0  0  0  0  0  0  0  0  0  0  0
   11.8738   -8.3046   12.4295 N   0  0  0  0  0  0  0  0  0  0  0  0
   12.5033   -8.7922    9.6006 N   0  0  0  0  0  0  0  0  0  0  0  0
   12.9464   -8.5698    8.3435 C   0  0  0  0  0  0  0  0  0  0  0  0
   13.4326   -7.2895    8.2494 N   0  0  0  0  0  0  0  0  0  0  0  0
  2  1  1  1  0  0  0
  2  3  1  0  0  0  0
  2  5  1  0  0  0  0
  3  4  1  0  0  0  0
  3 17  1  0  0  0  0
  5  6  1  0  0  0  0
  7  6  1  1  0  0  0
  7  8  1  0  0  0  0
  7  9  1  0  0  0  0
 10  9  1  1  0  0  0
 10 11  1  0  0  0  0
 10 12  1  0  0  0  0
 11 16  1  0  0  0  0
 12 13  1  6  0  0  0
 12 14  1  0  0  0  0
 14 15  1  6  0  0  0
 14 16  1  0  0  0  0
 16 27  1  1  0  0  0
 18 19  2  0  0  0  0
 18 23  1  0  0  0  0
 19 20  1  0  0  0  0
 20 21  2  0  0  0  0
 21 22  1  0  0  0  0
 21 27  1  0  0  0  0
 22 23  2  0  0  0  0
 22 25  1  0  0  0  0
 23 24  1  0  0  0  0
 25 26  2  0  0  0  0
 26 27  1  0  0  0  0
M  END
>  <CHROM.1>
-36.32394957,-72.37433555,-88.44149214,65.24199299,-67.47590655,74.91917671
26.29541811,14.53802567,-5.28712238,9.12653093,-0.14940040,0.76992534,1.83205730

>  <Name>
ligand

>  <RI>
0

>  <Rbt.Current_Directory>
/home/itssahil/PROJECTS/Mol_Feturizer/Test_systems_manuscript/rnas/2ydh

>  <Rbt.Executable>
rbdock ($Id: //depot/dev/client3/rdock/2013.1/src/exe/rbdock.cxx#4 $)

>  <Rbt.Library>
libRbt.so (2013.1, Build901 2013/11/27)

>  <Rbt.Parameter_File>
/export/apps/rDock/src/rDock_2013.1_src/data/scripts/dock_solv.prm

>  <Rbt.Receptor>
prm/pocket_docking_3.prm

>  <SCORE>
-16.3683

>  <SCORE.INTER>
-15.8065

>  <SCORE.INTER.CONST>
1

>  <SCORE.INTER.POLAR>
0

>  <SCORE.INTER.ROT>
7

>  <SCORE.INTER.SOLV>
13.9536

>  <SCORE.INTER.VDW>
-23.4555

>  <SCORE.INTER.norm>
-0.585426

>  <SCORE.INTRA>
-0.577507

>  <SCORE.INTRA.DIHEDRAL>
-2.39208

>  <SCORE.INTRA.DIHEDRAL.0>
9.75037

>  <SCORE.INTRA.POLAR>
0

>  <SCORE.INTRA.POLAR.0>
0

>  <SCORE.INTRA.REPUL>
0

>  <SCORE.INTRA.REPUL.0>
0

>  <SCORE.INTRA.SOLV>
-0.131339

>  <SCORE.INTRA.SOLV.lig_0>
-48.4279

>  <SCORE.INTRA.VDW>
0.684202

>  <SCORE.INTRA.VDW.0>
-4.69037

>  <SCORE.INTRA.norm>
-0.0213892

>  <SCORE.RESTR>
0.0157323

>  <SCORE.RESTR.CAVITY>
0.0157323

>  <SCORE.RESTR.norm>
0.000582679

>  <SCORE.SYSTEM>
0

>  <SCORE.SYSTEM.CONST>
0

>  <SCORE.SYSTEM.DIHEDRAL>
0

>  <SCORE.SYSTEM.SOLV>
0

>  <SCORE.SYSTEM.norm>
0

>  <SCORE.heavy>
27

>  <SCORE.norm>
-0.606233

>  <RMSD>
4.979

$$$$
ligand
 OpenBabel02271912153D
libRbt.so/2013.1/901 2013/11/27
 27 29  0  0  0  0  0  0  0  0999 V2000
   14.9189   -8.8800   11.4912 N   0  0  0  0  0  0  0  0  0  0  0  0
   14.2278   -8.8913   10.1650 C   0  0  2  0  0  0  0  0  0  0  0  0
   12.9525   -9.7621   10.2102 C   0  0  0  0  0  0  0  0  0  0  0  0
   12.8910  -10.7665   10.9259 O   0  0  0  0  0  0  0  0  0  0  0  0
   15.2025   -9.3581    9.0891 C   0  0  0  0  0  0  0  0  0  0  0  0
   15.7350   -8.2491    8.1972 C   0  0  0  0  0  0  0  0  0  0  0  0
   14.5360   -7.6888    6.9540 S   0  0  2  0  0  0  0  0  0  0  0  0
   14.8847   -8.8493    5.6022 C   0  0  0  0  0  0  0  0  0  0  0  0
   15.1688   -6.1380    6.2948 C   0  0  0  0  0  0  0  0  0  0  0  0
   14.2998   -4.9985    6.7917 C   0  0  1  0  0  0  0  0  0  0  0  0
   13.2569   -5.4419    7.6459 O   0  0  0  0  0  0  0  0  0  0  0  0
   15.1071   -3.9860    7.5670 C   0  0  1  0  0  0  0  0  0  0  0  0
   15.7041   -3.0553    6.7102 O   0  0  0  0  0  0  0  0  0  0  0  0
   14.0467   -3.3627    8.4225 C   0  0  1  0  0  0  0  0  0  0  0  0
   13.4419   -2.2995    7.7112 O   0  0  0  0  0  0  0  0  0  0  0  0
   13.0440   -4.4849    8.6578 C   0  0  2  0  0  0  0  0  0  0  0  0
   11.9424   -9.4989    9.5322 O   0  0  0  0  0  0  0  0  0  0  0  0
   15.7348   -4.7171   13.1926 N   0  0  0  0  0  0  0  0  0  0  0  0
   15.9557   -3.8727   12.1143 C   0  0  0  0  0  0  0  0  0  0  0  0
   15.1608   -3.9458   10.9765 N   0  0  0  0  0  0  0  0  0  0  0  0
   14.1533   -4.8364   10.9333 C   0  0  0  0  0  0  0  0  0  0  0  0
   13.9115   -5.6821   12.0195 C   0  0  0  0  0  0  0  0  0  0  0  0
   14.7075   -5.6350   13.1492 C   0  0  0  0  0  0  0  0  0  0  0  0
   14.4811   -6.4460   14.1717 N   0  0  0  0  0  0  0  0  0  0  0  0
   12.8565   -6.4489   11.7227 N   0  0  0  0  0  0  0  0  0  0  0  0
   12.4241   -6.1125   10.4874 C   0  0  0  0  0  0  0  0  0  0  0  0
   13.2143   -5.1096    9.9833 N   0  0  0  0  0  0  0  0  0  0  0  0
  2  1  1  1  0  0  0
  2  3  1  0  0  0  0
  2  5  1  0  0  0  0
  3  4  1  0  0  0  0
  3 17  1  0  0  0  0
  5  6  1  0  0  0  0
  7  6  1  1  0  0  0
  7  8  1  0  0  0  0
  7  9  1  0  0  0  0
 10  9  1  1  0  0  0
 10 11  1  0  0  0  0
 10 12  1  0  0  0  0
 11 16  1  0  0  0  0
 12 13  1  6  0  0  0
 12 14  1  0  0  0  0
 14 15  1  6  0  0  0
 14 16  1  0  0  0  0
 16 27  1  1  0  0  0
 18 19  2  0  0  0  0
 18 23  1  0  0  0  0
 19 20  1  0  0  0  0
 20 21  2  0  0  0  0
 21 22  1  0  0  0  0
 21 27  1  0  0  0  0
 22 23  2  0  0  0  0
 22 25  1  0  0  0  0
 23 24  1  0  0  0  0
 25 26  2  0  0  0  0
 26 27  1  0  0  0  0
M  END
>  <CHROM.1>
-32.91945606,-104.51533914,-76.32703154,-87.73457985,-108.87147573,1.11164214
115.82930819,14.22468772,-6.33647842,9.45172368,-2.75402084,-1.43282560,-1.86843930

>  <Name>
ligand

>  <RI>
0

>  <Rbt.Current_Directory>
/home/itssahil/PROJECTS/Mol_Feturizer/Test_systems_manuscript/rnas/2ydh

>  <Rbt.Executable>
rbdock ($Id: //depot/dev/client3/rdock/2013.1/src/exe/rbdock.cxx#4 $)

>  <Rbt.Library>
libRbt.so (2013.1, Build901 2013/11/27)

>  <Rbt.Parameter_File>
/export/apps/rDock/src/rDock_2013.1_src/data/scripts/dock_solv.prm

>  <Rbt.Receptor>
prm/pocket_docking_2.prm

>  <SCORE>
-0.174623

>  <SCORE.INTER>
-7.43486

>  <SCORE.INTER.CONST>
1

>  <SCORE.INTER.POLAR>
0

>  <SCORE.INTER.ROT>
7

>  <SCORE.INTER.SOLV>
13.8515

>  <SCORE.INTER.VDW>
-17.8404

>  <SCORE.INTER.norm>
-0.275365

>  <SCORE.INTRA>
6.03663

>  <SCORE.INTRA.DIHEDRAL>
9.08412

>  <SCORE.INTRA.DIHEDRAL.0>
9.75037

>  <SCORE.INTRA.POLAR>
0

>  <SCORE.INTRA.POLAR.0>
0

>  <SCORE.INTRA.REPUL>
0

>  <SCORE.INTRA.REPUL.0>
0

>  <SCORE.INTRA.SOLV>
1.43231

>  <SCORE.INTRA.SOLV.lig_0>
-48.4279

>  <SCORE.INTRA.VDW>
0.778415

>  <SCORE.INTRA.VDW.0>
-4.69037

>  <SCORE.INTRA.norm>
0.223579

>  <SCORE.RESTR>
1.22361

>  <SCORE.RESTR.CAVITY>
1.22361

>  <SCORE.RESTR.norm>
0.0453189

>  <SCORE.SYSTEM>
0

>  <SCORE.SYSTEM.CONST>
0

>  <SCORE.SYSTEM.DIHEDRAL>
0

>  <SCORE.SYSTEM.SOLV>
0

>  <SCORE.SYSTEM.norm>
0

>  <SCORE.heavy>
27

>  <SCORE.norm>
-0.00646752

>  <RMSD>
4.991

$$$$
ligand
 OpenBabel02271912153D
libRbt.so/2013.1/901 2013/11/27
 27 29  0  0  0  0  0  0  0  0999 V2000
   13.6798   -8.3605   12.5538 N   0  0  0  0  0  0  0  0  0  0  0  0
   13.3020   -8.4562   11.1100 C   0  0  2  0  0  0  0  0  0  0  0  0
   11.7677   -8.5163   10.9397 C   0  0  0  0  0  0  0  0  0  0  0  0
   11.0174   -7.8860   11.6910 O   0  0  0  0  0  0  0  0  0  0  0  0
   13.9957   -9.6609   10.4829 C   0  0  0  0  0  0  0  0  0  0  0  0
   15.4593   -9.4374   10.1404 C   0  0  0  0  0  0  0  0  0  0  0  0
   15.7183   -8.1168    8.9215 S   0  0  2  0  0  0  0  0  0  0  0  0
   17.5200   -8.1978    8.7143 C   0  0  0  0  0  0  0  0  0  0  0  0
   15.5075   -6.5603    9.8005 C   0  0  0  0  0  0  0  0  0  0  0  0
   14.7743   -5.5813    8.9035 C   0  0  1  0  0  0  0  0  0  0  0  0
   15.3674   -5.4711    7.6189 O   0  0  0  0  0  0  0  0  0  0  0  0
   13.3377   -5.9937    8.6941 C   0  0  1  0  0  0  0  0  0  0  0  0
   12.5244   -5.5312    9.7340 O   0  0  0  0  0  0  0  0  0  0  0  0
   13.0274   -5.3159    7.3944 C   0  0  1  0  0  0  0  0  0  0  0  0
   12.5856   -3.9967    7.6525 O   0  0  0  0  0  0  0  0  0  0  0  0
   14.3575   -5.2968    6.6521 C   0  0  2  0  0  0  0  0  0  0  0  0
   11.2227   -9.1983   10.0524 O   0  0  0  0  0  0  0  0  0  0  0  0
   17.2394   -9.0667    4.3411 N   0  0  0  0  0  0  0  0  0  0  0  0
   17.6174   -8.2176    5.3711 C   0  0  0  0  0  0  0  0  0  0  0  0
   16.7396   -7.2598    5.8644 N   0  0  0  0  0  0  0  0  0  0  0  0
   15.5015   -7.1716    5.3451 C   0  0  0  0  0  0  0  0  0  0  0  0
   15.1041   -8.0316    4.3175 C   0  0  0  0  0  0  0  0  0  0  0  0
   15.9740   -8.9750    3.8025 C   0  0  0  0  0  0  0  0  0  0  0  0
   15.5963   -9.7804    2.8212 N   0  0  0  0  0  0  0  0  0  0  0  0
   13.8373   -7.7425    4.0000 N   0  0  0  0  0  0  0  0  0  0  0  0
   13.4228   -6.7315    4.7950 C   0  0  0  0  0  0  0  0  0  0  0  0
   14.4412   -6.3669    5.6402 N   0  0  0  0  0  0  0  0  0  0  0  0
  2  1  1  1  0  0  0
  2  3  1  0  0  0  0
  2  5  1  0  0  0  0
  3  4  1  0  0  0  0
  3 17  1  0  0  0  0
  5  6  1  0  0  0  0
  7  6  1  1  0  0  0
  7  8  1  0  0  0  0
  7  9  1  0  0  0  0
 10  9  1  1  0  0  0
 10 11  1  0  0  0  0
 10 12  1  0  0  0  0
 11 16  1  0  0  0  0
 12 13  1  1  0  0  0
 12 14  1  0  0  0  0
 14 15  1  1  0  0  0
 14 16  1  0  0  0  0
 16 27  1  6  0  0  0
 18 19  2  0  0  0  0
 18 23  1  0  0  0  0
 19 20  1  0  0  0  0
 20 21  2  0  0  0  0
 21 22  1  0  0  0  0
 21 27  1  0  0  0  0
 22 23  2  0  0  0  0
 22 25  1  0  0  0  0
 23 24  1  0  0  0  0
 25 26  2  0  0  0  0
 26 27  1  0  0  0  0
M  END
>  <CHROM.1>
35.25051268,-78.36860739,-61.58363547,-177.44835255,-141.04296815,-51.05845544
-19.89232742,14.48066784,-7.45003823,7.83075520,-2.22247487,0.78668714,-1.10738938

>  <Name>
ligand

>  <RI>
0

>  <Rbt.Current_Directory>
/home/itssahil/PROJECTS/Mol_Feturizer/Test_systems_manuscript/rnas/2ydh

>  <Rbt.Executable>
rbdock ($Id: //depot/dev/client3/rdock/2013.1/src/exe/rbdock.cxx#4 $)

>  <Rbt.Library>
libRbt.so (2013.1, Build901 2013/11/27)

>  <Rbt.Parameter_File>
/export/apps/rDock/src/rDock_2013.1_src/data/scripts/dock_solv.prm

>  <Rbt.Receptor>
prm/pocket_docking_6.prm

>  <SCORE>
-8.53517

>  <SCORE.INTER>
-8.59971

>  <SCORE.INTER.CONST>
1

>  <SCORE.INTER.POLAR>
0

>  <SCORE.INTER.ROT>
7

>  <SCORE.INTER.SOLV>
14.6663

>  <SCORE.INTER.VDW>
-18.8886

>  <SCORE.INTER.norm>
-0.318508

>  <SCORE.INTRA>
0.0645338

>  <SCORE.INTRA.DIHEDRAL>
-1.0067

>  <SCORE.INTRA.DIHEDRAL.0>
9.75037

>  <SCORE.INTRA.POLAR>
0

>  <SCORE.INTRA.POLAR.0>
0

>  <SCORE.INTRA.REPUL>
0

>  <SCORE.INTRA.REPUL.0>
0

>  <SCORE.INTRA.SOLV>
0.928636

>  <SCORE.INTRA.SOLV.lig_0>
-48.4279

>  <SCORE.INTRA.VDW>
0.103565

>  <SCORE.INTRA.VDW.0>
-4.69037

>  <SCORE.INTRA.norm>
0.00239014

>  <SCORE.RESTR>
0

>  <SCORE.RESTR.CAVITY>
0

>  <SCORE.RESTR.norm>
0

>  <SCORE.SYSTEM>
0

>  <SCORE.SYSTEM.CONST>
0

>  <SCORE.SYSTEM.DIHEDRAL>
0

>  <SCORE.SYSTEM.SOLV>
0

>  <SCORE.SYSTEM.norm>
0

>  <SCORE.heavy>
27

>  <SCORE.norm>
-0.316118

>  <RMSD>
4.993

$$$$
ligand
 OpenBabel02271912153D
libRbt.so/2013.1/901 2013/11/27
 27 29  0  0  0  0  0  0  0  0999 V2000
   15.5585   -9.4695   13.9658 N   0  0  0  0  0  0  0  0  0  0  0  0
   15.2849   -9.2060   12.5193 C   0  0  2  0  0  0  0  0  0  0  0  0
   16.5355   -9.4865   11.6569 C   0  0  0  0  0  0  0  0  0  0  0  0
   16.4415   -9.6812   10.4412 O   0  0  0  0  0  0  0  0  0  0  0  0
   14.7814   -7.7764   12.3506 C   0  0  0  0  0  0  0  0  0  0  0  0
   14.3332   -7.4283   10.9410 C   0  0  0  0  0  0  0  0  0  0  0  0
   13.3319   -5.9158   10.8584 S   0  0  2  0  0  0  0  0  0  0  0  0
   11.7841   -6.4946   11.6099 C   0  0  0  0  0  0  0  0  0  0  0  0
   12.8609   -5.7072    9.1337 C   0  0  0  0  0  0  0  0  0  0  0  0
   13.6794   -4.5818    8.5304 C   0  0  1  0  0  0  0  0  0  0  0  0
   15.0623   -4.8925    8.4586 O   0  0  0  0  0  0  0  0  0  0  0  0
   13.2246   -4.2587    7.1280 C   0  0  1  0  0  0  0  0  0  0  0  0
   12.1481   -3.3656    7.1409 O   0  0  0  0  0  0  0  0  0  0  0  0
   14.4628   -3.6377    6.5569 C   0  0  1  0  0  0  0  0  0  0  0  0
   14.4650   -2.2532    6.8490 O   0  0  0  0  0  0  0  0  0  0  0  0
   15.6047   -4.3373    7.2828 C   0  0  2  0  0  0  0  0  0  0  0  0
   17.6811   -9.5342   12.1414 O   0  0  0  0  0  0  0  0  0  0  0  0
   15.0068   -8.8872    4.6752 N   0  0  0  0  0  0  0  0  0  0  0  0
   14.0440   -8.1745    5.3750 C   0  0  0  0  0  0  0  0  0  0  0  0
   14.3663   -6.9895    6.0257 N   0  0  0  0  0  0  0  0  0  0  0  0
   15.6261   -6.5222    5.9570 C   0  0  0  0  0  0  0  0  0  0  0  0
   16.6012   -7.2234    5.2422 C   0  0  0  0  0  0  0  0  0  0  0  0
   16.2998   -8.4145    4.6079 C   0  0  0  0  0  0  0  0  0  0  0  0
   17.2300   -9.0811    3.9409 N   0  0  0  0  0  0  0  0  0  0  0  0
   17.7481   -6.5398    5.3230 N   0  0  0  0  0  0  0  0  0  0  0  0
   17.5272   -5.4303    6.0621 C   0  0  0  0  0  0  0  0  0  0  0  0
   16.2139   -5.3998    6.4606 N   0  0  0  0  0  0  0  0  0  0  0  0
  2  1  1  1  0  0  0
  2  3  1  0  0  0  0
  2  5  1  0  0  0  0
  3  4  1  0  0  0  0
  3 17  1  0  0  0  0
  5  6  1  0  0  0  0
  7  6  1  6  0  0  0
  7  8  1  0  0  0  0
  7  9  1  0  0  0  0
 10  9  1  6  0  0  0
 10 11  1  0  0  0  0
 10 12  1  0  0  0  0
 11 16  1  0  0  0  0
 12 13  1  1  0  0  0
 12 14  1  0  0  0  0
 14 15  1  1  0  0  0
 14 16  1  0  0  0  0
 16 27  1  6  0  0  0
 18 19  2  0  0  0  0
 18 23  1  0  0  0  0
 19 20  1  0  0  0  0
 20 21  2  0  0  0  0
 21 22  1  0  0  0  0
 21 27  1  0  0  0  0
 22 23  2  0  0  0  0
 22 25  1  0  0  0  0
 23 24  1  0  0  0  0
 25 26  2  0  0  0  0
 26 27  1  0  0  0  0
M  END
>  <CHROM.1>
160.38370608,-174.10896565,164.13181596,-71.98829815,-105.74429986,65.87776565
57.74661668,14.99549861,-6.62950631,8.39702898,-1.63515317,0.91727091,-1.14129913

>  <Name>
ligand

>  <RI>
0

>  <Rbt.Current_Directory>
/home/itssahil/PROJECTS/Mol_Feturizer/Test_systems_manuscript/rnas/2ydh

>  <Rbt.Executable>
rbdock ($Id: //depot/dev/client3/rdock/2013.1/src/exe/rbdock.cxx#4 $)

>  <Rbt.Library>
libRbt.so (2013.1, Build901 2013/11/27)

>  <Rbt.Parameter_File>
/export/apps/rDock/src/rDock_2013.1_src/data/scripts/dock_solv.prm

>  <Rbt.Receptor>
prm/pocket_docking_8.prm

>  <SCORE>
-13.0798

>  <SCORE.INTER>
-12.711

>  <SCORE.INTER.CONST>
1

>  <SCORE.INTER.POLAR>
0

>  <SCORE.INTER.ROT>
7

>  <SCORE.INTER.SOLV>
15.7542

>  <SCORE.INTER.VDW>
-21.9921

>  <SCORE.INTER.norm>
-0.470779

>  <SCORE.INTRA>
-0.368793

>  <SCORE.INTRA.DIHEDRAL>
-2.3374

>  <SCORE.INTRA.DIHEDRAL.0>
9.75037

>  <SCORE.INTRA.POLAR>
0

>  <SCORE.INTRA.POLAR.0>
0

>  <SCORE.INTRA.REPUL>
0

>  <SCORE.INTRA.REPUL.0>
0

>  <SCORE.INTRA.SOLV>
-1.5008

>  <SCORE.INTRA.SOLV.lig_0>
-48.4279

>  <SCORE.INTRA.VDW>
1.55031

>  <SCORE.INTRA.VDW.0>
-4.69037

>  <SCORE.INTRA.norm>
-0.013659

>  <SCORE.RESTR>
0

>  <SCORE.RESTR.CAVITY>
0

>  <SCORE.RESTR.norm>
0

>  <SCORE.SYSTEM>
0

>  <SCORE.SYSTEM.CONST>
0

>  <SCORE.SYSTEM.DIHEDRAL>
0

>  <SCORE.SYSTEM.SOLV>
0

>  <SCORE.SYSTEM.norm>
0

>  <SCORE.heavy>
27

>  <SCORE.norm>
-0.484438

>  <RMSD>
4.994

$$$$
ligand
 OpenBabel02271912153D
libRbt.so/2013.1/901 2013/11/27
 27 29  0  0  0  0  0  0  0  0999 V2000
   13.1062   -8.9745   12.2843 N   0  0  0  0  0  0  0  0  0  0  0  0
   12.3536   -7.6846   12.2044 C   0  0  2  0  0  0  0  0  0  0  0  0
   10.8702   -7.9278   11.8481 C   0  0  0  0  0  0  0  0  0  0  0  0
   10.5100   -8.9706   11.2936 O   0  0  0  0  0  0  0  0  0  0  0  0
   13.0387   -6.7588   11.2049 C   0  0  0  0  0  0  0  0  0  0  0  0
   14.4028   -6.2545   11.6455 C   0  0  0  0  0  0  0  0  0  0  0  0
   15.1889   -5.1559   10.4322 S   0  0  2  0  0  0  0  0  0  0  0  0
   16.6864   -4.6713   11.3367 C   0  0  0  0  0  0  0  0  0  0  0  0
   14.2359   -3.6289   10.4313 C   0  0  0  0  0  0  0  0  0  0  0  0
   14.3530   -2.9739    9.0682 C   0  0  1  0  0  0  0  0  0  0  0  0
   15.6998   -2.8490    8.6384 O   0  0  0  0  0  0  0  0  0  0  0  0
   13.6222   -3.7651    8.0110 C   0  0  1  0  0  0  0  0  0  0  0  0
   12.2663   -3.4231    7.9735 O   0  0  0  0  0  0  0  0  0  0  0  0
   14.3452   -3.3317    6.7722 C   0  0  1  0  0  0  0  0  0  0  0  0
   13.7433   -2.1530    6.2717 O   0  0  0  0  0  0  0  0  0  0  0  0
   15.7648   -3.0458    7.2448 C   0  0  2  0  0  0  0  0  0  0  0  0
    9.9808   -7.0927   12.0949 O   0  0  0  0  0  0  0  0  0  0  0  0
   16.4215   -7.9265    5.3456 N   0  0  0  0  0  0  0  0  0  0  0  0
   15.2420   -7.2027    5.4429 C   0  0  0  0  0  0  0  0  0  0  0  0
   15.2330   -5.9229    5.9847 N   0  0  0  0  0  0  0  0  0  0  0  0
   16.3895   -5.3761    6.4015 C   0  0  0  0  0  0  0  0  0  0  0  0
   17.5866   -6.0897    6.2946 C   0  0  0  0  0  0  0  0  0  0  0  0
   17.6072   -7.3718    5.7774 C   0  0  0  0  0  0  0  0  0  0  0  0
   18.7426   -8.0482    5.6882 N   0  0  0  0  0  0  0  0  0  0  0  0
   18.5738   -5.3181    6.7630 N   0  0  0  0  0  0  0  0  0  0  0  0
   18.0390   -4.1418    7.1585 C   0  0  0  0  0  0  0  0  0  0  0  0
   16.6843   -4.1576    6.9372 N   0  0  0  0  0  0  0  0  0  0  0  0
  2  1  1  6  0  0  0
  2  3  1  0  0  0  0
  2  5  1  0  0  0  0
  3  4  1  0  0  0  0
  3 17  1  0  0  0  0
  5  6  1  0  0  0  0
  7  6  1  1  0  0  0
  7  8  1  0  0  0  0
  7  9  1  0  0  0  0
 10  9  1  1  0  0  0
 10 11  1  0  0  0  0
 10 12  1  0  0  0  0
 11 16  1  0  0  0  0
 12 13  1  6  0  0  0
 12 14  1  0  0  0  0
 14 15  1  1  0  0  0
 14 16  1  0  0  0  0
 16 27  1  1  0  0  0
 18 19  2  0  0  0  0
 18 23  1  0  0  0  0
 19 20  1  0  0  0  0
 20 21  2  0  0  0  0
 21 22  1  0  0  0  0
 21 27  1  0  0  0  0
 22 23  2  0  0  0  0
 22 25  1  0  0  0  0
 23 24  1  0  0  0  0
 25 26  2  0  0  0  0
 26 27  1  0  0  0  0
M  END
>  <CHROM.1>
-21.46119315,-68.18445545,179.99063083,175.87047130,-152.29925873,-50.73933252
113.35905098,14.77515955,-5.51896682,8.69340482,-2.73095874,0.77552039,-0.19124365

>  <Name>
ligand

>  <RI>
0

>  <Rbt.Current_Directory>
/home/itssahil/PROJECTS/Mol_Feturizer/Test_systems_manuscript/rnas/2ydh

>  <Rbt.Executable>
rbdock ($Id: //depot/dev/client3/rdock/2013.1/src/exe/rbdock.cxx#4 $)

>  <Rbt.Library>
libRbt.so (2013.1, Build901 2013/11/27)

>  <Rbt.Parameter_File>
/export/apps/rDock/src/rDock_2013.1_src/data/scripts/dock_solv.prm

>  <Rbt.Receptor>
prm/pocket_docking_4.prm

>  <SCORE>
-15.7467

>  <SCORE.INTER>
-15.2638

>  <SCORE.INTER.CONST>
1

>  <SCORE.INTER.POLAR>
0

>  <SCORE.INTER.ROT>
7

>  <SCORE.INTER.SOLV>
11.5591

>  <SCORE.INTER.VDW>
-22.2956

>  <SCORE.INTER.norm>
-0.565327

>  <SCORE.INTRA>
-0.482859

>  <SCORE.INTRA.DIHEDRAL>
-3.341

>  <SCORE.INTRA.DIHEDRAL.0>
9.75037

>  <SCORE.INTRA.POLAR>
0

>  <SCORE.INTRA.POLAR.0>
0

>  <SCORE.INTRA.REPUL>
0

>  <SCORE.INTRA.REPUL.0>
0

>  <SCORE.INTRA.SOLV>
-0.664617

>  <SCORE.INTRA.SOLV.lig_0>
-48.4279

>  <SCORE.INTRA.VDW>
1.51995

>  <SCORE.INTRA.VDW.0>
-4.69037

>  <SCORE.INTRA.norm>
-0.0178837

>  <SCORE.RESTR>
0

>  <SCORE.RESTR.CAVITY>
0

>  <SCORE.RESTR.norm>
0

>  <SCORE.SYSTEM>
0

>  <SCORE.SYSTEM.CONST>
0

>  <SCORE.SYSTEM.DIHEDRAL>
0

>  <SCORE.SYSTEM.SOLV>
0

>  <SCORE.SYSTEM.norm>
0

>  <SCORE.heavy>
27

>  <SCORE.norm>
-0.58321

>  <RMSD>
5.000

$$$$
ligand
 OpenBabel02271912153D
libRbt.so/2013.1/901 2013/11/27
 27 29  0  0  0  0  0  0  0  0999 V2000
   15.0619   -7.9636   13.5547 N   0  0  0  0  0  0  0  0  0  0  0  0
   14.6386   -6.5388   13.3895 C   0  0  2  0  0  0  0  0  0  0  0  0
   13.3472   -6.4366   12.5477 C   0  0  0  0  0  0  0  0  0  0  0  0
   12.5205   -7.3537   12.5340 O   0  0  0  0  0  0  0  0  0  0  0  0
   15.7840   -5.7366   12.7812 C   0  0  0  0  0  0  0  0  0  0  0  0
   16.2094   -6.1961   11.3966 C   0  0  0  0  0  0  0  0  0  0  0  0
   17.0463   -4.9023   10.4359 S   0  0  2  0  0  0  0  0  0  0  0  0
   18.4977   -4.5918   11.4811 C   0  0  0  0  0  0  0  0  0  0  0  0
   16.0874   -3.3959   10.6618 C   0  0  0  0  0  0  0  0  0  0  0  0
   15.5202   -2.9654    9.3225 C   0  0  1  0  0  0  0  0  0  0  0  0
   16.4802   -3.0291    8.2792 O   0  0  0  0  0  0  0  0  0  0  0  0
   14.3586   -3.8360    8.9094 C   0  0  1  0  0  0  0  0  0  0  0  0
   13.1627   -3.3816    9.4751 O   0  0  0  0  0  0  0  0  0  0  0  0
   14.3786   -3.6602    7.4216 C   0  0  1  0  0  0  0  0  0  0  0  0
   13.6145   -2.5198    7.0785 O   0  0  0  0  0  0  0  0  0  0  0  0
   15.8481   -3.4371    7.0880 C   0  0  2  0  0  0  0  0  0  0  0  0
   13.0854   -5.4406   11.8486 O   0  0  0  0  0  0  0  0  0  0  0  0
   15.3005   -8.1827    4.8434 N   0  0  0  0  0  0  0  0  0  0  0  0
   14.3027   -7.2770    5.1732 C   0  0  0  0  0  0  0  0  0  0  0  0
   14.6114   -6.0644    5.7779 N   0  0  0  0  0  0  0  0  0  0  0  0
   15.8984   -5.7619    6.0275 C   0  0  0  0  0  0  0  0  0  0  0  0
   16.9137   -6.6598    5.6859 C   0  0  0  0  0  0  0  0  0  0  0  0
   16.6195   -7.8787    5.1034 C   0  0  0  0  0  0  0  0  0  0  0  0
   17.5844   -8.7310    4.7915 N   0  0  0  0  0  0  0  0  0  0  0  0
   18.0854   -6.1117    6.0265 N   0  0  0  0  0  0  0  0  0  0  0  0
   17.8422   -4.8978    6.5682 C   0  0  0  0  0  0  0  0  0  0  0  0
   16.4900   -4.6613    6.5729 N   0  0  0  0  0  0  0  0  0  0  0  0
  2  1  1  6  0  0  0
  2  3  1  0  0  0  0
  2  5  1  0  0  0  0
  3  4  1  0  0  0  0
  3 17  1  0  0  0  0
  5  6  1  0  0  0  0
  7  6  1  1  0  0  0
  7  8  1  0  0  0  0
  7  9  1  0  0  0  0
 10  9  1  1  0  0  0
 10 11  1  0  0  0  0
 10 12  1  0  0  0  0
 11 16  1  0  0  0  0
 12 13  1  1  0  0  0
 12 14  1  0  0  0  0
 14 15  1  1  0  0  0
 14 16  1  0  0  0  0
 16 27  1  1  0  0  0
 18 19  2  0  0  0  0
 18 23  1  0  0  0  0
 19 20  1  0  0  0  0
 20 21  2  0  0  0  0
 21 22  1  0  0  0  0
 21 27  1  0  0  0  0
 22 23  2  0  0  0  0
 22 25  1  0  0  0  0
 23 24  1  0  0  0  0
 25 26  2  0  0  0  0
 26 27  1  0  0  0  0
M  END
>  <CHROM.1>
28.40536948,61.87356385,156.76775744,61.83055916,-116.49158712,-45.21093983
138.88795301,15.56085689,-5.39619824,8.86282982,-2.79279860,1.33161831,-0.42950424

>  <Name>
ligand

>  <RI>
0

>  <Rbt.Current_Directory>
/home/itssahil/PROJECTS/Mol_Feturizer/Test_systems_manuscript/rnas/2ydh

>  <Rbt.Executable>
rbdock ($Id: //depot/dev/client3/rdock/2013.1/src/exe/rbdock.cxx#4 $)

>  <Rbt.Library>
libRbt.so (2013.1, Build901 2013/11/27)

>  <Rbt.Parameter_File>
/export/apps/rDock/src/rDock_2013.1_src/data/scripts/dock_solv.prm

>  <Rbt.Receptor>
prm/pocket_docking_3.prm

>  <SCORE>
-8.21485

>  <SCORE.INTER>
-10.5661

>  <SCORE.INTER.CONST>
1

>  <SCORE.INTER.POLAR>
0

>  <SCORE.INTER.ROT>
7

>  <SCORE.INTER.SOLV>
14.1534

>  <SCORE.INTER.VDW>
-20.0285

>  <SCORE.INTER.norm>
-0.391336

>  <SCORE.INTRA>
2.11457

>  <SCORE.INTRA.DIHEDRAL>
0.167378

>  <SCORE.INTRA.DIHEDRAL.0>
9.75037

>  <SCORE.INTRA.POLAR>
0

>  <SCORE.INTRA.POLAR.0>
0

>  <SCORE.INTRA.REPUL>
0

>  <SCORE.INTRA.REPUL.0>
0

>  <SCORE.INTRA.SOLV>
-0.566448

>  <SCORE.INTRA.SOLV.lig_0>
-48.4279

>  <SCORE.INTRA.VDW>
2.31411

>  <SCORE.INTRA.VDW.0>
-4.69037

>  <SCORE.INTRA.norm>
0.0783176

>  <SCORE.RESTR>
0.236643

>  <SCORE.RESTR.CAVITY>
0.236643

>  <SCORE.RESTR.norm>
0.00876457

>  <SCORE.SYSTEM>
0

>  <SCORE.SYSTEM.CONST>
0

>  <SCORE.SYSTEM.DIHEDRAL>
0

>  <SCORE.SYSTEM.SOLV>
0

>  <SCORE.SYSTEM.norm>
0

>  <SCORE.heavy>
27

>  <SCORE.norm>
-0.304254

>  <RMSD>
5.002

$$$$
ligand
 OpenBabel02271912153D
libRbt.so/2013.1/901 2013/11/27
 27 29  0  0  0  0  0  0  0  0999 V2000
   12.9081   -8.2249   13.9846 N   0  0  0  0  0  0  0  0  0  0  0  0
   12.5743   -8.5418   12.5616 C   0  0  2  0  0  0  0  0  0  0  0  0
   13.2221   -9.8736   12.1220 C   0  0  0  0  0  0  0  0  0  0  0  0
   12.8264  -10.4748   11.1186 O   0  0  0  0  0  0  0  0  0  0  0  0
   12.9954   -7.3781   11.6706 C   0  0  0  0  0  0  0  0  0  0  0  0
   12.5659   -7.5084   10.2188 C   0  0  0  0  0  0  0  0  0  0  0  0
   13.4777   -6.4084    9.0983 S   0  0  2  0  0  0  0  0  0  0  0  0
   15.1654   -7.0463    9.2990 C   0  0  0  0  0  0  0  0  0  0  0  0
   13.5769   -4.8095    9.9191 C   0  0  0  0  0  0  0  0  0  0  0  0
   14.2304   -3.8123    8.9815 C   0  0  1  0  0  0  0  0  0  0  0  0
   15.5758   -4.1492    8.6804 O   0  0  0  0  0  0  0  0  0  0  0  0
   13.4917   -3.7229    7.6684 C   0  0  1  0  0  0  0  0  0  0  0  0
   12.4216   -2.8260    7.7526 O   0  0  0  0  0  0  0  0  0  0  0  0
   14.5734   -3.2232    6.7600 C   0  0  1  0  0  0  0  0  0  0  0  0
   14.6055   -1.8095    6.8102 O   0  0  0  0  0  0  0  0  0  0  0  0
   15.8543   -3.8064    7.3426 C   0  0  2  0  0  0  0  0  0  0  0  0
   14.1574  -10.3991   12.7532 O   0  0  0  0  0  0  0  0  0  0  0  0
   14.5734   -8.1373    4.6111 N   0  0  0  0  0  0  0  0  0  0  0  0
   13.7173   -7.2023    5.1745 C   0  0  0  0  0  0  0  0  0  0  0  0
   14.2150   -6.1144    5.8818 N   0  0  0  0  0  0  0  0  0  0  0  0
   15.5462   -5.9608    6.0027 C   0  0  0  0  0  0  0  0  0  0  0  0
   16.4190   -6.8880    5.4265 C   0  0  0  0  0  0  0  0  0  0  0  0
   15.9375   -7.9864    4.7383 C   0  0  0  0  0  0  0  0  0  0  0  0
   16.7686   -8.8683    4.2034 N   0  0  0  0  0  0  0  0  0  0  0  0
   17.6716   -6.4945    5.6821 N   0  0  0  0  0  0  0  0  0  0  0  0
   17.6168   -5.3493    6.3973 C   0  0  0  0  0  0  0  0  0  0  0  0
   16.3052   -4.9998    6.6020 N   0  0  0  0  0  0  0  0  0  0  0  0
  2  1  1  1  0  0  0
  2  3  1  0  0  0  0
  2  5  1  0  0  0  0
  3  4  1  0  0  0  0
  3 17  1  0  0  0  0
  5  6  1  0  0  0  0
  7  6  1  1  0  0  0
  7  8  1  0  0  0  0
  7  9  1  0  0  0  0
 10  9  1  1  0  0  0
 10 11  1  0  0  0  0
 10 12  1  0  0  0  0
 11 16  1  0  0  0  0
 12 13  1  1  0  0  0
 12 14  1  0  0  0  0
 14 15  1  1  0  0  0
 14 16  1  0  0  0  0
 16 27  1  6  0  0  0
 18 19  2  0  0  0  0
 18 23  1  0  0  0  0
 19 20  1  0  0  0  0
 20 21  2  0  0  0  0
 21 22  1  0  0  0  0
 21 27  1  0  0  0  0
 22 23  2  0  0  0  0
 22 25  1  0  0  0  0
 23 24  1  0  0  0  0
 25 26  2  0  0  0  0
 26 27  1  0  0  0  0
M  END
>  <CHROM.1>
162.50709612,-173.33196766,-162.60345272,62.85348647,-175.39243087,-64.17485171
84.12711668,14.46953865,-6.35967539,8.32012278,2.38694700,-1.10803600,2.86142081

>  <Name>
ligand

>  <RI>
0

>  <Rbt.Current_Directory>
/home/itssahil/PROJECTS/Mol_Feturizer/Test_systems_manuscript/rnas/2ydh

>  <Rbt.Executable>
rbdock ($Id: //depot/dev/client3/rdock/2013.1/src/exe/rbdock.cxx#4 $)

>  <Rbt.Library>
libRbt.so (2013.1, Build901 2013/11/27)

>  <Rbt.Parameter_File>
/export/apps/rDock/src/rDock_2013.1_src/data/scripts/dock_solv.prm

>  <Rbt.Receptor>
prm/pocket_docking_4.prm

>  <SCORE>
-14.2124

>  <SCORE.INTER>
-12.6608

>  <SCORE.INTER.CONST>
1

>  <SCORE.INTER.POLAR>
0

>  <SCORE.INTER.ROT>
7

>  <SCORE.INTER.SOLV>
13.227

>  <SCORE.INTER.VDW>
-21.1162

>  <SCORE.INTER.norm>
-0.46892

>  <SCORE.INTRA>
-1.55157

>  <SCORE.INTRA.DIHEDRAL>
-4.73649

>  <SCORE.INTRA.DIHEDRAL.0>
9.75037

>  <SCORE.INTRA.POLAR>
0

>  <SCORE.INTRA.POLAR.0>
0

>  <SCORE.INTRA.REPUL>
0

>  <SCORE.INTRA.REPUL.0>
0

>  <SCORE.INTRA.SOLV>
-1.18936

>  <SCORE.INTRA.SOLV.lig_0>
-48.4279

>  <SCORE.INTRA.VDW>
1.41135

>  <SCORE.INTRA.VDW.0>
-4.69037

>  <SCORE.INTRA.norm>
-0.0574656

>  <SCORE.RESTR>
0

>  <SCORE.RESTR.CAVITY>
0

>  <SCORE.RESTR.norm>
0

>  <SCORE.SYSTEM>
0

>  <SCORE.SYSTEM.CONST>
0

>  <SCORE.SYSTEM.DIHEDRAL>
0

>  <SCORE.SYSTEM.SOLV>
0

>  <SCORE.SYSTEM.norm>
0

>  <SCORE.heavy>
27

>  <SCORE.norm>
-0.526385

>  <RMSD>
5.005

$$$$
ligand
 OpenBabel02271912153D
libRbt.so/2013.1/901 2013/11/27
 27 29  0  0  0  0  0  0  0  0999 V2000
   14.7391   -8.1637   14.1262 N   0  0  0  0  0  0  0  0  0  0  0  0
   13.7947   -7.0109   13.9999 C   0  0  2  0  0  0  0  0  0  0  0  0
   12.3314   -7.4676   14.1920 C   0  0  0  0  0  0  0  0  0  0  0  0
   11.7573   -7.3293   15.2764 O   0  0  0  0  0  0  0  0  0  0  0  0
   14.0089   -6.3248   12.6549 C   0  0  0  0  0  0  0  0  0  0  0  0
   15.3841   -5.7034   12.4764 C   0  0  0  0  0  0  0  0  0  0  0  0
   15.6547   -5.0225   10.8150 S   0  0  2  0  0  0  0  0  0  0  0  0
   17.2858   -4.2543   11.0270 C   0  0  0  0  0  0  0  0  0  0  0  0
   14.5767   -3.5886   10.6677 C   0  0  0  0  0  0  0  0  0  0  0  0
   14.6491   -3.0596    9.2480 C   0  0  1  0  0  0  0  0  0  0  0  0
   15.9840   -2.9158    8.7882 O   0  0  0  0  0  0  0  0  0  0  0  0
   13.9437   -3.9779    8.2800 C   0  0  1  0  0  0  0  0  0  0  0  0
   12.5733   -3.7015    8.2312 O   0  0  0  0  0  0  0  0  0  0  0  0
   14.6328   -3.6307    6.9956 C   0  0  1  0  0  0  0  0  0  0  0  0
   13.9724   -2.5319    6.3966 O   0  0  0  0  0  0  0  0  0  0  0  0
   16.0429   -3.2391    7.4181 C   0  0  2  0  0  0  0  0  0  0  0  0
   11.6729   -7.9944   13.2765 O   0  0  0  0  0  0  0  0  0  0  0  0
   17.0492   -7.9868    5.3431 N   0  0  0  0  0  0  0  0  0  0  0  0
   15.8660   -7.2649    5.2825 C   0  0  0  0  0  0  0  0  0  0  0  0
   15.7553   -6.0237    5.8978 N   0  0  0  0  0  0  0  0  0  0  0  0
   16.8188   -5.5117    6.5436 C   0  0  0  0  0  0  0  0  0  0  0  0
   18.0209   -6.2228    6.5986 C   0  0  0  0  0  0  0  0  0  0  0  0
   18.1387   -7.4681    6.0092 C   0  0  0  0  0  0  0  0  0  0  0  0
   19.2767   -8.1430    6.0733 N   0  0  0  0  0  0  0  0  0  0  0  0
   18.9072   -5.4891    7.2806 N   0  0  0  0  0  0  0  0  0  0  0  0
   18.3046   -4.3388    7.6544 C   0  0  0  0  0  0  0  0  0  0  0  0
   17.0088   -4.3328    7.2016 N   0  0  0  0  0  0  0  0  0  0  0  0
  2  1  1  6  0  0  0
  2  3  1  0  0  0  0
  2  5  1  0  0  0  0
  3  4  1  0  0  0  0
  3 17  1  0  0  0  0
  5  6  1  0  0  0  0
  7  6  1  1  0  0  0
  7  8  1  0  0  0  0
  7  9  1  0  0  0  0
 10  9  1  1  0  0  0
 10 11  1  0  0  0  0
 10 12  1  0  0  0  0
 11 16  1  0  0  0  0
 12 13  1  6  0  0  0
 12 14  1  0  0  0  0
 14 15  1  1  0  0  0
 14 16  1  0  0  0  0
 16 27  1  1  0  0  0
 18 19  2  0  0  0  0
 18 23  1  0  0  0  0
 19 20  1  0  0  0  0
 20 21  2  0  0  0  0
 21 22  1  0  0  0  0
 21 27  1  0  0  0  0
 22 23  2  0  0  0  0
 22 25  1  0  0  0  0
 23 24  1  0  0  0  0
 25 26  2  0  0  0  0
 26 27  1  0  0  0  0
M  END
>  <CHROM.1>
98.63155690,-63.39905465,175.00730988,174.98384757,-174.13504898,-48.27962397
127.68244900,15.41835167,-5.45591284,9.33297830,-2.33321224,0.83596870,-0.77703651

>  <Name>
ligand

>  <RI>
0

>  <Rbt.Current_Directory>
/home/itssahil/PROJECTS/Mol_Feturizer/Test_systems_manuscript/rnas/2ydh

>  <Rbt.Executable>
rbdock ($Id: //depot/dev/client3/rdock/2013.1/src/exe/rbdock.cxx#4 $)

>  <Rbt.Library>
libRbt.so (2013.1, Build901 2013/11/27)

>  <Rbt.Parameter_File>
/export/apps/rDock/src/rDock_2013.1_src/data/scripts/dock_solv.prm

>  <Rbt.Receptor>
prm/pocket_docking_5.prm

>  <SCORE>
-14.178

>  <SCORE.INTER>
-13.3695

>  <SCORE.INTER.CONST>
1

>  <SCORE.INTER.POLAR>
0

>  <SCORE.INTER.ROT>
7

>  <SCORE.INTER.SOLV>
10.2311

>  <SCORE.INTER.VDW>
-20.5901

>  <SCORE.INTER.norm>
-0.495168

>  <SCORE.INTRA>
-0.808421

>  <SCORE.INTRA.DIHEDRAL>
-5.59217

>  <SCORE.INTRA.DIHEDRAL.0>
9.75037

>  <SCORE.INTRA.POLAR>
0

>  <SCORE.INTRA.POLAR.0>
0

>  <SCORE.INTRA.REPUL>
0

>  <SCORE.INTRA.REPUL.0>
0

>  <SCORE.INTRA.SOLV>
-0.63871

>  <SCORE.INTRA.SOLV.lig_0>
-48.4279

>  <SCORE.INTRA.VDW>
2.30702

>  <SCORE.INTRA.VDW.0>
-4.69037

>  <SCORE.INTRA.norm>
-0.0299415

>  <SCORE.RESTR>
0

>  <SCORE.RESTR.CAVITY>
0

>  <SCORE.RESTR.norm>
0

>  <SCORE.SYSTEM>
0

>  <SCORE.SYSTEM.CONST>
0

>  <SCORE.SYSTEM.DIHEDRAL>
0

>  <SCORE.SYSTEM.SOLV>
0

>  <SCORE.SYSTEM.norm>
0

>  <SCORE.heavy>
27

>  <SCORE.norm>
-0.52511

>  <RMSD>
5.005

$$$$
ligand
 OpenBabel02271912153D
libRbt.so/2013.1/901 2013/11/27
 27 29  0  0  0  0  0  0  0  0999 V2000
   14.4653   -8.5605    9.0039 N   0  0  0  0  0  0  0  0  0  0  0  0
   13.9899   -9.0878   10.3203 C   0  0  2  0  0  0  0  0  0  0  0  0
   12.4503   -9.2126   10.3458 C   0  0  0  0  0  0  0  0  0  0  0  0
   11.8391   -9.3503   11.4098 O   0  0  0  0  0  0  0  0  0  0  0  0
   14.5112   -8.1959   11.4420 C   0  0  0  0  0  0  0  0  0  0  0  0
   13.9772   -6.7735   11.4159 C   0  0  0  0  0  0  0  0  0  0  0  0
   14.5903   -5.8017   10.0099 S   0  0  2  0  0  0  0  0  0  0  0  0
   16.3598   -5.7148   10.4061 C   0  0  0  0  0  0  0  0  0  0  0  0
   14.0559   -4.1055   10.2882 C   0  0  0  0  0  0  0  0  0  0  0  0
   14.3227   -3.2916    9.0364 C   0  0  1  0  0  0  0  0  0  0  0  0
   15.6823   -3.3436    8.6329 O   0  0  0  0  0  0  0  0  0  0  0  0
   13.4961   -3.7817    7.8726 C   0  0  1  0  0  0  0  0  0  0  0  0
   12.2213   -3.2060    7.8824 O   0  0  0  0  0  0  0  0  0  0  0  0
   14.3177   -3.3076    6.7127 C   0  0  1  0  0  0  0  0  0  0  0  0
   13.9427   -1.9821    6.3893 O   0  0  0  0  0  0  0  0  0  0  0  0
   15.7515   -3.3457    7.2257 C   0  0  2  0  0  0  0  0  0  0  0  0
   11.7630   -9.1861    9.3084 O   0  0  0  0  0  0  0  0  0  0  0  0
   15.5393   -8.1140    4.9725 N   0  0  0  0  0  0  0  0  0  0  0  0
   14.4873   -7.2472    5.2307 C   0  0  0  0  0  0  0  0  0  0  0  0
   14.7078   -6.0221    5.8488 N   0  0  0  0  0  0  0  0  0  0  0  0
   15.9626   -5.6691    6.1821 C   0  0  0  0  0  0  0  0  0  0  0  0
   17.0325   -6.5274    5.9132 C   0  0  0  0  0  0  0  0  0  0  0  0
   16.8252   -7.7582    5.3182 C   0  0  0  0  0  0  0  0  0  0  0  0
   17.8411   -8.5729    5.0754 N   0  0  0  0  0  0  0  0  0  0  0  0
   18.1566   -5.9333    6.3284 N   0  0  0  0  0  0  0  0  0  0  0  0
   17.8310   -4.7287    6.8469 C   0  0  0  0  0  0  0  0  0  0  0  0
   16.4734   -4.5450    6.7604 N   0  0  0  0  0  0  0  0  0  0  0  0
  2  1  1  6  0  0  0
  2  3  1  0  0  0  0
  2  5  1  0  0  0  0
  3  4  1  0  0  0  0
  3 17  1  0  0  0  0
  5  6  1  0  0  0  0
  7  6  1  1  0  0  0
  7  8  1  0  0  0  0
  7  9  1  0  0  0  0
 10  9  1  1  0  0  0
 10 11  1  0  0  0  0
 10 12  1  0  0  0  0
 11 16  1  0  0  0  0
 12 13  1  6  0  0  0
 12 14  1  0  0  0  0
 14 15  1  1  0  0  0
 14 16  1  0  0  0  0
 16 27  1  1  0  0  0
 18 19  2  0  0  0  0
 18 23  1  0  0  0  0
 19 20  1  0  0  0  0
 20 21  2  0  0  0  0
 21 22  1  0  0  0  0
 21 27  1  0  0  0  0
 22 23  2  0  0  0  0
 22 25  1  0  0  0  0
 23 24  1  0  0  0  0
 25 26  2  0  0  0  0
 26 27  1  0  0  0  0
M  END
>  <CHROM.1>
-164.33262980,64.35677838,-68.57905991,-65.44904180,-170.12207928,-56.02923500
105.35590359,14.83382491,-6.01603124,8.16344743,-2.45869662,0.94278971,-0.10480180

>  <Name>
ligand

>  <RI>
0

>  <Rbt.Current_Directory>
/home/itssahil/PROJECTS/Mol_Feturizer/Test_systems_manuscript/rnas/2ydh

>  <Rbt.Executable>
rbdock ($Id: //depot/dev/client3/rdock/2013.1/src/exe/rbdock.cxx#4 $)

>  <Rbt.Library>
libRbt.so (2013.1, Build901 2013/11/27)

>  <Rbt.Parameter_File>
/export/apps/rDock/src/rDock_2013.1_src/data/scripts/dock_solv.prm

>  <Rbt.Receptor>
prm/pocket_docking_3.prm

>  <SCORE>
-11.8911

>  <SCORE.INTER>
-11.7266

>  <SCORE.INTER.CONST>
1

>  <SCORE.INTER.POLAR>
0

>  <SCORE.INTER.ROT>
7

>  <SCORE.INTER.SOLV>
13.3934

>  <SCORE.INTER.VDW>
-20.5489

>  <SCORE.INTER.norm>
-0.43432

>  <SCORE.INTRA>
-0.24407

>  <SCORE.INTRA.DIHEDRAL>
-5.50216

>  <SCORE.INTRA.DIHEDRAL.0>
9.75037

>  <SCORE.INTRA.POLAR>
0

>  <SCORE.INTRA.POLAR.0>
0

>  <SCORE.INTRA.REPUL>
0

>  <SCORE.INTRA.REPUL.0>
0

>  <SCORE.INTRA.SOLV>
1.48922

>  <SCORE.INTRA.SOLV.lig_0>
-48.4279

>  <SCORE.INTRA.VDW>
1.7624

>  <SCORE.INTRA.VDW.0>
-4.69037

>  <SCORE.INTRA.norm>
-0.00903963

>  <SCORE.RESTR>
0.0796393

>  <SCORE.RESTR.CAVITY>
0.0796393

>  <SCORE.RESTR.norm>
0.0029496

>  <SCORE.SYSTEM>
0

>  <SCORE.SYSTEM.CONST>
0

>  <SCORE.SYSTEM.DIHEDRAL>
0

>  <SCORE.SYSTEM.SOLV>
0

>  <SCORE.SYSTEM.norm>
0

>  <SCORE.heavy>
27

>  <SCORE.norm>
-0.44041

>  <RMSD>
5.015

$$$$
ligand
 OpenBabel02271912153D
libRbt.so/2013.1/901 2013/11/27
 27 29  0  0  0  0  0  0  0  0999 V2000
   13.1826   -7.4007   11.5686 N   0  0  0  0  0  0  0  0  0  0  0  0
   14.5945   -7.2016   12.0197 C   0  0  2  0  0  0  0  0  0  0  0  0
   14.6454   -6.6807   13.4732 C   0  0  0  0  0  0  0  0  0  0  0  0
   13.6113   -6.3993   14.0865 O   0  0  0  0  0  0  0  0  0  0  0  0
   15.3095   -6.2662   11.0505 C   0  0  0  0  0  0  0  0  0  0  0  0
   16.7778   -6.0342   11.3660 C   0  0  0  0  0  0  0  0  0  0  0  0
   17.6077   -4.9513   10.1679 S   0  0  2  0  0  0  0  0  0  0  0  0
   19.2654   -4.8458   10.9005 C   0  0  0  0  0  0  0  0  0  0  0  0
   16.9646   -3.2932   10.4453 C   0  0  0  0  0  0  0  0  0  0  0  0
   16.0162   -2.9356    9.3168 C   0  0  1  0  0  0  0  0  0  0  0  0
   16.6122   -3.0840    8.0374 O   0  0  0  0  0  0  0  0  0  0  0  0
   14.7835   -3.8062    9.3349 C   0  0  1  0  0  0  0  0  0  0  0  0
   13.8173   -3.2931   10.2065 O   0  0  0  0  0  0  0  0  0  0  0  0
   14.3490   -3.7242    7.9033 C   0  0  1  0  0  0  0  0  0  0  0  0
   13.5171   -2.5919    7.7348 O   0  0  0  0  0  0  0  0  0  0  0  0
   15.6468   -3.5525    7.1245 C   0  0  2  0  0  0  0  0  0  0  0  0
   15.7173   -6.5170   14.0845 O   0  0  0  0  0  0  0  0  0  0  0  0
   14.3840   -8.0804    4.7240 N   0  0  0  0  0  0  0  0  0  0  0  0
   13.5275   -7.0767    5.1527 C   0  0  0  0  0  0  0  0  0  0  0  0
   14.0192   -5.9419    5.7866 N   0  0  0  0  0  0  0  0  0  0  0  0
   15.3460   -5.8115    5.9676 C   0  0  0  0  0  0  0  0  0  0  0  0
   16.2201   -6.8090    5.5265 C   0  0  0  0  0  0  0  0  0  0  0  0
   15.7433   -7.9530    4.9135 C   0  0  0  0  0  0  0  0  0  0  0  0
   16.5749   -8.9005    4.5070 N   0  0  0  0  0  0  0  0  0  0  0  0
   17.4685   -6.4255    5.8156 N   0  0  0  0  0  0  0  0  0  0  0  0
   17.4101   -5.2189    6.4213 C   0  0  0  0  0  0  0  0  0  0  0  0
   16.1005   -4.8194    6.5201 N   0  0  0  0  0  0  0  0  0  0  0  0
  2  1  1  6  0  0  0
  2  3  1  0  0  0  0
  2  5  1  0  0  0  0
  3  4  1  0  0  0  0
  3 17  1  0  0  0  0
  5  6  1  0  0  0  0
  7  6  1  1  0  0  0
  7  8  1  0  0  0  0
  7  9  1  0  0  0  0
 10  9  1  1  0  0  0
 10 11  1  0  0  0  0
 10 12  1  0  0  0  0
 11 16  1  0  0  0  0
 12 13  1  1  0  0  0
 12 14  1  0  0  0  0
 14 15  1  1  0  0  0
 14 16  1  0  0  0  0
 16 27  1  1  0  0  0
 18 19  2  0  0  0  0
 18 23  1  0  0  0  0
 19 20  1  0  0  0  0
 20 21  2  0  0  0  0
 21 22  1  0  0  0  0
 21 27  1  0  0  0  0
 22 23  2  0  0  0  0
 22 25  1  0  0  0  0
 23 24  1  0  0  0  0
 25 26  2  0  0  0  0
 26 27  1  0  0  0  0
M  END
>  <CHROM.1>
-4.58823242,-177.32609002,178.48921637,177.33953429,-106.21037549,-54.23904616
155.82019483,15.61738875,-5.46657127,8.85106788,1.64603315,1.14414234,1.39349590

>  <Name>
ligand

>  <RI>
0

>  <Rbt.Current_Directory>
/home/itssahil/PROJECTS/Mol_Feturizer/Test_systems_manuscript/rnas/2ydh

>  <Rbt.Executable>
rbdock ($Id: //depot/dev/client3/rdock/2013.1/src/exe/rbdock.cxx#4 $)

>  <Rbt.Library>
libRbt.so (2013.1, Build901 2013/11/27)

>  <Rbt.Parameter_File>
/export/apps/rDock/src/rDock_2013.1_src/data/scripts/dock_solv.prm

>  <Rbt.Receptor>
prm/pocket_docking_5.prm

>  <SCORE>
-12.795

>  <SCORE.INTER>
-12.3786

>  <SCORE.INTER.CONST>
1

>  <SCORE.INTER.POLAR>
0

>  <SCORE.INTER.ROT>
7

>  <SCORE.INTER.SOLV>
12.7879

>  <SCORE.INTER.VDW>
-20.7817

>  <SCORE.INTER.norm>
-0.458467

>  <SCORE.INTRA>
-0.416403

>  <SCORE.INTRA.DIHEDRAL>
-3.314

>  <SCORE.INTRA.DIHEDRAL.0>
9.75037

>  <SCORE.INTRA.POLAR>
0

>  <SCORE.INTRA.POLAR.0>
0

>  <SCORE.INTRA.REPUL>
0

>  <SCORE.INTRA.REPUL.0>
0

>  <SCORE.INTRA.SOLV>
-0.98747

>  <SCORE.INTRA.SOLV.lig_0>
-48.4279

>  <SCORE.INTRA.VDW>
1.73433

>  <SCORE.INTRA.VDW.0>
-4.69037

>  <SCORE.INTRA.norm>
-0.0154223

>  <SCORE.RESTR>
0

>  <SCORE.RESTR.CAVITY>
0

>  <SCORE.RESTR.norm>
0

>  <SCORE.SYSTEM>
0

>  <SCORE.SYSTEM.CONST>
0

>  <SCORE.SYSTEM.DIHEDRAL>
0

>  <SCORE.SYSTEM.SOLV>
0

>  <SCORE.SYSTEM.norm>
0

>  <SCORE.heavy>
27

>  <SCORE.norm>
-0.473889

>  <RMSD>
5.018

$$$$
ligand
 OpenBabel02271912153D
libRbt.so/2013.1/901 2013/11/27
 27 29  0  0  0  0  0  0  0  0999 V2000
   13.3968   -7.2449   12.0927 N   0  0  0  0  0  0  0  0  0  0  0  0
   14.8254   -7.0088   12.4667 C   0  0  2  0  0  0  0  0  0  0  0  0
   14.9310   -6.1077   13.7171 C   0  0  0  0  0  0  0  0  0  0  0  0
   14.7907   -6.5729   14.8522 O   0  0  0  0  0  0  0  0  0  0  0  0
   15.5719   -6.4225   11.2731 C   0  0  0  0  0  0  0  0  0  0  0  0
   17.0504   -6.1698   11.5169 C   0  0  0  0  0  0  0  0  0  0  0  0
   17.7964   -5.0438   10.3033 S   0  0  2  0  0  0  0  0  0  0  0  0
   19.4981   -4.9530   10.9291 C   0  0  0  0  0  0  0  0  0  0  0  0
   17.1671   -3.3992   10.6765 C   0  0  0  0  0  0  0  0  0  0  0  0
   16.3245   -2.9163    9.5114 C   0  0  1  0  0  0  0  0  0  0  0  0
   17.0052   -3.0143    8.2700 O   0  0  0  0  0  0  0  0  0  0  0  0
   15.0508   -3.7156    9.3825 C   0  0  1  0  0  0  0  0  0  0  0  0
   14.0503   -3.2067   10.2173 O   0  0  0  0  0  0  0  0  0  0  0  0
   14.7282   -3.5162    7.9330 C   0  0  1  0  0  0  0  0  0  0  0  0
   13.9703   -2.3305    7.7849 O   0  0  0  0  0  0  0  0  0  0  0  0
   16.0872   -3.3674    7.2612 C   0  0  2  0  0  0  0  0  0  0  0  0
   15.1541   -4.8856   13.6398 O   0  0  0  0  0  0  0  0  0  0  0  0
   14.7404   -7.8065    4.7435 N   0  0  0  0  0  0  0  0  0  0  0  0
   13.9004   -6.8134    5.2258 C   0  0  0  0  0  0  0  0  0  0  0  0
   14.4138   -5.7027    5.8849 N   0  0  0  0  0  0  0  0  0  0  0  0
   15.7454   -5.5851    6.0378 C   0  0  0  0  0  0  0  0  0  0  0  0
   16.6027   -6.5717    5.5427 C   0  0  0  0  0  0  0  0  0  0  0  0
   16.1046   -7.6923    4.9039 C   0  0  0  0  0  0  0  0  0  0  0  0
   16.9205   -8.6299    4.4461 N   0  0  0  0  0  0  0  0  0  0  0  0
   17.8599   -6.2043    5.8139 N   0  0  0  0  0  0  0  0  0  0  0  0
   17.8232   -5.0183    6.4604 C   0  0  0  0  0  0  0  0  0  0  0  0
   16.5187   -4.6157    6.6043 N   0  0  0  0  0  0  0  0  0  0  0  0
  2  1  1  6  0  0  0
  2  3  1  0  0  0  0
  2  5  1  0  0  0  0
  3  4  1  0  0  0  0
  3 17  1  0  0  0  0
  5  6  1  0  0  0  0
  7  6  1  1  0  0  0
  7  8  1  0  0  0  0
  7  9  1  0  0  0  0
 10  9  1  1  0  0  0
 10 11  1  0  0  0  0
 10 12  1  0  0  0  0
 11 16  1  0  0  0  0
 12 13  1  1  0  0  0
 12 14  1  0  0  0  0
 14 15  1  1  0  0  0
 14 16  1  0  0  0  0
 16 27  1  1  0  0  0
 18 19  2  0  0  0  0
 18 23  1  0  0  0  0
 19 20  1  0  0  0  0
 20 21  2  0  0  0  0
 21 22  1  0  0  0  0
 21 27  1  0  0  0  0
 22 23  2  0  0  0  0
 22 25  1  0  0  0  0
 23 24  1  0  0  0  0
 25 26  2  0  0  0  0
 26 27  1  0  0  0  0
M  END
>  <CHROM.1>
81.07247993,-178.49511188,-162.84544381,178.55078003,-115.47737644,-52.03827130
149.33012254,15.93629637,-5.28938709,8.97586541,1.77474586,1.26019623,1.27407088

>  <Name>
ligand

>  <RI>
0

>  <Rbt.Current_Directory>
/home/itssahil/PROJECTS/Mol_Feturizer/Test_systems_manuscript/rnas/2ydh

>  <Rbt.Executable>
rbdock ($Id: //depot/dev/client3/rdock/2013.1/src/exe/rbdock.cxx#4 $)

>  <Rbt.Library>
libRbt.so (2013.1, Build901 2013/11/27)

>  <Rbt.Parameter_File>
/export/apps/rDock/src/rDock_2013.1_src/data/scripts/dock_solv.prm

>  <Rbt.Receptor>
prm/pocket_docking_4.prm

>  <SCORE>
-13.1081

>  <SCORE.INTER>
-13.1445

>  <SCORE.INTER.CONST>
1

>  <SCORE.INTER.POLAR>
0

>  <SCORE.INTER.ROT>
7

>  <SCORE.INTER.SOLV>
13.8212

>  <SCORE.INTER.VDW>
-21.6367

>  <SCORE.INTER.norm>
-0.486834

>  <SCORE.INTRA>
0.0256466

>  <SCORE.INTRA.DIHEDRAL>
-1.34964

>  <SCORE.INTRA.DIHEDRAL.0>
9.75037

>  <SCORE.INTRA.POLAR>
0

>  <SCORE.INTRA.POLAR.0>
0

>  <SCORE.INTRA.REPUL>
0

>  <SCORE.INTRA.REPUL.0>
0

>  <SCORE.INTRA.SOLV>
-1.17307

>  <SCORE.INTRA.SOLV.lig_0>
-48.4279

>  <SCORE.INTRA.VDW>
1.287

>  <SCORE.INTRA.VDW.0>
-4.69037

>  <SCORE.INTRA.norm>
0.000949876

>  <SCORE.RESTR>
0.0107959

>  <SCORE.RESTR.CAVITY>
0.0107959

>  <SCORE.RESTR.norm>
0.000399847

>  <SCORE.SYSTEM>
0

>  <SCORE.SYSTEM.CONST>
0

>  <SCORE.SYSTEM.DIHEDRAL>
0

>  <SCORE.SYSTEM.SOLV>
0

>  <SCORE.SYSTEM.norm>
0

>  <SCORE.heavy>
27

>  <SCORE.norm>
-0.485484

>  <RMSD>
5.022

$$$$
ligand
 OpenBabel02271912153D
libRbt.so/2013.1/901 2013/11/27
 27 29  0  0  0  0  0  0  0  0999 V2000
   12.8304   -6.5188    9.8523 N   0  0  0  0  0  0  0  0  0  0  0  0
   12.7344   -7.1159   11.2201 C   0  0  2  0  0  0  0  0  0  0  0  0
   11.2686   -7.1588   11.7062 C   0  0  0  0  0  0  0  0  0  0  0  0
   10.7621   -8.2087   12.1135 O   0  0  0  0  0  0  0  0  0  0  0  0
   13.6328   -6.3393   12.1768 C   0  0  0  0  0  0  0  0  0  0  0  0
   15.1193   -6.4651   11.8874 C   0  0  0  0  0  0  0  0  0  0  0  0
   15.6355   -5.5861   10.3848 S   0  0  2  0  0  0  0  0  0  0  0  0
   17.4292   -5.8619   10.4323 C   0  0  0  0  0  0  0  0  0  0  0  0
   15.5125   -3.8283   10.7521 C   0  0  0  0  0  0  0  0  0  0  0  0
   15.6364   -3.0435    9.4600 C   0  0  1  0  0  0  0  0  0  0  0  0
   16.8047   -3.3808    8.7283 O   0  0  0  0  0  0  0  0  0  0  0  0
   14.4576   -3.2886    8.5500 C   0  0  1  0  0  0  0  0  0  0  0  0
   13.3897   -2.4440    8.8707 O   0  0  0  0  0  0  0  0  0  0  0  0
   15.0500   -2.9623    7.2130 C   0  0  1  0  0  0  0  0  0  0  0  0
   14.9162   -1.5743    6.9722 O   0  0  0  0  0  0  0  0  0  0  0  0
   16.5193   -3.3403    7.3492 C   0  0  2  0  0  0  0  0  0  0  0  0
   10.5372   -6.1516   11.7051 O   0  0  0  0  0  0  0  0  0  0  0  0
   14.7139   -7.6307    4.8609 N   0  0  0  0  0  0  0  0  0  0  0  0
   13.9907   -6.5254    5.2849 C   0  0  0  0  0  0  0  0  0  0  0  0
   14.6160   -5.4740    5.9446 N   0  0  0  0  0  0  0  0  0  0  0  0
   15.9438   -5.5256    6.1555 C   0  0  0  0  0  0  0  0  0  0  0  0
   16.6856   -6.6271    5.7194 C   0  0  0  0  0  0  0  0  0  0  0  0
   16.0733   -7.6897    5.0808 C   0  0  0  0  0  0  0  0  0  0  0  0
   16.7789   -8.7363    4.6791 N   0  0  0  0  0  0  0  0  0  0  0  0
   17.9673   -6.4185    6.0401 N   0  0  0  0  0  0  0  0  0  0  0  0
   18.0579   -5.2216    6.6608 C   0  0  0  0  0  0  0  0  0  0  0  0
   16.8121   -4.6502    6.7373 N   0  0  0  0  0  0  0  0  0  0  0  0
  2  1  1  6  0  0  0
  2  3  1  0  0  0  0
  2  5  1  0  0  0  0
  3  4  1  0  0  0  0
  3 17  1  0  0  0  0
  5  6  1  0  0  0  0
  7  6  1  1  0  0  0
  7  8  1  0  0  0  0
  7  9  1  0  0  0  0
 10  9  1  1  0  0  0
 10 11  1  0  0  0  0
 10 12  1  0  0  0  0
 11 16  1  0  0  0  0
 12 13  1  1  0  0  0
 12 14  1  0  0  0  0
 14 15  1  1  0  0  0
 14 16  1  0  0  0  0
 16 27  1  1  0  0  0
 18 19  2  0  0  0  0
 18 23  1  0  0  0  0
 19 20  1  0  0  0  0
 20 21  2  0  0  0  0
 21 22  1  0  0  0  0
 21 27  1  0  0  0  0
 22 23  2  0  0  0  0
 22 25  1  0  0  0  0
 23 24  1  0  0  0  0
 25 26  2  0  0  0  0
 26 27  1  0  0  0  0
M  END
>  <CHROM.1>
127.07261085,-66.52511253,71.20977027,176.37627709,-167.80950459,-53.56699948
115.47237505,14.94274097,-5.43957916,8.56635023,2.75103950,0.90113005,0.62739270

>  <Name>
ligand

>  <RI>
0

>  <Rbt.Current_Directory>
/home/itssahil/PROJECTS/Mol_Feturizer/Test_systems_manuscript/rnas/2ydh

>  <Rbt.Executable>
rbdock ($Id: //depot/dev/client3/rdock/2013.1/src/exe/rbdock.cxx#4 $)

>  <Rbt.Library>
libRbt.so (2013.1, Build901 2013/11/27)

>  <Rbt.Parameter_File>
/export/apps/rDock/src/rDock_2013.1_src/data/scripts/dock_solv.prm

>  <Rbt.Receptor>
prm/pocket_docking_4.prm

>  <SCORE>
-12.8991

>  <SCORE.INTER>
-12.584

>  <SCORE.INTER.CONST>
1

>  <SCORE.INTER.POLAR>
0

>  <SCORE.INTER.ROT>
7

>  <SCORE.INTER.SOLV>
15.0926

>  <SCORE.INTER.VDW>
-21.6868

>  <SCORE.INTER.norm>
-0.466072

>  <SCORE.INTRA>
-0.329279

>  <SCORE.INTRA.DIHEDRAL>
-4.84599

>  <SCORE.INTRA.DIHEDRAL.0>
9.75037

>  <SCORE.INTRA.POLAR>
0

>  <SCORE.INTRA.POLAR.0>
0

>  <SCORE.INTRA.REPUL>
0

>  <SCORE.INTRA.REPUL.0>
0

>  <SCORE.INTRA.SOLV>
1.84715

>  <SCORE.INTRA.SOLV.lig_0>
-48.4279

>  <SCORE.INTRA.VDW>
1.17014

>  <SCORE.INTRA.VDW.0>
-4.69037

>  <SCORE.INTRA.norm>
-0.0121955

>  <SCORE.RESTR>
0.0141462

>  <SCORE.RESTR.CAVITY>
0.0141462

>  <SCORE.RESTR.norm>
0.000523932

>  <SCORE.SYSTEM>
0

>  <SCORE.SYSTEM.CONST>
0

>  <SCORE.SYSTEM.DIHEDRAL>
0

>  <SCORE.SYSTEM.SOLV>
0

>  <SCORE.SYSTEM.norm>
0

>  <SCORE.heavy>
27

>  <SCORE.norm>
-0.477744

>  <RMSD>
5.026

$$$$
ligand
 OpenBabel02271912153D
libRbt.so/2013.1/901 2013/11/27
 27 29  0  0  0  0  0  0  0  0999 V2000
   14.1369   -7.3589   13.4074 N   0  0  0  0  0  0  0  0  0  0  0  0
   13.3134   -6.3479   12.6750 C   0  0  2  0  0  0  0  0  0  0  0  0
   11.8975   -6.8916   12.3813 C   0  0  0  0  0  0  0  0  0  0  0  0
   11.4784   -7.9121   12.9360 O   0  0  0  0  0  0  0  0  0  0  0  0
   14.0409   -5.9268   11.4025 C   0  0  0  0  0  0  0  0  0  0  0  0
   15.3581   -5.2067   11.6386 C   0  0  0  0  0  0  0  0  0  0  0  0
   16.1366   -4.6134   10.1093 S   0  0  2  0  0  0  0  0  0  0  0  0
   17.4477   -3.5560   10.7866 C   0  0  0  0  0  0  0  0  0  0  0  0
   15.0079   -3.4069    9.3950 C   0  0  0  0  0  0  0  0  0  0  0  0
   14.6583   -3.8332    7.9819 C   0  0  1  0  0  0  0  0  0  0  0  0
   15.7797   -3.8073    7.1125 O   0  0  0  0  0  0  0  0  0  0  0  0
   14.1051   -5.2370    7.9496 C   0  0  1  0  0  0  0  0  0  0  0  0
   12.7306   -5.2428    8.2091 O   0  0  0  0  0  0  0  0  0  0  0  0
   14.4121   -5.6378    6.5389 C   0  0  1  0  0  0  0  0  0  0  0  0
   13.3510   -5.2264    5.6980 O   0  0  0  0  0  0  0  0  0  0  0  0
   15.6869   -4.8763    6.1994 C   0  0  2  0  0  0  0  0  0  0  0  0
   11.1249   -6.3371   11.5782 O   0  0  0  0  0  0  0  0  0  0  0  0
   18.2221   -9.2482    4.6768 N   0  0  0  0  0  0  0  0  0  0  0  0
   16.9771   -8.7981    4.2619 C   0  0  0  0  0  0  0  0  0  0  0  0
   16.4367   -7.6238    4.7721 N   0  0  0  0  0  0  0  0  0  0  0  0
   17.1428   -6.9079    5.6661 C   0  0  0  0  0  0  0  0  0  0  0  0
   18.4047   -7.3432    6.0804 C   0  0  0  0  0  0  0  0  0  0  0  0
   18.9455   -8.5206    5.5972 C   0  0  0  0  0  0  0  0  0  0  0  0
   20.1371   -8.9346    6.0011 N   0  0  0  0  0  0  0  0  0  0  0  0
   18.8875   -6.4501    6.9511 N   0  0  0  0  0  0  0  0  0  0  0  0
   17.9733   -5.4656    7.0969 C   0  0  0  0  0  0  0  0  0  0  0  0
   16.8852   -5.7303    6.3030 N   0  0  0  0  0  0  0  0  0  0  0  0
  2  1  1  6  0  0  0
  2  3  1  0  0  0  0
  2  5  1  0  0  0  0
  3  4  1  0  0  0  0
  3 17  1  0  0  0  0
  5  6  1  0  0  0  0
  7  6  1  1  0  0  0
  7  8  1  0  0  0  0
  7  9  1  0  0  0  0
 10  9  1  1  0  0  0
 10 11  1  0  0  0  0
 10 12  1  0  0  0  0
 11 16  1  0  0  0  0
 12 13  1  6  0  0  0
 12 14  1  0  0  0  0
 14 15  1  6  0  0  0
 14 16  1  0  0  0  0
 16 27  1  1  0  0  0
 18 19  2  0  0  0  0
 18 23  1  0  0  0  0
 19 20  1  0  0  0  0
 20 21  2  0  0  0  0
 21 22  1  0  0  0  0
 21 27  1  0  0  0  0
 22 23  2  0  0  0  0
 22 25  1  0  0  0  0
 23 24  1  0  0  0  0
 25 26  2  0  0  0  0
 26 27  1  0  0  0  0
M  END
>  <CHROM.1>
13.25145305,-64.39251554,-175.78284942,169.20805040,-123.57902626,-65.28187699
175.01645451,15.51689097,-6.05082846,8.43125046,-2.44455539,0.67935037,-1.13484971

>  <Name>
ligand

>  <RI>
0

>  <Rbt.Current_Directory>
/home/itssahil/PROJECTS/Mol_Feturizer/Test_systems_manuscript/rnas/2ydh

>  <Rbt.Executable>
rbdock ($Id: //depot/dev/client3/rdock/2013.1/src/exe/rbdock.cxx#4 $)

>  <Rbt.Library>
libRbt.so (2013.1, Build901 2013/11/27)

>  <Rbt.Parameter_File>
/export/apps/rDock/src/rDock_2013.1_src/data/scripts/dock_solv.prm

>  <Rbt.Receptor>
prm/pocket_docking_6.prm

>  <SCORE>
-11.979

>  <SCORE.INTER>
-12.3993

>  <SCORE.INTER.CONST>
1

>  <SCORE.INTER.POLAR>
0

>  <SCORE.INTER.ROT>
7

>  <SCORE.INTER.SOLV>
7.88263

>  <SCORE.INTER.VDW>
-19.1604

>  <SCORE.INTER.norm>
-0.459235

>  <SCORE.INTRA>
0.420323

>  <SCORE.INTRA.DIHEDRAL>
-2.03039

>  <SCORE.INTRA.DIHEDRAL.0>
9.75037

>  <SCORE.INTRA.POLAR>
0

>  <SCORE.INTRA.POLAR.0>
0

>  <SCORE.INTRA.REPUL>
0

>  <SCORE.INTRA.REPUL.0>
0

>  <SCORE.INTRA.SOLV>
-0.44569

>  <SCORE.INTRA.SOLV.lig_0>
-48.4279

>  <SCORE.INTRA.VDW>
1.65836

>  <SCORE.INTRA.VDW.0>
-4.69037

>  <SCORE.INTRA.norm>
0.0155675

>  <SCORE.RESTR>
0

>  <SCORE.RESTR.CAVITY>
0

>  <SCORE.RESTR.norm>
0

>  <SCORE.SYSTEM>
0

>  <SCORE.SYSTEM.CONST>
0

>  <SCORE.SYSTEM.DIHEDRAL>
0

>  <SCORE.SYSTEM.SOLV>
0

>  <SCORE.SYSTEM.norm>
0

>  <SCORE.heavy>
27

>  <SCORE.norm>
-0.443667

>  <RMSD>
5.028

$$$$
ligand
 OpenBabel02271912153D
libRbt.so/2013.1/901 2013/11/27
 27 29  0  0  0  0  0  0  0  0999 V2000
   14.5409   -5.1751   12.3802 N   0  0  0  0  0  0  0  0  0  0  0  0
   13.4789   -5.0024   11.3414 C   0  0  2  0  0  0  0  0  0  0  0  0
   12.5133   -6.2083   11.3278 C   0  0  0  0  0  0  0  0  0  0  0  0
   11.3538   -6.1016   11.7385 O   0  0  0  0  0  0  0  0  0  0  0  0
   14.1314   -4.7755    9.9818 C   0  0  0  0  0  0  0  0  0  0  0  0
   14.8867   -3.4628    9.8566 C   0  0  0  0  0  0  0  0  0  0  0  0
   15.7318   -3.2697    8.2612 S   0  0  2  0  0  0  0  0  0  0  0  0
   16.3097   -1.5537    8.3913 C   0  0  0  0  0  0  0  0  0  0  0  0
   14.4430   -3.1418    7.0112 C   0  0  0  0  0  0  0  0  0  0  0  0
   14.3529   -4.4551    6.2578 C   0  0  1  0  0  0  0  0  0  0  0  0
   15.6235   -4.9341    5.8452 O   0  0  0  0  0  0  0  0  0  0  0  0
   13.7259   -5.5356    7.1048 C   0  0  1  0  0  0  0  0  0  0  0  0
   12.3299   -5.4864    7.0315 O   0  0  0  0  0  0  0  0  0  0  0  0
   14.2792   -6.7690    6.4585 C   0  0  1  0  0  0  0  0  0  0  0  0
   13.4351   -7.1513    5.3891 O   0  0  0  0  0  0  0  0  0  0  0  0
   15.6433   -6.3400    5.9335 C   0  0  2  0  0  0  0  0  0  0  0  0
   12.8560   -7.3307   10.9128 O   0  0  0  0  0  0  0  0  0  0  0  0
   19.8670   -9.4171    6.6754 N   0  0  0  0  0  0  0  0  0  0  0  0
   19.0605   -9.3358    5.5495 C   0  0  0  0  0  0  0  0  0  0  0  0
   17.9673   -8.4784    5.5155 N   0  0  0  0  0  0  0  0  0  0  0  0
   17.7034   -7.7053    6.5846 C   0  0  0  0  0  0  0  0  0  0  0  0
   18.5177   -7.7672    7.7189 C   0  0  0  0  0  0  0  0  0  0  0  0
   19.5959   -8.6311    7.7747 C   0  0  0  0  0  0  0  0  0  0  0  0
   20.3582   -8.6941    8.8561 N   0  0  0  0  0  0  0  0  0  0  0  0
   18.0458   -6.8961    8.6176 N   0  0  0  0  0  0  0  0  0  0  0  0
   16.9636   -6.2857    8.0862 C   0  0  0  0  0  0  0  0  0  0  0  0
   16.7385   -6.7719    6.8223 N   0  0  0  0  0  0  0  0  0  0  0  0
  2  1  1  1  0  0  0
  2  3  1  0  0  0  0
  2  5  1  0  0  0  0
  3  4  1  0  0  0  0
  3 17  1  0  0  0  0
  5  6  1  0  0  0  0
  7  6  1  1  0  0  0
  7  8  1  0  0  0  0
  7  9  1  0  0  0  0
 10  9  1  1  0  0  0
 10 11  1  0  0  0  0
 10 12  1  0  0  0  0
 11 16  1  0  0  0  0
 12 13  1  6  0  0  0
 12 14  1  0  0  0  0
 14 15  1  6  0  0  0
 14 16  1  0  0  0  0
 16 27  1  1  0  0  0
 18 19  2  0  0  0  0
 18 23  1  0  0  0  0
 19 20  1  0  0  0  0
 20 21  2  0  0  0  0
 21 22  1  0  0  0  0
 21 27  1  0  0  0  0
 22 23  2  0  0  0  0
 22 25  1  0  0  0  0
 23 24  1  0  0  0  0
 25 26  2  0  0  0  0
 26 27  1  0  0  0  0
M  END
>  <CHROM.1>
108.98763100,-67.10607031,176.59749670,172.82595843,-104.30886740,-47.65289405
-129.70959279,15.62272201,-5.98859608,8.08128176,-2.92317410,0.69169728,-1.16969647

>  <Name>
ligand

>  <RI>
0

>  <Rbt.Current_Directory>
/home/itssahil/PROJECTS/Mol_Feturizer/Test_systems_manuscript/rnas/2ydh

>  <Rbt.Executable>
rbdock ($Id: //depot/dev/client3/rdock/2013.1/src/exe/rbdock.cxx#4 $)

>  <Rbt.Library>
libRbt.so (2013.1, Build901 2013/11/27)

>  <Rbt.Parameter_File>
/export/apps/rDock/src/rDock_2013.1_src/data/scripts/dock_solv.prm

>  <Rbt.Receptor>
prm/pocket_docking_7.prm

>  <SCORE>
-13.0255

>  <SCORE.INTER>
-12.4605

>  <SCORE.INTER.CONST>
1

>  <SCORE.INTER.POLAR>
0

>  <SCORE.INTER.ROT>
7

>  <SCORE.INTER.SOLV>
10.1825

>  <SCORE.INTER.VDW>
-19.9679

>  <SCORE.INTER.norm>
-0.461501

>  <SCORE.INTRA>
-0.565001

>  <SCORE.INTRA.DIHEDRAL>
-2.95643

>  <SCORE.INTRA.DIHEDRAL.0>
9.75037

>  <SCORE.INTRA.POLAR>
0

>  <SCORE.INTRA.POLAR.0>
0

>  <SCORE.INTRA.REPUL>
0

>  <SCORE.INTRA.REPUL.0>
0

>  <SCORE.INTRA.SOLV>
-0.454599

>  <SCORE.INTRA.SOLV.lig_0>
-48.4279

>  <SCORE.INTRA.VDW>
1.14051

>  <SCORE.INTRA.VDW.0>
-4.69037

>  <SCORE.INTRA.norm>
-0.0209259

>  <SCORE.RESTR>
0

>  <SCORE.RESTR.CAVITY>
0

>  <SCORE.RESTR.norm>
0

>  <SCORE.SYSTEM>
0

>  <SCORE.SYSTEM.CONST>
0

>  <SCORE.SYSTEM.DIHEDRAL>
0

>  <SCORE.SYSTEM.SOLV>
0

>  <SCORE.SYSTEM.norm>
0

>  <SCORE.heavy>
27

>  <SCORE.norm>
-0.482427

>  <RMSD>
5.028

$$$$
ligand
 OpenBabel02271912153D
libRbt.so/2013.1/901 2013/11/27
 27 29  0  0  0  0  0  0  0  0999 V2000
   13.3578   -9.1768   13.1761 N   0  0  0  0  0  0  0  0  0  0  0  0
   12.9736   -8.6255   11.8401 C   0  0  2  0  0  0  0  0  0  0  0  0
   12.6755   -9.7604   10.8352 C   0  0  0  0  0  0  0  0  0  0  0  0
   11.9063   -9.5856    9.8853 O   0  0  0  0  0  0  0  0  0  0  0  0
   14.0720   -7.6925   11.3415 C   0  0  0  0  0  0  0  0  0  0  0  0
   13.7589   -6.2132   11.4925 C   0  0  0  0  0  0  0  0  0  0  0  0
   14.7334   -5.1558   10.3838 S   0  0  2  0  0  0  0  0  0  0  0  0
   16.2006   -4.8536   11.4092 C   0  0  0  0  0  0  0  0  0  0  0  0
   13.9342   -3.5430   10.3812 C   0  0  0  0  0  0  0  0  0  0  0  0
   14.1391   -2.8919    9.0266 C   0  0  1  0  0  0  0  0  0  0  0  0
   15.5111   -2.7590    8.6887 O   0  0  0  0  0  0  0  0  0  0  0  0
   13.4871   -3.6918    7.9253 C   0  0  1  0  0  0  0  0  0  0  0  0
   12.1346   -3.3596    7.7945 O   0  0  0  0  0  0  0  0  0  0  0  0
   14.2896   -3.2577    6.7368 C   0  0  1  0  0  0  0  0  0  0  0  0
   13.7151   -2.0850    6.1919 O   0  0  0  0  0  0  0  0  0  0  0  0
   15.6719   -2.9602    7.3035 C   0  0  2  0  0  0  0  0  0  0  0  0
   13.1858  -10.8911   10.9376 O   0  0  0  0  0  0  0  0  0  0  0  0
   16.4795   -7.8603    5.5161 N   0  0  0  0  0  0  0  0  0  0  0  0
   15.2894   -7.1477    5.5378 C   0  0  0  0  0  0  0  0  0  0  0  0
   15.2382   -5.8604    6.0591 N   0  0  0  0  0  0  0  0  0  0  0  0
   16.3647   -5.2956    6.5305 C   0  0  0  0  0  0  0  0  0  0  0  0
   17.5728   -5.9979    6.5000 C   0  0  0  0  0  0  0  0  0  0  0  0
   17.6342   -7.2871    6.0039 C   0  0  0  0  0  0  0  0  0  0  0  0
   18.7793   -7.9527    5.9872 N   0  0  0  0  0  0  0  0  0  0  0  0
   18.5251   -5.2094    7.0103 N   0  0  0  0  0  0  0  0  0  0  0  0
   17.9579   -4.0332    7.3583 C   0  0  0  0  0  0  0  0  0  0  0  0
   16.6177   -4.0665    7.0634 N   0  0  0  0  0  0  0  0  0  0  0  0
  2  1  1  1  0  0  0
  2  3  1  0  0  0  0
  2  5  1  0  0  0  0
  3  4  1  0  0  0  0
  3 17  1  0  0  0  0
  5  6  1  0  0  0  0
  7  6  1  1  0  0  0
  7  8  1  0  0  0  0
  7  9  1  0  0  0  0
 10  9  1  1  0  0  0
 10 11  1  0  0  0  0
 10 12  1  0  0  0  0
 11 16  1  0  0  0  0
 12 13  1  6  0  0  0
 12 14  1  0  0  0  0
 14 15  1  1  0  0  0
 14 16  1  0  0  0  0
 16 27  1  1  0  0  0
 18 19  2  0  0  0  0
 18 23  1  0  0  0  0
 19 20  1  0  0  0  0
 20 21  2  0  0  0  0
 21 22  1  0  0  0  0
 21 27  1  0  0  0  0
 22 23  2  0  0  0  0
 22 25  1  0  0  0  0
 23 24  1  0  0  0  0
 25 26  2  0  0  0  0
 26 27  1  0  0  0  0
M  END
>  <CHROM.1>
153.28918758,-102.45866729,-158.65599208,-88.61367516,-148.77749794,-57.43860567
112.36970261,14.96318917,-5.78312017,8.62058597,2.25270987,-0.86180167,2.89738145

>  <Name>
ligand

>  <RI>
0

>  <Rbt.Current_Directory>
/home/itssahil/PROJECTS/Mol_Feturizer/Test_systems_manuscript/rnas/2ydh

>  <Rbt.Executable>
rbdock ($Id: //depot/dev/client3/rdock/2013.1/src/exe/rbdock.cxx#4 $)

>  <Rbt.Library>
libRbt.so (2013.1, Build901 2013/11/27)

>  <Rbt.Parameter_File>
/export/apps/rDock/src/rDock_2013.1_src/data/scripts/dock_solv.prm

>  <Rbt.Receptor>
prm/pocket_docking_4.prm

>  <SCORE>
-9.9135

>  <SCORE.INTER>
-12.9675

>  <SCORE.INTER.CONST>
1

>  <SCORE.INTER.POLAR>
0

>  <SCORE.INTER.ROT>
7

>  <SCORE.INTER.SOLV>
11.1231

>  <SCORE.INTER.VDW>
-20.6194

>  <SCORE.INTER.norm>
-0.480278

>  <SCORE.INTRA>
3.05142

>  <SCORE.INTRA.DIHEDRAL>
4.0271

>  <SCORE.INTRA.DIHEDRAL.0>
9.75037

>  <SCORE.INTRA.POLAR>
0

>  <SCORE.INTRA.POLAR.0>
0

>  <SCORE.INTRA.REPUL>
0

>  <SCORE.INTRA.REPUL.0>
0

>  <SCORE.INTRA.SOLV>
-0.96477

>  <SCORE.INTRA.SOLV.lig_0>
-48.4279

>  <SCORE.INTRA.VDW>
1.52025

>  <SCORE.INTRA.VDW.0>
-4.69037

>  <SCORE.INTRA.norm>
0.113015

>  <SCORE.RESTR>
0.00259581

>  <SCORE.RESTR.CAVITY>
0.00259581

>  <SCORE.RESTR.norm>
9.61411e-05

>  <SCORE.SYSTEM>
0

>  <SCORE.SYSTEM.CONST>
0

>  <SCORE.SYSTEM.DIHEDRAL>
0

>  <SCORE.SYSTEM.SOLV>
0

>  <SCORE.SYSTEM.norm>
0

>  <SCORE.heavy>
27

>  <SCORE.norm>
-0.367167

>  <RMSD>
5.030

$$$$
ligand
 OpenBabel02271912153D
libRbt.so/2013.1/901 2013/11/27
 27 29  0  0  0  0  0  0  0  0999 V2000
   13.4125   -8.6478   11.8777 N   0  0  0  0  0  0  0  0  0  0  0  0
   14.0283   -8.7263   10.5170 C   0  0  2  0  0  0  0  0  0  0  0  0
   15.2969   -9.6078   10.5310 C   0  0  0  0  0  0  0  0  0  0  0  0
   15.9316   -9.7957   11.5733 O   0  0  0  0  0  0  0  0  0  0  0  0
   14.3150   -7.3176   10.0081 C   0  0  0  0  0  0  0  0  0  0  0  0
   15.5802   -6.6902   10.5693 C   0  0  0  0  0  0  0  0  0  0  0  0
   15.3043   -5.0547   11.3081 S   0  0  2  0  0  0  0  0  0  0  0  0
   14.4105   -5.5140   12.8200 C   0  0  0  0  0  0  0  0  0  0  0  0
   14.0159   -4.2627   10.3321 C   0  0  0  0  0  0  0  0  0  0  0  0
   14.6589   -3.2956    9.3564 C   0  0  1  0  0  0  0  0  0  0  0  0
   16.0061   -3.6328    9.0640 O   0  0  0  0  0  0  0  0  0  0  0  0
   13.9159   -3.2606    8.0431 C   0  0  1  0  0  0  0  0  0  0  0  0
   12.8390   -2.3696    8.0974 O   0  0  0  0  0  0  0  0  0  0  0  0
   14.9912   -2.7863    7.1137 C   0  0  1  0  0  0  0  0  0  0  0  0
   15.0121   -1.3715    7.1116 O   0  0  0  0  0  0  0  0  0  0  0  0
   16.2783   -3.3374    7.7135 C   0  0  2  0  0  0  0  0  0  0  0  0
   15.7361  -10.1585    9.5047 O   0  0  0  0  0  0  0  0  0  0  0  0
   15.0383   -7.6404    4.9197 N   0  0  0  0  0  0  0  0  0  0  0  0
   14.1794   -6.6683    5.4115 C   0  0  0  0  0  0  0  0  0  0  0  0
   14.6646   -5.5940    6.1476 N   0  0  0  0  0  0  0  0  0  0  0  0
   15.9879   -5.4904    6.3673 C   0  0  0  0  0  0  0  0  0  0  0  0
   16.8648   -6.4554    5.8639 C   0  0  0  0  0  0  0  0  0  0  0  0
   16.3939   -7.5407    5.1481 C   0  0  0  0  0  0  0  0  0  0  0  0
   17.2278   -8.4585    4.6825 N   0  0  0  0  0  0  0  0  0  0  0  0
   18.1090   -6.1079    6.2106 N   0  0  0  0  0  0  0  0  0  0  0  0
   18.0454   -4.9550    6.9127 C   0  0  0  0  0  0  0  0  0  0  0  0
   16.7367   -4.5538    7.0162 N   0  0  0  0  0  0  0  0  0  0  0  0
  2  1  1  1  0  0  0
  2  3  1  0  0  0  0
  2  5  1  0  0  0  0
  3  4  1  0  0  0  0
  3 17  1  0  0  0  0
  5  6  1  0  0  0  0
  7  6  1  6  0  0  0
  7  8  1  0  0  0  0
  7  9  1  0  0  0  0
 10  9  1  1  0  0  0
 10 11  1  0  0  0  0
 10 12  1  0  0  0  0
 11 16  1  0  0  0  0
 12 13  1  1  0  0  0
 12 14  1  0  0  0  0
 14 15  1  1  0  0  0
 14 16  1  0  0  0  0
 16 27  1  6  0  0  0
 18 19  2  0  0  0  0
 18 23  1  0  0  0  0
 19 20  1  0  0  0  0
 20 21  2  0  0  0  0
 21 22  1  0  0  0  0
 21 27  1  0  0  0  0
 22 23  2  0  0  0  0
 22 25  1  0  0  0  0
 23 24  1  0  0  0  0
 25 26  2  0  0  0  0
 26 27  1  0  0  0  0
M  END
>  <CHROM.1>
-23.21181565,79.74709840,-127.05802328,71.90049085,-99.87637253,24.06580865
89.59390746,15.34149554,-5.84189364,8.52108444,1.91307116,-1.23040085,2.64641507

>  <Name>
ligand

>  <RI>
0

>  <Rbt.Current_Directory>
/home/itssahil/PROJECTS/Mol_Feturizer/Test_systems_manuscript/rnas/2ydh

>  <Rbt.Executable>
rbdock ($Id: //depot/dev/client3/rdock/2013.1/src/exe/rbdock.cxx#4 $)

>  <Rbt.Library>
libRbt.so (2013.1, Build901 2013/11/27)

>  <Rbt.Parameter_File>
/export/apps/rDock/src/rDock_2013.1_src/data/scripts/dock_solv.prm

>  <Rbt.Receptor>
prm/pocket_docking_3.prm

>  <SCORE>
-6.85749

>  <SCORE.INTER>
-13.0791

>  <SCORE.INTER.CONST>
1

>  <SCORE.INTER.POLAR>
0

>  <SCORE.INTER.ROT>
7

>  <SCORE.INTER.SOLV>
12.7039

>  <SCORE.INTER.VDW>
-21.2207

>  <SCORE.INTER.norm>
-0.484411

>  <SCORE.INTRA>
6.15731

>  <SCORE.INTRA.DIHEDRAL>
6.91869

>  <SCORE.INTRA.DIHEDRAL.0>
9.75037

>  <SCORE.INTRA.POLAR>
0

>  <SCORE.INTRA.POLAR.0>
0

>  <SCORE.INTRA.REPUL>
0

>  <SCORE.INTRA.REPUL.0>
0

>  <SCORE.INTRA.SOLV>
0.571743

>  <SCORE.INTRA.SOLV.lig_0>
-48.4279

>  <SCORE.INTRA.VDW>
2.4121

>  <SCORE.INTRA.VDW.0>
-4.69037

>  <SCORE.INTRA.norm>
0.228049

>  <SCORE.RESTR>
0.0643076

>  <SCORE.RESTR.CAVITY>
0.0643076

>  <SCORE.RESTR.norm>
0.00238176

>  <SCORE.SYSTEM>
0

>  <SCORE.SYSTEM.CONST>
0

>  <SCORE.SYSTEM.DIHEDRAL>
0

>  <SCORE.SYSTEM.SOLV>
0

>  <SCORE.SYSTEM.norm>
0

>  <SCORE.heavy>
27

>  <SCORE.norm>
-0.253981

>  <RMSD>
5.037

$$$$
ligand
 OpenBabel02271912153D
libRbt.so/2013.1/901 2013/11/27
 27 29  0  0  0  0  0  0  0  0999 V2000
   14.6297   -8.5761   11.0721 N   0  0  0  0  0  0  0  0  0  0  0  0
   14.2112   -7.3863   10.2685 C   0  0  2  0  0  0  0  0  0  0  0  0
   13.1783   -7.7799    9.1892 C   0  0  0  0  0  0  0  0  0  0  0  0
   12.9705   -7.0557    8.2109 O   0  0  0  0  0  0  0  0  0  0  0  0
   15.4445   -6.7218    9.6660 C   0  0  0  0  0  0  0  0  0  0  0  0
   16.3375   -6.0187   10.6747 C   0  0  0  0  0  0  0  0  0  0  0  0
   15.5207   -4.6302   11.5124 S   0  0  2  0  0  0  0  0  0  0  0  0
   14.6425   -5.5058   12.8381 C   0  0  0  0  0  0  0  0  0  0  0  0
   14.1700   -4.1099   10.4424 C   0  0  0  0  0  0  0  0  0  0  0  0
   14.7163   -3.1868    9.3700 C   0  0  1  0  0  0  0  0  0  0  0  0
   16.0533   -3.5002    9.0117 O   0  0  0  0  0  0  0  0  0  0  0  0
   13.8914   -3.2575    8.1081 C   0  0  1  0  0  0  0  0  0  0  0  0
   12.7897   -2.3984    8.1778 O   0  0  0  0  0  0  0  0  0  0  0  0
   14.8889   -2.8098    7.0836 C   0  0  1  0  0  0  0  0  0  0  0  0
   14.8605   -1.3979    6.9940 O   0  0  0  0  0  0  0  0  0  0  0  0
   16.2296   -3.2822    7.6310 C   0  0  2  0  0  0  0  0  0  0  0  0
   12.5119   -8.8290    9.2568 O   0  0  0  0  0  0  0  0  0  0  0  0
   14.9838   -7.6666    4.9695 N   0  0  0  0  0  0  0  0  0  0  0  0
   14.1279   -6.6710    5.4178 C   0  0  0  0  0  0  0  0  0  0  0  0
   14.6141   -5.5766    6.1230 N   0  0  0  0  0  0  0  0  0  0  0  0
   15.9356   -5.4769    6.3549 C   0  0  0  0  0  0  0  0  0  0  0  0
   16.8097   -6.4660    5.8950 C   0  0  0  0  0  0  0  0  0  0  0  0
   16.3374   -7.5708    5.2107 C   0  0  0  0  0  0  0  0  0  0  0  0
   17.1685   -8.5109    4.7863 N   0  0  0  0  0  0  0  0  0  0  0  0
   18.0528   -6.1175    6.2445 N   0  0  0  0  0  0  0  0  0  0  0  0
   17.9914   -4.9410    6.9065 C   0  0  0  0  0  0  0  0  0  0  0  0
   16.6852   -4.5254    6.9806 N   0  0  0  0  0  0  0  0  0  0  0  0
  2  1  1  6  0  0  0
  2  3  1  0  0  0  0
  2  5  1  0  0  0  0
  3  4  1  0  0  0  0
  3 17  1  0  0  0  0
  5  6  1  0  0  0  0
  7  6  1  6  0  0  0
  7  8  1  0  0  0  0
  7  9  1  0  0  0  0
 10  9  1  1  0  0  0
 10 11  1  0  0  0  0
 10 12  1  0  0  0  0
 11 16  1  0  0  0  0
 12 13  1  1  0  0  0
 12 14  1  0  0  0  0
 14 15  1  1  0  0  0
 14 16  1  0  0  0  0
 16 27  1  6  0  0  0
 18 19  2  0  0  0  0
 18 23  1  0  0  0  0
 19 20  1  0  0  0  0
 20 21  2  0  0  0  0
 21 22  1  0  0  0  0
 21 27  1  0  0  0  0
 22 23  2  0  0  0  0
 22 25  1  0  0  0  0
 23 24  1  0  0  0  0
 25 26  2  0  0  0  0
 26 27  1  0  0  0  0
M  END
>  <CHROM.1>
-160.60457106,-70.18328289,-63.18799110,83.88076247,-82.67447651,31.34793337
94.80600734,15.14433562,-5.47944392,8.30983501,2.63336098,1.24750963,0.26476312

>  <Name>
ligand

>  <RI>
0

>  <Rbt.Current_Directory>
/home/itssahil/PROJECTS/Mol_Feturizer/Test_systems_manuscript/rnas/2ydh

>  <Rbt.Executable>
rbdock ($Id: //depot/dev/client3/rdock/2013.1/src/exe/rbdock.cxx#4 $)

>  <Rbt.Library>
libRbt.so (2013.1, Build901 2013/11/27)

>  <Rbt.Parameter_File>
/export/apps/rDock/src/rDock_2013.1_src/data/scripts/dock_solv.prm

>  <Rbt.Receptor>
prm/pocket_docking_3.prm

>  <SCORE>
-11.6876

>  <SCORE.INTER>
-12.9162

>  <SCORE.INTER.CONST>
1

>  <SCORE.INTER.POLAR>
0

>  <SCORE.INTER.ROT>
7

>  <SCORE.INTER.SOLV>
13.1527

>  <SCORE.INTER.VDW>
-21.2617

>  <SCORE.INTER.norm>
-0.478377

>  <SCORE.INTRA>
1.19211

>  <SCORE.INTRA.DIHEDRAL>
-0.83701

>  <SCORE.INTRA.DIHEDRAL.0>
9.75037

>  <SCORE.INTRA.POLAR>
0

>  <SCORE.INTRA.POLAR.0>
0

>  <SCORE.INTRA.REPUL>
0

>  <SCORE.INTRA.REPUL.0>
0

>  <SCORE.INTRA.SOLV>
0.884086

>  <SCORE.INTRA.SOLV.lig_0>
-48.4279

>  <SCORE.INTRA.VDW>
1.16858

>  <SCORE.INTRA.VDW.0>
-4.69037

>  <SCORE.INTRA.norm>
0.0441524

>  <SCORE.RESTR>
0.0364909

>  <SCORE.RESTR.CAVITY>
0.0364909

>  <SCORE.RESTR.norm>
0.00135151

>  <SCORE.SYSTEM>
0

>  <SCORE.SYSTEM.CONST>
0

>  <SCORE.SYSTEM.DIHEDRAL>
0

>  <SCORE.SYSTEM.SOLV>
0

>  <SCORE.SYSTEM.norm>
0

>  <SCORE.heavy>
27

>  <SCORE.norm>
-0.432873

>  <RMSD>
5.038

$$$$
ligand
 OpenBabel02271912153D
libRbt.so/2013.1/901 2013/11/27
 27 29  0  0  0  0  0  0  0  0999 V2000
   12.0957   -9.8830   12.0182 N   0  0  0  0  0  0  0  0  0  0  0  0
   12.9109   -9.9901   10.7689 C   0  0  2  0  0  0  0  0  0  0  0  0
   14.4215   -9.9093   11.0823 C   0  0  0  0  0  0  0  0  0  0  0  0
   15.2666  -10.1494   10.2147 O   0  0  0  0  0  0  0  0  0  0  0  0
   12.4718   -8.9127    9.7830 C   0  0  0  0  0  0  0  0  0  0  0  0
   12.6250   -7.4901   10.2946 C   0  0  0  0  0  0  0  0  0  0  0  0
   13.4763   -6.3934    9.1243 S   0  0  2  0  0  0  0  0  0  0  0  0
   15.1719   -7.0323    9.2359 C   0  0  0  0  0  0  0  0  0  0  0  0
   13.6203   -4.7927    9.9347 C   0  0  0  0  0  0  0  0  0  0  0  0
   14.2489   -3.8051    8.9702 C   0  0  1  0  0  0  0  0  0  0  0  0
   15.5874   -4.1429    8.6409 O   0  0  0  0  0  0  0  0  0  0  0  0
   13.4788   -3.7325    7.6743 C   0  0  1  0  0  0  0  0  0  0  0  0
   12.4090   -2.8367    7.7737 O   0  0  0  0  0  0  0  0  0  0  0  0
   14.5373   -3.2413    6.7345 C   0  0  1  0  0  0  0  0  0  0  0  0
   14.5675   -1.8270    6.7675 O   0  0  0  0  0  0  0  0  0  0  0  0
   15.8331   -3.8152    7.2929 C   0  0  2  0  0  0  0  0  0  0  0  0
   14.8520   -9.6077   12.2106 O   0  0  0  0  0  0  0  0  0  0  0  0
   14.5003   -8.2420    4.7462 N   0  0  0  0  0  0  0  0  0  0  0  0
   13.6562   -7.3129    5.3368 C   0  0  0  0  0  0  0  0  0  0  0  0
   14.1678   -6.1964    5.9873 N   0  0  0  0  0  0  0  0  0  0  0  0
   15.4996   -6.0093    6.0254 C   0  0  0  0  0  0  0  0  0  0  0  0
   16.3595   -6.9304    5.4208 C   0  0  0  0  0  0  0  0  0  0  0  0
   15.8655   -8.0566    4.7888 C   0  0  0  0  0  0  0  0  0  0  0  0
   16.6850   -8.9324    4.2267 N   0  0  0  0  0  0  0  0  0  0  0  0
   17.6149   -6.5020    5.5923 N   0  0  0  0  0  0  0  0  0  0  0  0
   17.5743   -5.3406    6.2820 C   0  0  0  0  0  0  0  0  0  0  0  0
   16.2688   -5.0163    6.5556 N   0  0  0  0  0  0  0  0  0  0  0  0
  2  1  1  1  0  0  0
  2  3  1  0  0  0  0
  2  5  1  0  0  0  0
  3  4  1  0  0  0  0
  3 17  1  0  0  0  0
  5  6  1  0  0  0  0
  7  6  1  1  0  0  0
  7  8  1  0  0  0  0
  7  9  1  0  0  0  0
 10  9  1  1  0  0  0
 10 11  1  0  0  0  0
 10 12  1  0  0  0  0
 11 16  1  0  0  0  0
 12 13  1  1  0  0  0
 12 14  1  0  0  0  0
 14 15  1  1  0  0  0
 14 16  1  0  0  0  0
 16 27  1  6  0  0  0
 18 19  2  0  0  0  0
 18 23  1  0  0  0  0
 19 20  1  0  0  0  0
 20 21  2  0  0  0  0
 21 22  1  0  0  0  0
 21 27  1  0  0  0  0
 22 23  2  0  0  0  0
 22 25  1  0  0  0  0
 23 24  1  0  0  0  0
 25 26  2  0  0  0  0
 26 27  1  0  0  0  0
M  END
>  <CHROM.1>
170.55220196,59.83492686,130.64079423,-71.38447980,-176.51212248,-65.24175332
81.65464793,14.57934035,-6.49472948,8.03656862,2.10479611,-1.04450820,2.84006823

>  <Name>
ligand

>  <RI>
0

>  <Rbt.Current_Directory>
/home/itssahil/PROJECTS/Mol_Feturizer/Test_systems_manuscript/rnas/2ydh

>  <Rbt.Executable>
rbdock ($Id: //depot/dev/client3/rdock/2013.1/src/exe/rbdock.cxx#4 $)

>  <Rbt.Library>
libRbt.so (2013.1, Build901 2013/11/27)

>  <Rbt.Parameter_File>
/export/apps/rDock/src/rDock_2013.1_src/data/scripts/dock_solv.prm

>  <Rbt.Receptor>
prm/pocket_docking_4.prm

>  <SCORE>
-15.2155

>  <SCORE.INTER>
-15.0125

>  <SCORE.INTER.CONST>
1

>  <SCORE.INTER.POLAR>
0

>  <SCORE.INTER.ROT>
7

>  <SCORE.INTER.SOLV>
16.0802

>  <SCORE.INTER.VDW>
-23.6351

>  <SCORE.INTER.norm>
-0.55602

>  <SCORE.INTRA>
-0.203006

>  <SCORE.INTRA.DIHEDRAL>
-1.12851

>  <SCORE.INTRA.DIHEDRAL.0>
9.75037

>  <SCORE.INTRA.POLAR>
0

>  <SCORE.INTRA.POLAR.0>
0

>  <SCORE.INTRA.REPUL>
0

>  <SCORE.INTRA.REPUL.0>
0

>  <SCORE.INTRA.SOLV>
-0.472492

>  <SCORE.INTRA.SOLV.lig_0>
-48.4279

>  <SCORE.INTRA.VDW>
0.597496

>  <SCORE.INTRA.VDW.0>
-4.69037

>  <SCORE.INTRA.norm>
-0.00751872

>  <SCORE.RESTR>
0

>  <SCORE.RESTR.CAVITY>
0

>  <SCORE.RESTR.norm>
0

>  <SCORE.SYSTEM>
0

>  <SCORE.SYSTEM.CONST>
0

>  <SCORE.SYSTEM.DIHEDRAL>
0

>  <SCORE.SYSTEM.SOLV>
0

>  <SCORE.SYSTEM.norm>
0

>  <SCORE.heavy>
27

>  <SCORE.norm>
-0.563538

>  <RMSD>
5.042

$$$$
ligand
 OpenBabel02271912153D
libRbt.so/2013.1/901 2013/11/27
 27 29  0  0  0  0  0  0  0  0999 V2000
   17.7262   -3.8870   10.7276 N   0  0  0  0  0  0  0  0  0  0  0  0
   16.4049   -3.3390   10.2913 C   0  0  2  0  0  0  0  0  0  0  0  0
   15.2489   -3.9604   11.1063 C   0  0  0  0  0  0  0  0  0  0  0  0
   15.4109   -5.0000   11.7525 O   0  0  0  0  0  0  0  0  0  0  0  0
   16.2336   -3.5614    8.7924 C   0  0  0  0  0  0  0  0  0  0  0  0
   14.9226   -3.0438    8.2243 C   0  0  0  0  0  0  0  0  0  0  0  0
   14.4652   -3.8223    6.6489 S   0  0  2  0  0  0  0  0  0  0  0  0
   12.6789   -3.4998    6.6196 C   0  0  0  0  0  0  0  0  0  0  0  0
   14.5248   -5.6007    6.9203 C   0  0  0  0  0  0  0  0  0  0  0  0
   15.6252   -6.1951    6.0622 C   0  0  1  0  0  0  0  0  0  0  0  0
   16.8500   -5.4880    6.1812 O   0  0  0  0  0  0  0  0  0  0  0  0
   15.9039   -7.6301    6.4377 C   0  0  1  0  0  0  0  0  0  0  0  0
   15.0277   -8.5014    5.7821 O   0  0  0  0  0  0  0  0  0  0  0  0
   17.3150   -7.7869    5.9588 C   0  0  1  0  0  0  0  0  0  0  0  0
   17.3031   -8.1710    4.5970 O   0  0  0  0  0  0  0  0  0  0  0  0
   17.9228   -6.3990    6.1157 C   0  0  2  0  0  0  0  0  0  0  0  0
   14.1134   -3.4520   11.1449 O   0  0  0  0  0  0  0  0  0  0  0  0
   22.6789   -6.8347    8.3625 N   0  0  0  0  0  0  0  0  0  0  0  0
   22.3416   -7.0542    7.0348 C   0  0  0  0  0  0  0  0  0  0  0  0
   21.0299   -6.9098    6.5989 N   0  0  0  0  0  0  0  0  0  0  0  0
   20.0819   -6.5337    7.4765 C   0  0  0  0  0  0  0  0  0  0  0  0
   20.4124   -6.2950    8.8134 C   0  0  0  0  0  0  0  0  0  0  0  0
   21.7092   -6.4554    9.2656 C   0  0  0  0  0  0  0  0  0  0  0  0
   22.0154   -6.2385   10.5359 N   0  0  0  0  0  0  0  0  0  0  0  0
   19.2997   -5.9256    9.4572 N   0  0  0  0  0  0  0  0  0  0  0  0
   18.2803   -5.9209    8.5701 C   0  0  0  0  0  0  0  0  0  0  0  0
   18.7479   -6.2913    7.3337 N   0  0  0  0  0  0  0  0  0  0  0  0
  2  1  1  1  0  0  0
  2  3  1  0  0  0  0
  2  5  1  0  0  0  0
  3  4  1  0  0  0  0
  3 17  1  0  0  0  0
  5  6  1  0  0  0  0
  7  6  1  1  0  0  0
  7  8  1  0  0  0  0
  7  9  1  0  0  0  0
 10  9  1  1  0  0  0
 10 11  1  0  0  0  0
 10 12  1  0  0  0  0
 11 16  1  0  0  0  0
 12 13  1  6  0  0  0
 12 14  1  0  0  0  0
 14 15  1  6  0  0  0
 14 16  1  0  0  0  0
 16 27  1  1  0  0  0
 18 19  2  0  0  0  0
 18 23  1  0  0  0  0
 19 20  1  0  0  0  0
 20 21  2  0  0  0  0
 21 22  1  0  0  0  0
 21 27  1  0  0  0  0
 22 23  2  0  0  0  0
 22 25  1  0  0  0  0
 23 24  1  0  0  0  0
 25 26  2  0  0  0  0
 26 27  1  0  0  0  0
M  END
>  <CHROM.1>
-17.23940264,-179.95179680,-158.87581847,158.90050151,-115.02284281,48.72463682
-150.86070060,17.30947921,-5.59666201,7.95140478,-2.93947457,0.31354564,-2.10903825

>  <Name>
ligand

>  <RI>
0

>  <Rbt.Current_Directory>
/home/itssahil/PROJECTS/Mol_Feturizer/Test_systems_manuscript/rnas/2ydh

>  <Rbt.Executable>
rbdock ($Id: //depot/dev/client3/rdock/2013.1/src/exe/rbdock.cxx#4 $)

>  <Rbt.Library>
libRbt.so (2013.1, Build901 2013/11/27)

>  <Rbt.Parameter_File>
/export/apps/rDock/src/rDock_2013.1_src/data/scripts/dock_solv.prm

>  <Rbt.Receptor>
prm/pocket_docking_8.prm

>  <SCORE>
-11.57

>  <SCORE.INTER>
-12.56

>  <SCORE.INTER.CONST>
1

>  <SCORE.INTER.POLAR>
0

>  <SCORE.INTER.ROT>
7

>  <SCORE.INTER.SOLV>
17.1156

>  <SCORE.INTER.VDW>
-22.3452

>  <SCORE.INTER.norm>
-0.465184

>  <SCORE.INTRA>
0.98998

>  <SCORE.INTRA.DIHEDRAL>
-0.201937

>  <SCORE.INTRA.DIHEDRAL.0>
9.75037

>  <SCORE.INTRA.POLAR>
0

>  <SCORE.INTRA.POLAR.0>
0

>  <SCORE.INTRA.REPUL>
0

>  <SCORE.INTRA.REPUL.0>
0

>  <SCORE.INTRA.SOLV>
-0.152359

>  <SCORE.INTRA.SOLV.lig_0>
-48.4279

>  <SCORE.INTRA.VDW>
1.16713

>  <SCORE.INTRA.VDW.0>
-4.69037

>  <SCORE.INTRA.norm>
0.0366659

>  <SCORE.RESTR>
0

>  <SCORE.RESTR.CAVITY>
0

>  <SCORE.RESTR.norm>
0

>  <SCORE.SYSTEM>
0

>  <SCORE.SYSTEM.CONST>
0

>  <SCORE.SYSTEM.DIHEDRAL>
0

>  <SCORE.SYSTEM.SOLV>
0

>  <SCORE.SYSTEM.norm>
0

>  <SCORE.heavy>
27

>  <SCORE.norm>
-0.428518

>  <RMSD>
5.043

$$$$
ligand
 OpenBabel02271912153D
libRbt.so/2013.1/901 2013/11/27
 27 29  0  0  0  0  0  0  0  0999 V2000
   11.6157   -8.9485   10.9709 N   0  0  0  0  0  0  0  0  0  0  0  0
   12.4198   -7.6878   10.9462 C   0  0  2  0  0  0  0  0  0  0  0  0
   13.1305   -7.5084    9.5862 C   0  0  0  0  0  0  0  0  0  0  0  0
   12.6041   -6.8679    8.6711 O   0  0  0  0  0  0  0  0  0  0  0  0
   13.4041   -7.6911   12.1110 C   0  0  0  0  0  0  0  0  0  0  0  0
   13.8033   -6.3098   12.6026 C   0  0  0  0  0  0  0  0  0  0  0  0
   14.8942   -5.4252   11.4518 S   0  0  2  0  0  0  0  0  0  0  0  0
   15.4174   -4.0297   12.4884 C   0  0  0  0  0  0  0  0  0  0  0  0
   13.8245   -4.6223   10.2472 C   0  0  0  0  0  0  0  0  0  0  0  0
   14.6638   -3.7153    9.3677 C   0  0  1  0  0  0  0  0  0  0  0  0
   15.8724   -4.3300    8.9486 O   0  0  0  0  0  0  0  0  0  0  0  0
   13.9170   -3.3106    8.1202 C   0  0  1  0  0  0  0  0  0  0  0  0
   13.1035   -2.1980    8.3590 O   0  0  0  0  0  0  0  0  0  0  0  0
   15.0504   -2.9894    7.1944 C   0  0  1  0  0  0  0  0  0  0  0  0
   15.4298   -1.6383    7.3763 O   0  0  0  0  0  0  0  0  0  0  0  0
   16.1721   -3.9216    7.6340 C   0  0  2  0  0  0  0  0  0  0  0  0
   14.2498   -7.9991    9.3503 O   0  0  0  0  0  0  0  0  0  0  0  0
   13.7441   -7.6589    4.8063 N   0  0  0  0  0  0  0  0  0  0  0  0
   13.1630   -6.6402    5.5473 C   0  0  0  0  0  0  0  0  0  0  0  0
   13.9466   -5.7360    6.2542 N   0  0  0  0  0  0  0  0  0  0  0  0
   15.2867   -5.8434    6.2005 C   0  0  0  0  0  0  0  0  0  0  0  0
   15.8841   -6.8563    5.4451 C   0  0  0  0  0  0  0  0  0  0  0  0
   15.1164   -7.7756    4.7541 C   0  0  0  0  0  0  0  0  0  0  0  0
   15.6871   -8.7405    4.0483 N   0  0  0  0  0  0  0  0  0  0  0  0
   17.2111   -6.7274    5.5523 N   0  0  0  0  0  0  0  0  0  0  0  0
   17.4694   -5.6657    6.3474 C   0  0  0  0  0  0  0  0  0  0  0  0
   16.2866   -5.1012    6.7556 N   0  0  0  0  0  0  0  0  0  0  0  0
  2  1  1  6  0  0  0
  2  3  1  0  0  0  0
  2  5  1  0  0  0  0
  3  4  1  0  0  0  0
  3 17  1  0  0  0  0
  5  6  1  0  0  0  0
  7  6  1  1  0  0  0
  7  8  1  0  0  0  0
  7  9  1  0  0  0  0
 10  9  1  6  0  0  0
 10 11  1  0  0  0  0
 10 12  1  0  0  0  0
 11 16  1  0  0  0  0
 12 13  1  1  0  0  0
 12 14  1  0  0  0  0
 14 15  1  1  0  0  0
 14 16  1  0  0  0  0
 16 27  1  6  0  0  0
 18 19  2  0  0  0  0
 18 23  1  0  0  0  0
 19 20  1  0  0  0  0
 20 21  2  0  0  0  0
 21 22  1  0  0  0  0
 21 27  1  0  0  0  0
 22 23  2  0  0  0  0
 22 25  1  0  0  0  0
 23 24  1  0  0  0  0
 25 26  2  0  0  0  0
 26 27  1  0  0  0  0
M  END
>  <CHROM.1>
92.46951050,-152.94803327,-71.76667651,-168.95883962,172.49374598,44.13503092
78.64469556,14.56630132,-5.71445247,8.41362684,2.28838489,1.14325750,0.84183417

>  <Name>
ligand

>  <RI>
0

>  <Rbt.Current_Directory>
/home/itssahil/PROJECTS/Mol_Feturizer/Test_systems_manuscript/rnas/2ydh

>  <Rbt.Executable>
rbdock ($Id: //depot/dev/client3/rdock/2013.1/src/exe/rbdock.cxx#4 $)

>  <Rbt.Library>
libRbt.so (2013.1, Build901 2013/11/27)

>  <Rbt.Parameter_File>
/export/apps/rDock/src/rDock_2013.1_src/data/scripts/dock_solv.prm

>  <Rbt.Receptor>
prm/pocket_docking_5.prm

>  <SCORE>
-12.7082

>  <SCORE.INTER>
-11.3041

>  <SCORE.INTER.CONST>
1

>  <SCORE.INTER.POLAR>
0

>  <SCORE.INTER.ROT>
7

>  <SCORE.INTER.SOLV>
16.8055

>  <SCORE.INTER.VDW>
-21.4046

>  <SCORE.INTER.norm>
-0.418672

>  <SCORE.INTRA>
-1.40409

>  <SCORE.INTRA.DIHEDRAL>
-2.05223

>  <SCORE.INTRA.DIHEDRAL.0>
9.75037

>  <SCORE.INTRA.POLAR>
0

>  <SCORE.INTRA.POLAR.0>
0

>  <SCORE.INTRA.REPUL>
0

>  <SCORE.INTRA.REPUL.0>
0

>  <SCORE.INTRA.SOLV>
-1.29362

>  <SCORE.INTRA.SOLV.lig_0>
-48.4279

>  <SCORE.INTRA.VDW>
0.268836

>  <SCORE.INTRA.VDW.0>
-4.69037

>  <SCORE.INTRA.norm>
-0.0520034

>  <SCORE.RESTR>
0

>  <SCORE.RESTR.CAVITY>
0

>  <SCORE.RESTR.norm>
0

>  <SCORE.SYSTEM>
0

>  <SCORE.SYSTEM.CONST>
0

>  <SCORE.SYSTEM.DIHEDRAL>
0

>  <SCORE.SYSTEM.SOLV>
0

>  <SCORE.SYSTEM.norm>
0

>  <SCORE.heavy>
27

>  <SCORE.norm>
-0.470675

>  <RMSD>
5.045

$$$$
ligand
 OpenBabel02271912153D
libRbt.so/2013.1/901 2013/11/27
 27 29  0  0  0  0  0  0  0  0999 V2000
   13.2377   -5.0032   11.3114 N   0  0  0  0  0  0  0  0  0  0  0  0
   14.4751   -4.5431   10.6085 C   0  0  2  0  0  0  0  0  0  0  0  0
   15.5445   -4.0701   11.6180 C   0  0  0  0  0  0  0  0  0  0  0  0
   16.6035   -3.5636   11.2350 O   0  0  0  0  0  0  0  0  0  0  0  0
   14.1128   -3.4536    9.6048 C   0  0  0  0  0  0  0  0  0  0  0  0
   15.2324   -3.0816    8.6471 C   0  0  0  0  0  0  0  0  0  0  0  0
   15.9494   -4.5126    7.7896 S   0  0  2  0  0  0  0  0  0  0  0  0
   17.4011   -3.7477    7.0130 C   0  0  0  0  0  0  0  0  0  0  0  0
   14.8910   -4.8427    6.3716 C   0  0  0  0  0  0  0  0  0  0  0  0
   14.9737   -6.3172    6.0257 C   0  0  1  0  0  0  0  0  0  0  0  0
   15.3809   -7.1128    7.1281 O   0  0  0  0  0  0  0  0  0  0  0  0
   13.6403   -6.8513    5.5625 C   0  0  1  0  0  0  0  0  0  0  0  0
   13.4524   -6.6200    4.1958 O   0  0  0  0  0  0  0  0  0  0  0  0
   13.7889   -8.3101    5.8701 C   0  0  1  0  0  0  0  0  0  0  0  0
   14.4021   -8.9563    4.7707 O   0  0  0  0  0  0  0  0  0  0  0  0
   14.7033   -8.3474    7.0879 C   0  0  2  0  0  0  0  0  0  0  0  0
   15.3934   -4.1808   12.8486 O   0  0  0  0  0  0  0  0  0  0  0  0
   14.6986   -9.9730   12.1095 N   0  0  0  0  0  0  0  0  0  0  0  0
   15.7617   -9.9660   11.2182 C   0  0  0  0  0  0  0  0  0  0  0  0
   15.5962   -9.5154    9.9140 N   0  0  0  0  0  0  0  0  0  0  0  0
   14.3913   -9.0635    9.5214 C   0  0  0  0  0  0  0  0  0  0  0  0
   13.3164   -9.0513   10.4147 C   0  0  0  0  0  0  0  0  0  0  0  0
   13.4613   -9.5165   11.7088 C   0  0  0  0  0  0  0  0  0  0  0  0
   12.4369   -9.5132   12.5485 N   0  0  0  0  0  0  0  0  0  0  0  0
   12.2533   -8.5462    9.7794 N   0  0  0  0  0  0  0  0  0  0  0  0
   12.6233   -8.2372    8.5169 C   0  0  0  0  0  0  0  0  0  0  0  0
   13.9489   -8.5470    8.3397 N   0  0  0  0  0  0  0  0  0  0  0  0
  2  1  1  1  0  0  0
  2  3  1  0  0  0  0
  2  5  1  0  0  0  0
  3  4  1  0  0  0  0
  3 17  1  0  0  0  0
  5  6  1  0  0  0  0
  7  6  1  1  0  0  0
  7  8  1  0  0  0  0
  7  9  1  0  0  0  0
 10  9  1  1  0  0  0
 10 11  1  0  0  0  0
 10 12  1  0  0  0  0
 11 16  1  0  0  0  0
 12 13  1  6  0  0  0
 12 14  1  0  0  0  0
 14 15  1  6  0  0  0
 14 16  1  0  0  0  0
 16 27  1  1  0  0  0
 18 19  2  0  0  0  0
 18 23  1  0  0  0  0
 19 20  1  0  0  0  0
 20 21  2  0  0  0  0
 21 22  1  0  0  0  0
 21 27  1  0  0  0  0
 22 23  2  0  0  0  0
 22 25  1  0  0  0  0
 23 24  1  0  0  0  0
 25 26  2  0  0  0  0
 26 27  1  0  0  0  0
M  END
>  <CHROM.1>
-174.83548835,-169.27255961,52.38465486,-169.90438892,-152.32244732,23.15677716
-85.32390266,14.60681859,-6.68616832,8.84844880,-2.16867265,-1.24538838,-1.59700030

>  <Name>
ligand

>  <RI>
0

>  <Rbt.Current_Directory>
/home/itssahil/PROJECTS/Mol_Feturizer/Test_systems_manuscript/rnas/2ydh

>  <Rbt.Executable>
rbdock ($Id: //depot/dev/client3/rdock/2013.1/src/exe/rbdock.cxx#4 $)

>  <Rbt.Library>
libRbt.so (2013.1, Build901 2013/11/27)

>  <Rbt.Parameter_File>
/export/apps/rDock/src/rDock_2013.1_src/data/scripts/dock_solv.prm

>  <Rbt.Receptor>
prm/pocket_docking_2.prm

>  <SCORE>
-6.10473

>  <SCORE.INTER>
-10.1053

>  <SCORE.INTER.CONST>
1

>  <SCORE.INTER.POLAR>
0

>  <SCORE.INTER.ROT>
7

>  <SCORE.INTER.SOLV>
12.7115

>  <SCORE.INTER.VDW>
-19.2407

>  <SCORE.INTER.norm>
-0.37427

>  <SCORE.INTRA>
2.38541

>  <SCORE.INTRA.DIHEDRAL>
1.11786

>  <SCORE.INTRA.DIHEDRAL.0>
9.75037

>  <SCORE.INTRA.POLAR>
0

>  <SCORE.INTRA.POLAR.0>
0

>  <SCORE.INTRA.REPUL>
0

>  <SCORE.INTRA.REPUL.0>
0

>  <SCORE.INTRA.SOLV>
-1.245

>  <SCORE.INTRA.SOLV.lig_0>
-48.4279

>  <SCORE.INTRA.VDW>
2.44898

>  <SCORE.INTRA.VDW.0>
-4.69037

>  <SCORE.INTRA.norm>
0.0883484

>  <SCORE.RESTR>
1.61516

>  <SCORE.RESTR.CAVITY>
1.61516

>  <SCORE.RESTR.norm>
0.0598206

>  <SCORE.SYSTEM>
0

>  <SCORE.SYSTEM.CONST>
0

>  <SCORE.SYSTEM.DIHEDRAL>
0

>  <SCORE.SYSTEM.SOLV>
0

>  <SCORE.SYSTEM.norm>
0

>  <SCORE.heavy>
27

>  <SCORE.norm>
-0.226101

>  <RMSD>
5.046

$$$$
ligand
 OpenBabel02271912153D
libRbt.so/2013.1/901 2013/11/27
 27 29  0  0  0  0  0  0  0  0999 V2000
   13.5560   -7.2241   11.8788 N   0  0  0  0  0  0  0  0  0  0  0  0
   14.9802   -7.0004   12.2768 C   0  0  2  0  0  0  0  0  0  0  0  0
   15.0721   -6.1116   13.5371 C   0  0  0  0  0  0  0  0  0  0  0  0
   15.1688   -6.6094   14.6629 O   0  0  0  0  0  0  0  0  0  0  0  0
   15.7484   -6.4077   11.1003 C   0  0  0  0  0  0  0  0  0  0  0  0
   17.2170   -6.1351   11.3798 C   0  0  0  0  0  0  0  0  0  0  0  0
   17.9881   -5.0335   10.1597 S   0  0  2  0  0  0  0  0  0  0  0  0
   19.6936   -4.9845   10.7799 C   0  0  0  0  0  0  0  0  0  0  0  0
   17.4029   -3.3717   10.5284 C   0  0  0  0  0  0  0  0  0  0  0  0
   16.4547   -2.9268    9.4313 C   0  0  1  0  0  0  0  0  0  0  0  0
   17.0209   -3.0574    8.1365 O   0  0  0  0  0  0  0  0  0  0  0  0
   15.1806   -3.7357    9.4412 C   0  0  1  0  0  0  0  0  0  0  0  0
   14.2560   -3.2078   10.3485 O   0  0  0  0  0  0  0  0  0  0  0  0
   14.7266   -3.5800    8.0218 C   0  0  1  0  0  0  0  0  0  0  0  0
   13.9496   -2.4027    7.9095 O   0  0  0  0  0  0  0  0  0  0  0  0
   16.0180   -3.4441    7.2256 C   0  0  2  0  0  0  0  0  0  0  0  0
   15.0478   -4.8685   13.4781 O   0  0  0  0  0  0  0  0  0  0  0  0
   14.4835   -7.8678    4.7895 N   0  0  0  0  0  0  0  0  0  0  0  0
   13.6840   -6.8490    5.2870 C   0  0  0  0  0  0  0  0  0  0  0  0
   14.2452   -5.7466    5.9204 N   0  0  0  0  0  0  0  0  0  0  0  0
   15.5832   -5.6624    6.0333 C   0  0  0  0  0  0  0  0  0  0  0  0
   16.3999   -6.6752    5.5225 C   0  0  0  0  0  0  0  0  0  0  0  0
   15.8544   -7.7878    4.9089 C   0  0  0  0  0  0  0  0  0  0  0  0
   16.6320   -8.7503    4.4362 N   0  0  0  0  0  0  0  0  0  0  0  0
   17.6736   -6.3385    5.7535 N   0  0  0  0  0  0  0  0  0  0  0  0
   17.6865   -5.1464    6.3898 C   0  0  0  0  0  0  0  0  0  0  0  0
   16.3977   -4.7087    6.5680 N   0  0  0  0  0  0  0  0  0  0  0  0
  2  1  1  6  0  0  0
  2  3  1  0  0  0  0
  2  5  1  0  0  0  0
  3  4  1  0  0  0  0
  3 17  1  0  0  0  0
  5  6  1  0  0  0  0
  7  6  1  1  0  0  0
  7  8  1  0  0  0  0
  7  9  1  0  0  0  0
 10  9  1  1  0  0  0
 10 11  1  0  0  0  0
 10 12  1  0  0  0  0
 11 16  1  0  0  0  0
 12 13  1  1  0  0  0
 12 14  1  0  0  0  0
 14 15  1  1  0  0  0
 14 16  1  0  0  0  0
 16 27  1  1  0  0  0
 18 19  2  0  0  0  0
 18 23  1  0  0  0  0
 19 20  1  0  0  0  0
 20 21  2  0  0  0  0
 21 22  1  0  0  0  0
 21 27  1  0  0  0  0
 22 23  2  0  0  0  0
 22 25  1  0  0  0  0
 23 24  1  0  0  0  0
 25 26  2  0  0  0  0
 26 27  1  0  0  0  0
M  END
>  <CHROM.1>
95.10319728,-179.90575054,-164.18645976,-178.46715034,-109.71829745,-52.91372544
153.46075619,15.95483467,-5.32714248,8.91220490,1.57261522,1.14661811,1.43234110

>  <Name>
ligand

>  <RI>
0

>  <Rbt.Current_Directory>
/home/itssahil/PROJECTS/Mol_Feturizer/Test_systems_manuscript/rnas/2ydh

>  <Rbt.Executable>
rbdock ($Id: //depot/dev/client3/rdock/2013.1/src/exe/rbdock.cxx#4 $)

>  <Rbt.Library>
libRbt.so (2013.1, Build901 2013/11/27)

>  <Rbt.Parameter_File>
/export/apps/rDock/src/rDock_2013.1_src/data/scripts/dock_solv.prm

>  <Rbt.Receptor>
prm/pocket_docking_7.prm

>  <SCORE>
-13.7449

>  <SCORE.INTER>
-13.3622

>  <SCORE.INTER.CONST>
1

>  <SCORE.INTER.POLAR>
0

>  <SCORE.INTER.ROT>
7

>  <SCORE.INTER.SOLV>
13.4316

>  <SCORE.INTER.VDW>
-21.652

>  <SCORE.INTER.norm>
-0.494898

>  <SCORE.INTRA>
-0.382653

>  <SCORE.INTRA.DIHEDRAL>
-1.89369

>  <SCORE.INTRA.DIHEDRAL.0>
9.75037

>  <SCORE.INTRA.POLAR>
0

>  <SCORE.INTRA.POLAR.0>
0

>  <SCORE.INTRA.REPUL>
0

>  <SCORE.INTRA.REPUL.0>
0

>  <SCORE.INTRA.SOLV>
-1.04592

>  <SCORE.INTRA.SOLV.lig_0>
-48.4279

>  <SCORE.INTRA.VDW>
1.08715

>  <SCORE.INTRA.VDW.0>
-4.69037

>  <SCORE.INTRA.norm>
-0.0141723

>  <SCORE.RESTR>
0

>  <SCORE.RESTR.CAVITY>
0

>  <SCORE.RESTR.norm>
0

>  <SCORE.SYSTEM>
0

>  <SCORE.SYSTEM.CONST>
0

>  <SCORE.SYSTEM.DIHEDRAL>
0

>  <SCORE.SYSTEM.SOLV>
0

>  <SCORE.SYSTEM.norm>
0

>  <SCORE.heavy>
27

>  <SCORE.norm>
-0.50907

>  <RMSD>
5.049

$$$$
ligand
 OpenBabel02271912153D
libRbt.so/2013.1/901 2013/11/27
 27 29  0  0  0  0  0  0  0  0999 V2000
   11.4037   -8.8046   10.8446 N   0  0  0  0  0  0  0  0  0  0  0  0
   12.1774   -7.5271   10.9226 C   0  0  2  0  0  0  0  0  0  0  0  0
   12.9523   -7.2656    9.6119 C   0  0  0  0  0  0  0  0  0  0  0  0
   13.9792   -7.8957    9.3416 O   0  0  0  0  0  0  0  0  0  0  0  0
   13.1004   -7.5663   12.1359 C   0  0  0  0  0  0  0  0  0  0  0  0
   13.5617   -6.2022   12.6212 C   0  0  0  0  0  0  0  0  0  0  0  0
   14.8347   -5.4560   11.5631 S   0  0  2  0  0  0  0  0  0  0  0  0
   15.4972   -4.1853   12.6775 C   0  0  0  0  0  0  0  0  0  0  0  0
   13.9653   -4.4675   10.3356 C   0  0  0  0  0  0  0  0  0  0  0  0
   14.9819   -3.7477    9.4702 C   0  0  1  0  0  0  0  0  0  0  0  0
   16.0038   -4.6120    8.9980 O   0  0  0  0  0  0  0  0  0  0  0  0
   14.3331   -3.1252    8.2580 C   0  0  1  0  0  0  0  0  0  0  0  0
   13.8102   -1.8632    8.5591 O   0  0  0  0  0  0  0  0  0  0  0  0
   15.4960   -3.0415    7.3169 C   0  0  1  0  0  0  0  0  0  0  0  0
   16.1874   -1.8273    7.5402 O   0  0  0  0  0  0  0  0  0  0  0  0
   16.3714   -4.2301    7.6926 C   0  0  2  0  0  0  0  0  0  0  0  0
   12.5858   -6.4150    8.7804 O   0  0  0  0  0  0  0  0  0  0  0  0
   13.0609   -7.3010    4.9598 N   0  0  0  0  0  0  0  0  0  0  0  0
   12.7447   -6.2301    5.7830 C   0  0  0  0  0  0  0  0  0  0  0  0
   13.7395   -5.5249    6.4498 N   0  0  0  0  0  0  0  0  0  0  0  0
   15.0261   -5.8781    6.2763 C   0  0  0  0  0  0  0  0  0  0  0  0
   15.3582   -6.9457    5.4376 C   0  0  0  0  0  0  0  0  0  0  0  0
   14.3775   -7.6695    4.7847 C   0  0  0  0  0  0  0  0  0  0  0  0
   14.6964   -8.6874    3.9994 N   0  0  0  0  0  0  0  0  0  0  0  0
   16.6897   -7.0728    5.4335 N   0  0  0  0  0  0  0  0  0  0  0  0
   17.2073   -6.1193    6.2391 C   0  0  0  0  0  0  0  0  0  0  0  0
   16.1896   -5.3648    6.7677 N   0  0  0  0  0  0  0  0  0  0  0  0
  2  1  1  6  0  0  0
  2  3  1  0  0  0  0
  2  5  1  0  0  0  0
  3  4  1  0  0  0  0
  3 17  1  0  0  0  0
  5  6  1  0  0  0  0
  7  6  1  1  0  0  0
  7  8  1  0  0  0  0
  7  9  1  0  0  0  0
 10  9  1  6  0  0  0
 10 11  1  0  0  0  0
 10 12  1  0  0  0  0
 11 16  1  0  0  0  0
 12 13  1  1  0  0  0
 12 14  1  0  0  0  0
 14 15  1  1  0  0  0
 14 16  1  0  0  0  0
 16 27  1  6  0  0  0
 18 19  2  0  0  0  0
 18 23  1  0  0  0  0
 19 20  1  0  0  0  0
 20 21  2  0  0  0  0
 21 22  1  0  0  0  0
 21 27  1  0  0  0  0
 22 23  2  0  0  0  0
 22 25  1  0  0  0  0
 23 24  1  0  0  0  0
 25 26  2  0  0  0  0
 26 27  1  0  0  0  0
M  END
>  <CHROM.1>
-75.28318322,-159.26860648,-75.16775108,-162.72158745,176.56942151,48.34698419
74.08985824,14.47078795,-5.68221017,8.47927897,1.97840006,1.03959624,1.11618586

>  <Name>
ligand

>  <RI>
0

>  <Rbt.Current_Directory>
/home/itssahil/PROJECTS/Mol_Feturizer/Test_systems_manuscript/rnas/2ydh

>  <Rbt.Executable>
rbdock ($Id: //depot/dev/client3/rdock/2013.1/src/exe/rbdock.cxx#4 $)

>  <Rbt.Library>
libRbt.so (2013.1, Build901 2013/11/27)

>  <Rbt.Parameter_File>
/export/apps/rDock/src/rDock_2013.1_src/data/scripts/dock_solv.prm

>  <Rbt.Receptor>
prm/pocket_docking_8.prm

>  <SCORE>
-13.1045

>  <SCORE.INTER>
-11.3621

>  <SCORE.INTER.CONST>
1

>  <SCORE.INTER.POLAR>
0

>  <SCORE.INTER.ROT>
7

>  <SCORE.INTER.SOLV>
17.0719

>  <SCORE.INTER.VDW>
-21.532

>  <SCORE.INTER.norm>
-0.420818

>  <SCORE.INTRA>
-1.74244

>  <SCORE.INTRA.DIHEDRAL>
-2.30103

>  <SCORE.INTRA.DIHEDRAL.0>
9.75037

>  <SCORE.INTRA.POLAR>
0

>  <SCORE.INTRA.POLAR.0>
0

>  <SCORE.INTRA.REPUL>
0

>  <SCORE.INTRA.REPUL.0>
0

>  <SCORE.INTRA.SOLV>
-1.32008

>  <SCORE.INTRA.SOLV.lig_0>
-48.4279

>  <SCORE.INTRA.VDW>
0.0681168

>  <SCORE.INTRA.VDW.0>
-4.69037

>  <SCORE.INTRA.norm>
-0.0645348

>  <SCORE.RESTR>
0

>  <SCORE.RESTR.CAVITY>
0

>  <SCORE.RESTR.norm>
0

>  <SCORE.SYSTEM>
0

>  <SCORE.SYSTEM.CONST>
0

>  <SCORE.SYSTEM.DIHEDRAL>
0

>  <SCORE.SYSTEM.SOLV>
0

>  <SCORE.SYSTEM.norm>
0

>  <SCORE.heavy>
27

>  <SCORE.norm>
-0.485353

>  <RMSD>
5.060

$$$$
ligand
 OpenBabel02271912153D
libRbt.so/2013.1/901 2013/11/27
 27 29  0  0  0  0  0  0  0  0999 V2000
   16.5265   -7.9025   12.0496 N   0  0  0  0  0  0  0  0  0  0  0  0
   15.5282   -8.3777   13.0567 C   0  0  2  0  0  0  0  0  0  0  0  0
   14.6871   -9.5464   12.4970 C   0  0  0  0  0  0  0  0  0  0  0  0
   14.1934  -10.3936   13.2474 O   0  0  0  0  0  0  0  0  0  0  0  0
   14.6581   -7.2063   13.5000 C   0  0  0  0  0  0  0  0  0  0  0  0
   13.8249   -6.5853   12.3913 C   0  0  0  0  0  0  0  0  0  0  0  0
   14.8057   -5.6065   11.2178 S   0  0  2  0  0  0  0  0  0  0  0  0
   15.0942   -4.1020   12.1919 C   0  0  0  0  0  0  0  0  0  0  0  0
   13.6627   -5.0264    9.9541 C   0  0  0  0  0  0  0  0  0  0  0  0
   14.3625   -3.9940    9.0910 C   0  0  1  0  0  0  0  0  0  0  0  0
   15.6928   -4.3672    8.7667 O   0  0  0  0  0  0  0  0  0  0  0  0
   13.6328   -3.7779    7.7877 C   0  0  1  0  0  0  0  0  0  0  0  0
   12.6029   -2.8431    7.9361 O   0  0  0  0  0  0  0  0  0  0  0  0
   14.7384   -3.2621    6.9178 C   0  0  1  0  0  0  0  0  0  0  0  0
   14.8324   -1.8585    7.0698 O   0  0  0  0  0  0  0  0  0  0  0  0
   15.9906   -3.9415    7.4571 C   0  0  2  0  0  0  0  0  0  0  0  0
   14.4750   -9.6902   11.2789 O   0  0  0  0  0  0  0  0  0  0  0  0
   14.5288   -8.1134    4.5730 N   0  0  0  0  0  0  0  0  0  0  0  0
   13.7120   -7.2036    5.2286 C   0  0  0  0  0  0  0  0  0  0  0  0
   14.2560   -6.1580    5.9650 N   0  0  0  0  0  0  0  0  0  0  0  0
   15.5930   -6.0200    6.0241 C   0  0  0  0  0  0  0  0  0  0  0  0
   16.4260   -6.9214    5.3553 C   0  0  0  0  0  0  0  0  0  0  0  0
   15.8991   -7.9786    4.6366 C   0  0  0  0  0  0  0  0  0  0  0  0
   16.6929   -8.8366    4.0135 N   0  0  0  0  0  0  0  0  0  0  0  0
   17.6938   -6.5504    5.5654 N   0  0  0  0  0  0  0  0  0  0  0  0
   17.6871   -5.4442    6.3415 C   0  0  0  0  0  0  0  0  0  0  0  0
   16.3912   -5.0972    6.6325 N   0  0  0  0  0  0  0  0  0  0  0  0
  2  1  1  6  0  0  0
  2  3  1  0  0  0  0
  2  5  1  0  0  0  0
  3  4  1  0  0  0  0
  3 17  1  0  0  0  0
  5  6  1  0  0  0  0
  7  6  1  1  0  0  0
  7  8  1  0  0  0  0
  7  9  1  0  0  0  0
 10  9  1  6  0  0  0
 10 11  1  0  0  0  0
 10 12  1  0  0  0  0
 11 16  1  0  0  0  0
 12 13  1  1  0  0  0
 12 14  1  0  0  0  0
 14 15  1  1  0  0  0
 14 16  1  0  0  0  0
 16 27  1  6  0  0  0
 18 19  2  0  0  0  0
 18 23  1  0  0  0  0
 19 20  1  0  0  0  0
 20 21  2  0  0  0  0
 21 22  1  0  0  0  0
 21 27  1  0  0  0  0
 22 23  2  0  0  0  0
 22 25  1  0  0  0  0
 23 24  1  0  0  0  0
 25 26  2  0  0  0  0
 26 27  1  0  0  0  0
M  END
>  <CHROM.1>
152.44826807,62.73946221,-72.87358483,-76.32102435,169.50046211,42.42503050
80.25871426,15.07057380,-6.12536794,8.76150417,-2.04448387,1.32075725,-0.81093597

>  <Name>
ligand

>  <RI>
0

>  <Rbt.Current_Directory>
/home/itssahil/PROJECTS/Mol_Feturizer/Test_systems_manuscript/rnas/2ydh

>  <Rbt.Executable>
rbdock ($Id: //depot/dev/client3/rdock/2013.1/src/exe/rbdock.cxx#4 $)

>  <Rbt.Library>
libRbt.so (2013.1, Build901 2013/11/27)

>  <Rbt.Parameter_File>
/export/apps/rDock/src/rDock_2013.1_src/data/scripts/dock_solv.prm

>  <Rbt.Receptor>
prm/pocket_docking_7.prm

>  <SCORE>
-12.3701

>  <SCORE.INTER>
-12.5883

>  <SCORE.INTER.CONST>
1

>  <SCORE.INTER.POLAR>
0

>  <SCORE.INTER.ROT>
7

>  <SCORE.INTER.SOLV>
14.5924

>  <SCORE.INTER.VDW>
-21.523

>  <SCORE.INTER.norm>
-0.466234

>  <SCORE.INTRA>
0.218168

>  <SCORE.INTRA.DIHEDRAL>
-4.76963

>  <SCORE.INTRA.DIHEDRAL.0>
9.75037

>  <SCORE.INTRA.POLAR>
0

>  <SCORE.INTRA.POLAR.0>
0

>  <SCORE.INTRA.REPUL>
0

>  <SCORE.INTRA.REPUL.0>
0

>  <SCORE.INTRA.SOLV>
1.07073

>  <SCORE.INTRA.SOLV.lig_0>
-48.4279

>  <SCORE.INTRA.VDW>
2.06762

>  <SCORE.INTRA.VDW.0>
-4.69037

>  <SCORE.INTRA.norm>
0.0080803

>  <SCORE.RESTR>
0

>  <SCORE.RESTR.CAVITY>
0

>  <SCORE.RESTR.norm>
0

>  <SCORE.SYSTEM>
0

>  <SCORE.SYSTEM.CONST>
0

>  <SCORE.SYSTEM.DIHEDRAL>
0

>  <SCORE.SYSTEM.SOLV>
0

>  <SCORE.SYSTEM.norm>
0

>  <SCORE.heavy>
27

>  <SCORE.norm>
-0.458153

>  <RMSD>
5.061

$$$$
ligand
 OpenBabel02271912153D
libRbt.so/2013.1/901 2013/11/27
 27 29  0  0  0  0  0  0  0  0999 V2000
   12.5005   -8.9350   11.7414 N   0  0  0  0  0  0  0  0  0  0  0  0
   12.0697   -8.0154   10.6434 C   0  0  2  0  0  0  0  0  0  0  0  0
   13.1556   -7.9085    9.5498 C   0  0  0  0  0  0  0  0  0  0  0  0
   13.0004   -7.1785    8.5661 O   0  0  0  0  0  0  0  0  0  0  0  0
   11.7133   -6.6546   11.2322 C   0  0  0  0  0  0  0  0  0  0  0  0
   12.7775   -6.0631   12.1414 C   0  0  0  0  0  0  0  0  0  0  0  0
   14.2974   -5.6005   11.2623 S   0  0  2  0  0  0  0  0  0  0  0  0
   15.1823   -4.7022   12.5683 C   0  0  0  0  0  0  0  0  0  0  0  0
   13.8499   -4.2764   10.1281 C   0  0  0  0  0  0  0  0  0  0  0  0
   15.1036   -3.7688    9.4416 C   0  0  1  0  0  0  0  0  0  0  0  0
   15.9754   -4.8196    9.0543 O   0  0  0  0  0  0  0  0  0  0  0  0
   14.7718   -2.9862    8.1944 C   0  0  1  0  0  0  0  0  0  0  0  0
   14.4900   -1.6502    8.4984 O   0  0  0  0  0  0  0  0  0  0  0  0
   16.0435   -3.1288    7.4151 C   0  0  1  0  0  0  0  0  0  0  0  0
   16.9378   -2.0997    7.7936 O   0  0  0  0  0  0  0  0  0  0  0  0
   16.5897   -4.4888    7.8302 C   0  0  2  0  0  0  0  0  0  0  0  0
   14.2216   -8.5488    9.6054 O   0  0  0  0  0  0  0  0  0  0  0  0
   12.9972   -7.0584    4.9406 N   0  0  0  0  0  0  0  0  0  0  0  0
   12.7828   -6.0314    5.8483 C   0  0  0  0  0  0  0  0  0  0  0  0
   13.8421   -5.4637    6.5464 N   0  0  0  0  0  0  0  0  0  0  0  0
   15.0922   -5.9071    6.3210 C   0  0  0  0  0  0  0  0  0  0  0  0
   15.3224   -6.9308    5.3977 C   0  0  0  0  0  0  0  0  0  0  0  0
   14.2759   -7.5193    4.7118 C   0  0  0  0  0  0  0  0  0  0  0  0
   14.4980   -8.4967    3.8458 N   0  0  0  0  0  0  0  0  0  0  0  0
   16.6385   -7.1662    5.3574 N   0  0  0  0  0  0  0  0  0  0  0  0
   17.2450   -6.3232    6.2220 C   0  0  0  0  0  0  0  0  0  0  0  0
   16.3011   -5.5303    6.8262 N   0  0  0  0  0  0  0  0  0  0  0  0
  2  1  1  1  0  0  0
  2  3  1  0  0  0  0
  2  5  1  0  0  0  0
  3  4  1  0  0  0  0
  3 17  1  0  0  0  0
  5  6  1  0  0  0  0
  7  6  1  1  0  0  0
  7  8  1  0  0  0  0
  7  9  1  0  0  0  0
 10  9  1  6  0  0  0
 10 11  1  0  0  0  0
 10 12  1  0  0  0  0
 11 16  1  0  0  0  0
 12 13  1  1  0  0  0
 12 14  1  0  0  0  0
 14 15  1  1  0  0  0
 14 16  1  0  0  0  0
 16 27  1  6  0  0  0
 18 19  2  0  0  0  0
 18 23  1  0  0  0  0
 19 20  1  0  0  0  0
 20 21  2  0  0  0  0
 21 22  1  0  0  0  0
 21 27  1  0  0  0  0
 22 23  2  0  0  0  0
 22 25  1  0  0  0  0
 23 24  1  0  0  0  0
 25 26  2  0  0  0  0
 26 27  1  0  0  0  0
M  END
>  <CHROM.1>
-178.77496354,51.03626912,67.54231893,170.85410347,175.49665300,41.85283807
62.46792180,14.49957446,-5.77423248,8.42720497,2.18937853,1.00606178,1.04785111

>  <Name>
ligand

>  <RI>
0

>  <Rbt.Current_Directory>
/home/itssahil/PROJECTS/Mol_Feturizer/Test_systems_manuscript/rnas/2ydh

>  <Rbt.Executable>
rbdock ($Id: //depot/dev/client3/rdock/2013.1/src/exe/rbdock.cxx#4 $)

>  <Rbt.Library>
libRbt.so (2013.1, Build901 2013/11/27)

>  <Rbt.Parameter_File>
/export/apps/rDock/src/rDock_2013.1_src/data/scripts/dock_solv.prm

>  <Rbt.Receptor>
prm/pocket_docking_4.prm

>  <SCORE>
-16.0253

>  <SCORE.INTER>
-13.6474

>  <SCORE.INTER.CONST>
1

>  <SCORE.INTER.POLAR>
0

>  <SCORE.INTER.ROT>
7

>  <SCORE.INTER.SOLV>
13.3436

>  <SCORE.INTER.VDW>
-21.8128

>  <SCORE.INTER.norm>
-0.505459

>  <SCORE.INTRA>
-2.37788

>  <SCORE.INTRA.DIHEDRAL>
-5.05183

>  <SCORE.INTRA.DIHEDRAL.0>
9.75037

>  <SCORE.INTRA.POLAR>
0

>  <SCORE.INTRA.POLAR.0>
0

>  <SCORE.INTRA.REPUL>
0

>  <SCORE.INTRA.REPUL.0>
0

>  <SCORE.INTRA.SOLV>
0.0450008

>  <SCORE.INTRA.SOLV.lig_0>
-48.4279

>  <SCORE.INTRA.VDW>
0.12553

>  <SCORE.INTRA.VDW.0>
-4.69037

>  <SCORE.INTRA.norm>
-0.0880698

>  <SCORE.RESTR>
0

>  <SCORE.RESTR.CAVITY>
0

>  <SCORE.RESTR.norm>
0

>  <SCORE.SYSTEM>
0

>  <SCORE.SYSTEM.CONST>
0

>  <SCORE.SYSTEM.DIHEDRAL>
0

>  <SCORE.SYSTEM.SOLV>
0

>  <SCORE.SYSTEM.norm>
0

>  <SCORE.heavy>
27

>  <SCORE.norm>
-0.593529

>  <RMSD>
5.063

$$$$
ligand
 OpenBabel02271912153D
libRbt.so/2013.1/901 2013/11/27
 27 29  0  0  0  0  0  0  0  0999 V2000
   12.8826   -9.0353    9.3762 N   0  0  0  0  0  0  0  0  0  0  0  0
   14.2674   -8.6291    9.7686 C   0  0  2  0  0  0  0  0  0  0  0  0
   14.8712   -9.6233   10.7853 C   0  0  0  0  0  0  0  0  0  0  0  0
   14.1480  -10.2951   11.5271 O   0  0  0  0  0  0  0  0  0  0  0  0
   14.2441   -7.2024   10.3069 C   0  0  0  0  0  0  0  0  0  0  0  0
   15.6171   -6.5923   10.5344 C   0  0  0  0  0  0  0  0  0  0  0  0
   15.5521   -4.9160   11.2293 S   0  0  2  0  0  0  0  0  0  0  0  0
   14.8779   -5.2608   12.8792 C   0  0  0  0  0  0  0  0  0  0  0  0
   14.1755   -4.0812   10.4244 C   0  0  0  0  0  0  0  0  0  0  0  0
   14.7169   -3.1634    9.3449 C   0  0  1  0  0  0  0  0  0  0  0  0
   16.0563   -3.4711    8.9904 O   0  0  0  0  0  0  0  0  0  0  0  0
   13.8937   -3.2496    8.0829 C   0  0  1  0  0  0  0  0  0  0  0  0
   12.7864   -2.3971    8.1447 O   0  0  0  0  0  0  0  0  0  0  0  0
   14.8892   -2.8039    7.0557 C   0  0  1  0  0  0  0  0  0  0  0  0
   14.8519   -1.3930    6.9546 O   0  0  0  0  0  0  0  0  0  0  0  0
   16.2324   -3.2632    7.6081 C   0  0  2  0  0  0  0  0  0  0  0  0
   16.0991   -9.7876   10.9067 O   0  0  0  0  0  0  0  0  0  0  0  0
   15.0219   -7.6572    4.9461 N   0  0  0  0  0  0  0  0  0  0  0  0
   14.1602   -6.6601    5.3795 C   0  0  0  0  0  0  0  0  0  0  0  0
   14.6370   -5.5631    6.0871 N   0  0  0  0  0  0  0  0  0  0  0  0
   15.9554   -5.4626    6.3361 C   0  0  0  0  0  0  0  0  0  0  0  0
   16.8354   -6.4532    5.8914 C   0  0  0  0  0  0  0  0  0  0  0  0
   16.3723   -7.5605    5.2048 C   0  0  0  0  0  0  0  0  0  0  0  0
   17.2089   -8.5021    4.7949 N   0  0  0  0  0  0  0  0  0  0  0  0
   18.0738   -6.1035    6.2561 N   0  0  0  0  0  0  0  0  0  0  0  0
   18.0036   -4.9246    6.9130 C   0  0  0  0  0  0  0  0  0  0  0  0
   16.6965   -4.5087    6.9683 N   0  0  0  0  0  0  0  0  0  0  0  0
  2  1  1  1  0  0  0
  2  3  1  0  0  0  0
  2  5  1  0  0  0  0
  3  4  1  0  0  0  0
  3 17  1  0  0  0  0
  5  6  1  0  0  0  0
  7  6  1  6  0  0  0
  7  8  1  0  0  0  0
  7  9  1  0  0  0  0
 10  9  1  1  0  0  0
 10 11  1  0  0  0  0
 10 12  1  0  0  0  0
 11 16  1  0  0  0  0
 12 13  1  1  0  0  0
 12 14  1  0  0  0  0
 14 15  1  1  0  0  0
 14 16  1  0  0  0  0
 16 27  1  6  0  0  0
 18 19  2  0  0  0  0
 18 23  1  0  0  0  0
 19 20  1  0  0  0  0
 20 21  2  0  0  0  0
 21 22  1  0  0  0  0
 21 27  1  0  0  0  0
 22 23  2  0  0  0  0
 22 25  1  0  0  0  0
 23 24  1  0  0  0  0
 25 26  2  0  0  0  0
 26 27  1  0  0  0  0
M  END
>  <CHROM.1>
-25.95054130,-170.76830244,-177.99302956,67.23427906,-101.50472774,16.87210021
95.64502171,15.28219913,-5.80948221,8.46971819,-1.98767918,1.28507204,-0.27621829

>  <Name>
ligand

>  <RI>
0

>  <Rbt.Current_Directory>
/home/itssahil/PROJECTS/Mol_Feturizer/Test_systems_manuscript/rnas/2ydh

>  <Rbt.Executable>
rbdock ($Id: //depot/dev/client3/rdock/2013.1/src/exe/rbdock.cxx#4 $)

>  <Rbt.Library>
libRbt.so (2013.1, Build901 2013/11/27)

>  <Rbt.Parameter_File>
/export/apps/rDock/src/rDock_2013.1_src/data/scripts/dock_solv.prm

>  <Rbt.Receptor>
prm/pocket_docking_3.prm

>  <SCORE>
-9.76558

>  <SCORE.INTER>
-12.2287

>  <SCORE.INTER.CONST>
1

>  <SCORE.INTER.POLAR>
0

>  <SCORE.INTER.ROT>
7

>  <SCORE.INTER.SOLV>
16.8743

>  <SCORE.INTER.VDW>
-22.0439

>  <SCORE.INTER.norm>
-0.452916

>  <SCORE.INTRA>
2.42982

>  <SCORE.INTRA.DIHEDRAL>
1.16788

>  <SCORE.INTRA.DIHEDRAL.0>
9.75037

>  <SCORE.INTRA.POLAR>
0

>  <SCORE.INTRA.POLAR.0>
0

>  <SCORE.INTRA.REPUL>
0

>  <SCORE.INTRA.REPUL.0>
0

>  <SCORE.INTRA.SOLV>
-1.38134

>  <SCORE.INTRA.SOLV.lig_0>
-48.4279

>  <SCORE.INTRA.VDW>
2.53655

>  <SCORE.INTRA.VDW.0>
-4.69037

>  <SCORE.INTRA.norm>
0.0899934

>  <SCORE.RESTR>
0.0333311

>  <SCORE.RESTR.CAVITY>
0.0333311

>  <SCORE.RESTR.norm>
0.00123448

>  <SCORE.SYSTEM>
0

>  <SCORE.SYSTEM.CONST>
0

>  <SCORE.SYSTEM.DIHEDRAL>
0

>  <SCORE.SYSTEM.SOLV>
0

>  <SCORE.SYSTEM.norm>
0

>  <SCORE.heavy>
27

>  <SCORE.norm>
-0.361688

>  <RMSD>
5.069

$$$$
ligand
 OpenBabel02271912153D
libRbt.so/2013.1/901 2013/11/27
 27 29  0  0  0  0  0  0  0  0999 V2000
   13.0771   -9.2573   10.9164 N   0  0  0  0  0  0  0  0  0  0  0  0
   12.3301   -8.2397   10.1146 C   0  0  2  0  0  0  0  0  0  0  0  0
   13.0968   -7.8775    8.8232 C   0  0  0  0  0  0  0  0  0  0  0  0
   12.6604   -7.0296    8.0388 O   0  0  0  0  0  0  0  0  0  0  0  0
   12.0545   -7.0147   10.9800 C   0  0  0  0  0  0  0  0  0  0  0  0
   13.3004   -6.3192   11.5028 C   0  0  0  0  0  0  0  0  0  0  0  0
   14.3151   -5.5809   10.1905 S   0  0  2  0  0  0  0  0  0  0  0  0
   15.9277   -6.3347   10.5467 C   0  0  0  0  0  0  0  0  0  0  0  0
   14.5875   -3.8643   10.6586 C   0  0  0  0  0  0  0  0  0  0  0  0
   15.0727   -3.0924    9.4465 C   0  0  1  0  0  0  0  0  0  0  0  0
   16.2305   -3.6687    8.8620 O   0  0  0  0  0  0  0  0  0  0  0  0
   14.0161   -3.0330    8.3704 C   0  0  1  0  0  0  0  0  0  0  0  0
   13.1292   -1.9746    8.5934 O   0  0  0  0  0  0  0  0  0  0  0  0
   14.8567   -2.8137    7.1496 C   0  0  1  0  0  0  0  0  0  0  0  0
   15.0741   -1.4260    6.9788 O   0  0  0  0  0  0  0  0  0  0  0  0
   16.1676   -3.5239    7.4619 C   0  0  2  0  0  0  0  0  0  0  0  0
   14.1736   -8.4201    8.5141 O   0  0  0  0  0  0  0  0  0  0  0  0
   13.7387   -7.3332    4.7326 N   0  0  0  0  0  0  0  0  0  0  0  0
   13.2099   -6.1248    5.1626 C   0  0  0  0  0  0  0  0  0  0  0  0
   13.9819   -5.2268    5.8900 N   0  0  0  0  0  0  0  0  0  0  0  0
   15.2642   -5.5302    6.1617 C   0  0  0  0  0  0  0  0  0  0  0  0
   15.8127   -6.7378    5.7207 C   0  0  0  0  0  0  0  0  0  0  0  0
   15.0502   -7.6499    5.0146 C   0  0  0  0  0  0  0  0  0  0  0  0
   15.5714   -8.7979    4.6082 N   0  0  0  0  0  0  0  0  0  0  0  0
   17.0917   -6.7801    6.1095 N   0  0  0  0  0  0  0  0  0  0  0  0
   17.3680   -5.6386    6.7779 C   0  0  0  0  0  0  0  0  0  0  0  0
   16.2464   -4.8480    6.8163 N   0  0  0  0  0  0  0  0  0  0  0  0
  2  1  1  1  0  0  0
  2  3  1  0  0  0  0
  2  5  1  0  0  0  0
  3  4  1  0  0  0  0
  3 17  1  0  0  0  0
  5  6  1  0  0  0  0
  7  6  1  1  0  0  0
  7  8  1  0  0  0  0
  7  9  1  0  0  0  0
 10  9  1  1  0  0  0
 10 11  1  0  0  0  0
 10 12  1  0  0  0  0
 11 16  1  0  0  0  0
 12 13  1  1  0  0  0
 12 14  1  0  0  0  0
 14 15  1  1  0  0  0
 14 16  1  0  0  0  0
 16 27  1  6  0  0  0
 18 19  2  0  0  0  0
 18 23  1  0  0  0  0
 19 20  1  0  0  0  0
 20 21  2  0  0  0  0
 21 22  1  0  0  0  0
 21 27  1  0  0  0  0
 22 23  2  0  0  0  0
 22 25  1  0  0  0  0
 23 24  1  0  0  0  0
 25 26  2  0  0  0  0
 26 27  1  0  0  0  0
M  END
>  <CHROM.1>
-178.28632571,60.65924546,65.34918597,-126.14602231,-163.85742567,-55.39343353
109.54705774,14.54290625,-5.66648868,8.09328555,-3.04377682,1.14757000,0.57405412

>  <Name>
ligand

>  <RI>
0

>  <Rbt.Current_Directory>
/home/itssahil/PROJECTS/Mol_Feturizer/Test_systems_manuscript/rnas/2ydh

>  <Rbt.Executable>
rbdock ($Id: //depot/dev/client3/rdock/2013.1/src/exe/rbdock.cxx#4 $)

>  <Rbt.Library>
libRbt.so (2013.1, Build901 2013/11/27)

>  <Rbt.Parameter_File>
/export/apps/rDock/src/rDock_2013.1_src/data/scripts/dock_solv.prm

>  <Rbt.Receptor>
prm/pocket_docking_3.prm

>  <SCORE>
-11.941

>  <SCORE.INTER>
-11.8438

>  <SCORE.INTER.CONST>
1

>  <SCORE.INTER.POLAR>
0

>  <SCORE.INTER.ROT>
7

>  <SCORE.INTER.SOLV>
14.7713

>  <SCORE.INTER.VDW>
-21.0863

>  <SCORE.INTER.norm>
-0.43866

>  <SCORE.INTRA>
-0.0971994

>  <SCORE.INTRA.DIHEDRAL>
-0.586667

>  <SCORE.INTRA.DIHEDRAL.0>
9.75037

>  <SCORE.INTRA.POLAR>
0

>  <SCORE.INTRA.POLAR.0>
0

>  <SCORE.INTRA.REPUL>
0

>  <SCORE.INTRA.REPUL.0>
0

>  <SCORE.INTRA.SOLV>
0.531104

>  <SCORE.INTRA.SOLV.lig_0>
-48.4279

>  <SCORE.INTRA.VDW>
-0.069418

>  <SCORE.INTRA.VDW.0>
-4.69037

>  <SCORE.INTRA.norm>
-0.00359998

>  <SCORE.RESTR>
0

>  <SCORE.RESTR.CAVITY>
0

>  <SCORE.RESTR.norm>
0

>  <SCORE.SYSTEM>
0

>  <SCORE.SYSTEM.CONST>
0

>  <SCORE.SYSTEM.DIHEDRAL>
0

>  <SCORE.SYSTEM.SOLV>
0

>  <SCORE.SYSTEM.norm>
0

>  <SCORE.heavy>
27

>  <SCORE.norm>
-0.44226

>  <RMSD>
5.070

$$$$
ligand
 OpenBabel02271912153D
libRbt.so/2013.1/901 2013/11/27
 27 29  0  0  0  0  0  0  0  0999 V2000
   19.2517   -6.7718   10.3309 N   0  0  0  0  0  0  0  0  0  0  0  0
   18.8833   -5.4309    9.7802 C   0  0  2  0  0  0  0  0  0  0  0  0
   18.1997   -4.5572   10.8553 C   0  0  0  0  0  0  0  0  0  0  0  0
   17.6311   -3.5034   10.5539 O   0  0  0  0  0  0  0  0  0  0  0  0
   18.0055   -5.6130    8.5466 C   0  0  0  0  0  0  0  0  0  0  0  0
   16.6913   -6.3295    8.8085 C   0  0  0  0  0  0  0  0  0  0  0  0
   15.7494   -6.6785    7.2959 S   0  0  2  0  0  0  0  0  0  0  0  0
   16.9368   -7.7101    6.3897 C   0  0  0  0  0  0  0  0  0  0  0  0
   15.7518   -5.1599    6.3295 C   0  0  0  0  0  0  0  0  0  0  0  0
   14.8848   -4.1289    7.0267 C   0  0  1  0  0  0  0  0  0  0  0  0
   13.7372   -4.7032    7.6328 O   0  0  0  0  0  0  0  0  0  0  0  0
   15.6470   -3.4105    8.1133 C   0  0  1  0  0  0  0  0  0  0  0  0
   16.3731   -2.3346    7.5919 O   0  0  0  0  0  0  0  0  0  0  0  0
   14.5286   -2.9560    9.0007 C   0  0  1  0  0  0  0  0  0  0  0  0
   14.0512   -1.7053    8.5423 O   0  0  0  0  0  0  0  0  0  0  0  0
   13.4582   -4.0274    8.8371 C   0  0  2  0  0  0  0  0  0  0  0  0
   18.1947   -4.8676   12.0608 O   0  0  0  0  0  0  0  0  0  0  0  0
   15.2046   -5.2849   13.6566 N   0  0  0  0  0  0  0  0  0  0  0  0
   15.5026   -4.1529   12.9120 C   0  0  0  0  0  0  0  0  0  0  0  0
   14.9685   -3.9739   11.6415 N   0  0  0  0  0  0  0  0  0  0  0  0
   14.1371   -4.9050   11.1395 C   0  0  0  0  0  0  0  0  0  0  0  0
   13.8174   -6.0423   11.8864 C   0  0  0  0  0  0  0  0  0  0  0  0
   14.3581   -6.2438   13.1429 C   0  0  0  0  0  0  0  0  0  0  0  0
   14.0607   -7.3286   13.8424 N   0  0  0  0  0  0  0  0  0  0  0  0
   12.9711   -6.7877   11.1671 N   0  0  0  0  0  0  0  0  0  0  0  0
   12.7449   -6.1566    9.9938 C   0  0  0  0  0  0  0  0  0  0  0  0
   13.4568   -4.9834    9.9606 N   0  0  0  0  0  0  0  0  0  0  0  0
  2  1  1  1  0  0  0
  2  3  1  0  0  0  0
  2  5  1  0  0  0  0
  3  4  1  0  0  0  0
  3 17  1  0  0  0  0
  5  6  1  0  0  0  0
  7  6  1  1  0  0  0
  7  8  1  0  0  0  0
  7  9  1  0  0  0  0
 10  9  1  1  0  0  0
 10 11  1  0  0  0  0
 10 12  1  0  0  0  0
 11 16  1  0  0  0  0
 12 13  1  6  0  0  0
 12 14  1  0  0  0  0
 14 15  1  6  0  0  0
 14 16  1  0  0  0  0
 16 27  1  1  0  0  0
 18 19  2  0  0  0  0
 18 23  1  0  0  0  0
 19 20  1  0  0  0  0
 20 21  2  0  0  0  0
 21 22  1  0  0  0  0
 21 27  1  0  0  0  0
 22 23  2  0  0  0  0
 22 25  1  0  0  0  0
 23 24  1  0  0  0  0
 25 26  2  0  0  0  0
 26 27  1  0  0  0  0
M  END
>  <CHROM.1>
-168.39496821,61.37807820,-174.15643825,59.55005219,-70.02009891,-37.06010144
128.27728659,15.57515021,-5.07364854,9.70796694,-1.78633583,0.24690624,-1.38795265

>  <Name>
ligand

>  <RI>
0

>  <Rbt.Current_Directory>
/home/itssahil/PROJECTS/Mol_Feturizer/Test_systems_manuscript/rnas/2ydh

>  <Rbt.Executable>
rbdock ($Id: //depot/dev/client3/rdock/2013.1/src/exe/rbdock.cxx#4 $)

>  <Rbt.Library>
libRbt.so (2013.1, Build901 2013/11/27)

>  <Rbt.Parameter_File>
/export/apps/rDock/src/rDock_2013.1_src/data/scripts/dock_solv.prm

>  <Rbt.Receptor>
prm/pocket_docking_8.prm

>  <SCORE>
-13.5523

>  <SCORE.INTER>
-11.5374

>  <SCORE.INTER.CONST>
1

>  <SCORE.INTER.POLAR>
0

>  <SCORE.INTER.ROT>
7

>  <SCORE.INTER.SOLV>
10.4544

>  <SCORE.INTER.VDW>
-19.4431

>  <SCORE.INTER.norm>
-0.427313

>  <SCORE.INTRA>
-2.01484

>  <SCORE.INTRA.DIHEDRAL>
-4.77539

>  <SCORE.INTRA.DIHEDRAL.0>
9.75037

>  <SCORE.INTRA.POLAR>
0

>  <SCORE.INTRA.POLAR.0>
0

>  <SCORE.INTRA.REPUL>
0

>  <SCORE.INTRA.REPUL.0>
0

>  <SCORE.INTRA.SOLV>
-0.21317

>  <SCORE.INTRA.SOLV.lig_0>
-48.4279

>  <SCORE.INTRA.VDW>
0.479434

>  <SCORE.INTRA.VDW.0>
-4.69037

>  <SCORE.INTRA.norm>
-0.0746239

>  <SCORE.RESTR>
0

>  <SCORE.RESTR.CAVITY>
0

>  <SCORE.RESTR.norm>
0

>  <SCORE.SYSTEM>
0

>  <SCORE.SYSTEM.CONST>
0

>  <SCORE.SYSTEM.DIHEDRAL>
0

>  <SCORE.SYSTEM.SOLV>
0

>  <SCORE.SYSTEM.norm>
0

>  <SCORE.heavy>
27

>  <SCORE.norm>
-0.501936

>  <RMSD>
5.076

$$$$
ligand
 OpenBabel02271912153D
libRbt.so/2013.1/901 2013/11/27
 27 29  0  0  0  0  0  0  0  0999 V2000
   13.3879  -10.2857   12.4354 N   0  0  0  0  0  0  0  0  0  0  0  0
   13.4193  -10.1294   10.9484 C   0  0  2  0  0  0  0  0  0  0  0  0
   14.7972   -9.6186   10.4720 C   0  0  0  0  0  0  0  0  0  0  0  0
   14.9650   -9.2210    9.3151 O   0  0  0  0  0  0  0  0  0  0  0  0
   12.2845   -9.2092   10.5111 C   0  0  0  0  0  0  0  0  0  0  0  0
   12.3094   -7.8307   11.1501 C   0  0  0  0  0  0  0  0  0  0  0  0
   13.5348   -6.7161   10.4064 S   0  0  2  0  0  0  0  0  0  0  0  0
   13.3468   -5.2536   11.4652 C   0  0  0  0  0  0  0  0  0  0  0  0
   12.8325   -6.1492    8.8490 C   0  0  0  0  0  0  0  0  0  0  0  0
   13.6674   -4.9986    8.3200 C   0  0  1  0  0  0  0  0  0  0  0  0
   15.0593   -5.2725    8.3608 O   0  0  0  0  0  0  0  0  0  0  0  0
   13.3207   -4.6783    6.8865 C   0  0  1  0  0  0  0  0  0  0  0  0
   12.2233   -3.8139    6.8148 O   0  0  0  0  0  0  0  0  0  0  0  0
   14.5846   -4.0213    6.4218 C   0  0  1  0  0  0  0  0  0  0  0  0
   14.5258   -2.6392    6.7193 O   0  0  0  0  0  0  0  0  0  0  0  0
   15.6814   -4.6954    7.2360 C   0  0  2  0  0  0  0  0  0  0  0  0
   15.7913   -9.5893   11.2206 O   0  0  0  0  0  0  0  0  0  0  0  0
   15.3691   -8.9457    4.1222 N   0  0  0  0  0  0  0  0  0  0  0  0
   14.3258   -8.2113    4.6669 C   0  0  0  0  0  0  0  0  0  0  0  0
   14.5754   -7.1166    5.4859 N   0  0  0  0  0  0  0  0  0  0  0  0
   15.8478   -6.7574    5.7353 C   0  0  0  0  0  0  0  0  0  0  0  0
   16.9073   -7.4804    5.1798 C   0  0  0  0  0  0  0  0  0  0  0  0
   16.6738   -8.5843    4.3806 C   0  0  0  0  0  0  0  0  0  0  0  0
   17.6814   -9.2728    3.8654 N   0  0  0  0  0  0  0  0  0  0  0  0
   18.0513   -6.9089    5.5718 N   0  0  0  0  0  0  0  0  0  0  0  0
   17.7479   -5.8487    6.3529 C   0  0  0  0  0  0  0  0  0  0  0  0
   16.3841   -5.7361    6.4620 N   0  0  0  0  0  0  0  0  0  0  0  0
  2  1  1  1  0  0  0
  2  3  1  0  0  0  0
  2  5  1  0  0  0  0
  3  4  1  0  0  0  0
  3 17  1  0  0  0  0
  5  6  1  0  0  0  0
  7  6  1  1  0  0  0
  7  8  1  0  0  0  0
  7  9  1  0  0  0  0
 10  9  1  6  0  0  0
 10 11  1  0  0  0  0
 10 12  1  0  0  0  0
 11 16  1  0  0  0  0
 12 13  1  1  0  0  0
 12 14  1  0  0  0  0
 14 15  1  1  0  0  0
 14 16  1  0  0  0  0
 16 27  1  6  0  0  0
 18 19  2  0  0  0  0
 18 23  1  0  0  0  0
 19 20  1  0  0  0  0
 20 21  2  0  0  0  0
 21 22  1  0  0  0  0
 21 27  1  0  0  0  0
 22 23  2  0  0  0  0
 22 25  1  0  0  0  0
 23 24  1  0  0  0  0
 25 26  2  0  0  0  0
 26 27  1  0  0  0  0
M  END
>  <CHROM.1>
-168.27700718,57.51832803,77.67694643,-176.69492441,168.21096845,47.20110431
68.82723827,14.68911605,-6.95241569,7.95254292,-2.36678202,0.98407147,-0.56122862

>  <Name>
ligand

>  <RI>
0

>  <Rbt.Current_Directory>
/home/itssahil/PROJECTS/Mol_Feturizer/Test_systems_manuscript/rnas/2ydh

>  <Rbt.Executable>
rbdock ($Id: //depot/dev/client3/rdock/2013.1/src/exe/rbdock.cxx#4 $)

>  <Rbt.Library>
libRbt.so (2013.1, Build901 2013/11/27)

>  <Rbt.Parameter_File>
/export/apps/rDock/src/rDock_2013.1_src/data/scripts/dock_solv.prm

>  <Rbt.Receptor>
prm/pocket_docking_7.prm

>  <SCORE>
-14.7952

>  <SCORE.INTER>
-13.7249

>  <SCORE.INTER.CONST>
1

>  <SCORE.INTER.POLAR>
0

>  <SCORE.INTER.ROT>
7

>  <SCORE.INTER.SOLV>
16.2573

>  <SCORE.INTER.VDW>
-22.8357

>  <SCORE.INTER.norm>
-0.508329

>  <SCORE.INTRA>
-1.07032

>  <SCORE.INTRA.DIHEDRAL>
-4.67913

>  <SCORE.INTRA.DIHEDRAL.0>
9.75037

>  <SCORE.INTRA.POLAR>
0

>  <SCORE.INTRA.POLAR.0>
0

>  <SCORE.INTRA.REPUL>
0

>  <SCORE.INTRA.REPUL.0>
0

>  <SCORE.INTRA.SOLV>
-0.250479

>  <SCORE.INTRA.SOLV.lig_0>
-48.4279

>  <SCORE.INTRA.VDW>
1.39448

>  <SCORE.INTRA.VDW.0>
-4.69037

>  <SCORE.INTRA.norm>
-0.0396416

>  <SCORE.RESTR>
0

>  <SCORE.RESTR.CAVITY>
0

>  <SCORE.RESTR.norm>
0

>  <SCORE.SYSTEM>
0

>  <SCORE.SYSTEM.CONST>
0

>  <SCORE.SYSTEM.DIHEDRAL>
0

>  <SCORE.SYSTEM.SOLV>
0

>  <SCORE.SYSTEM.norm>
0

>  <SCORE.heavy>
27

>  <SCORE.norm>
-0.547971

>  <RMSD>
5.082

$$$$
ligand
 OpenBabel02271912153D
libRbt.so/2013.1/901 2013/11/27
 27 29  0  0  0  0  0  0  0  0999 V2000
   19.2042   -7.5325   10.3470 N   0  0  0  0  0  0  0  0  0  0  0  0
   19.4394   -6.0703   10.5549 C   0  0  2  0  0  0  0  0  0  0  0  0
   18.2238   -5.4031   11.2359 C   0  0  0  0  0  0  0  0  0  0  0  0
   17.2340   -6.0644   11.5639 O   0  0  0  0  0  0  0  0  0  0  0  0
   19.7786   -5.4162    9.2197 C   0  0  0  0  0  0  0  0  0  0  0  0
   18.8294   -5.7683    8.0864 C   0  0  0  0  0  0  0  0  0  0  0  0
   17.1259   -5.2109    8.3768 S   0  0  2  0  0  0  0  0  0  0  0  0
   16.2894   -6.8018    8.6317 C   0  0  0  0  0  0  0  0  0  0  0  0
   16.4772   -4.6934    6.7795 C   0  0  0  0  0  0  0  0  0  0  0  0
   15.0369   -4.2500    6.9510 C   0  0  1  0  0  0  0  0  0  0  0  0
   14.1886   -5.3070    7.3722 O   0  0  0  0  0  0  0  0  0  0  0  0
   14.9164   -3.1497    7.9769 C   0  0  1  0  0  0  0  0  0  0  0  0
   15.1529   -1.8968    7.4017 O   0  0  0  0  0  0  0  0  0  0  0  0
   13.4904   -3.3096    8.4083 C   0  0  1  0  0  0  0  0  0  0  0  0
   12.6571   -2.5613    7.5435 O   0  0  0  0  0  0  0  0  0  0  0  0
   13.2152   -4.8000    8.2557 C   0  0  2  0  0  0  0  0  0  0  0  0
   18.1832   -4.1828   11.4778 O   0  0  0  0  0  0  0  0  0  0  0  0
   15.0113   -4.9087   13.2176 N   0  0  0  0  0  0  0  0  0  0  0  0
   15.2106   -3.9232   12.2618 C   0  0  0  0  0  0  0  0  0  0  0  0
   14.6782   -4.0503   10.9844 N   0  0  0  0  0  0  0  0  0  0  0  0
   13.9446   -5.1368   10.6818 C   0  0  0  0  0  0  0  0  0  0  0  0
   13.7241   -6.1293   11.6411 C   0  0  0  0  0  0  0  0  0  0  0  0
   14.2656   -6.0261   12.9092 C   0  0  0  0  0  0  0  0  0  0  0  0
   14.0629   -6.9745   13.8114 N   0  0  0  0  0  0  0  0  0  0  0  0
   12.9611   -7.0790   11.0890 N   0  0  0  0  0  0  0  0  0  0  0  0
   12.6912   -6.7166    9.8154 C   0  0  0  0  0  0  0  0  0  0  0  0
   13.2897   -5.5109    9.5461 N   0  0  0  0  0  0  0  0  0  0  0  0
  2  1  1  6  0  0  0
  2  3  1  0  0  0  0
  2  5  1  0  0  0  0
  3  4  1  0  0  0  0
  3 17  1  0  0  0  0
  5  6  1  0  0  0  0
  7  6  1  6  0  0  0
  7  8  1  0  0  0  0
  7  9  1  0  0  0  0
 10  9  1  1  0  0  0
 10 11  1  0  0  0  0
 10 12  1  0  0  0  0
 11 16  1  0  0  0  0
 12 13  1  6  0  0  0
 12 14  1  0  0  0  0
 14 15  1  6  0  0  0
 14 16  1  0  0  0  0
 16 27  1  1  0  0  0
 18 19  2  0  0  0  0
 18 23  1  0  0  0  0
 19 20  1  0  0  0  0
 20 21  2  0  0  0  0
 21 22  1  0  0  0  0
 21 27  1  0  0  0  0
 22 23  2  0  0  0  0
 22 25  1  0  0  0  0
 23 24  1  0  0  0  0
 25 26  2  0  0  0  0
 26 27  1  0  0  0  0
M  END
>  <CHROM.1>
1.48970135,48.70587560,62.87003797,-110.26877521,178.47662743,-63.68515449
96.07369047,15.63413493,-5.11967635,9.73503956,-0.53200637,0.16965156,-1.15662850

>  <Name>
ligand

>  <RI>
0

>  <Rbt.Current_Directory>
/home/itssahil/PROJECTS/Mol_Feturizer/Test_systems_manuscript/rnas/2ydh

>  <Rbt.Executable>
rbdock ($Id: //depot/dev/client3/rdock/2013.1/src/exe/rbdock.cxx#4 $)

>  <Rbt.Library>
libRbt.so (2013.1, Build901 2013/11/27)

>  <Rbt.Parameter_File>
/export/apps/rDock/src/rDock_2013.1_src/data/scripts/dock_solv.prm

>  <Rbt.Receptor>
prm/pocket_docking_8.prm

>  <SCORE>
-12.6806

>  <SCORE.INTER>
-12.0145

>  <SCORE.INTER.CONST>
1

>  <SCORE.INTER.POLAR>
0

>  <SCORE.INTER.ROT>
7

>  <SCORE.INTER.SOLV>
12.0764

>  <SCORE.INTER.VDW>
-20.3018

>  <SCORE.INTER.norm>
-0.444981

>  <SCORE.INTRA>
-0.666113

>  <SCORE.INTRA.DIHEDRAL>
-2.35878

>  <SCORE.INTRA.DIHEDRAL.0>
9.75037

>  <SCORE.INTRA.POLAR>
0

>  <SCORE.INTRA.POLAR.0>
0

>  <SCORE.INTRA.REPUL>
0

>  <SCORE.INTRA.REPUL.0>
0

>  <SCORE.INTRA.SOLV>
1.33895

>  <SCORE.INTRA.SOLV.lig_0>
-48.4279

>  <SCORE.INTRA.VDW>
-0.1562

>  <SCORE.INTRA.VDW.0>
-4.69037

>  <SCORE.INTRA.norm>
-0.0246709

>  <SCORE.RESTR>
0

>  <SCORE.RESTR.CAVITY>
0

>  <SCORE.RESTR.norm>
0

>  <SCORE.SYSTEM>
0

>  <SCORE.SYSTEM.CONST>
0

>  <SCORE.SYSTEM.DIHEDRAL>
0

>  <SCORE.SYSTEM.SOLV>
0

>  <SCORE.SYSTEM.norm>
0

>  <SCORE.heavy>
27

>  <SCORE.norm>
-0.469652

>  <RMSD>
5.085

$$$$
ligand
 OpenBabel02271912153D
libRbt.so/2013.1/901 2013/11/27
 27 29  0  0  0  0  0  0  0  0999 V2000
   14.2449   -7.0800   11.6631 N   0  0  0  0  0  0  0  0  0  0  0  0
   15.5836   -7.1301   12.3280 C   0  0  2  0  0  0  0  0  0  0  0  0
   15.4403   -7.1351   13.8662 C   0  0  0  0  0  0  0  0  0  0  0  0
   15.0427   -6.1360   14.4731 O   0  0  0  0  0  0  0  0  0  0  0  0
   16.4381   -5.9668   11.8359 C   0  0  0  0  0  0  0  0  0  0  0  0
   16.7975   -6.0287   10.3608 C   0  0  0  0  0  0  0  0  0  0  0  0
   17.8757   -4.6690    9.8263 S   0  0  2  0  0  0  0  0  0  0  0  0
   19.1469   -4.7175   11.1214 C   0  0  0  0  0  0  0  0  0  0  0  0
   17.0024   -3.1423   10.2095 C   0  0  0  0  0  0  0  0  0  0  0  0
   15.9240   -2.9148    9.1675 C   0  0  1  0  0  0  0  0  0  0  0  0
   16.4109   -3.0517    7.8415 O   0  0  0  0  0  0  0  0  0  0  0  0
   14.7878   -3.8956    9.3256 C   0  0  1  0  0  0  0  0  0  0  0  0
   13.8612   -3.4446   10.2715 O   0  0  0  0  0  0  0  0  0  0  0  0
   14.2171   -3.9048    7.9403 C   0  0  1  0  0  0  0  0  0  0  0  0
   13.2681   -2.8618    7.8222 O   0  0  0  0  0  0  0  0  0  0  0  0
   15.4149   -3.6401    7.0372 C   0  0  2  0  0  0  0  0  0  0  0  0
   15.7205   -8.1316   14.5575 O   0  0  0  0  0  0  0  0  0  0  0  0
   14.3767   -8.2225    4.6325 N   0  0  0  0  0  0  0  0  0  0  0  0
   13.4713   -7.2669    5.0704 C   0  0  0  0  0  0  0  0  0  0  0  0
   13.9067   -6.1092    5.7041 N   0  0  0  0  0  0  0  0  0  0  0  0
   15.2260   -5.9089    5.8759 C   0  0  0  0  0  0  0  0  0  0  0  0
   16.1486   -6.8573    5.4254 C   0  0  0  0  0  0  0  0  0  0  0  0
   15.7286   -8.0235    4.8124 C   0  0  0  0  0  0  0  0  0  0  0  0
   16.6063   -8.9244    4.3971 N   0  0  0  0  0  0  0  0  0  0  0  0
   17.3769   -6.4088    5.7066 N   0  0  0  0  0  0  0  0  0  0  0  0
   17.2590   -5.2086    6.3162 C   0  0  0  0  0  0  0  0  0  0  0  0
   15.9308   -4.8795    6.4258 N   0  0  0  0  0  0  0  0  0  0  0  0
  2  1  1  6  0  0  0
  2  3  1  0  0  0  0
  2  5  1  0  0  0  0
  3  4  1  0  0  0  0
  3 17  1  0  0  0  0
  5  6  1  0  0  0  0
  7  6  1  1  0  0  0
  7  8  1  0  0  0  0
  7  9  1  0  0  0  0
 10  9  1  1  0  0  0
 10 11  1  0  0  0  0
 10 12  1  0  0  0  0
 11 16  1  0  0  0  0
 12 13  1  1  0  0  0
 12 14  1  0  0  0  0
 14 15  1  1  0  0  0
 14 16  1  0  0  0  0
 16 27  1  1  0  0  0
 18 19  2  0  0  0  0
 18 23  1  0  0  0  0
 19 20  1  0  0  0  0
 20 21  2  0  0  0  0
 21 22  1  0  0  0  0
 21 27  1  0  0  0  0
 22 23  2  0  0  0  0
 22 25  1  0  0  0  0
 23 24  1  0  0  0  0
 25 26  2  0  0  0  0
 26 27  1  0  0  0  0
M  END
>  <CHROM.1>
-69.28134494,-65.45644597,-177.42960538,48.38272810,-77.23068445,-49.05856033
161.66373510,15.77481366,-5.53042496,8.83510655,0.72948405,1.47083077,2.34920675

>  <Name>
ligand

>  <RI>
0

>  <Rbt.Current_Directory>
/home/itssahil/PROJECTS/Mol_Feturizer/Test_systems_manuscript/rnas/2ydh

>  <Rbt.Executable>
rbdock ($Id: //depot/dev/client3/rdock/2013.1/src/exe/rbdock.cxx#4 $)

>  <Rbt.Library>
libRbt.so (2013.1, Build901 2013/11/27)

>  <Rbt.Parameter_File>
/export/apps/rDock/src/rDock_2013.1_src/data/scripts/dock_solv.prm

>  <Rbt.Receptor>
prm/pocket_docking_8.prm

>  <SCORE>
-13.1145

>  <SCORE.INTER>
-12.7997

>  <SCORE.INTER.CONST>
1

>  <SCORE.INTER.POLAR>
0

>  <SCORE.INTER.ROT>
7

>  <SCORE.INTER.SOLV>
13.4383

>  <SCORE.INTER.VDW>
-21.2793

>  <SCORE.INTER.norm>
-0.474065

>  <SCORE.INTRA>
-0.314742

>  <SCORE.INTRA.DIHEDRAL>
-5.79451

>  <SCORE.INTRA.DIHEDRAL.0>
9.75037

>  <SCORE.INTRA.POLAR>
0

>  <SCORE.INTRA.POLAR.0>
0

>  <SCORE.INTRA.REPUL>
0

>  <SCORE.INTRA.REPUL.0>
0

>  <SCORE.INTRA.SOLV>
0.292337

>  <SCORE.INTRA.SOLV.lig_0>
-48.4279

>  <SCORE.INTRA.VDW>
2.43634

>  <SCORE.INTRA.VDW.0>
-4.69037

>  <SCORE.INTRA.norm>
-0.0116571

>  <SCORE.RESTR>
0

>  <SCORE.RESTR.CAVITY>
0

>  <SCORE.RESTR.norm>
0

>  <SCORE.SYSTEM>
0

>  <SCORE.SYSTEM.CONST>
0

>  <SCORE.SYSTEM.DIHEDRAL>
0

>  <SCORE.SYSTEM.SOLV>
0

>  <SCORE.SYSTEM.norm>
0

>  <SCORE.heavy>
27

>  <SCORE.norm>
-0.485722

>  <RMSD>
5.085

$$$$
ligand
 OpenBabel02271912153D
libRbt.so/2013.1/901 2013/11/27
 27 29  0  0  0  0  0  0  0  0999 V2000
   11.8828   -8.7790    9.9438 N   0  0  0  0  0  0  0  0  0  0  0  0
   13.1086   -8.1896   10.5658 C   0  0  2  0  0  0  0  0  0  0  0  0
   14.0377   -9.2936   11.1175 C   0  0  0  0  0  0  0  0  0  0  0  0
   13.7574   -9.9044   12.1533 O   0  0  0  0  0  0  0  0  0  0  0  0
   12.7003   -7.1922   11.6447 C   0  0  0  0  0  0  0  0  0  0  0  0
   13.8558   -6.4185   12.2574 C   0  0  0  0  0  0  0  0  0  0  0  0
   14.7438   -5.3840   11.0581 S   0  0  2  0  0  0  0  0  0  0  0  0
   15.3786   -4.0763   12.1456 C   0  0  0  0  0  0  0  0  0  0  0  0
   13.4894   -4.5107   10.1075 C   0  0  0  0  0  0  0  0  0  0  0  0
   14.1706   -3.6725    9.0426 C   0  0  1  0  0  0  0  0  0  0  0  0
   15.4104   -4.2239    8.6266 O   0  0  0  0  0  0  0  0  0  0  0  0
   13.3095   -3.5391    7.8104 C   0  0  1  0  0  0  0  0  0  0  0  0
   12.3970   -2.4875    7.9451 O   0  0  0  0  0  0  0  0  0  0  0  0
   14.3428   -3.2555    6.7631 C   0  0  1  0  0  0  0  0  0  0  0  0
   14.5848   -1.8621    6.7151 O   0  0  0  0  0  0  0  0  0  0  0  0
   15.5832   -3.9954    7.2471 C   0  0  2  0  0  0  0  0  0  0  0  0
   15.1012   -9.6114   10.5542 O   0  0  0  0  0  0  0  0  0  0  0  0
   13.4200   -8.0042    4.5809 N   0  0  0  0  0  0  0  0  0  0  0  0
   12.7839   -6.8864    5.1011 C   0  0  0  0  0  0  0  0  0  0  0  0
   13.4983   -5.9182    5.7966 N   0  0  0  0  0  0  0  0  0  0  0  0
   14.8274   -6.0626    5.9482 C   0  0  0  0  0  0  0  0  0  0  0  0
   15.4818   -7.1768    5.4154 C   0  0  0  0  0  0  0  0  0  0  0  0
   14.7805   -8.1584    4.7397 C   0  0  0  0  0  0  0  0  0  0  0  0
   15.4035   -9.2179    4.2461 N   0  0  0  0  0  0  0  0  0  0  0  0
   16.7853   -7.0661    5.6942 N   0  0  0  0  0  0  0  0  0  0  0  0
   16.9741   -5.9183    6.3821 C   0  0  0  0  0  0  0  0  0  0  0  0
   15.7701   -5.2793    6.5452 N   0  0  0  0  0  0  0  0  0  0  0  0
  2  1  1  1  0  0  0
  2  3  1  0  0  0  0
  2  5  1  0  0  0  0
  3  4  1  0  0  0  0
  3 17  1  0  0  0  0
  5  6  1  0  0  0  0
  7  6  1  1  0  0  0
  7  8  1  0  0  0  0
  7  9  1  0  0  0  0
 10  9  1  1  0  0  0
 10 11  1  0  0  0  0
 10 12  1  0  0  0  0
 11 16  1  0  0  0  0
 12 13  1  1  0  0  0
 12 14  1  0  0  0  0
 14 15  1  1  0  0  0
 14 16  1  0  0  0  0
 16 27  1  6  0  0  0
 18 19  2  0  0  0  0
 18 23  1  0  0  0  0
 19 20  1  0  0  0  0
 20 21  2  0  0  0  0
 21 22  1  0  0  0  0
 21 27  1  0  0  0  0
 22 23  2  0  0  0  0
 22 25  1  0  0  0  0
 23 24  1  0  0  0  0
 25 26  2  0  0  0  0
 26 27  1  0  0  0  0
M  END
>  <CHROM.1>
-74.16641037,-174.11029527,62.20462722,152.53118221,-177.50305512,28.47810344
93.07388608,14.36172552,-6.08350782,8.37618461,-3.01512033,1.41828985,0.14923648

>  <Name>
ligand

>  <RI>
0

>  <Rbt.Current_Directory>
/home/itssahil/PROJECTS/Mol_Feturizer/Test_systems_manuscript/rnas/2ydh

>  <Rbt.Executable>
rbdock ($Id: //depot/dev/client3/rdock/2013.1/src/exe/rbdock.cxx#4 $)

>  <Rbt.Library>
libRbt.so (2013.1, Build901 2013/11/27)

>  <Rbt.Parameter_File>
/export/apps/rDock/src/rDock_2013.1_src/data/scripts/dock_solv.prm

>  <Rbt.Receptor>
prm/pocket_docking_2.prm

>  <SCORE>
-7.23098

>  <SCORE.INTER>
-9.4825

>  <SCORE.INTER.CONST>
1

>  <SCORE.INTER.POLAR>
0

>  <SCORE.INTER.ROT>
7

>  <SCORE.INTER.SOLV>
20.3807

>  <SCORE.INTER.VDW>
-21.3819

>  <SCORE.INTER.norm>
-0.351204

>  <SCORE.INTRA>
0.672071

>  <SCORE.INTRA.DIHEDRAL>
-2.27167

>  <SCORE.INTRA.DIHEDRAL.0>
9.75037

>  <SCORE.INTRA.POLAR>
0

>  <SCORE.INTRA.POLAR.0>
0

>  <SCORE.INTRA.REPUL>
0

>  <SCORE.INTRA.REPUL.0>
0

>  <SCORE.INTRA.SOLV>
-1.25647

>  <SCORE.INTRA.SOLV.lig_0>
-48.4279

>  <SCORE.INTRA.VDW>
2.43614

>  <SCORE.INTRA.VDW.0>
-4.69037

>  <SCORE.INTRA.norm>
0.0248915

>  <SCORE.RESTR>
1.57945

>  <SCORE.RESTR.CAVITY>
1.57945

>  <SCORE.RESTR.norm>
0.0584981

>  <SCORE.SYSTEM>
0

>  <SCORE.SYSTEM.CONST>
0

>  <SCORE.SYSTEM.DIHEDRAL>
0

>  <SCORE.SYSTEM.SOLV>
0

>  <SCORE.SYSTEM.norm>
0

>  <SCORE.heavy>
27

>  <SCORE.norm>
-0.267814

>  <RMSD>
5.086

$$$$
ligand
 OpenBabel02271912153D
libRbt.so/2013.1/901 2013/11/27
 27 29  0  0  0  0  0  0  0  0999 V2000
   12.1172   -8.7926    9.6658 N   0  0  0  0  0  0  0  0  0  0  0  0
   13.2767   -8.2475   10.4372 C   0  0  2  0  0  0  0  0  0  0  0  0
   14.1197   -9.3865   11.0525 C   0  0  0  0  0  0  0  0  0  0  0  0
   13.8507   -9.8496   12.1651 O   0  0  0  0  0  0  0  0  0  0  0  0
   12.7690   -7.2742   11.4958 C   0  0  0  0  0  0  0  0  0  0  0  0
   13.8575   -6.4672   12.1837 C   0  0  0  0  0  0  0  0  0  0  0  0
   14.7498   -5.3575   11.0570 S   0  0  2  0  0  0  0  0  0  0  0  0
   15.2476   -4.0415   12.2041 C   0  0  0  0  0  0  0  0  0  0  0  0
   13.5019   -4.5343   10.0545 C   0  0  0  0  0  0  0  0  0  0  0  0
   14.1925   -3.6564    9.0283 C   0  0  1  0  0  0  0  0  0  0  0  0
   15.4399   -4.1876    8.6089 O   0  0  0  0  0  0  0  0  0  0  0  0
   13.3461   -3.4834    7.7908 C   0  0  1  0  0  0  0  0  0  0  0  0
   12.4272   -2.4410    7.9508 O   0  0  0  0  0  0  0  0  0  0  0  0
   14.3911   -3.1587    6.7672 C   0  0  1  0  0  0  0  0  0  0  0  0
   14.6273   -1.7636    6.7712 O   0  0  0  0  0  0  0  0  0  0  0  0
   15.6288   -3.9100    7.2406 C   0  0  2  0  0  0  0  0  0  0  0  0
   15.1001   -9.8805   10.4659 O   0  0  0  0  0  0  0  0  0  0  0  0
   13.4912   -7.9488    4.5991 N   0  0  0  0  0  0  0  0  0  0  0  0
   12.8383   -6.8730    5.1831 C   0  0  0  0  0  0  0  0  0  0  0  0
   13.5490   -5.8901    5.8616 N   0  0  0  0  0  0  0  0  0  0  0  0
   14.8896   -5.9783    5.9339 C   0  0  0  0  0  0  0  0  0  0  0  0
   15.5599   -7.0494    5.3364 C   0  0  0  0  0  0  0  0  0  0  0  0
   14.8639   -8.0455    4.6765 C   0  0  0  0  0  0  0  0  0  0  0  0
   15.5028   -9.0644    4.1213 N   0  0  0  0  0  0  0  0  0  0  0  0
   16.8712   -6.8870    5.5436 N   0  0  0  0  0  0  0  0  0  0  0  0
   17.0495   -5.7482    6.2489 C   0  0  0  0  0  0  0  0  0  0  0  0
   15.8304   -5.1676    6.4964 N   0  0  0  0  0  0  0  0  0  0  0  0
  2  1  1  1  0  0  0
  2  3  1  0  0  0  0
  2  5  1  0  0  0  0
  3  4  1  0  0  0  0
  3 17  1  0  0  0  0
  5  6  1  0  0  0  0
  7  6  1  1  0  0  0
  7  8  1  0  0  0  0
  7  9  1  0  0  0  0
 10  9  1  1  0  0  0
 10 11  1  0  0  0  0
 10 12  1  0  0  0  0
 11 16  1  0  0  0  0
 12 13  1  1  0  0  0
 12 14  1  0  0  0  0
 14 15  1  1  0  0  0
 14 16  1  0  0  0  0
 16 27  1  6  0  0  0
 18 19  2  0  0  0  0
 18 23  1  0  0  0  0
 19 20  1  0  0  0  0
 20 21  2  0  0  0  0
 21 22  1  0  0  0  0
 21 27  1  0  0  0  0
 22 23  2  0  0  0  0
 22 25  1  0  0  0  0
 23 24  1  0  0  0  0
 25 26  2  0  0  0  0
 26 27  1  0  0  0  0
M  END
>  <CHROM.1>
-88.08320011,-169.75766433,63.85137050,151.61833440,-176.38938042,31.94611900
88.43133759,14.41379490,-6.04912188,8.33460620,-2.90314714,1.41112183,0.08201294

>  <Name>
ligand

>  <RI>
0

>  <Rbt.Current_Directory>
/home/itssahil/PROJECTS/Mol_Feturizer/Test_systems_manuscript/rnas/2ydh

>  <Rbt.Executable>
rbdock ($Id: //depot/dev/client3/rdock/2013.1/src/exe/rbdock.cxx#4 $)

>  <Rbt.Library>
libRbt.so (2013.1, Build901 2013/11/27)

>  <Rbt.Parameter_File>
/export/apps/rDock/src/rDock_2013.1_src/data/scripts/dock_solv.prm

>  <Rbt.Receptor>
prm/pocket_docking_2.prm

>  <SCORE>
-7.98088

>  <SCORE.INTER>
-10.4461

>  <SCORE.INTER.CONST>
1

>  <SCORE.INTER.POLAR>
0

>  <SCORE.INTER.ROT>
7

>  <SCORE.INTER.SOLV>
20.079

>  <SCORE.INTER.VDW>
-21.9237

>  <SCORE.INTER.norm>
-0.386891

>  <SCORE.INTRA>
0.706955

>  <SCORE.INTRA.DIHEDRAL>
-2.28304

>  <SCORE.INTRA.DIHEDRAL.0>
9.75037

>  <SCORE.INTRA.POLAR>
0

>  <SCORE.INTRA.POLAR.0>
0

>  <SCORE.INTRA.REPUL>
0

>  <SCORE.INTRA.REPUL.0>
0

>  <SCORE.INTRA.SOLV>
-1.19119

>  <SCORE.INTRA.SOLV.lig_0>
-48.4279

>  <SCORE.INTRA.VDW>
2.44407

>  <SCORE.INTRA.VDW.0>
-4.69037

>  <SCORE.INTRA.norm>
0.0261835

>  <SCORE.RESTR>
1.75824

>  <SCORE.RESTR.CAVITY>
1.75824

>  <SCORE.RESTR.norm>
0.0651199

>  <SCORE.SYSTEM>
0

>  <SCORE.SYSTEM.CONST>
0

>  <SCORE.SYSTEM.DIHEDRAL>
0

>  <SCORE.SYSTEM.SOLV>
0

>  <SCORE.SYSTEM.norm>
0

>  <SCORE.heavy>
27

>  <SCORE.norm>
-0.295588

>  <RMSD>
5.087

$$$$
ligand
 OpenBabel02271912153D
libRbt.so/2013.1/901 2013/11/27
 27 29  0  0  0  0  0  0  0  0999 V2000
   13.2169   -6.1473   11.0741 N   0  0  0  0  0  0  0  0  0  0  0  0
   14.3364   -5.1573   11.1288 C   0  0  2  0  0  0  0  0  0  0  0  0
   14.8041   -4.9269   12.5831 C   0  0  0  0  0  0  0  0  0  0  0  0
   14.5225   -5.7293   13.4784 O   0  0  0  0  0  0  0  0  0  0  0  0
   13.9002   -3.8606   10.4550 C   0  0  0  0  0  0  0  0  0  0  0  0
   13.6097   -3.9894    8.9690 C   0  0  0  0  0  0  0  0  0  0  0  0
   15.0538   -4.5057    7.9969 S   0  0  2  0  0  0  0  0  0  0  0  0
   15.9094   -2.9174    7.7946 C   0  0  0  0  0  0  0  0  0  0  0  0
   14.4589   -4.8307    6.3295 C   0  0  0  0  0  0  0  0  0  0  0  0
   14.8287   -6.2493    5.9404 C   0  0  1  0  0  0  0  0  0  0  0  0
   15.7723   -6.8287    6.8282 O   0  0  0  0  0  0  0  0  0  0  0  0
   13.6190   -7.1518    5.9291 C   0  0  1  0  0  0  0  0  0  0  0  0
   12.9443   -7.0743    4.7062 O   0  0  0  0  0  0  0  0  0  0  0  0
   14.2550   -8.4926    6.1357 C   0  0  1  0  0  0  0  0  0  0  0  0
   14.6338   -9.0252    4.8806 O   0  0  0  0  0  0  0  0  0  0  0  0
   15.4860   -8.1994    6.9836 C   0  0  2  0  0  0  0  0  0  0  0  0
   15.4733   -3.9320   12.9173 O   0  0  0  0  0  0  0  0  0  0  0  0
   12.0753   -9.4018   10.8281 N   0  0  0  0  0  0  0  0  0  0  0  0
   11.8023   -9.1845    9.4854 C   0  0  0  0  0  0  0  0  0  0  0  0
   12.8181   -8.8597    8.5943 N   0  0  0  0  0  0  0  0  0  0  0  0
   14.0842   -8.7746    9.0417 C   0  0  0  0  0  0  0  0  0  0  0  0
   14.3738   -9.0062   10.3893 C   0  0  0  0  0  0  0  0  0  0  0  0
   13.3703   -9.3093   11.2910 C   0  0  0  0  0  0  0  0  0  0  0  0
   13.6484   -9.5172   12.5693 N   0  0  0  0  0  0  0  0  0  0  0  0
   15.6937   -8.8725   10.5598 N   0  0  0  0  0  0  0  0  0  0  0  0
   16.2452   -8.5674    9.3645 C   0  0  0  0  0  0  0  0  0  0  0  0
   15.2617   -8.5069    8.4088 N   0  0  0  0  0  0  0  0  0  0  0  0
  2  1  1  1  0  0  0
  2  3  1  0  0  0  0
  2  5  1  0  0  0  0
  3  4  1  0  0  0  0
  3 17  1  0  0  0  0
  5  6  1  0  0  0  0
  7  6  1  1  0  0  0
  7  8  1  0  0  0  0
  7  9  1  0  0  0  0
 10  9  1  1  0  0  0
 10 11  1  0  0  0  0
 10 12  1  0  0  0  0
 11 16  1  0  0  0  0
 12 13  1  6  0  0  0
 12 14  1  0  0  0  0
 14 15  1  6  0  0  0
 14 16  1  0  0  0  0
 16 27  1  1  0  0  0
 18 19  2  0  0  0  0
 18 23  1  0  0  0  0
 19 20  1  0  0  0  0
 20 21  2  0  0  0  0
 21 22  1  0  0  0  0
 21 27  1  0  0  0  0
 22 23  2  0  0  0  0
 22 25  1  0  0  0  0
 23 24  1  0  0  0  0
 25 26  2  0  0  0  0
 26 27  1  0  0  0  0
M  END
>  <CHROM.1>
17.89105072,-64.24490700,-61.65677778,-81.79748268,-123.81817951,-13.07598077
106.26158426,14.35510222,-6.82145922,8.97963654,1.61346721,1.33457225,1.33498243

>  <Name>
ligand

>  <RI>
0

>  <Rbt.Current_Directory>
/home/itssahil/PROJECTS/Mol_Feturizer/Test_systems_manuscript/rnas/2ydh

>  <Rbt.Executable>
rbdock ($Id: //depot/dev/client3/rdock/2013.1/src/exe/rbdock.cxx#4 $)

>  <Rbt.Library>
libRbt.so (2013.1, Build901 2013/11/27)

>  <Rbt.Parameter_File>
/export/apps/rDock/src/rDock_2013.1_src/data/scripts/dock_solv.prm

>  <Rbt.Receptor>
prm/pocket_docking_3.prm

>  <SCORE>
-9.85458

>  <SCORE.INTER>
-14.1104

>  <SCORE.INTER.CONST>
1

>  <SCORE.INTER.POLAR>
0

>  <SCORE.INTER.ROT>
7

>  <SCORE.INTER.SOLV>
9.1091

>  <SCORE.INTER.VDW>
-20.71

>  <SCORE.INTER.norm>
-0.522608

>  <SCORE.INTRA>
4.25582

>  <SCORE.INTRA.DIHEDRAL>
3.09038

>  <SCORE.INTRA.DIHEDRAL.0>
9.75037

>  <SCORE.INTRA.POLAR>
0

>  <SCORE.INTRA.POLAR.0>
0

>  <SCORE.INTRA.REPUL>
0

>  <SCORE.INTRA.REPUL.0>
0

>  <SCORE.INTRA.SOLV>
2.93698

>  <SCORE.INTRA.SOLV.lig_0>
-48.4279

>  <SCORE.INTRA.VDW>
1.24214

>  <SCORE.INTRA.VDW.0>
-4.69037

>  <SCORE.INTRA.norm>
0.157623

>  <SCORE.RESTR>
0

>  <SCORE.RESTR.CAVITY>
0

>  <SCORE.RESTR.norm>
0

>  <SCORE.SYSTEM>
0

>  <SCORE.SYSTEM.CONST>
0

>  <SCORE.SYSTEM.DIHEDRAL>
0

>  <SCORE.SYSTEM.SOLV>
0

>  <SCORE.SYSTEM.norm>
0

>  <SCORE.heavy>
27

>  <SCORE.norm>
-0.364985

>  <RMSD>
5.087

$$$$
ligand
 OpenBabel02271912153D
libRbt.so/2013.1/901 2013/11/27
 27 29  0  0  0  0  0  0  0  0999 V2000
   16.9576   -8.6723   11.6551 N   0  0  0  0  0  0  0  0  0  0  0  0
   16.4454   -7.5059   12.4385 C   0  0  2  0  0  0  0  0  0  0  0  0
   15.8293   -7.9642   13.7791 C   0  0  0  0  0  0  0  0  0  0  0  0
   15.3045   -7.1546   14.5497 O   0  0  0  0  0  0  0  0  0  0  0  0
   15.4508   -6.7219   11.5891 C   0  0  0  0  0  0  0  0  0  0  0  0
   14.9967   -5.4078   12.2024 C   0  0  0  0  0  0  0  0  0  0  0  0
   13.5319   -4.7048   11.3917 S   0  0  2  0  0  0  0  0  0  0  0  0
   12.3663   -6.0884   11.5429 C   0  0  0  0  0  0  0  0  0  0  0  0
   13.8799   -4.6938    9.6257 C   0  0  0  0  0  0  0  0  0  0  0  0
   14.9457   -3.6535    9.3385 C   0  0  1  0  0  0  0  0  0  0  0  0
   16.2259   -4.0405    9.8132 O   0  0  0  0  0  0  0  0  0  0  0  0
   15.0815   -3.3966    7.8574 C   0  0  1  0  0  0  0  0  0  0  0  0
   14.1487   -2.4491    7.4230 O   0  0  0  0  0  0  0  0  0  0  0  0
   16.4855   -2.8792    7.7799 C   0  0  1  0  0  0  0  0  0  0  0  0
   16.4776   -1.4810    7.9969 O   0  0  0  0  0  0  0  0  0  0  0  0
   17.2126   -3.5904    8.9138 C   0  0  2  0  0  0  0  0  0  0  0  0
   15.8378   -9.1545   14.1431 O   0  0  0  0  0  0  0  0  0  0  0  0
   17.7610   -7.5153    5.4277 N   0  0  0  0  0  0  0  0  0  0  0  0
   16.7390   -6.5802    5.5026 C   0  0  0  0  0  0  0  0  0  0  0  0
   16.7316   -5.6097    6.4974 N   0  0  0  0  0  0  0  0  0  0  0  0
   17.7414   -5.5695    7.3856 C   0  0  0  0  0  0  0  0  0  0  0  0
   18.7845   -6.4968    7.3111 C   0  0  0  0  0  0  0  0  0  0  0  0
   18.7939   -7.4809    6.3398 C   0  0  0  0  0  0  0  0  0  0  0  0
   19.7791   -8.3642    6.2799 N   0  0  0  0  0  0  0  0  0  0  0  0
   19.6523   -6.2262    8.2923 N   0  0  0  0  0  0  0  0  0  0  0  0
   19.1921   -5.1581    8.9804 C   0  0  0  0  0  0  0  0  0  0  0  0
   18.0089   -4.7335    8.4289 N   0  0  0  0  0  0  0  0  0  0  0  0
  2  1  1  6  0  0  0
  2  3  1  0  0  0  0
  2  5  1  0  0  0  0
  3  4  1  0  0  0  0
  3 17  1  0  0  0  0
  5  6  1  0  0  0  0
  7  6  1  1  0  0  0
  7  8  1  0  0  0  0
  7  9  1  0  0  0  0
 10  9  1  6  0  0  0
 10 11  1  0  0  0  0
 10 12  1  0  0  0  0
 11 16  1  0  0  0  0
 12 13  1  1  0  0  0
 12 14  1  0  0  0  0
 14 15  1  1  0  0  0
 14 16  1  0  0  0  0
 16 27  1  6  0  0  0
 18 19  2  0  0  0  0
 18 23  1  0  0  0  0
 19 20  1  0  0  0  0
 20 21  2  0  0  0  0
 21 22  1  0  0  0  0
 21 27  1  0  0  0  0
 22 23  2  0  0  0  0
 22 25  1  0  0  0  0
 23 24  1  0  0  0  0
 25 26  2  0  0  0  0
 26 27  1  0  0  0  0
M  END
>  <CHROM.1>
-177.25024592,-172.23726648,-165.70006173,55.81075792,-70.03493748,71.26757006
85.63467156,16.25231222,-5.60475121,9.52422325,-2.20011888,0.77310280,-0.86905444

>  <Name>
ligand

>  <RI>
0

>  <Rbt.Current_Directory>
/home/itssahil/PROJECTS/Mol_Feturizer/Test_systems_manuscript/rnas/2ydh

>  <Rbt.Executable>
rbdock ($Id: //depot/dev/client3/rdock/2013.1/src/exe/rbdock.cxx#4 $)

>  <Rbt.Library>
libRbt.so (2013.1, Build901 2013/11/27)

>  <Rbt.Parameter_File>
/export/apps/rDock/src/rDock_2013.1_src/data/scripts/dock_solv.prm

>  <Rbt.Receptor>
prm/pocket_docking_6.prm

>  <SCORE>
-11.4065

>  <SCORE.INTER>
-10.486

>  <SCORE.INTER.CONST>
1

>  <SCORE.INTER.POLAR>
0

>  <SCORE.INTER.ROT>
7

>  <SCORE.INTER.SOLV>
10.0996

>  <SCORE.INTER.VDW>
-18.6239

>  <SCORE.INTER.norm>
-0.388369

>  <SCORE.INTRA>
-0.920501

>  <SCORE.INTRA.DIHEDRAL>
-5.3028

>  <SCORE.INTRA.DIHEDRAL.0>
9.75037

>  <SCORE.INTRA.POLAR>
0

>  <SCORE.INTRA.POLAR.0>
0

>  <SCORE.INTRA.REPUL>
0

>  <SCORE.INTRA.REPUL.0>
0

>  <SCORE.INTRA.SOLV>
-1.36461

>  <SCORE.INTRA.SOLV.lig_0>
-48.4279

>  <SCORE.INTRA.VDW>
2.4132

>  <SCORE.INTRA.VDW.0>
-4.69037

>  <SCORE.INTRA.norm>
-0.0340926

>  <SCORE.RESTR>
0

>  <SCORE.RESTR.CAVITY>
0

>  <SCORE.RESTR.norm>
0

>  <SCORE.SYSTEM>
0

>  <SCORE.SYSTEM.CONST>
0

>  <SCORE.SYSTEM.DIHEDRAL>
0

>  <SCORE.SYSTEM.SOLV>
0

>  <SCORE.SYSTEM.norm>
0

>  <SCORE.heavy>
27

>  <SCORE.norm>
-0.422461

>  <RMSD>
5.094

$$$$
ligand
 OpenBabel02271912153D
libRbt.so/2013.1/901 2013/11/27
 27 29  0  0  0  0  0  0  0  0999 V2000
   16.8267   -8.4665   12.2269 N   0  0  0  0  0  0  0  0  0  0  0  0
   15.7704   -8.0469   11.2550 C   0  0  2  0  0  0  0  0  0  0  0  0
   15.3809   -9.2130   10.3195 C   0  0  0  0  0  0  0  0  0  0  0  0
   15.9755   -9.4019    9.2540 O   0  0  0  0  0  0  0  0  0  0  0  0
   16.2519   -6.8258   10.4786 C   0  0  0  0  0  0  0  0  0  0  0  0
   16.5811   -5.6195   11.3421 C   0  0  0  0  0  0  0  0  0  0  0  0
   15.1163   -4.6637   11.8296 S   0  0  2  0  0  0  0  0  0  0  0  0
   14.2079   -5.9061   12.7923 C   0  0  0  0  0  0  0  0  0  0  0  0
   14.0949   -4.5050   10.3560 C   0  0  0  0  0  0  0  0  0  0  0  0
   14.7444   -3.5145    9.4086 C   0  0  1  0  0  0  0  0  0  0  0  0
   16.0573   -3.9012    9.0331 O   0  0  0  0  0  0  0  0  0  0  0  0
   13.9465   -3.3625    8.1365 C   0  0  1  0  0  0  0  0  0  0  0  0
   12.9222   -2.4230    8.2938 O   0  0  0  0  0  0  0  0  0  0  0  0
   15.0029   -2.8879    7.1859 C   0  0  1  0  0  0  0  0  0  0  0  0
   15.0993   -1.4784    7.2651 O   0  0  0  0  0  0  0  0  0  0  0  0
   16.2843   -3.5388    7.6906 C   0  0  2  0  0  0  0  0  0  0  0  0
   14.4579  -10.0032   10.5897 O   0  0  0  0  0  0  0  0  0  0  0  0
   14.6872   -7.6398    4.7769 N   0  0  0  0  0  0  0  0  0  0  0  0
   13.9030   -6.6645    5.3756 C   0  0  0  0  0  0  0  0  0  0  0  0
   14.4795   -5.6491    6.1294 N   0  0  0  0  0  0  0  0  0  0  0  0
   15.8177   -5.6055    6.2613 C   0  0  0  0  0  0  0  0  0  0  0  0
   16.6193   -6.5737    5.6501 C   0  0  0  0  0  0  0  0  0  0  0  0
   16.0580   -7.6017    4.9151 C   0  0  0  0  0  0  0  0  0  0  0  0
   16.8212   -8.5233    4.3469 N   0  0  0  0  0  0  0  0  0  0  0  0
   17.8970   -6.2905    5.9263 N   0  0  0  0  0  0  0  0  0  0  0  0
   17.9271   -5.1749    6.6883 C   0  0  0  0  0  0  0  0  0  0  0  0
   16.6455   -4.7324    6.9027 N   0  0  0  0  0  0  0  0  0  0  0  0
  2  1  1  1  0  0  0
  2  3  1  0  0  0  0
  2  5  1  0  0  0  0
  3  4  1  0  0  0  0
  3 17  1  0  0  0  0
  5  6  1  0  0  0  0
  7  6  1  6  0  0  0
  7  8  1  0  0  0  0
  7  9  1  0  0  0  0
 10  9  1  1  0  0  0
 10 11  1  0  0  0  0
 10 12  1  0  0  0  0
 11 16  1  0  0  0  0
 12 13  1  1  0  0  0
 12 14  1  0  0  0  0
 14 15  1  1  0  0  0
 14 16  1  0  0  0  0
 16 27  1  6  0  0  0
 18 19  2  0  0  0  0
 18 23  1  0  0  0  0
 19 20  1  0  0  0  0
 20 21  2  0  0  0  0
 21 22  1  0  0  0  0
 21 27  1  0  0  0  0
 22 23  2  0  0  0  0
 22 25  1  0  0  0  0
 23 24  1  0  0  0  0
 25 26  2  0  0  0  0
 26 27  1  0  0  0  0
M  END
>  <CHROM.1>
-89.41846016,-59.34675340,-80.77803682,61.98934673,-73.19428001,58.41482439
88.01733192,15.49281916,-5.78496360,8.55089265,-1.89755036,1.33816082,-1.04824509

>  <Name>
ligand

>  <RI>
0

>  <Rbt.Current_Directory>
/home/itssahil/PROJECTS/Mol_Feturizer/Test_systems_manuscript/rnas/2ydh

>  <Rbt.Executable>
rbdock ($Id: //depot/dev/client3/rdock/2013.1/src/exe/rbdock.cxx#4 $)

>  <Rbt.Library>
libRbt.so (2013.1, Build901 2013/11/27)

>  <Rbt.Parameter_File>
/export/apps/rDock/src/rDock_2013.1_src/data/scripts/dock_solv.prm

>  <Rbt.Receptor>
prm/pocket_docking_4.prm

>  <SCORE>
-12.9861

>  <SCORE.INTER>
-13.5271

>  <SCORE.INTER.CONST>
1

>  <SCORE.INTER.POLAR>
0

>  <SCORE.INTER.ROT>
7

>  <SCORE.INTER.SOLV>
14.7536

>  <SCORE.INTER.VDW>
-22.2026

>  <SCORE.INTER.norm>
-0.501002

>  <SCORE.INTRA>
0.540968

>  <SCORE.INTRA.DIHEDRAL>
-4.91222

>  <SCORE.INTRA.DIHEDRAL.0>
9.75037

>  <SCORE.INTRA.POLAR>
0

>  <SCORE.INTRA.POLAR.0>
0

>  <SCORE.INTRA.REPUL>
0

>  <SCORE.INTRA.REPUL.0>
0

>  <SCORE.INTRA.SOLV>
0.525816

>  <SCORE.INTRA.SOLV.lig_0>
-48.4279

>  <SCORE.INTRA.VDW>
2.73417

>  <SCORE.INTRA.VDW.0>
-4.69037

>  <SCORE.INTRA.norm>
0.0200358

>  <SCORE.RESTR>
0

>  <SCORE.RESTR.CAVITY>
0

>  <SCORE.RESTR.norm>
0

>  <SCORE.SYSTEM>
0

>  <SCORE.SYSTEM.CONST>
0

>  <SCORE.SYSTEM.DIHEDRAL>
0

>  <SCORE.SYSTEM.SOLV>
0

>  <SCORE.SYSTEM.norm>
0

>  <SCORE.heavy>
27

>  <SCORE.norm>
-0.480966

>  <RMSD>
5.095

$$$$
ligand
 OpenBabel02271912153D
libRbt.so/2013.1/901 2013/11/27
 27 29  0  0  0  0  0  0  0  0999 V2000
   14.6963   -9.3382   10.9969 N   0  0  0  0  0  0  0  0  0  0  0  0
   13.9416   -8.1747   10.4372 C   0  0  2  0  0  0  0  0  0  0  0  0
   12.7096   -8.6462    9.6331 C   0  0  0  0  0  0  0  0  0  0  0  0
   11.6700   -8.9914   10.2029 O   0  0  0  0  0  0  0  0  0  0  0  0
   14.8815   -7.3180    9.5956 C   0  0  0  0  0  0  0  0  0  0  0  0
   15.8995   -6.5249   10.3980 C   0  0  0  0  0  0  0  0  0  0  0  0
   15.1821   -5.0927   11.2531 S   0  0  2  0  0  0  0  0  0  0  0  0
   14.2163   -5.9217   12.5475 C   0  0  0  0  0  0  0  0  0  0  0  0
   13.8940   -4.4453   10.1752 C   0  0  0  0  0  0  0  0  0  0  0  0
   14.5169   -3.4795    9.1854 C   0  0  1  0  0  0  0  0  0  0  0  0
   15.8368   -3.8510    8.8196 O   0  0  0  0  0  0  0  0  0  0  0  0
   13.7108   -3.3976    7.9121 C   0  0  1  0  0  0  0  0  0  0  0  0
   12.6657   -2.4761    8.0361 O   0  0  0  0  0  0  0  0  0  0  0  0
   14.7524   -2.9379    6.9380 C   0  0  1  0  0  0  0  0  0  0  0  0
   14.8166   -1.5245    6.9595 O   0  0  0  0  0  0  0  0  0  0  0  0
   16.0503   -3.5384    7.4625 C   0  0  2  0  0  0  0  0  0  0  0  0
   12.7089   -8.7047    8.3898 O   0  0  0  0  0  0  0  0  0  0  0  0
   14.5341   -7.8606    4.8398 N   0  0  0  0  0  0  0  0  0  0  0  0
   13.7291   -6.8923    5.4222 C   0  0  0  0  0  0  0  0  0  0  0  0
   14.2865   -5.8119    6.0955 N   0  0  0  0  0  0  0  0  0  0  0  0
   15.6254   -5.6985    6.1644 C   0  0  0  0  0  0  0  0  0  0  0  0
   16.4469   -6.6597    5.5686 C   0  0  0  0  0  0  0  0  0  0  0  0
   15.9061   -7.7509    4.9138 C   0  0  0  0  0  0  0  0  0  0  0  0
   16.6887   -8.6649    4.3601 N   0  0  0  0  0  0  0  0  0  0  0  0
   17.7197   -6.3024    5.7717 N   0  0  0  0  0  0  0  0  0  0  0  0
   17.7274   -5.1472    6.4729 C   0  0  0  0  0  0  0  0  0  0  0  0
   16.4358   -4.7544    6.7218 N   0  0  0  0  0  0  0  0  0  0  0  0
  2  1  1  6  0  0  0
  2  3  1  0  0  0  0
  2  5  1  0  0  0  0
  3  4  1  0  0  0  0
  3 17  1  0  0  0  0
  5  6  1  0  0  0  0
  7  6  1  6  0  0  0
  7  8  1  0  0  0  0
  7  9  1  0  0  0  0
 10  9  1  1  0  0  0
 10 11  1  0  0  0  0
 10 12  1  0  0  0  0
 11 16  1  0  0  0  0
 12 13  1  1  0  0  0
 12 14  1  0  0  0  0
 14 15  1  1  0  0  0
 14 16  1  0  0  0  0
 16 27  1  6  0  0  0
 18 19  2  0  0  0  0
 18 23  1  0  0  0  0
 19 20  1  0  0  0  0
 20 21  2  0  0  0  0
 21 22  1  0  0  0  0
 21 27  1  0  0  0  0
 22 23  2  0  0  0  0
 22 25  1  0  0  0  0
 23 24  1  0  0  0  0
 25 26  2  0  0  0  0
 26 27  1  0  0  0  0
M  END
>  <CHROM.1>
79.09051628,-71.83295793,-74.42899466,71.14072929,-86.20469175,33.23405465
85.23727224,14.82864061,-5.85689833,8.19428027,-3.12995625,1.20363268,0.34463349

>  <Name>
ligand

>  <RI>
0

>  <Rbt.Current_Directory>
/home/itssahil/PROJECTS/Mol_Feturizer/Test_systems_manuscript/rnas/2ydh

>  <Rbt.Executable>
rbdock ($Id: //depot/dev/client3/rdock/2013.1/src/exe/rbdock.cxx#4 $)

>  <Rbt.Library>
libRbt.so (2013.1, Build901 2013/11/27)

>  <Rbt.Parameter_File>
/export/apps/rDock/src/rDock_2013.1_src/data/scripts/dock_solv.prm

>  <Rbt.Receptor>
prm/pocket_docking_5.prm

>  <SCORE>
-11.1647

>  <SCORE.INTER>
-12.5553

>  <SCORE.INTER.CONST>
1

>  <SCORE.INTER.POLAR>
0

>  <SCORE.INTER.ROT>
7

>  <SCORE.INTER.SOLV>
14.213

>  <SCORE.INTER.VDW>
-21.3745

>  <SCORE.INTER.norm>
-0.465011

>  <SCORE.INTRA>
1.39059

>  <SCORE.INTRA.DIHEDRAL>
-1.33252

>  <SCORE.INTRA.DIHEDRAL.0>
9.75037

>  <SCORE.INTRA.POLAR>
0

>  <SCORE.INTRA.POLAR.0>
0

>  <SCORE.INTRA.REPUL>
0

>  <SCORE.INTRA.REPUL.0>
0

>  <SCORE.INTRA.SOLV>
0.330046

>  <SCORE.INTRA.SOLV.lig_0>
-48.4279

>  <SCORE.INTRA.VDW>
1.89183

>  <SCORE.INTRA.VDW.0>
-4.69037

>  <SCORE.INTRA.norm>
0.0515035

>  <SCORE.RESTR>
0

>  <SCORE.RESTR.CAVITY>
0

>  <SCORE.RESTR.norm>
0

>  <SCORE.SYSTEM>
0

>  <SCORE.SYSTEM.CONST>
0

>  <SCORE.SYSTEM.DIHEDRAL>
0

>  <SCORE.SYSTEM.SOLV>
0

>  <SCORE.SYSTEM.norm>
0

>  <SCORE.heavy>
27

>  <SCORE.norm>
-0.413507

>  <RMSD>
5.097

$$$$
ligand
 OpenBabel02271912153D
libRbt.so/2013.1/901 2013/11/27
 27 29  0  0  0  0  0  0  0  0999 V2000
   12.2981   -9.5447   10.3661 N   0  0  0  0  0  0  0  0  0  0  0  0
   12.3069   -8.0771   10.0788 C   0  0  2  0  0  0  0  0  0  0  0  0
   13.3226   -7.7345    8.9663 C   0  0  0  0  0  0  0  0  0  0  0  0
   14.4090   -8.3167    8.8931 O   0  0  0  0  0  0  0  0  0  0  0  0
   12.5872   -7.3099   11.3666 C   0  0  0  0  0  0  0  0  0  0  0  0
   12.9005   -5.8364   11.1669 C   0  0  0  0  0  0  0  0  0  0  0  0
   14.6301   -5.5252   10.7102 S   0  0  2  0  0  0  0  0  0  0  0  0
   15.4865   -6.1630   12.1783 C   0  0  0  0  0  0  0  0  0  0  0  0
   14.8883   -3.7503   10.8621 C   0  0  0  0  0  0  0  0  0  0  0  0
   15.1650   -3.1716    9.4876 C   0  0  1  0  0  0  0  0  0  0  0  0
   16.2132   -3.8496    8.8126 O   0  0  0  0  0  0  0  0  0  0  0  0
   13.9458   -3.2469    8.6012 C   0  0  1  0  0  0  0  0  0  0  0  0
   13.1035   -2.1497    8.8091 O   0  0  0  0  0  0  0  0  0  0  0  0
   14.5737   -3.2234    7.2410 C   0  0  1  0  0  0  0  0  0  0  0  0
   14.7548   -1.8796    6.8365 O   0  0  0  0  0  0  0  0  0  0  0  0
   15.9207   -3.9074    7.4356 C   0  0  2  0  0  0  0  0  0  0  0  0
   13.0988   -6.8632    8.1060 O   0  0  0  0  0  0  0  0  0  0  0  0
   13.4957   -7.6884    4.6639 N   0  0  0  0  0  0  0  0  0  0  0  0
   13.1132   -6.3630    4.8113 C   0  0  0  0  0  0  0  0  0  0  0  0
   13.8579   -5.4883    5.5934 N   0  0  0  0  0  0  0  0  0  0  0  0
   14.9743   -5.9335    6.1983 C   0  0  0  0  0  0  0  0  0  0  0  0
   15.3782   -7.2628    6.0449 C   0  0  0  0  0  0  0  0  0  0  0  0
   14.6354   -8.1494    5.2872 C   0  0  0  0  0  0  0  0  0  0  0  0
   15.0164   -9.4109    5.1538 N   0  0  0  0  0  0  0  0  0  0  0  0
   16.5131   -7.4343    6.7316 N   0  0  0  0  0  0  0  0  0  0  0  0
   16.8390   -6.2572    7.3098 C   0  0  0  0  0  0  0  0  0  0  0  0
   15.8975   -5.3121    6.9859 N   0  0  0  0  0  0  0  0  0  0  0  0
  2  1  1  1  0  0  0
  2  3  1  0  0  0  0
  2  5  1  0  0  0  0
  3  4  1  0  0  0  0
  3 17  1  0  0  0  0
  5  6  1  0  0  0  0
  7  6  1  1  0  0  0
  7  8  1  0  0  0  0
  7  9  1  0  0  0  0
 10  9  1  1  0  0  0
 10 11  1  0  0  0  0
 10 12  1  0  0  0  0
 11 16  1  0  0  0  0
 12 13  1  6  0  0  0
 12 14  1  0  0  0  0
 14 15  1  1  0  0  0
 14 16  1  0  0  0  0
 16 27  1  1  0  0  0
 18 19  2  0  0  0  0
 18 23  1  0  0  0  0
 19 20  1  0  0  0  0
 20 21  2  0  0  0  0
 21 22  1  0  0  0  0
 21 27  1  0  0  0  0
 22 23  2  0  0  0  0
 22 25  1  0  0  0  0
 23 24  1  0  0  0  0
 25 26  2  0  0  0  0
 26 27  1  0  0  0  0
M  END
>  <CHROM.1>
-37.71163675,168.22984572,-82.07948819,-62.03179586,-114.39760080,-52.60620070
134.05665996,14.42076098,-5.85785021,8.28183345,1.49136498,-1.26907224,-2.28768884

>  <Name>
ligand

>  <RI>
0

>  <Rbt.Current_Directory>
/home/itssahil/PROJECTS/Mol_Feturizer/Test_systems_manuscript/rnas/2ydh

>  <Rbt.Executable>
rbdock ($Id: //depot/dev/client3/rdock/2013.1/src/exe/rbdock.cxx#4 $)

>  <Rbt.Library>
libRbt.so (2013.1, Build901 2013/11/27)

>  <Rbt.Parameter_File>
/export/apps/rDock/src/rDock_2013.1_src/data/scripts/dock_solv.prm

>  <Rbt.Receptor>
prm/pocket_docking_2.prm

>  <SCORE>
-6.03386

>  <SCORE.INTER>
-6.48678

>  <SCORE.INTER.CONST>
1

>  <SCORE.INTER.POLAR>
0

>  <SCORE.INTER.ROT>
7

>  <SCORE.INTER.SOLV>
19.9235

>  <SCORE.INTER.VDW>
-19.2324

>  <SCORE.INTER.norm>
-0.240251

>  <SCORE.INTRA>
-1.19461

>  <SCORE.INTRA.DIHEDRAL>
-0.324235

>  <SCORE.INTRA.DIHEDRAL.0>
9.75037

>  <SCORE.INTRA.POLAR>
0

>  <SCORE.INTRA.POLAR.0>
0

>  <SCORE.INTRA.REPUL>
0

>  <SCORE.INTRA.REPUL.0>
0

>  <SCORE.INTRA.SOLV>
-1.13701

>  <SCORE.INTRA.SOLV.lig_0>
-48.4279

>  <SCORE.INTRA.VDW>
-0.463985

>  <SCORE.INTRA.VDW.0>
-4.69037

>  <SCORE.INTRA.norm>
-0.0442447

>  <SCORE.RESTR>
1.64752

>  <SCORE.RESTR.CAVITY>
1.64752

>  <SCORE.RESTR.norm>
0.0610193

>  <SCORE.SYSTEM>
0

>  <SCORE.SYSTEM.CONST>
0

>  <SCORE.SYSTEM.DIHEDRAL>
0

>  <SCORE.SYSTEM.SOLV>
0

>  <SCORE.SYSTEM.norm>
0

>  <SCORE.heavy>
27

>  <SCORE.norm>
-0.223476

>  <RMSD>
5.099

$$$$
ligand
 OpenBabel02271912153D
libRbt.so/2013.1/901 2013/11/27
 27 29  0  0  0  0  0  0  0  0999 V2000
   12.0841   -8.3251   12.4872 N   0  0  0  0  0  0  0  0  0  0  0  0
   11.7483   -7.9497   11.0791 C   0  0  2  0  0  0  0  0  0  0  0  0
   12.6424   -8.7083   10.0732 C   0  0  0  0  0  0  0  0  0  0  0  0
   13.5277   -9.4771   10.4604 O   0  0  0  0  0  0  0  0  0  0  0  0
   11.8592   -6.4373   10.9171 C   0  0  0  0  0  0  0  0  0  0  0  0
   13.1861   -5.8508   11.3694 C   0  0  0  0  0  0  0  0  0  0  0  0
   14.1632   -5.1506   10.0085 S   0  0  2  0  0  0  0  0  0  0  0  0
   15.1708   -6.5871    9.5429 C   0  0  0  0  0  0  0  0  0  0  0  0
   15.3820   -4.0608   10.7612 C   0  0  0  0  0  0  0  0  0  0  0  0
   16.2635   -3.4784    9.6729 C   0  0  1  0  0  0  0  0  0  0  0  0
   17.0658   -4.4620    9.0381 O   0  0  0  0  0  0  0  0  0  0  0  0
   15.4431   -2.8129    8.5951 C   0  0  1  0  0  0  0  0  0  0  0  0
   15.1315   -1.4940    8.9416 O   0  0  0  0  0  0  0  0  0  0  0  0
   16.3836   -2.8805    7.4307 C   0  0  1  0  0  0  0  0  0  0  0  0
   17.2307   -1.7473    7.4517 O   0  0  0  0  0  0  0  0  0  0  0  0
   17.1882   -4.1518    7.6692 C   0  0  2  0  0  0  0  0  0  0  0  0
   12.5178   -8.5777    8.8417 O   0  0  0  0  0  0  0  0  0  0  0  0
   13.1530   -6.4382    5.1496 N   0  0  0  0  0  0  0  0  0  0  0  0
   13.1486   -5.2440    5.8557 C   0  0  0  0  0  0  0  0  0  0  0  0
   14.3003   -4.7804    6.4803 N   0  0  0  0  0  0  0  0  0  0  0  0
   15.4366   -5.4939    6.3798 C   0  0  0  0  0  0  0  0  0  0  0  0
   15.4572   -6.6908    5.6583 C   0  0  0  0  0  0  0  0  0  0  0  0
   14.3137   -7.1747    5.0498 C   0  0  0  0  0  0  0  0  0  0  0  0
   14.3356   -8.3152    4.3764 N   0  0  0  0  0  0  0  0  0  0  0  0
   16.6997   -7.1837    5.7059 N   0  0  0  0  0  0  0  0  0  0  0  0
   17.4629   -6.3359    6.4305 C   0  0  0  0  0  0  0  0  0  0  0  0
   16.6968   -5.2783    6.8533 N   0  0  0  0  0  0  0  0  0  0  0  0
  2  1  1  1  0  0  0
  2  3  1  0  0  0  0
  2  5  1  0  0  0  0
  3  4  1  0  0  0  0
  3 17  1  0  0  0  0
  5  6  1  0  0  0  0
  7  6  1  1  0  0  0
  7  8  1  0  0  0  0
  7  9  1  0  0  0  0
 10  9  1  1  0  0  0
 10 11  1  0  0  0  0
 10 12  1  0  0  0  0
 11 16  1  0  0  0  0
 12 13  1  1  0  0  0
 12 14  1  0  0  0  0
 14 15  1  1  0  0  0
 14 16  1  0  0  0  0
 16 27  1  6  0  0  0
 18 19  2  0  0  0  0
 18 23  1  0  0  0  0
 19 20  1  0  0  0  0
 20 21  2  0  0  0  0
 21 22  1  0  0  0  0
 21 27  1  0  0  0  0
 22 23  2  0  0  0  0
 22 25  1  0  0  0  0
 23 24  1  0  0  0  0
 25 26  2  0  0  0  0
 26 27  1  0  0  0  0
M  END
>  <CHROM.1>
-2.10202973,52.92846270,113.78811696,-91.86879309,178.11399531,-66.45031292
90.86431116,14.71523646,-5.69590180,8.37935697,-3.01199069,-0.95620096,-2.11895407

>  <Name>
ligand

>  <RI>
0

>  <Rbt.Current_Directory>
/home/itssahil/PROJECTS/Mol_Feturizer/Test_systems_manuscript/rnas/2ydh

>  <Rbt.Executable>
rbdock ($Id: //depot/dev/client3/rdock/2013.1/src/exe/rbdock.cxx#4 $)

>  <Rbt.Library>
libRbt.so (2013.1, Build901 2013/11/27)

>  <Rbt.Parameter_File>
/export/apps/rDock/src/rDock_2013.1_src/data/scripts/dock_solv.prm

>  <Rbt.Receptor>
prm/pocket_docking_4.prm

>  <SCORE>
-11.8019

>  <SCORE.INTER>
-13.0483

>  <SCORE.INTER.CONST>
1

>  <SCORE.INTER.POLAR>
0

>  <SCORE.INTER.ROT>
7

>  <SCORE.INTER.SOLV>
12.4439

>  <SCORE.INTER.VDW>
-21.1135

>  <SCORE.INTER.norm>
-0.483271

>  <SCORE.INTRA>
1.24637

>  <SCORE.INTRA.DIHEDRAL>
0.736715

>  <SCORE.INTRA.DIHEDRAL.0>
9.75037

>  <SCORE.INTRA.POLAR>
0

>  <SCORE.INTRA.POLAR.0>
0

>  <SCORE.INTRA.REPUL>
0

>  <SCORE.INTRA.REPUL.0>
0

>  <SCORE.INTRA.SOLV>
-0.215741

>  <SCORE.INTRA.SOLV.lig_0>
-48.4279

>  <SCORE.INTRA.VDW>
0.985883

>  <SCORE.INTRA.VDW.0>
-4.69037

>  <SCORE.INTRA.norm>
0.0461619

>  <SCORE.RESTR>
0

>  <SCORE.RESTR.CAVITY>
0

>  <SCORE.RESTR.norm>
0

>  <SCORE.SYSTEM>
0

>  <SCORE.SYSTEM.CONST>
0

>  <SCORE.SYSTEM.DIHEDRAL>
0

>  <SCORE.SYSTEM.SOLV>
0

>  <SCORE.SYSTEM.norm>
0

>  <SCORE.heavy>
27

>  <SCORE.norm>
-0.437109

>  <RMSD>
5.104

$$$$
ligand
 OpenBabel02271912153D
libRbt.so/2013.1/901 2013/11/27
 27 29  0  0  0  0  0  0  0  0999 V2000
   13.1847   -8.5903    7.9611 N   0  0  0  0  0  0  0  0  0  0  0  0
   14.1084   -8.0342    8.9976 C   0  0  2  0  0  0  0  0  0  0  0  0
   14.8610   -9.1640    9.7350 C   0  0  0  0  0  0  0  0  0  0  0  0
   16.0867   -9.2806    9.6416 O   0  0  0  0  0  0  0  0  0  0  0  0
   13.3199   -7.1495    9.9573 C   0  0  0  0  0  0  0  0  0  0  0  0
   14.1324   -6.5962   11.1161 C   0  0  0  0  0  0  0  0  0  0  0  0
   15.4406   -5.4504   10.5938 S   0  0  2  0  0  0  0  0  0  0  0  0
   16.5036   -5.4589   12.0654 C   0  0  0  0  0  0  0  0  0  0  0  0
   14.7275   -3.7988   10.6511 C   0  0  0  0  0  0  0  0  0  0  0  0
   15.0939   -3.0577    9.3794 C   0  0  1  0  0  0  0  0  0  0  0  0
   16.2481   -3.5934    8.7508 O   0  0  0  0  0  0  0  0  0  0  0  0
   13.9746   -3.1092    8.3683 C   0  0  1  0  0  0  0  0  0  0  0  0
   13.0404   -2.0941    8.5992 O   0  0  0  0  0  0  0  0  0  0  0  0
   14.7279   -2.8994    7.0902 C   0  0  1  0  0  0  0  0  0  0  0  0
   14.8512   -1.5109    6.8466 O   0  0  0  0  0  0  0  0  0  0  0  0
   16.0950   -3.5179    7.3522 C   0  0  2  0  0  0  0  0  0  0  0  0
   14.2744  -10.0020   10.4442 O   0  0  0  0  0  0  0  0  0  0  0  0
   13.7956   -7.4956    4.7541 N   0  0  0  0  0  0  0  0  0  0  0  0
   13.2308   -6.2856    5.1305 C   0  0  0  0  0  0  0  0  0  0  0  0
   13.9713   -5.3392    5.8287 N   0  0  0  0  0  0  0  0  0  0  0  0
   15.2582   -5.5974    6.1245 C   0  0  0  0  0  0  0  0  0  0  0  0
   15.8427   -6.8066    5.7373 C   0  0  0  0  0  0  0  0  0  0  0  0
   15.1119   -7.7659    5.0609 C   0  0  0  0  0  0  0  0  0  0  0  0
   15.6672   -8.9148    4.7057 N   0  0  0  0  0  0  0  0  0  0  0  0
   17.1183   -6.7994    6.1397 N   0  0  0  0  0  0  0  0  0  0  0  0
   17.3574   -5.6254    6.7646 C   0  0  0  0  0  0  0  0  0  0  0  0
   16.2153   -4.8639    6.7608 N   0  0  0  0  0  0  0  0  0  0  0  0
  2  1  1  6  0  0  0
  2  3  1  0  0  0  0
  2  5  1  0  0  0  0
  3  4  1  0  0  0  0
  3 17  1  0  0  0  0
  5  6  1  0  0  0  0
  7  6  1  1  0  0  0
  7  8  1  0  0  0  0
  7  9  1  0  0  0  0
 10  9  1  1  0  0  0
 10 11  1  0  0  0  0
 10 12  1  0  0  0  0
 11 16  1  0  0  0  0
 12 13  1  1  0  0  0
 12 14  1  0  0  0  0
 14 15  1  1  0  0  0
 14 16  1  0  0  0  0
 16 27  1  6  0  0  0
 18 19  2  0  0  0  0
 18 23  1  0  0  0  0
 19 20  1  0  0  0  0
 20 21  2  0  0  0  0
 21 22  1  0  0  0  0
 21 27  1  0  0  0  0
 22 23  2  0  0  0  0
 22 25  1  0  0  0  0
 23 24  1  0  0  0  0
 25 26  2  0  0  0  0
 26 27  1  0  0  0  0
M  END
>  <CHROM.1>
115.16006587,176.12576136,65.12564728,-161.55585070,-134.10898697,-22.33656211
113.96708289,14.98837638,-5.83733088,8.14642877,-2.43065177,1.54921057,0.90479851

>  <Name>
ligand

>  <RI>
0

>  <Rbt.Current_Directory>
/home/itssahil/PROJECTS/Mol_Feturizer/Test_systems_manuscript/rnas/2ydh

>  <Rbt.Executable>
rbdock ($Id: //depot/dev/client3/rdock/2013.1/src/exe/rbdock.cxx#4 $)

>  <Rbt.Library>
libRbt.so (2013.1, Build901 2013/11/27)

>  <Rbt.Parameter_File>
/export/apps/rDock/src/rDock_2013.1_src/data/scripts/dock_solv.prm

>  <Rbt.Receptor>
prm/pocket_docking_3.prm

>  <SCORE>
-7.05038

>  <SCORE.INTER>
-9.25687

>  <SCORE.INTER.CONST>
1

>  <SCORE.INTER.POLAR>
0

>  <SCORE.INTER.ROT>
7

>  <SCORE.INTER.SOLV>
17.6492

>  <SCORE.INTER.VDW>
-20.321

>  <SCORE.INTER.norm>
-0.342847

>  <SCORE.INTRA>
2.18821

>  <SCORE.INTRA.DIHEDRAL>
3.09887

>  <SCORE.INTRA.DIHEDRAL.0>
9.75037

>  <SCORE.INTRA.POLAR>
0

>  <SCORE.INTRA.POLAR.0>
0

>  <SCORE.INTRA.REPUL>
0

>  <SCORE.INTRA.REPUL.0>
0

>  <SCORE.INTRA.SOLV>
0.0972966

>  <SCORE.INTRA.SOLV.lig_0>
-48.4279

>  <SCORE.INTRA.VDW>
0.590129

>  <SCORE.INTRA.VDW.0>
-4.69037

>  <SCORE.INTRA.norm>
0.0810449

>  <SCORE.RESTR>
0.0182774

>  <SCORE.RESTR.CAVITY>
0.0182774

>  <SCORE.RESTR.norm>
0.000676941

>  <SCORE.SYSTEM>
0

>  <SCORE.SYSTEM.CONST>
0

>  <SCORE.SYSTEM.DIHEDRAL>
0

>  <SCORE.SYSTEM.SOLV>
0

>  <SCORE.SYSTEM.norm>
0

>  <SCORE.heavy>
27

>  <SCORE.norm>
-0.261125

>  <RMSD>
5.110

$$$$
ligand
 OpenBabel02271912153D
libRbt.so/2013.1/901 2013/11/27
 27 29  0  0  0  0  0  0  0  0999 V2000
   13.2949   -7.0001    3.4094 N   0  0  0  0  0  0  0  0  0  0  0  0
   13.3247   -7.2704    4.8800 C   0  0  2  0  0  0  0  0  0  0  0  0
   13.0314   -5.9863    5.6872 C   0  0  0  0  0  0  0  0  0  0  0  0
   13.7479   -4.9866    5.5778 O   0  0  0  0  0  0  0  0  0  0  0  0
   14.6673   -7.8889    5.2549 C   0  0  0  0  0  0  0  0  0  0  0  0
   14.6396   -8.7397    6.5137 C   0  0  0  0  0  0  0  0  0  0  0  0
   14.3503   -7.7766    8.0256 S   0  0  2  0  0  0  0  0  0  0  0  0
   15.9186   -6.8712    8.1538 C   0  0  0  0  0  0  0  0  0  0  0  0
   14.4672   -8.9334    9.3997 C   0  0  0  0  0  0  0  0  0  0  0  0
   14.1068   -8.2126   10.6846 C   0  0  1  0  0  0  0  0  0  0  0  0
   15.1147   -7.3039   11.1000 O   0  0  0  0  0  0  0  0  0  0  0  0
   12.8310   -7.4205   10.5342 C   0  0  1  0  0  0  0  0  0  0  0  0
   11.7092   -8.2247   10.7611 O   0  0  0  0  0  0  0  0  0  0  0  0
   13.0047   -6.3843   11.6024 C   0  0  1  0  0  0  0  0  0  0  0  0
   12.5148   -6.8944   12.8280 O   0  0  0  0  0  0  0  0  0  0  0  0
   14.5109   -6.1700   11.6785 C   0  0  2  0  0  0  0  0  0  0  0  0
   12.0751   -5.9019    6.4795 O   0  0  0  0  0  0  0  0  0  0  0  0
   13.6596   -2.7757    7.7272 N   0  0  0  0  0  0  0  0  0  0  0  0
   12.9133   -3.8961    8.0623 C   0  0  0  0  0  0  0  0  0  0  0  0
   13.2798   -4.7034    9.1326 N   0  0  0  0  0  0  0  0  0  0  0  0
   14.3630   -4.3787    9.8616 C   0  0  0  0  0  0  0  0  0  0  0  0
   15.1141   -3.2438    9.5430 C   0  0  0  0  0  0  0  0  0  0  0  0
   14.7735   -2.4436    8.4680 C   0  0  0  0  0  0  0  0  0  0  0  0
   15.4948   -1.3753    8.1634 N   0  0  0  0  0  0  0  0  0  0  0  0
   16.1154   -3.1470   10.4245 N   0  0  0  0  0  0  0  0  0  0  0  0
   16.0184   -4.1809   11.2892 C   0  0  0  0  0  0  0  0  0  0  0  0
   14.9333   -4.9539   10.9582 N   0  0  0  0  0  0  0  0  0  0  0  0
  2  1  1  6  0  0  0
  2  3  1  0  0  0  0
  2  5  1  0  0  0  0
  3  4  1  0  0  0  0
  3 17  1  0  0  0  0
  5  6  1  0  0  0  0
  7  6  1  6  0  0  0
  7  8  1  0  0  0  0
  7  9  1  0  0  0  0
 10  9  1  6  0  0  0
 10 11  1  0  0  0  0
 10 12  1  0  0  0  0
 11 16  1  0  0  0  0
 12 13  1  1  0  0  0
 12 14  1  0  0  0  0
 14 15  1  1  0  0  0
 14 16  1  0  0  0  0
 16 27  1  6  0  0  0
 18 19  2  0  0  0  0
 18 23  1  0  0  0  0
 19 20  1  0  0  0  0
 20 21  2  0  0  0  0
 21 22  1  0  0  0  0
 21 27  1  0  0  0  0
 22 23  2  0  0  0  0
 22 25  1  0  0  0  0
 23 24  1  0  0  0  0
 25 26  2  0  0  0  0
 26 27  1  0  0  0  0
M  END
>  <CHROM.1>
-59.31032706,-154.95273811,-67.87724204,-69.91153181,-174.78968145,-72.19795430
88.23894945,14.06177928,-5.97151678,8.71184232,2.00555882,-1.33995796,-1.34327573

>  <Name>
ligand

>  <RI>
0

>  <Rbt.Current_Directory>
/home/itssahil/PROJECTS/Mol_Feturizer/Test_systems_manuscript/rnas/2ydh

>  <Rbt.Executable>
rbdock ($Id: //depot/dev/client3/rdock/2013.1/src/exe/rbdock.cxx#4 $)

>  <Rbt.Library>
libRbt.so (2013.1, Build901 2013/11/27)

>  <Rbt.Parameter_File>
/export/apps/rDock/src/rDock_2013.1_src/data/scripts/dock_solv.prm

>  <Rbt.Receptor>
prm/pocket_docking_2.prm

>  <SCORE>
-7.74241

>  <SCORE.INTER>
-6.79852

>  <SCORE.INTER.CONST>
1

>  <SCORE.INTER.POLAR>
0

>  <SCORE.INTER.ROT>
7

>  <SCORE.INTER.SOLV>
22.5328

>  <SCORE.INTER.VDW>
-20.3099

>  <SCORE.INTER.norm>
-0.251797

>  <SCORE.INTRA>
-2.26476

>  <SCORE.INTRA.DIHEDRAL>
-3.37919

>  <SCORE.INTRA.DIHEDRAL.0>
9.75037

>  <SCORE.INTRA.POLAR>
0

>  <SCORE.INTRA.POLAR.0>
0

>  <SCORE.INTRA.REPUL>
0

>  <SCORE.INTRA.REPUL.0>
0

>  <SCORE.INTRA.SOLV>
-1.0655

>  <SCORE.INTRA.SOLV.lig_0>
-48.4279

>  <SCORE.INTRA.VDW>
-0.0424121

>  <SCORE.INTRA.VDW.0>
-4.69037

>  <SCORE.INTRA.norm>
-0.08388

>  <SCORE.RESTR>
1.32088

>  <SCORE.RESTR.CAVITY>
1.32088

>  <SCORE.RESTR.norm>
0.0489214

>  <SCORE.SYSTEM>
0

>  <SCORE.SYSTEM.CONST>
0

>  <SCORE.SYSTEM.DIHEDRAL>
0

>  <SCORE.SYSTEM.SOLV>
0

>  <SCORE.SYSTEM.norm>
0

>  <SCORE.heavy>
27

>  <SCORE.norm>
-0.286756

>  <RMSD>
5.113

$$$$
ligand
 OpenBabel02271912153D
libRbt.so/2013.1/901 2013/11/27
 27 29  0  0  0  0  0  0  0  0999 V2000
   19.1949   -7.5295   10.4010 N   0  0  0  0  0  0  0  0  0  0  0  0
   17.7120   -7.7174   10.4493 C   0  0  2  0  0  0  0  0  0  0  0  0
   17.3478   -9.1851   10.7656 C   0  0  0  0  0  0  0  0  0  0  0  0
   18.1303   -9.9190   11.3769 O   0  0  0  0  0  0  0  0  0  0  0  0
   17.0978   -7.2449    9.1360 C   0  0  0  0  0  0  0  0  0  0  0  0
   17.4245   -8.1192    7.9369 C   0  0  0  0  0  0  0  0  0  0  0  0
   16.5994   -7.5833    6.4108 S   0  0  2  0  0  0  0  0  0  0  0  0
   17.4195   -8.6496    5.1917 C   0  0  0  0  0  0  0  0  0  0  0  0
   17.2702   -5.9622    6.0084 C   0  0  0  0  0  0  0  0  0  0  0  0
   16.1814   -4.9202    6.1798 C   0  0  1  0  0  0  0  0  0  0  0  0
   14.8788   -5.4813    6.1320 O   0  0  0  0  0  0  0  0  0  0  0  0
   16.3066   -4.2032    7.5020 C   0  0  1  0  0  0  0  0  0  0  0  0
   17.2069   -3.1363    7.4131 O   0  0  0  0  0  0  0  0  0  0  0  0
   14.8992   -3.7346    7.7127 C   0  0  1  0  0  0  0  0  0  0  0  0
   14.7270   -2.4819    7.0775 O   0  0  0  0  0  0  0  0  0  0  0  0
   14.0426   -4.7972    7.0364 C   0  0  2  0  0  0  0  0  0  0  0  0
   16.2649   -9.6917   10.4190 O   0  0  0  0  0  0  0  0  0  0  0  0
   12.7529   -5.8570   12.0436 N   0  0  0  0  0  0  0  0  0  0  0  0
   13.3275   -4.6992   11.5396 C   0  0  0  0  0  0  0  0  0  0  0  0
   13.6215   -4.5794   10.1866 N   0  0  0  0  0  0  0  0  0  0  0  0
   13.3256   -5.5957    9.3559 C   0  0  0  0  0  0  0  0  0  0  0  0
   12.7327   -6.7611    9.8496 C   0  0  0  0  0  0  0  0  0  0  0  0
   12.4542   -6.9025   11.1966 C   0  0  0  0  0  0  0  0  0  0  0  0
   11.9022   -8.0133   11.6613 N   0  0  0  0  0  0  0  0  0  0  0  0
   12.5350   -7.5944    8.8221 N   0  0  0  0  0  0  0  0  0  0  0  0
   12.9808   -6.9917    7.6978 C   0  0  0  0  0  0  0  0  0  0  0  0
   13.4710   -5.7477    8.0089 N   0  0  0  0  0  0  0  0  0  0  0  0
  2  1  1  6  0  0  0
  2  3  1  0  0  0  0
  2  5  1  0  0  0  0
  3  4  1  0  0  0  0
  3 17  1  0  0  0  0
  5  6  1  0  0  0  0
  7  6  1  1  0  0  0
  7  8  1  0  0  0  0
  7  9  1  0  0  0  0
 10  9  1  1  0  0  0
 10 11  1  0  0  0  0
 10 12  1  0  0  0  0
 11 16  1  0  0  0  0
 12 13  1  6  0  0  0
 12 14  1  0  0  0  0
 14 15  1  6  0  0  0
 14 16  1  0  0  0  0
 16 27  1  1  0  0  0
 18 19  2  0  0  0  0
 18 23  1  0  0  0  0
 19 20  1  0  0  0  0
 20 21  2  0  0  0  0
 21 22  1  0  0  0  0
 21 27  1  0  0  0  0
 22 23  2  0  0  0  0
 22 25  1  0  0  0  0
 23 24  1  0  0  0  0
 25 26  2  0  0  0  0
 26 27  1  0  0  0  0
M  END
>  <CHROM.1>
25.08343009,69.22959099,176.63693000,171.08239198,-112.11855326,-20.90966303
137.14383968,15.38619026,-6.47278225,8.64264175,-0.19834764,-0.56370234,2.29954652

>  <Name>
ligand

>  <RI>
0

>  <Rbt.Current_Directory>
/home/itssahil/PROJECTS/Mol_Feturizer/Test_systems_manuscript/rnas/2ydh

>  <Rbt.Executable>
rbdock ($Id: //depot/dev/client3/rdock/2013.1/src/exe/rbdock.cxx#4 $)

>  <Rbt.Library>
libRbt.so (2013.1, Build901 2013/11/27)

>  <Rbt.Parameter_File>
/export/apps/rDock/src/rDock_2013.1_src/data/scripts/dock_solv.prm

>  <Rbt.Receptor>
prm/pocket_docking_5.prm

>  <SCORE>
-7.96826

>  <SCORE.INTER>
-10.3862

>  <SCORE.INTER.CONST>
1

>  <SCORE.INTER.POLAR>
0

>  <SCORE.INTER.ROT>
7

>  <SCORE.INTER.SOLV>
9.42616

>  <SCORE.INTER.VDW>
-18.3329

>  <SCORE.INTER.norm>
-0.384675

>  <SCORE.INTRA>
2.27444

>  <SCORE.INTRA.DIHEDRAL>
1.27014

>  <SCORE.INTRA.DIHEDRAL.0>
9.75037

>  <SCORE.INTRA.POLAR>
0

>  <SCORE.INTRA.POLAR.0>
0

>  <SCORE.INTRA.REPUL>
0

>  <SCORE.INTRA.REPUL.0>
0

>  <SCORE.INTRA.SOLV>
-0.671952

>  <SCORE.INTRA.SOLV.lig_0>
-48.4279

>  <SCORE.INTRA.VDW>
1.97534

>  <SCORE.INTRA.VDW.0>
-4.69037

>  <SCORE.INTRA.norm>
0.0842384

>  <SCORE.RESTR>
0.143523

>  <SCORE.RESTR.CAVITY>
0.143523

>  <SCORE.RESTR.norm>
0.00531568

>  <SCORE.SYSTEM>
0

>  <SCORE.SYSTEM.CONST>
0

>  <SCORE.SYSTEM.DIHEDRAL>
0

>  <SCORE.SYSTEM.SOLV>
0

>  <SCORE.SYSTEM.norm>
0

>  <SCORE.heavy>
27

>  <SCORE.norm>
-0.295121

>  <RMSD>
5.117

$$$$
ligand
 OpenBabel02271912153D
libRbt.so/2013.1/901 2013/11/27
 27 29  0  0  0  0  0  0  0  0999 V2000
   16.5617   -8.2402   11.7842 N   0  0  0  0  0  0  0  0  0  0  0  0
   15.8883   -7.3758   10.7663 C   0  0  2  0  0  0  0  0  0  0  0  0
   15.4723   -8.1982    9.5265 C   0  0  0  0  0  0  0  0  0  0  0  0
   15.6536   -9.4187    9.4804 O   0  0  0  0  0  0  0  0  0  0  0  0
   16.8055   -6.2134   10.4015 C   0  0  0  0  0  0  0  0  0  0  0  0
   17.0526   -5.2272   11.5309 C   0  0  0  0  0  0  0  0  0  0  0  0
   15.5736   -4.2820   11.9957 S   0  0  2  0  0  0  0  0  0  0  0  0
   14.7381   -5.4747   13.0798 C   0  0  0  0  0  0  0  0  0  0  0  0
   14.5005   -4.2670   10.5507 C   0  0  0  0  0  0  0  0  0  0  0  0
   15.0798   -3.3227    9.5146 C   0  0  1  0  0  0  0  0  0  0  0  0
   16.3580   -3.7355    9.0563 O   0  0  0  0  0  0  0  0  0  0  0  0
   14.1870   -3.2185    8.3022 C   0  0  1  0  0  0  0  0  0  0  0  0
   13.1822   -2.2650    8.4972 O   0  0  0  0  0  0  0  0  0  0  0  0
   15.1693   -2.7930    7.2538 C   0  0  1  0  0  0  0  0  0  0  0  0
   15.2781   -1.3823    7.2648 O   0  0  0  0  0  0  0  0  0  0  0  0
   16.4826   -3.4322    7.6861 C   0  0  2  0  0  0  0  0  0  0  0  0
   14.9467   -7.6752    8.5266 O   0  0  0  0  0  0  0  0  0  0  0  0
   14.6573   -7.5066    4.8708 N   0  0  0  0  0  0  0  0  0  0  0  0
   13.9287   -6.4774    5.4492 C   0  0  0  0  0  0  0  0  0  0  0  0
   14.5615   -5.4775    6.1781 N   0  0  0  0  0  0  0  0  0  0  0  0
   15.9007   -5.5027    6.3055 C   0  0  0  0  0  0  0  0  0  0  0  0
   16.6470   -6.5261    5.7145 C   0  0  0  0  0  0  0  0  0  0  0  0
   16.0287   -7.5389    5.0046 C   0  0  0  0  0  0  0  0  0  0  0  0
   16.7394   -8.5127    4.4556 N   0  0  0  0  0  0  0  0  0  0  0  0
   17.9390   -6.3056    5.9809 N   0  0  0  0  0  0  0  0  0  0  0  0
   18.0317   -5.1763    6.7171 C   0  0  0  0  0  0  0  0  0  0  0  0
   16.7764   -4.6610    6.9247 N   0  0  0  0  0  0  0  0  0  0  0  0
  2  1  1  1  0  0  0
  2  3  1  0  0  0  0
  2  5  1  0  0  0  0
  3  4  1  0  0  0  0
  3 17  1  0  0  0  0
  5  6  1  0  0  0  0
  7  6  1  6  0  0  0
  7  8  1  0  0  0  0
  7  9  1  0  0  0  0
 10  9  1  1  0  0  0
 10 11  1  0  0  0  0
 10 12  1  0  0  0  0
 11 16  1  0  0  0  0
 12 13  1  1  0  0  0
 12 14  1  0  0  0  0
 14 15  1  1  0  0  0
 14 16  1  0  0  0  0
 16 27  1  6  0  0  0
 18 19  2  0  0  0  0
 18 23  1  0  0  0  0
 19 20  1  0  0  0  0
 20 21  2  0  0  0  0
 21 22  1  0  0  0  0
 21 27  1  0  0  0  0
 22 23  2  0  0  0  0
 22 25  1  0  0  0  0
 23 24  1  0  0  0  0
 25 26  2  0  0  0  0
 26 27  1  0  0  0  0
M  END
>  <CHROM.1>
2.86811406,-66.52592834,-67.60065654,81.66039035,-73.68650723,62.35823582
93.16562577,15.67961125,-5.47515490,8.49622715,-2.00344065,1.37265082,-1.45996190

>  <Name>
ligand

>  <RI>
0

>  <Rbt.Current_Directory>
/home/itssahil/PROJECTS/Mol_Feturizer/Test_systems_manuscript/rnas/2ydh

>  <Rbt.Executable>
rbdock ($Id: //depot/dev/client3/rdock/2013.1/src/exe/rbdock.cxx#4 $)

>  <Rbt.Library>
libRbt.so (2013.1, Build901 2013/11/27)

>  <Rbt.Parameter_File>
/export/apps/rDock/src/rDock_2013.1_src/data/scripts/dock_solv.prm

>  <Rbt.Receptor>
prm/pocket_docking_6.prm

>  <SCORE>
-14.1746

>  <SCORE.INTER>
-13.729

>  <SCORE.INTER.CONST>
1

>  <SCORE.INTER.POLAR>
0

>  <SCORE.INTER.ROT>
7

>  <SCORE.INTER.SOLV>
14.7609

>  <SCORE.INTER.VDW>
-22.3396

>  <SCORE.INTER.norm>
-0.508483

>  <SCORE.INTRA>
-0.445568

>  <SCORE.INTRA.DIHEDRAL>
-4.14067

>  <SCORE.INTRA.DIHEDRAL.0>
9.75037

>  <SCORE.INTRA.POLAR>
0

>  <SCORE.INTRA.POLAR.0>
0

>  <SCORE.INTRA.REPUL>
0

>  <SCORE.INTRA.REPUL.0>
0

>  <SCORE.INTRA.SOLV>
0.818662

>  <SCORE.INTRA.SOLV.lig_0>
-48.4279

>  <SCORE.INTRA.VDW>
1.21544

>  <SCORE.INTRA.VDW.0>
-4.69037

>  <SCORE.INTRA.norm>
-0.0165025

>  <SCORE.RESTR>
0

>  <SCORE.RESTR.CAVITY>
0

>  <SCORE.RESTR.norm>
0

>  <SCORE.SYSTEM>
0

>  <SCORE.SYSTEM.CONST>
0

>  <SCORE.SYSTEM.DIHEDRAL>
0

>  <SCORE.SYSTEM.SOLV>
0

>  <SCORE.SYSTEM.norm>
0

>  <SCORE.heavy>
27

>  <SCORE.norm>
-0.524985

>  <RMSD>
5.118

$$$$
ligand
 OpenBabel02271912153D
libRbt.so/2013.1/901 2013/11/27
 27 29  0  0  0  0  0  0  0  0999 V2000
   16.9763   -8.4317   12.1322 N   0  0  0  0  0  0  0  0  0  0  0  0
   15.9363   -7.9040   11.1958 C   0  0  2  0  0  0  0  0  0  0  0  0
   15.5175   -8.9784   10.1678 C   0  0  0  0  0  0  0  0  0  0  0  0
   14.7327   -9.8815   10.4728 O   0  0  0  0  0  0  0  0  0  0  0  0
   16.4556   -6.6381   10.5224 C   0  0  0  0  0  0  0  0  0  0  0  0
   16.7453   -5.4907   11.4756 C   0  0  0  0  0  0  0  0  0  0  0  0
   15.2616   -4.5559   11.9466 S   0  0  2  0  0  0  0  0  0  0  0  0
   14.3607   -5.8110   12.8998 C   0  0  0  0  0  0  0  0  0  0  0  0
   14.2543   -4.4125   10.4618 C   0  0  0  0  0  0  0  0  0  0  0  0
   14.9200   -3.4424    9.5046 C   0  0  1  0  0  0  0  0  0  0  0  0
   16.2123   -3.8723    9.1053 O   0  0  0  0  0  0  0  0  0  0  0  0
   14.1054   -3.2610    8.2470 C   0  0  1  0  0  0  0  0  0  0  0  0
   13.1162   -2.2878    8.4238 O   0  0  0  0  0  0  0  0  0  0  0  0
   15.1603   -2.8202    7.2786 C   0  0  1  0  0  0  0  0  0  0  0  0
   15.3056   -1.4149    7.3581 O   0  0  0  0  0  0  0  0  0  0  0  0
   16.4277   -3.5150    7.7596 C   0  0  2  0  0  0  0  0  0  0  0  0
   15.9500   -8.9873    9.0006 O   0  0  0  0  0  0  0  0  0  0  0  0
   14.6406   -7.5679    4.8893 N   0  0  0  0  0  0  0  0  0  0  0  0
   13.9001   -6.5705    5.5069 C   0  0  0  0  0  0  0  0  0  0  0  0
   14.5243   -5.5722    6.2453 N   0  0  0  0  0  0  0  0  0  0  0  0
   15.8661   -5.5671    6.3436 C   0  0  0  0  0  0  0  0  0  0  0  0
   16.6239   -6.5581    5.7132 C   0  0  0  0  0  0  0  0  0  0  0  0
   16.0151   -7.5694    4.9931 C   0  0  0  0  0  0  0  0  0  0  0  0
   16.7369   -8.5125    4.4065 N   0  0  0  0  0  0  0  0  0  0  0  0
   17.9158   -6.3118    5.9571 N   0  0  0  0  0  0  0  0  0  0  0  0
   17.9971   -5.1976    6.7174 C   0  0  0  0  0  0  0  0  0  0  0  0
   16.7345   -4.7184    6.9636 N   0  0  0  0  0  0  0  0  0  0  0  0
  2  1  1  1  0  0  0
  2  3  1  0  0  0  0
  2  5  1  0  0  0  0
  3  4  1  0  0  0  0
  3 17  1  0  0  0  0
  5  6  1  0  0  0  0
  7  6  1  6  0  0  0
  7  8  1  0  0  0  0
  7  9  1  0  0  0  0
 10  9  1  1  0  0  0
 10 11  1  0  0  0  0
 10 12  1  0  0  0  0
 11 16  1  0  0  0  0
 12 13  1  1  0  0  0
 12 14  1  0  0  0  0
 14 15  1  1  0  0  0
 14 16  1  0  0  0  0
 16 27  1  6  0  0  0
 18 19  2  0  0  0  0
 18 23  1  0  0  0  0
 19 20  1  0  0  0  0
 20 21  2  0  0  0  0
 21 22  1  0  0  0  0
 21 27  1  0  0  0  0
 22 23  2  0  0  0  0
 22 25  1  0  0  0  0
 23 24  1  0  0  0  0
 25 26  2  0  0  0  0
 26 27  1  0  0  0  0
M  END
>  <CHROM.1>
78.69341397,-62.45747483,-81.08617236,66.43805125,-71.62213347,60.74799734
87.49590500,15.60201597,-5.69406039,8.59940609,-1.96735563,1.36461727,-1.15103299

>  <Name>
ligand

>  <RI>
0

>  <Rbt.Current_Directory>
/home/itssahil/PROJECTS/Mol_Feturizer/Test_systems_manuscript/rnas/2ydh

>  <Rbt.Executable>
rbdock ($Id: //depot/dev/client3/rdock/2013.1/src/exe/rbdock.cxx#4 $)

>  <Rbt.Library>
libRbt.so (2013.1, Build901 2013/11/27)

>  <Rbt.Parameter_File>
/export/apps/rDock/src/rDock_2013.1_src/data/scripts/dock_solv.prm

>  <Rbt.Receptor>
prm/pocket_docking_5.prm

>  <SCORE>
-12.9517

>  <SCORE.INTER>
-13.2238

>  <SCORE.INTER.CONST>
1

>  <SCORE.INTER.POLAR>
0

>  <SCORE.INTER.ROT>
7

>  <SCORE.INTER.SOLV>
14.9693

>  <SCORE.INTER.VDW>
-22.0723

>  <SCORE.INTER.norm>
-0.489771

>  <SCORE.INTRA>
0.272097

>  <SCORE.INTRA.DIHEDRAL>
-4.63318

>  <SCORE.INTRA.DIHEDRAL.0>
9.75037

>  <SCORE.INTRA.POLAR>
0

>  <SCORE.INTRA.POLAR.0>
0

>  <SCORE.INTRA.REPUL>
0

>  <SCORE.INTRA.REPUL.0>
0

>  <SCORE.INTRA.SOLV>
0.423166

>  <SCORE.INTRA.SOLV.lig_0>
-48.4279

>  <SCORE.INTRA.VDW>
2.37711

>  <SCORE.INTRA.VDW.0>
-4.69037

>  <SCORE.INTRA.norm>
0.0100777

>  <SCORE.RESTR>
0

>  <SCORE.RESTR.CAVITY>
0

>  <SCORE.RESTR.norm>
0

>  <SCORE.SYSTEM>
0

>  <SCORE.SYSTEM.CONST>
0

>  <SCORE.SYSTEM.DIHEDRAL>
0

>  <SCORE.SYSTEM.SOLV>
0

>  <SCORE.SYSTEM.norm>
0

>  <SCORE.heavy>
27

>  <SCORE.norm>
-0.479693

>  <RMSD>
5.119

$$$$
ligand
 OpenBabel02271912153D
libRbt.so/2013.1/901 2013/11/27
 27 29  0  0  0  0  0  0  0  0999 V2000
   14.5114   -8.7645   11.5692 N   0  0  0  0  0  0  0  0  0  0  0  0
   14.0840   -7.3964   11.1425 C   0  0  2  0  0  0  0  0  0  0  0  0
   12.7160   -7.4397   10.4259 C   0  0  0  0  0  0  0  0  0  0  0  0
   12.2367   -8.5066   10.0302 O   0  0  0  0  0  0  0  0  0  0  0  0
   15.1690   -6.7753   10.2692 C   0  0  0  0  0  0  0  0  0  0  0  0
   16.4509   -6.4289   11.0079 C   0  0  0  0  0  0  0  0  0  0  0  0
   16.3694   -4.8393   11.8818 S   0  0  2  0  0  0  0  0  0  0  0  0
   15.0831   -5.1965   13.1121 C   0  0  0  0  0  0  0  0  0  0  0  0
   15.5301   -3.6911   10.7786 C   0  0  0  0  0  0  0  0  0  0  0  0
   16.5065   -3.2230    9.7165 C   0  0  1  0  0  0  0  0  0  0  0  0
   17.1797   -4.3001    9.0834 O   0  0  0  0  0  0  0  0  0  0  0  0
   15.8087   -2.4383    8.6324 C   0  0  1  0  0  0  0  0  0  0  0  0
   15.6738   -1.0932    8.9918 O   0  0  0  0  0  0  0  0  0  0  0  0
   16.7560   -2.6211    7.4860 C   0  0  1  0  0  0  0  0  0  0  0  0
   17.7500   -1.6156    7.5402 O   0  0  0  0  0  0  0  0  0  0  0  0
   17.3730   -3.9937    7.7219 C   0  0  2  0  0  0  0  0  0  0  0  0
   12.0442   -6.4140   10.2116 O   0  0  0  0  0  0  0  0  0  0  0  0
   12.9844   -5.9734    5.5585 N   0  0  0  0  0  0  0  0  0  0  0  0
   13.1045   -4.8494    6.3628 C   0  0  0  0  0  0  0  0  0  0  0  0
   14.3396   -4.4638    6.8701 N   0  0  0  0  0  0  0  0  0  0  0  0
   15.4330   -5.1831    6.5584 C   0  0  0  0  0  0  0  0  0  0  0  0
   15.3270   -6.3087    5.7366 C   0  0  0  0  0  0  0  0  0  0  0  0
   14.1016   -6.7162    5.2423 C   0  0  0  0  0  0  0  0  0  0  0  0
   14.0047   -7.7899    4.4728 N   0  0  0  0  0  0  0  0  0  0  0  0
   16.5511   -6.8237    5.5769 N   0  0  0  0  0  0  0  0  0  0  0  0
   17.4247   -6.0587    6.2680 C   0  0  0  0  0  0  0  0  0  0  0  0
   16.7493   -5.0322    6.8802 N   0  0  0  0  0  0  0  0  0  0  0  0
  2  1  1  6  0  0  0
  2  3  1  0  0  0  0
  2  5  1  0  0  0  0
  3  4  1  0  0  0  0
  3 17  1  0  0  0  0
  5  6  1  0  0  0  0
  7  6  1  6  0  0  0
  7  8  1  0  0  0  0
  7  9  1  0  0  0  0
 10  9  1  1  0  0  0
 10 11  1  0  0  0  0
 10 12  1  0  0  0  0
 11 16  1  0  0  0  0
 12 13  1  1  0  0  0
 12 14  1  0  0  0  0
 14 15  1  1  0  0  0
 14 16  1  0  0  0  0
 16 27  1  6  0  0  0
 18 19  2  0  0  0  0
 18 23  1  0  0  0  0
 19 20  1  0  0  0  0
 20 21  2  0  0  0  0
 21 22  1  0  0  0  0
 21 27  1  0  0  0  0
 22 23  2  0  0  0  0
 22 25  1  0  0  0  0
 23 24  1  0  0  0  0
 25 26  2  0  0  0  0
 26 27  1  0  0  0  0
M  END
>  <CHROM.1>
-14.35068874,-68.88313548,-82.08119948,64.63156609,-78.00079456,50.37142028
79.07674608,15.28345196,-5.27811694,8.72029843,1.96243474,0.95095743,1.58004258

>  <Name>
ligand

>  <RI>
0

>  <Rbt.Current_Directory>
/home/itssahil/PROJECTS/Mol_Feturizer/Test_systems_manuscript/rnas/2ydh

>  <Rbt.Executable>
rbdock ($Id: //depot/dev/client3/rdock/2013.1/src/exe/rbdock.cxx#4 $)

>  <Rbt.Library>
libRbt.so (2013.1, Build901 2013/11/27)

>  <Rbt.Parameter_File>
/export/apps/rDock/src/rDock_2013.1_src/data/scripts/dock_solv.prm

>  <Rbt.Receptor>
prm/pocket_docking_4.prm

>  <SCORE>
-11.9178

>  <SCORE.INTER>
-11.9031

>  <SCORE.INTER.CONST>
1

>  <SCORE.INTER.POLAR>
0

>  <SCORE.INTER.ROT>
7

>  <SCORE.INTER.SOLV>
14.6477

>  <SCORE.INTER.VDW>
-21.0846

>  <SCORE.INTER.norm>
-0.440854

>  <SCORE.INTRA>
-0.0147092

>  <SCORE.INTRA.DIHEDRAL>
-3.72644

>  <SCORE.INTRA.DIHEDRAL.0>
9.75037

>  <SCORE.INTRA.POLAR>
0

>  <SCORE.INTRA.POLAR.0>
0

>  <SCORE.INTRA.REPUL>
0

>  <SCORE.INTRA.REPUL.0>
0

>  <SCORE.INTRA.SOLV>
0.203257

>  <SCORE.INTRA.SOLV.lig_0>
-48.4279

>  <SCORE.INTRA.VDW>
1.74688

>  <SCORE.INTRA.VDW.0>
-4.69037

>  <SCORE.INTRA.norm>
-0.000544786

>  <SCORE.RESTR>
0

>  <SCORE.RESTR.CAVITY>
0

>  <SCORE.RESTR.norm>
0

>  <SCORE.SYSTEM>
0

>  <SCORE.SYSTEM.CONST>
0

>  <SCORE.SYSTEM.DIHEDRAL>
0

>  <SCORE.SYSTEM.SOLV>
0

>  <SCORE.SYSTEM.norm>
0

>  <SCORE.heavy>
27

>  <SCORE.norm>
-0.441399

>  <RMSD>
5.123

$$$$
ligand
 OpenBabel02271912153D
libRbt.so/2013.1/901 2013/11/27
 27 29  0  0  0  0  0  0  0  0999 V2000
   12.8876   -7.7833   11.8086 N   0  0  0  0  0  0  0  0  0  0  0  0
   14.3360   -7.7265   11.4403 C   0  0  2  0  0  0  0  0  0  0  0  0
   14.9598   -9.1397   11.4184 C   0  0  0  0  0  0  0  0  0  0  0  0
   15.7270   -9.4843   10.5144 O   0  0  0  0  0  0  0  0  0  0  0  0
   15.0669   -6.7924   12.3989 C   0  0  0  0  0  0  0  0  0  0  0  0
   16.5239   -6.5426   12.0471 C   0  0  0  0  0  0  0  0  0  0  0  0
   16.7401   -5.5787   10.5236 S   0  0  2  0  0  0  0  0  0  0  0  0
   18.5440   -5.3760   10.5059 C   0  0  0  0  0  0  0  0  0  0  0  0
   16.1747   -3.9095   10.8893 C   0  0  0  0  0  0  0  0  0  0  0  0
   15.8723   -3.1934    9.5868 C   0  0  1  0  0  0  0  0  0  0  0  0
   16.8960   -3.3680    8.6195 O   0  0  0  0  0  0  0  0  0  0  0  0
   14.5888   -3.6912    8.9682 C   0  0  1  0  0  0  0  0  0  0  0  0
   13.4809   -3.0250    9.5023 O   0  0  0  0  0  0  0  0  0  0  0  0
   14.8091   -3.3482    7.5264 C   0  0  1  0  0  0  0  0  0  0  0  0
   14.3779   -2.0207    7.2938 O   0  0  0  0  0  0  0  0  0  0  0  0
   16.3167   -3.4594    7.3384 C   0  0  2  0  0  0  0  0  0  0  0  0
   14.7172   -9.9880   12.2964 O   0  0  0  0  0  0  0  0  0  0  0  0
   14.8230   -7.8149    4.7581 N   0  0  0  0  0  0  0  0  0  0  0  0
   14.0233   -6.7708    5.1996 C   0  0  0  0  0  0  0  0  0  0  0  0
   14.5715   -5.6918    5.8827 N   0  0  0  0  0  0  0  0  0  0  0  0
   15.8988   -5.6555    6.0997 C   0  0  0  0  0  0  0  0  0  0  0  0
   16.7170   -6.6942    5.6464 C   0  0  0  0  0  0  0  0  0  0  0  0
   16.1824   -7.7839    4.9842 C   0  0  0  0  0  0  0  0  0  0  0  0
   16.9604   -8.7711    4.5662 N   0  0  0  0  0  0  0  0  0  0  0  0
   17.9798   -6.4037    5.9780 N   0  0  0  0  0  0  0  0  0  0  0  0
   17.9848   -5.2158    6.6222 C   0  0  0  0  0  0  0  0  0  0  0  0
   16.7020   -4.7337    6.7030 N   0  0  0  0  0  0  0  0  0  0  0  0
  2  1  1  1  0  0  0
  2  3  1  0  0  0  0
  2  5  1  0  0  0  0
  3  4  1  0  0  0  0
  3 17  1  0  0  0  0
  5  6  1  0  0  0  0
  7  6  1  1  0  0  0
  7  8  1  0  0  0  0
  7  9  1  0  0  0  0
 10  9  1  1  0  0  0
 10 11  1  0  0  0  0
 10 12  1  0  0  0  0
 11 16  1  0  0  0  0
 12 13  1  1  0  0  0
 12 14  1  0  0  0  0
 14 15  1  1  0  0  0
 14 16  1  0  0  0  0
 16 27  1  1  0  0  0
 18 19  2  0  0  0  0
 18 23  1  0  0  0  0
 19 20  1  0  0  0  0
 20 21  2  0  0  0  0
 21 22  1  0  0  0  0
 21 27  1  0  0  0  0
 22 23  2  0  0  0  0
 22 25  1  0  0  0  0
 23 24  1  0  0  0  0
 25 26  2  0  0  0  0
 26 27  1  0  0  0  0
M  END
>  <CHROM.1>
137.13874667,-174.31181932,68.27980424,175.73676216,-160.56317890,-46.21931502
130.33855132,15.73591178,-5.88976045,8.66532577,-2.95066916,1.44255472,0.15176692

>  <Name>
ligand

>  <RI>
0

>  <Rbt.Current_Directory>
/home/itssahil/PROJECTS/Mol_Feturizer/Test_systems_manuscript/rnas/2ydh

>  <Rbt.Executable>
rbdock ($Id: //depot/dev/client3/rdock/2013.1/src/exe/rbdock.cxx#4 $)

>  <Rbt.Library>
libRbt.so (2013.1, Build901 2013/11/27)

>  <Rbt.Parameter_File>
/export/apps/rDock/src/rDock_2013.1_src/data/scripts/dock_solv.prm

>  <Rbt.Receptor>
prm/pocket_docking_4.prm

>  <SCORE>
-12.3535

>  <SCORE.INTER>
-11.1072

>  <SCORE.INTER.CONST>
1

>  <SCORE.INTER.POLAR>
0

>  <SCORE.INTER.ROT>
7

>  <SCORE.INTER.SOLV>
12.4792

>  <SCORE.INTER.VDW>
-19.8312

>  <SCORE.INTER.norm>
-0.411376

>  <SCORE.INTRA>
-1.24638

>  <SCORE.INTRA.DIHEDRAL>
-3.8173

>  <SCORE.INTRA.DIHEDRAL.0>
9.75037

>  <SCORE.INTRA.POLAR>
0

>  <SCORE.INTRA.POLAR.0>
0

>  <SCORE.INTRA.REPUL>
0

>  <SCORE.INTRA.REPUL.0>
0

>  <SCORE.INTRA.SOLV>
-1.23992

>  <SCORE.INTRA.SOLV.lig_0>
-48.4279

>  <SCORE.INTRA.VDW>
1.28223

>  <SCORE.INTRA.VDW.0>
-4.69037

>  <SCORE.INTRA.norm>
-0.0461623

>  <SCORE.RESTR>
0

>  <SCORE.RESTR.CAVITY>
0

>  <SCORE.RESTR.norm>
0

>  <SCORE.SYSTEM>
0

>  <SCORE.SYSTEM.CONST>
0

>  <SCORE.SYSTEM.DIHEDRAL>
0

>  <SCORE.SYSTEM.SOLV>
0

>  <SCORE.SYSTEM.norm>
0

>  <SCORE.heavy>
27

>  <SCORE.norm>
-0.457538

>  <RMSD>
5.124

$$$$
ligand
 OpenBabel02271912153D
libRbt.so/2013.1/901 2013/11/27
 27 29  0  0  0  0  0  0  0  0999 V2000
   12.6365   -6.6494   12.3269 N   0  0  0  0  0  0  0  0  0  0  0  0
   12.2536   -6.7997   10.8890 C   0  0  2  0  0  0  0  0  0  0  0  0
   11.6478   -8.1947   10.6180 C   0  0  0  0  0  0  0  0  0  0  0  0
   10.8995   -8.7354   11.4379 O   0  0  0  0  0  0  0  0  0  0  0  0
   13.4676   -6.5213   10.0091 C   0  0  0  0  0  0  0  0  0  0  0  0
   14.1428   -5.1854   10.2711 C   0  0  0  0  0  0  0  0  0  0  0  0
   15.9160   -5.3353   10.6321 S   0  0  2  0  0  0  0  0  0  0  0  0
   15.8613   -6.0486   12.3006 C   0  0  0  0  0  0  0  0  0  0  0  0
   16.5159   -3.6687   10.9520 C   0  0  0  0  0  0  0  0  0  0  0  0
   17.1246   -3.1097    9.6801 C   0  0  1  0  0  0  0  0  0  0  0  0
   17.6952   -4.1185    8.8610 O   0  0  0  0  0  0  0  0  0  0  0  0
   16.0938   -2.3910    8.8443 C   0  0  1  0  0  0  0  0  0  0  0  0
   15.9417   -1.0649    9.2628 O   0  0  0  0  0  0  0  0  0  0  0  0
   16.7095   -2.4828    7.4814 C   0  0  1  0  0  0  0  0  0  0  0  0
   17.5881   -1.3894    7.2943 O   0  0  0  0  0  0  0  0  0  0  0  0
   17.4867   -3.7927    7.5062 C   0  0  2  0  0  0  0  0  0  0  0  0
   11.8867   -8.8332    9.5765 O   0  0  0  0  0  0  0  0  0  0  0  0
   12.9506   -5.5501    5.4584 N   0  0  0  0  0  0  0  0  0  0  0  0
   13.1992   -4.3165    6.0423 C   0  0  0  0  0  0  0  0  0  0  0  0
   14.4551   -4.0085    6.5516 N   0  0  0  0  0  0  0  0  0  0  0  0
   15.4444   -4.9156    6.4574 C   0  0  0  0  0  0  0  0  0  0  0  0
   15.2101   -6.1561    5.8575 C   0  0  0  0  0  0  0  0  0  0  0  0
   13.9601   -6.4840    5.3658 C   0  0  0  0  0  0  0  0  0  0  0  0
   13.7401   -7.6651    4.8080 N   0  0  0  0  0  0  0  0  0  0  0  0
   16.3519   -6.8523    5.8826 N   0  0  0  0  0  0  0  0  0  0  0  0
   17.2979   -6.0910    6.4754 C   0  0  0  0  0  0  0  0  0  0  0  0
   16.7541   -4.8828    6.8348 N   0  0  0  0  0  0  0  0  0  0  0  0
  2  1  1  1  0  0  0
  2  3  1  0  0  0  0
  2  5  1  0  0  0  0
  3  4  1  0  0  0  0
  3 17  1  0  0  0  0
  5  6  1  0  0  0  0
  7  6  1  1  0  0  0
  7  8  1  0  0  0  0
  7  9  1  0  0  0  0
 10  9  1  1  0  0  0
 10 11  1  0  0  0  0
 10 12  1  0  0  0  0
 11 16  1  0  0  0  0
 12 13  1  1  0  0  0
 12 14  1  0  0  0  0
 14 15  1  1  0  0  0
 14 16  1  0  0  0  0
 16 27  1  1  0  0  0
 18 19  2  0  0  0  0
 18 23  1  0  0  0  0
 19 20  1  0  0  0  0
 20 21  2  0  0  0  0
 21 22  1  0  0  0  0
 21 27  1  0  0  0  0
 22 23  2  0  0  0  0
 22 25  1  0  0  0  0
 23 24  1  0  0  0  0
 25 26  2  0  0  0  0
 26 27  1  0  0  0  0
M  END
>  <CHROM.1>
38.51008945,-53.88890634,125.35237389,-72.33501996,-96.46438933,-30.58778028
105.06348883,14.98079756,-5.22267426,8.61082441,-2.78089940,-0.81793286,-1.66521775

>  <Name>
ligand

>  <RI>
0

>  <Rbt.Current_Directory>
/home/itssahil/PROJECTS/Mol_Feturizer/Test_systems_manuscript/rnas/2ydh

>  <Rbt.Executable>
rbdock ($Id: //depot/dev/client3/rdock/2013.1/src/exe/rbdock.cxx#4 $)

>  <Rbt.Library>
libRbt.so (2013.1, Build901 2013/11/27)

>  <Rbt.Parameter_File>
/export/apps/rDock/src/rDock_2013.1_src/data/scripts/dock_solv.prm

>  <Rbt.Receptor>
prm/pocket_docking_3.prm

>  <SCORE>
-9.25001

>  <SCORE.INTER>
-13.1845

>  <SCORE.INTER.CONST>
1

>  <SCORE.INTER.POLAR>
0

>  <SCORE.INTER.ROT>
7

>  <SCORE.INTER.SOLV>
16.7649

>  <SCORE.INTER.VDW>
-22.6446

>  <SCORE.INTER.norm>
-0.488313

>  <SCORE.INTRA>
3.93391

>  <SCORE.INTRA.DIHEDRAL>
3.57175

>  <SCORE.INTRA.DIHEDRAL.0>
9.75037

>  <SCORE.INTRA.POLAR>
0

>  <SCORE.INTRA.POLAR.0>
0

>  <SCORE.INTRA.REPUL>
0

>  <SCORE.INTRA.REPUL.0>
0

>  <SCORE.INTRA.SOLV>
1.0148

>  <SCORE.INTRA.SOLV.lig_0>
-48.4279

>  <SCORE.INTRA.VDW>
1.64064

>  <SCORE.INTRA.VDW.0>
-4.69037

>  <SCORE.INTRA.norm>
0.1457

>  <SCORE.RESTR>
0.000538556

>  <SCORE.RESTR.CAVITY>
0.000538556

>  <SCORE.RESTR.norm>
1.99465e-05

>  <SCORE.SYSTEM>
0

>  <SCORE.SYSTEM.CONST>
0

>  <SCORE.SYSTEM.DIHEDRAL>
0

>  <SCORE.SYSTEM.SOLV>
0

>  <SCORE.SYSTEM.norm>
0

>  <SCORE.heavy>
27

>  <SCORE.norm>
-0.342593

>  <RMSD>
5.146

$$$$
ligand
 OpenBabel02271912153D
libRbt.so/2013.1/901 2013/11/27
 27 29  0  0  0  0  0  0  0  0999 V2000
   14.9681   -8.6832   13.6942 N   0  0  0  0  0  0  0  0  0  0  0  0
   14.6376   -7.2532   13.9815 C   0  0  2  0  0  0  0  0  0  0  0  0
   13.2366   -7.1238   14.6195 C   0  0  0  0  0  0  0  0  0  0  0  0
   13.1020   -6.7911   15.8010 O   0  0  0  0  0  0  0  0  0  0  0  0
   14.7610   -6.4367   12.6995 C   0  0  0  0  0  0  0  0  0  0  0  0
   16.1677   -6.3683   12.1288 C   0  0  0  0  0  0  0  0  0  0  0  0
   16.2503   -5.5316   10.5195 S   0  0  2  0  0  0  0  0  0  0  0  0
   18.0457   -5.4870   10.2543 C   0  0  0  0  0  0  0  0  0  0  0  0
   15.8690   -3.7989   10.8232 C   0  0  0  0  0  0  0  0  0  0  0  0
   15.8025   -3.0674    9.4961 C   0  0  1  0  0  0  0  0  0  0  0  0
   16.9151   -3.3511    8.6620 O   0  0  0  0  0  0  0  0  0  0  0  0
   14.5618   -3.4402    8.7218 C   0  0  1  0  0  0  0  0  0  0  0  0
   13.4685   -2.6626    9.1176 O   0  0  0  0  0  0  0  0  0  0  0  0
   14.9913   -3.1330    7.3196 C   0  0  1  0  0  0  0  0  0  0  0  0
   14.7266   -1.7713    7.0407 O   0  0  0  0  0  0  0  0  0  0  0  0
   16.4918   -3.3952    7.3188 C   0  0  2  0  0  0  0  0  0  0  0  0
   12.1916   -7.3513   13.9826 O   0  0  0  0  0  0  0  0  0  0  0  0
   14.8177   -7.7744    4.8942 N   0  0  0  0  0  0  0  0  0  0  0  0
   14.0624   -6.6821    5.2955 C   0  0  0  0  0  0  0  0  0  0  0  0
   14.6552   -5.6032    5.9406 N   0  0  0  0  0  0  0  0  0  0  0  0
   15.9827   -5.6152    6.1594 C   0  0  0  0  0  0  0  0  0  0  0  0
   16.7565   -6.7032    5.7460 C   0  0  0  0  0  0  0  0  0  0  0  0
   16.1770   -7.7927    5.1223 C   0  0  0  0  0  0  0  0  0  0  0  0
   16.9129   -8.8264    4.7422 N   0  0  0  0  0  0  0  0  0  0  0  0
   18.0302   -6.4545    6.0699 N   0  0  0  0  0  0  0  0  0  0  0  0
   18.0848   -5.2453    6.6707 C   0  0  0  0  0  0  0  0  0  0  0  0
   16.8236   -4.7068    6.7309 N   0  0  0  0  0  0  0  0  0  0  0  0
  2  1  1  6  0  0  0
  2  3  1  0  0  0  0
  2  5  1  0  0  0  0
  3  4  1  0  0  0  0
  3 17  1  0  0  0  0
  5  6  1  0  0  0  0
  7  6  1  1  0  0  0
  7  8  1  0  0  0  0
  7  9  1  0  0  0  0
 10  9  1  1  0  0  0
 10 11  1  0  0  0  0
 10 12  1  0  0  0  0
 11 16  1  0  0  0  0
 12 13  1  1  0  0  0
 12 14  1  0  0  0  0
 14 15  1  1  0  0  0
 14 16  1  0  0  0  0
 16 27  1  1  0  0  0
 18 19  2  0  0  0  0
 18 23  1  0  0  0  0
 19 20  1  0  0  0  0
 20 21  2  0  0  0  0
 21 22  1  0  0  0  0
 21 27  1  0  0  0  0
 22 23  2  0  0  0  0
 22 25  1  0  0  0  0
 23 24  1  0  0  0  0
 25 26  2  0  0  0  0
 26 27  1  0  0  0  0
M  END
>  <CHROM.1>
110.49704110,-64.34009578,174.22763370,174.31192234,-175.08322741,-48.13844707
122.35308664,15.50076875,-5.55121171,9.19131577,-2.84205681,1.30391864,-0.16792988

>  <Name>
ligand

>  <RI>
0

>  <Rbt.Current_Directory>
/home/itssahil/PROJECTS/Mol_Feturizer/Test_systems_manuscript/rnas/2ydh

>  <Rbt.Executable>
rbdock ($Id: //depot/dev/client3/rdock/2013.1/src/exe/rbdock.cxx#4 $)

>  <Rbt.Library>
libRbt.so (2013.1, Build901 2013/11/27)

>  <Rbt.Parameter_File>
/export/apps/rDock/src/rDock_2013.1_src/data/scripts/dock_solv.prm

>  <Rbt.Receptor>
prm/pocket_docking_5.prm

>  <SCORE>
-13.3074

>  <SCORE.INTER>
-12.4454

>  <SCORE.INTER.CONST>
1

>  <SCORE.INTER.POLAR>
0

>  <SCORE.INTER.ROT>
7

>  <SCORE.INTER.SOLV>
13.8135

>  <SCORE.INTER.VDW>
-21.1681

>  <SCORE.INTER.norm>
-0.460939

>  <SCORE.INTRA>
-0.86213

>  <SCORE.INTRA.DIHEDRAL>
-5.59256

>  <SCORE.INTRA.DIHEDRAL.0>
9.75037

>  <SCORE.INTRA.POLAR>
0

>  <SCORE.INTRA.POLAR.0>
0

>  <SCORE.INTRA.REPUL>
0

>  <SCORE.INTRA.REPUL.0>
0

>  <SCORE.INTRA.SOLV>
-0.640865

>  <SCORE.INTRA.SOLV.lig_0>
-48.4279

>  <SCORE.INTRA.VDW>
2.25458

>  <SCORE.INTRA.VDW.0>
-4.69037

>  <SCORE.INTRA.norm>
-0.0319307

>  <SCORE.RESTR>
9.92809e-05

>  <SCORE.RESTR.CAVITY>
9.92809e-05

>  <SCORE.RESTR.norm>
3.67707e-06

>  <SCORE.SYSTEM>
0

>  <SCORE.SYSTEM.CONST>
0

>  <SCORE.SYSTEM.DIHEDRAL>
0

>  <SCORE.SYSTEM.SOLV>
0

>  <SCORE.SYSTEM.norm>
0

>  <SCORE.heavy>
27

>  <SCORE.norm>
-0.492866

>  <RMSD>
5.146

$$$$
ligand
 OpenBabel02271912153D
libRbt.so/2013.1/901 2013/11/27
 27 29  0  0  0  0  0  0  0  0999 V2000
   13.3180   -9.0385    9.5161 N   0  0  0  0  0  0  0  0  0  0  0  0
   14.7056   -8.5430    9.7724 C   0  0  2  0  0  0  0  0  0  0  0  0
   15.4862   -9.5204   10.6790 C   0  0  0  0  0  0  0  0  0  0  0  0
   16.6278   -9.8886   10.3860 O   0  0  0  0  0  0  0  0  0  0  0  0
   14.6416   -7.1391   10.3645 C   0  0  0  0  0  0  0  0  0  0  0  0
   15.9960   -6.5222   10.6711 C   0  0  0  0  0  0  0  0  0  0  0  0
   15.8804   -4.9095   11.4975 S   0  0  2  0  0  0  0  0  0  0  0  0
   15.0309   -5.3772   13.0322 C   0  0  0  0  0  0  0  0  0  0  0  0
   14.6081   -3.9790   10.6285 C   0  0  0  0  0  0  0  0  0  0  0  0
   15.2610   -3.1415    9.5454 C   0  0  1  0  0  0  0  0  0  0  0  0
   16.4425   -3.7385    9.0338 O   0  0  0  0  0  0  0  0  0  0  0  0
   14.3306   -2.9281    8.3764 C   0  0  1  0  0  0  0  0  0  0  0  0
   13.4823   -1.8386    8.6002 O   0  0  0  0  0  0  0  0  0  0  0  0
   15.3078   -2.6616    7.2723 C   0  0  1  0  0  0  0  0  0  0  0  0
   15.6157   -1.2807    7.2480 O   0  0  0  0  0  0  0  0  0  0  0  0
   16.5380   -3.4753    7.6531 C   0  0  2  0  0  0  0  0  0  0  0  0
   15.0054   -9.9808   11.7308 O   0  0  0  0  0  0  0  0  0  0  0  0
   13.9989   -7.3540    5.1297 N   0  0  0  0  0  0  0  0  0  0  0  0
   13.4516   -6.2350    5.7406 C   0  0  0  0  0  0  0  0  0  0  0  0
   14.2610   -5.3045    6.3812 N   0  0  0  0  0  0  0  0  0  0  0  0
   15.5941   -5.4865    6.3899 C   0  0  0  0  0  0  0  0  0  0  0  0
   16.1584   -6.6020    5.7647 C   0  0  0  0  0  0  0  0  0  0  0  0
   15.3636   -7.5468    5.1421 C   0  0  0  0  0  0  0  0  0  0  0  0
   15.9023   -8.6080    4.5605 N   0  0  0  0  0  0  0  0  0  0  0  0
   17.4863   -6.5320    5.9088 N   0  0  0  0  0  0  0  0  0  0  0  0
   17.7774   -5.4086    6.6010 C   0  0  0  0  0  0  0  0  0  0  0  0
   16.6152   -4.7439    6.9043 N   0  0  0  0  0  0  0  0  0  0  0  0
  2  1  1  1  0  0  0
  2  3  1  0  0  0  0
  2  5  1  0  0  0  0
  3  4  1  0  0  0  0
  3 17  1  0  0  0  0
  5  6  1  0  0  0  0
  7  6  1  6  0  0  0
  7  8  1  0  0  0  0
  7  9  1  0  0  0  0
 10  9  1  1  0  0  0
 10 11  1  0  0  0  0
 10 12  1  0  0  0  0
 11 16  1  0  0  0  0
 12 13  1  1  0  0  0
 12 14  1  0  0  0  0
 14 15  1  1  0  0  0
 14 16  1  0  0  0  0
 16 27  1  6  0  0  0
 18 19  2  0  0  0  0
 18 23  1  0  0  0  0
 19 20  1  0  0  0  0
 20 21  2  0  0  0  0
 21 22  1  0  0  0  0
 21 27  1  0  0  0  0
 22 23  2  0  0  0  0
 22 25  1  0  0  0  0
 23 24  1  0  0  0  0
 25 26  2  0  0  0  0
 26 27  1  0  0  0  0
M  END
>  <CHROM.1>
131.80070695,179.99617249,-175.32645882,61.93256224,-92.86798768,29.90426765
90.46659998,15.38416081,-5.77880260,8.54983113,-1.94525634,1.51731150,-0.21513834

>  <Name>
ligand

>  <RI>
0

>  <Rbt.Current_Directory>
/home/itssahil/PROJECTS/Mol_Feturizer/Test_systems_manuscript/rnas/2ydh

>  <Rbt.Executable>
rbdock ($Id: //depot/dev/client3/rdock/2013.1/src/exe/rbdock.cxx#4 $)

>  <Rbt.Library>
libRbt.so (2013.1, Build901 2013/11/27)

>  <Rbt.Parameter_File>
/export/apps/rDock/src/rDock_2013.1_src/data/scripts/dock_solv.prm

>  <Rbt.Receptor>
prm/pocket_docking_4.prm

>  <SCORE>
-11.0947

>  <SCORE.INTER>
-11.4926

>  <SCORE.INTER.CONST>
1

>  <SCORE.INTER.POLAR>
0

>  <SCORE.INTER.ROT>
7

>  <SCORE.INTER.SOLV>
15.9091

>  <SCORE.INTER.VDW>
-21.2314

>  <SCORE.INTER.norm>
-0.425652

>  <SCORE.INTRA>
0.397656

>  <SCORE.INTRA.DIHEDRAL>
-2.07329

>  <SCORE.INTRA.DIHEDRAL.0>
9.75037

>  <SCORE.INTRA.POLAR>
0

>  <SCORE.INTRA.POLAR.0>
0

>  <SCORE.INTRA.REPUL>
0

>  <SCORE.INTRA.REPUL.0>
0

>  <SCORE.INTRA.SOLV>
-1.39235

>  <SCORE.INTRA.SOLV.lig_0>
-48.4279

>  <SCORE.INTRA.VDW>
2.13048

>  <SCORE.INTRA.VDW.0>
-4.69037

>  <SCORE.INTRA.norm>
0.014728

>  <SCORE.RESTR>
0.000232799

>  <SCORE.RESTR.CAVITY>
0.000232799

>  <SCORE.RESTR.norm>
8.6222e-06

>  <SCORE.SYSTEM>
0

>  <SCORE.SYSTEM.CONST>
0

>  <SCORE.SYSTEM.DIHEDRAL>
0

>  <SCORE.SYSTEM.SOLV>
0

>  <SCORE.SYSTEM.norm>
0

>  <SCORE.heavy>
27

>  <SCORE.norm>
-0.410916

>  <RMSD>
5.152

$$$$
ligand
 OpenBabel02271912153D
libRbt.so/2013.1/901 2013/11/27
 27 29  0  0  0  0  0  0  0  0999 V2000
   13.3642   -8.0551    8.6412 N   0  0  0  0  0  0  0  0  0  0  0  0
   14.5412   -7.7748    9.5202 C   0  0  2  0  0  0  0  0  0  0  0  0
   14.9294   -9.0228   10.3439 C   0  0  0  0  0  0  0  0  0  0  0  0
   16.0942   -9.2091   10.7090 O   0  0  0  0  0  0  0  0  0  0  0  0
   14.2358   -6.5739   10.4091 C   0  0  0  0  0  0  0  0  0  0  0  0
   15.4186   -6.0747   11.2221 C   0  0  0  0  0  0  0  0  0  0  0  0
   16.6661   -5.2145   10.2217 S   0  0  2  0  0  0  0  0  0  0  0  0
   18.1187   -5.3533   11.3017 C   0  0  0  0  0  0  0  0  0  0  0  0
   16.2835   -3.4587   10.3249 C   0  0  0  0  0  0  0  0  0  0  0  0
   15.5763   -3.0312    9.0530 C   0  0  1  0  0  0  0  0  0  0  0  0
   16.3283   -3.3275    7.8864 O   0  0  0  0  0  0  0  0  0  0  0  0
   14.2410   -3.7190    8.9058 C   0  0  1  0  0  0  0  0  0  0  0  0
   13.2410   -3.0315    9.6014 O   0  0  0  0  0  0  0  0  0  0  0  0
   14.0414   -3.6514    7.4224 C   0  0  1  0  0  0  0  0  0  0  0  0
   13.4182   -2.4244    7.0933 O   0  0  0  0  0  0  0  0  0  0  0  0
   15.4518   -3.7033    6.8493 C   0  0  2  0  0  0  0  0  0  0  0  0
   14.0985   -9.8906   10.6692 O   0  0  0  0  0  0  0  0  0  0  0  0
   13.9066   -8.1392    4.4423 N   0  0  0  0  0  0  0  0  0  0  0  0
   13.1503   -7.0067    4.7069 C   0  0  0  0  0  0  0  0  0  0  0  0
   13.7046   -5.9171    5.3678 N   0  0  0  0  0  0  0  0  0  0  0  0
   14.9978   -5.9590    5.7370 C   0  0  0  0  0  0  0  0  0  0  0  0
   15.7741   -7.0884    5.4624 C   0  0  0  0  0  0  0  0  0  0  0  0
   15.2300   -8.1881    4.8246 C   0  0  0  0  0  0  0  0  0  0  0  0
   15.9669   -9.2604    4.5764 N   0  0  0  0  0  0  0  0  0  0  0  0
   17.0112   -6.8636    5.9185 N   0  0  0  0  0  0  0  0  0  0  0  0
   17.0408   -5.6295    6.4684 C   0  0  0  0  0  0  0  0  0  0  0  0
   15.8007   -5.0507    6.3607 N   0  0  0  0  0  0  0  0  0  0  0  0
  2  1  1  1  0  0  0
  2  3  1  0  0  0  0
  2  5  1  0  0  0  0
  3  4  1  0  0  0  0
  3 17  1  0  0  0  0
  5  6  1  0  0  0  0
  7  6  1  1  0  0  0
  7  8  1  0  0  0  0
  7  9  1  0  0  0  0
 10  9  1  1  0  0  0
 10 11  1  0  0  0  0
 10 12  1  0  0  0  0
 11 16  1  0  0  0  0
 12 13  1  1  0  0  0
 12 14  1  0  0  0  0
 14 15  1  1  0  0  0
 14 16  1  0  0  0  0
 16 27  1  1  0  0  0
 18 19  2  0  0  0  0
 18 23  1  0  0  0  0
 19 20  1  0  0  0  0
 20 21  2  0  0  0  0
 21 22  1  0  0  0  0
 21 27  1  0  0  0  0
 22 23  2  0  0  0  0
 22 25  1  0  0  0  0
 23 24  1  0  0  0  0
 25 26  2  0  0  0  0
 26 27  1  0  0  0  0
M  END
>  <CHROM.1>
151.49644894,-172.43278606,72.61270713,-158.99878503,-101.61859327,-55.98607226
155.26738968,15.20347192,-5.95855742,8.12096224,-2.70294231,-1.39794653,-0.04820562

>  <Name>
ligand

>  <RI>
0

>  <Rbt.Current_Directory>
/home/itssahil/PROJECTS/Mol_Feturizer/Test_systems_manuscript/rnas/2ydh

>  <Rbt.Executable>
rbdock ($Id: //depot/dev/client3/rdock/2013.1/src/exe/rbdock.cxx#4 $)

>  <Rbt.Library>
libRbt.so (2013.1, Build901 2013/11/27)

>  <Rbt.Parameter_File>
/export/apps/rDock/src/rDock_2013.1_src/data/scripts/dock_solv.prm

>  <Rbt.Receptor>
prm/pocket_docking_3.prm

>  <SCORE>
-8.49117

>  <SCORE.INTER>
-7.60316

>  <SCORE.INTER.CONST>
1

>  <SCORE.INTER.POLAR>
0

>  <SCORE.INTER.ROT>
7

>  <SCORE.INTER.SOLV>
16.135

>  <SCORE.INTER.VDW>
-18.7138

>  <SCORE.INTER.norm>
-0.281599

>  <SCORE.INTRA>
-0.90669

>  <SCORE.INTRA.DIHEDRAL>
-1.16073

>  <SCORE.INTRA.DIHEDRAL.0>
9.75037

>  <SCORE.INTRA.POLAR>
0

>  <SCORE.INTRA.POLAR.0>
0

>  <SCORE.INTRA.REPUL>
0

>  <SCORE.INTRA.REPUL.0>
0

>  <SCORE.INTRA.SOLV>
-0.808242

>  <SCORE.INTRA.SOLV.lig_0>
-48.4279

>  <SCORE.INTRA.VDW>
0.0777951

>  <SCORE.INTRA.VDW.0>
-4.69037

>  <SCORE.INTRA.norm>
-0.0335811

>  <SCORE.RESTR>
0.0186827

>  <SCORE.RESTR.CAVITY>
0.0186827

>  <SCORE.RESTR.norm>
0.000691952

>  <SCORE.SYSTEM>
0

>  <SCORE.SYSTEM.CONST>
0

>  <SCORE.SYSTEM.DIHEDRAL>
0

>  <SCORE.SYSTEM.SOLV>
0

>  <SCORE.SYSTEM.norm>
0

>  <SCORE.heavy>
27

>  <SCORE.norm>
-0.314488

>  <RMSD>
5.154

$$$$
ligand
 OpenBabel02271912153D
libRbt.so/2013.1/901 2013/11/27
 27 29  0  0  0  0  0  0  0  0999 V2000
   13.5672   -9.2887   12.0887 N   0  0  0  0  0  0  0  0  0  0  0  0
   14.5098   -8.5378   12.9743 C   0  0  2  0  0  0  0  0  0  0  0  0
   15.0153   -9.4289   14.1306 C   0  0  0  0  0  0  0  0  0  0  0  0
   14.4409  -10.4824   14.4220 O   0  0  0  0  0  0  0  0  0  0  0  0
   13.8284   -7.2716   13.4824 C   0  0  0  0  0  0  0  0  0  0  0  0
   13.3369   -6.3382   12.3886 C   0  0  0  0  0  0  0  0  0  0  0  0
   14.6793   -5.6288   11.3927 S   0  0  2  0  0  0  0  0  0  0  0  0
   15.4363   -4.5038   12.5997 C   0  0  0  0  0  0  0  0  0  0  0  0
   13.9094   -4.4830   10.2376 C   0  0  0  0  0  0  0  0  0  0  0  0
   14.9920   -3.7942    9.4290 C   0  0  1  0  0  0  0  0  0  0  0  0
   15.9905   -4.6958    8.9770 O   0  0  0  0  0  0  0  0  0  0  0  0
   14.4215   -3.1162    8.2072 C   0  0  1  0  0  0  0  0  0  0  0  0
   13.9464   -1.8375    8.5165 O   0  0  0  0  0  0  0  0  0  0  0  0
   15.6235   -3.0680    7.3139 C   0  0  1  0  0  0  0  0  0  0  0  0
   16.3613   -1.8929    7.5915 O   0  0  0  0  0  0  0  0  0  0  0  0
   16.4271   -4.3044    7.6959 C   0  0  2  0  0  0  0  0  0  0  0  0
   16.0089   -9.1280   14.8173 O   0  0  0  0  0  0  0  0  0  0  0  0
   13.0686   -7.3171    4.9568 N   0  0  0  0  0  0  0  0  0  0  0  0
   12.7661   -6.2776    5.8242 C   0  0  0  0  0  0  0  0  0  0  0  0
   13.7729   -5.5846    6.4858 N   0  0  0  0  0  0  0  0  0  0  0  0
   15.0573   -5.9183    6.2639 C   0  0  0  0  0  0  0  0  0  0  0  0
   15.3752   -6.9539    5.3806 C   0  0  0  0  0  0  0  0  0  0  0  0
   14.3830   -7.6658    4.7320 C   0  0  0  0  0  0  0  0  0  0  0  0
   14.6889   -8.6535    3.9041 N   0  0  0  0  0  0  0  0  0  0  0  0
   16.7071   -7.0667    5.3344 N   0  0  0  0  0  0  0  0  0  0  0  0
   17.2387   -6.1352    6.1565 C   0  0  0  0  0  0  0  0  0  0  0  0
   16.2295   -5.4094    6.7389 N   0  0  0  0  0  0  0  0  0  0  0  0
  2  1  1  1  0  0  0
  2  3  1  0  0  0  0
  2  5  1  0  0  0  0
  3  4  1  0  0  0  0
  3 17  1  0  0  0  0
  5  6  1  0  0  0  0
  7  6  1  1  0  0  0
  7  8  1  0  0  0  0
  7  9  1  0  0  0  0
 10  9  1  6  0  0  0
 10 11  1  0  0  0  0
 10 12  1  0  0  0  0
 11 16  1  0  0  0  0
 12 13  1  1  0  0  0
 12 14  1  0  0  0  0
 14 15  1  1  0  0  0
 14 16  1  0  0  0  0
 16 27  1  6  0  0  0
 18 19  2  0  0  0  0
 18 23  1  0  0  0  0
 19 20  1  0  0  0  0
 20 21  2  0  0  0  0
 21 22  1  0  0  0  0
 21 27  1  0  0  0  0
 22 23  2  0  0  0  0
 22 25  1  0  0  0  0
 23 24  1  0  0  0  0
 25 26  2  0  0  0  0
 26 27  1  0  0  0  0
M  END
>  <CHROM.1>
-16.06588031,-57.62320803,-65.03171764,-70.16054405,176.69397444,44.20013348
68.96665608,14.87794816,-6.05426062,9.19111793,2.14648050,1.46158729,1.35262101

>  <Name>
ligand

>  <RI>
0

>  <Rbt.Current_Directory>
/home/itssahil/PROJECTS/Mol_Feturizer/Test_systems_manuscript/rnas/2ydh

>  <Rbt.Executable>
rbdock ($Id: //depot/dev/client3/rdock/2013.1/src/exe/rbdock.cxx#4 $)

>  <Rbt.Library>
libRbt.so (2013.1, Build901 2013/11/27)

>  <Rbt.Parameter_File>
/export/apps/rDock/src/rDock_2013.1_src/data/scripts/dock_solv.prm

>  <Rbt.Receptor>
prm/pocket_docking_7.prm

>  <SCORE>
-13.3743

>  <SCORE.INTER>
-12.3777

>  <SCORE.INTER.CONST>
1

>  <SCORE.INTER.POLAR>
0

>  <SCORE.INTER.ROT>
7

>  <SCORE.INTER.SOLV>
13.0979

>  <SCORE.INTER.VDW>
-20.8844

>  <SCORE.INTER.norm>
-0.458434

>  <SCORE.INTRA>
-0.996531

>  <SCORE.INTRA.DIHEDRAL>
-5.70126

>  <SCORE.INTRA.DIHEDRAL.0>
9.75037

>  <SCORE.INTRA.POLAR>
0

>  <SCORE.INTRA.POLAR.0>
0

>  <SCORE.INTRA.REPUL>
0

>  <SCORE.INTRA.REPUL.0>
0

>  <SCORE.INTRA.SOLV>
-0.145078

>  <SCORE.INTRA.SOLV.lig_0>
-48.4279

>  <SCORE.INTRA.VDW>
1.92664

>  <SCORE.INTRA.VDW.0>
-4.69037

>  <SCORE.INTRA.norm>
-0.0369086

>  <SCORE.RESTR>
0

>  <SCORE.RESTR.CAVITY>
0

>  <SCORE.RESTR.norm>
0

>  <SCORE.SYSTEM>
0

>  <SCORE.SYSTEM.CONST>
0

>  <SCORE.SYSTEM.DIHEDRAL>
0

>  <SCORE.SYSTEM.SOLV>
0

>  <SCORE.SYSTEM.norm>
0

>  <SCORE.heavy>
27

>  <SCORE.norm>
-0.495343

>  <RMSD>
5.167

$$$$
ligand
 OpenBabel02271912153D
libRbt.so/2013.1/901 2013/11/27
 27 29  0  0  0  0  0  0  0  0999 V2000
   16.8240   -8.9912   13.4039 N   0  0  0  0  0  0  0  0  0  0  0  0
   15.3311   -8.9227   13.3474 C   0  0  2  0  0  0  0  0  0  0  0  0
   14.7740   -9.8447   12.2401 C   0  0  0  0  0  0  0  0  0  0  0  0
   15.3514   -9.9588   11.1547 O   0  0  0  0  0  0  0  0  0  0  0  0
   14.8967   -7.4732   13.1585 C   0  0  0  0  0  0  0  0  0  0  0  0
   13.3930   -7.2564   13.1926 C   0  0  0  0  0  0  0  0  0  0  0  0
   12.7646   -6.3522   11.7489 S   0  0  2  0  0  0  0  0  0  0  0  0
   11.0118   -6.8227   11.7930 C   0  0  0  0  0  0  0  0  0  0  0  0
   13.3570   -7.2332   10.2954 C   0  0  0  0  0  0  0  0  0  0  0  0
   14.7960   -6.8350   10.0283 C   0  0  1  0  0  0  0  0  0  0  0  0
   15.5122   -7.8298    9.3130 O   0  0  0  0  0  0  0  0  0  0  0  0
   14.8759   -5.5636    9.2190 C   0  0  1  0  0  0  0  0  0  0  0  0
   14.7977   -4.4362   10.0433 O   0  0  0  0  0  0  0  0  0  0  0  0
   16.2275   -5.7054    8.5880 C   0  0  1  0  0  0  0  0  0  0  0  0
   17.2064   -5.1802    9.4644 O   0  0  0  0  0  0  0  0  0  0  0  0
   16.4109   -7.2086    8.4234 C   0  0  2  0  0  0  0  0  0  0  0  0
   13.7277  -10.5030   12.3861 O   0  0  0  0  0  0  0  0  0  0  0  0
   13.2764   -6.9885    4.1826 N   0  0  0  0  0  0  0  0  0  0  0  0
   13.1235   -6.3216    5.3894 C   0  0  0  0  0  0  0  0  0  0  0  0
   14.0361   -6.4981    6.4226 N   0  0  0  0  0  0  0  0  0  0  0  0
   15.0903   -7.3134    6.2379 C   0  0  0  0  0  0  0  0  0  0  0  0
   15.2633   -7.9790    5.0211 C   0  0  0  0  0  0  0  0  0  0  0  0
   14.3519   -7.8293    3.9921 C   0  0  0  0  0  0  0  0  0  0  0  0
   14.5143   -8.4707    2.8446 N   0  0  0  0  0  0  0  0  0  0  0  0
   16.3844   -8.7043    5.0996 N   0  0  0  0  0  0  0  0  0  0  0  0
   16.9247   -8.5155    6.3238 C   0  0  0  0  0  0  0  0  0  0  0  0
   16.1374   -7.6511    7.0431 N   0  0  0  0  0  0  0  0  0  0  0  0
  2  1  1  6  0  0  0
  2  3  1  0  0  0  0
  2  5  1  0  0  0  0
  3  4  1  0  0  0  0
  3 17  1  0  0  0  0
  5  6  1  0  0  0  0
  7  6  1  1  0  0  0
  7  8  1  0  0  0  0
  7  9  1  0  0  0  0
 10  9  1  6  0  0  0
 10 11  1  0  0  0  0
 10 12  1  0  0  0  0
 11 16  1  0  0  0  0
 12 13  1  1  0  0  0
 12 14  1  0  0  0  0
 14 15  1  1  0  0  0
 14 16  1  0  0  0  0
 16 27  1  6  0  0  0
 18 19  2  0  0  0  0
 18 23  1  0  0  0  0
 19 20  1  0  0  0  0
 20 21  2  0  0  0  0
 21 22  1  0  0  0  0
 21 27  1  0  0  0  0
 22 23  2  0  0  0  0
 22 25  1  0  0  0  0
 23 24  1  0  0  0  0
 25 26  2  0  0  0  0
 26 27  1  0  0  0  0
M  END
>  <CHROM.1>
-38.67629440,-175.51942072,-127.29678084,159.53937614,-80.45294986,154.98061997
72.70741589,14.72334328,-7.43710504,9.14171152,-1.70202957,0.78789377,-1.41750701

>  <Name>
ligand

>  <RI>
0

>  <Rbt.Current_Directory>
/home/itssahil/PROJECTS/Mol_Feturizer/Test_systems_manuscript/rnas/2ydh

>  <Rbt.Executable>
rbdock ($Id: //depot/dev/client3/rdock/2013.1/src/exe/rbdock.cxx#4 $)

>  <Rbt.Library>
libRbt.so (2013.1, Build901 2013/11/27)

>  <Rbt.Parameter_File>
/export/apps/rDock/src/rDock_2013.1_src/data/scripts/dock_solv.prm

>  <Rbt.Receptor>
prm/pocket_docking_4.prm

>  <SCORE>
-5.95213

>  <SCORE.INTER>
-6.30074

>  <SCORE.INTER.CONST>
1

>  <SCORE.INTER.POLAR>
0

>  <SCORE.INTER.ROT>
7

>  <SCORE.INTER.SOLV>
14.9886

>  <SCORE.INTER.VDW>
-17.4634

>  <SCORE.INTER.norm>
-0.233361

>  <SCORE.INTRA>
0.348609

>  <SCORE.INTRA.DIHEDRAL>
1.63984

>  <SCORE.INTRA.DIHEDRAL.0>
9.75037

>  <SCORE.INTRA.POLAR>
0

>  <SCORE.INTRA.POLAR.0>
0

>  <SCORE.INTRA.REPUL>
0

>  <SCORE.INTRA.REPUL.0>
0

>  <SCORE.INTRA.SOLV>
-1.02552

>  <SCORE.INTRA.SOLV.lig_0>
-48.4279

>  <SCORE.INTRA.VDW>
0.0414486

>  <SCORE.INTRA.VDW.0>
-4.69037

>  <SCORE.INTRA.norm>
0.0129114

>  <SCORE.RESTR>
0

>  <SCORE.RESTR.CAVITY>
0

>  <SCORE.RESTR.norm>
0

>  <SCORE.SYSTEM>
0

>  <SCORE.SYSTEM.CONST>
0

>  <SCORE.SYSTEM.DIHEDRAL>
0

>  <SCORE.SYSTEM.SOLV>
0

>  <SCORE.SYSTEM.norm>
0

>  <SCORE.heavy>
27

>  <SCORE.norm>
-0.220449

>  <RMSD>
5.175

$$$$
ligand
 OpenBabel02271912153D
libRbt.so/2013.1/901 2013/11/27
 27 29  0  0  0  0  0  0  0  0999 V2000
   12.6124   -8.2630    8.7277 N   0  0  0  0  0  0  0  0  0  0  0  0
   13.5703   -8.2572    9.8763 C   0  0  2  0  0  0  0  0  0  0  0  0
   13.8987   -9.6959   10.3334 C   0  0  0  0  0  0  0  0  0  0  0  0
   13.0023  -10.4888   10.6375 O   0  0  0  0  0  0  0  0  0  0  0  0
   12.9981   -7.4124   11.0096 C   0  0  0  0  0  0  0  0  0  0  0  0
   13.1162   -5.9121   10.7988 C   0  0  0  0  0  0  0  0  0  0  0  0
   14.8292   -5.3120   10.8503 S   0  0  2  0  0  0  0  0  0  0  0  0
   15.2581   -5.6644   12.5787 C   0  0  0  0  0  0  0  0  0  0  0  0
   14.7423   -3.5142   10.8404 C   0  0  0  0  0  0  0  0  0  0  0  0
   15.0736   -3.0109    9.4484 C   0  0  1  0  0  0  0  0  0  0  0  0
   16.1297   -3.7405    8.8430 O   0  0  0  0  0  0  0  0  0  0  0  0
   13.8820   -3.1099    8.5274 C   0  0  1  0  0  0  0  0  0  0  0  0
   13.0546   -1.9890    8.6522 O   0  0  0  0  0  0  0  0  0  0  0  0
   14.5532   -3.1664    7.1890 C   0  0  1  0  0  0  0  0  0  0  0  0
   14.7726   -1.8483    6.7237 O   0  0  0  0  0  0  0  0  0  0  0  0
   15.8801   -3.8630    7.4618 C   0  0  2  0  0  0  0  0  0  0  0  0
   15.0671  -10.1161   10.4209 O   0  0  0  0  0  0  0  0  0  0  0  0
   13.5140   -7.7231    4.7489 N   0  0  0  0  0  0  0  0  0  0  0  0
   13.1595   -6.3831    4.8072 C   0  0  0  0  0  0  0  0  0  0  0  0
   13.8824   -5.4872    5.5859 N   0  0  0  0  0  0  0  0  0  0  0  0
   14.9506   -5.9271    6.2755 C   0  0  0  0  0  0  0  0  0  0  0  0
   15.3267   -7.2718    6.2126 C   0  0  0  0  0  0  0  0  0  0  0  0
   14.6041   -8.1784    5.4590 C   0  0  0  0  0  0  0  0  0  0  0  0
   14.9580   -9.4539    5.4112 N   0  0  0  0  0  0  0  0  0  0  0  0
   16.4163   -7.4348    6.9711 N   0  0  0  0  0  0  0  0  0  0  0  0
   16.7406   -6.2374    7.5071 C   0  0  0  0  0  0  0  0  0  0  0  0
   15.8445   -5.2881    7.0826 N   0  0  0  0  0  0  0  0  0  0  0  0
  2  1  1  6  0  0  0
  2  3  1  0  0  0  0
  2  5  1  0  0  0  0
  3  4  1  0  0  0  0
  3 17  1  0  0  0  0
  5  6  1  0  0  0  0
  7  6  1  1  0  0  0
  7  8  1  0  0  0  0
  7  9  1  0  0  0  0
 10  9  1  1  0  0  0
 10 11  1  0  0  0  0
 10 12  1  0  0  0  0
 11 16  1  0  0  0  0
 12 13  1  6  0  0  0
 12 14  1  0  0  0  0
 14 15  1  1  0  0  0
 14 16  1  0  0  0  0
 16 27  1  1  0  0  0
 18 19  2  0  0  0  0
 18 23  1  0  0  0  0
 19 20  1  0  0  0  0
 20 21  2  0  0  0  0
 21 22  1  0  0  0  0
 21 27  1  0  0  0  0
 22 23  2  0  0  0  0
 22 25  1  0  0  0  0
 23 24  1  0  0  0  0
 25 26  2  0  0  0  0
 26 27  1  0  0  0  0
M  END
>  <CHROM.1>
-54.47630773,-77.14843834,-67.93915286,-65.17627678,-102.55352156,-39.67960471
135.52163824,14.51701274,-6.03901702,8.45324326,2.68710956,-1.43821212,-2.19202200

>  <Name>
ligand

>  <RI>
0

>  <Rbt.Current_Directory>
/home/itssahil/PROJECTS/Mol_Feturizer/Test_systems_manuscript/rnas/2ydh

>  <Rbt.Executable>
rbdock ($Id: //depot/dev/client3/rdock/2013.1/src/exe/rbdock.cxx#4 $)

>  <Rbt.Library>
libRbt.so (2013.1, Build901 2013/11/27)

>  <Rbt.Parameter_File>
/export/apps/rDock/src/rDock_2013.1_src/data/scripts/dock_solv.prm

>  <Rbt.Receptor>
prm/pocket_docking_2.prm

>  <SCORE>
-2.76922

>  <SCORE.INTER>
-4.54923

>  <SCORE.INTER.CONST>
1

>  <SCORE.INTER.POLAR>
0

>  <SCORE.INTER.ROT>
7

>  <SCORE.INTER.SOLV>
21.4425

>  <SCORE.INTER.VDW>
-18.447

>  <SCORE.INTER.norm>
-0.16849

>  <SCORE.INTRA>
0.457724

>  <SCORE.INTRA.DIHEDRAL>
-1.19838

>  <SCORE.INTRA.DIHEDRAL.0>
9.75037

>  <SCORE.INTRA.POLAR>
0

>  <SCORE.INTRA.POLAR.0>
0

>  <SCORE.INTRA.REPUL>
0

>  <SCORE.INTRA.REPUL.0>
0

>  <SCORE.INTRA.SOLV>
0.00844103

>  <SCORE.INTRA.SOLV.lig_0>
-48.4279

>  <SCORE.INTRA.VDW>
1.0527

>  <SCORE.INTRA.VDW.0>
-4.69037

>  <SCORE.INTRA.norm>
0.0169527

>  <SCORE.RESTR>
1.32228

>  <SCORE.RESTR.CAVITY>
1.32228

>  <SCORE.RESTR.norm>
0.0489735

>  <SCORE.SYSTEM>
0

>  <SCORE.SYSTEM.CONST>
0

>  <SCORE.SYSTEM.DIHEDRAL>
0

>  <SCORE.SYSTEM.SOLV>
0

>  <SCORE.SYSTEM.norm>
0

>  <SCORE.heavy>
27

>  <SCORE.norm>
-0.102564

>  <RMSD>
5.184

$$$$
ligand
 OpenBabel02271912153D
libRbt.so/2013.1/901 2013/11/27
 27 29  0  0  0  0  0  0  0  0999 V2000
   16.0859   -8.7908   13.2394 N   0  0  0  0  0  0  0  0  0  0  0  0
   15.8953   -7.3106   13.1428 C   0  0  2  0  0  0  0  0  0  0  0  0
   14.3981   -6.9370   13.2159 C   0  0  0  0  0  0  0  0  0  0  0  0
   13.5230   -7.7404   12.8788 O   0  0  0  0  0  0  0  0  0  0  0  0
   16.5523   -6.7969   11.8660 C   0  0  0  0  0  0  0  0  0  0  0  0
   16.3902   -5.3045   11.6304 C   0  0  0  0  0  0  0  0  0  0  0  0
   17.3837   -4.6842   10.2428 S   0  0  2  0  0  0  0  0  0  0  0  0
   19.0354   -4.6583   10.9957 C   0  0  0  0  0  0  0  0  0  0  0  0
   17.0097   -2.9302   10.0893 C   0  0  0  0  0  0  0  0  0  0  0  0
   15.8459   -2.7548    9.1325 C   0  0  1  0  0  0  0  0  0  0  0  0
   16.2212   -2.9491    7.7776 O   0  0  0  0  0  0  0  0  0  0  0  0
   14.7352   -3.7328    9.4290 C   0  0  1  0  0  0  0  0  0  0  0  0
   13.8873   -3.2440   10.4284 O   0  0  0  0  0  0  0  0  0  0  0  0
   14.0506   -3.8070    8.0982 C   0  0  1  0  0  0  0  0  0  0  0  0
   13.0863   -2.7748    8.0140 O   0  0  0  0  0  0  0  0  0  0  0  0
   15.1664   -3.5777    7.0869 C   0  0  2  0  0  0  0  0  0  0  0  0
   14.0087   -5.8216   13.6077 O   0  0  0  0  0  0  0  0  0  0  0  0
   13.9763   -8.1238    4.6837 N   0  0  0  0  0  0  0  0  0  0  0  0
   13.1049   -7.1284    5.1013 C   0  0  0  0  0  0  0  0  0  0  0  0
   13.5780   -5.9871    5.7377 N   0  0  0  0  0  0  0  0  0  0  0  0
   14.9014   -5.8422    5.9320 C   0  0  0  0  0  0  0  0  0  0  0  0
   15.7905   -6.8313    5.5021 C   0  0  0  0  0  0  0  0  0  0  0  0
   15.3321   -7.9816    4.8868 C   0  0  0  0  0  0  0  0  0  0  0  0
   16.1778   -8.9211    4.4909 N   0  0  0  0  0  0  0  0  0  0  0  0
   17.0317   -6.4339    5.8031 N   0  0  0  0  0  0  0  0  0  0  0  0
   16.9543   -5.2267    6.4054 C   0  0  0  0  0  0  0  0  0  0  0  0
   15.6396   -4.8409    6.4900 N   0  0  0  0  0  0  0  0  0  0  0  0
  2  1  1  6  0  0  0
  2  3  1  0  0  0  0
  2  5  1  0  0  0  0
  3  4  1  0  0  0  0
  3 17  1  0  0  0  0
  5  6  1  0  0  0  0
  7  6  1  1  0  0  0
  7  8  1  0  0  0  0
  7  9  1  0  0  0  0
 10  9  1  1  0  0  0
 10 11  1  0  0  0  0
 10 12  1  0  0  0  0
 11 16  1  0  0  0  0
 12 13  1  1  0  0  0
 12 14  1  0  0  0  0
 14 15  1  1  0  0  0
 14 16  1  0  0  0  0
 16 27  1  1  0  0  0
 18 19  2  0  0  0  0
 18 23  1  0  0  0  0
 19 20  1  0  0  0  0
 20 21  2  0  0  0  0
 21 22  1  0  0  0  0
 21 27  1  0  0  0  0
 22 23  2  0  0  0  0
 22 25  1  0  0  0  0
 23 24  1  0  0  0  0
 25 26  2  0  0  0  0
 26 27  1  0  0  0  0
M  END
>  <CHROM.1>
-25.38089432,178.21687853,171.47976449,-75.83417227,-90.57210337,-74.60259779
168.52942783,15.48121667,-5.50949473,8.90943016,1.03969943,1.40806419,2.04164330

>  <Name>
ligand

>  <RI>
0

>  <Rbt.Current_Directory>
/home/itssahil/PROJECTS/Mol_Feturizer/Test_systems_manuscript/rnas/2ydh

>  <Rbt.Executable>
rbdock ($Id: //depot/dev/client3/rdock/2013.1/src/exe/rbdock.cxx#4 $)

>  <Rbt.Library>
libRbt.so (2013.1, Build901 2013/11/27)

>  <Rbt.Parameter_File>
/export/apps/rDock/src/rDock_2013.1_src/data/scripts/dock_solv.prm

>  <Rbt.Receptor>
prm/pocket_docking_5.prm

>  <SCORE>
-12.5132

>  <SCORE.INTER>
-12.577

>  <SCORE.INTER.CONST>
1

>  <SCORE.INTER.POLAR>
0

>  <SCORE.INTER.ROT>
7

>  <SCORE.INTER.SOLV>
16.0035

>  <SCORE.INTER.VDW>
-21.9858

>  <SCORE.INTER.norm>
-0.465813

>  <SCORE.INTRA>
0.0637937

>  <SCORE.INTRA.DIHEDRAL>
-4.03469

>  <SCORE.INTRA.DIHEDRAL.0>
9.75037

>  <SCORE.INTRA.POLAR>
0

>  <SCORE.INTRA.POLAR.0>
0

>  <SCORE.INTRA.REPUL>
0

>  <SCORE.INTRA.REPUL.0>
0

>  <SCORE.INTRA.SOLV>
-1.16652

>  <SCORE.INTRA.SOLV.lig_0>
-48.4279

>  <SCORE.INTRA.VDW>
2.6644

>  <SCORE.INTRA.VDW.0>
-4.69037

>  <SCORE.INTRA.norm>
0.00236273

>  <SCORE.RESTR>
0

>  <SCORE.RESTR.CAVITY>
0

>  <SCORE.RESTR.norm>
0

>  <SCORE.SYSTEM>
0

>  <SCORE.SYSTEM.CONST>
0

>  <SCORE.SYSTEM.DIHEDRAL>
0

>  <SCORE.SYSTEM.SOLV>
0

>  <SCORE.SYSTEM.norm>
0

>  <SCORE.heavy>
27

>  <SCORE.norm>
-0.463451

>  <RMSD>
5.184

$$$$
ligand
 OpenBabel02271912153D
libRbt.so/2013.1/901 2013/11/27
 27 29  0  0  0  0  0  0  0  0999 V2000
   14.6683  -10.3073   10.3296 N   0  0  0  0  0  0  0  0  0  0  0  0
   14.0780   -8.9348   10.3965 C   0  0  2  0  0  0  0  0  0  0  0  0
   12.5413   -8.9827   10.2457 C   0  0  0  0  0  0  0  0  0  0  0  0
   11.8057   -8.3445   11.0048 O   0  0  0  0  0  0  0  0  0  0  0  0
   14.7303   -8.0502    9.3394 C   0  0  0  0  0  0  0  0  0  0  0  0
   14.1285   -6.6597    9.2226 C   0  0  0  0  0  0  0  0  0  0  0  0
   14.6277   -5.5457   10.5668 S   0  0  2  0  0  0  0  0  0  0  0  0
   13.7758   -6.3128   11.9744 C   0  0  0  0  0  0  0  0  0  0  0  0
   13.6943   -4.0230   10.3430 C   0  0  0  0  0  0  0  0  0  0  0  0
   14.1478   -3.3489    9.0621 C   0  0  1  0  0  0  0  0  0  0  0  0
   15.3869   -3.8549    8.5901 O   0  0  0  0  0  0  0  0  0  0  0  0
   13.1414   -3.5367    7.9532 C   0  0  1  0  0  0  0  0  0  0  0  0
   12.1354   -2.5669    8.0167 O   0  0  0  0  0  0  0  0  0  0  0  0
   14.0082   -3.3685    6.7427 C   0  0  1  0  0  0  0  0  0  0  0  0
   14.0810   -1.9949    6.4110 O   0  0  0  0  0  0  0  0  0  0  0  0
   15.3728   -3.8838    7.1816 C   0  0  2  0  0  0  0  0  0  0  0  0
   11.9796   -9.6622    9.3670 O   0  0  0  0  0  0  0  0  0  0  0  0
   13.7816   -7.9756    4.2518 N   0  0  0  0  0  0  0  0  0  0  0  0
   13.1559   -6.7475    4.4096 C   0  0  0  0  0  0  0  0  0  0  0  0
   13.6999   -5.7706    5.2350 N   0  0  0  0  0  0  0  0  0  0  0  0
   14.8587   -6.0177    5.8724 C   0  0  0  0  0  0  0  0  0  0  0  0
   15.5063   -7.2456    5.7094 C   0  0  0  0  0  0  0  0  0  0  0  0
   14.9657   -8.2344    4.9082 C   0  0  0  0  0  0  0  0  0  0  0  0
   15.5775   -9.4005    4.7655 N   0  0  0  0  0  0  0  0  0  0  0  0
   16.6301   -7.2224    6.4343 N   0  0  0  0  0  0  0  0  0  0  0  0
   16.7134   -6.0204    7.0460 C   0  0  0  0  0  0  0  0  0  0  0  0
   15.6246   -5.2570    6.7051 N   0  0  0  0  0  0  0  0  0  0  0  0
  2  1  1  6  0  0  0
  2  3  1  0  0  0  0
  2  5  1  0  0  0  0
  3  4  1  0  0  0  0
  3 17  1  0  0  0  0
  5  6  1  0  0  0  0
  7  6  1  6  0  0  0
  7  8  1  0  0  0  0
  7  9  1  0  0  0  0
 10  9  1  1  0  0  0
 10 11  1  0  0  0  0
 10 12  1  0  0  0  0
 11 16  1  0  0  0  0
 12 13  1  1  0  0  0
 12 14  1  0  0  0  0
 14 15  1  1  0  0  0
 14 16  1  0  0  0  0
 16 27  1  1  0  0  0
 18 19  2  0  0  0  0
 18 23  1  0  0  0  0
 19 20  1  0  0  0  0
 20 21  2  0  0  0  0
 21 22  1  0  0  0  0
 21 27  1  0  0  0  0
 22 23  2  0  0  0  0
 22 25  1  0  0  0  0
 23 24  1  0  0  0  0
 25 26  2  0  0  0  0
 26 27  1  0  0  0  0
M  END
>  <CHROM.1>
133.61599207,174.84356996,75.88917721,-68.28675960,-66.39334514,-16.31862023
124.39563090,14.22847850,-6.20287587,8.05300921,-2.30488349,1.32576002,-0.02107008

>  <Name>
ligand

>  <RI>
0

>  <Rbt.Current_Directory>
/home/itssahil/PROJECTS/Mol_Feturizer/Test_systems_manuscript/rnas/2ydh

>  <Rbt.Executable>
rbdock ($Id: //depot/dev/client3/rdock/2013.1/src/exe/rbdock.cxx#4 $)

>  <Rbt.Library>
libRbt.so (2013.1, Build901 2013/11/27)

>  <Rbt.Parameter_File>
/export/apps/rDock/src/rDock_2013.1_src/data/scripts/dock_solv.prm

>  <Rbt.Receptor>
prm/pocket_docking_2.prm

>  <SCORE>
-3.19714

>  <SCORE.INTER>
-5.33078

>  <SCORE.INTER.CONST>
1

>  <SCORE.INTER.POLAR>
0

>  <SCORE.INTER.ROT>
7

>  <SCORE.INTER.SOLV>
21.1806

>  <SCORE.INTER.VDW>
-18.8807

>  <SCORE.INTER.norm>
-0.197436

>  <SCORE.INTRA>
0.967773

>  <SCORE.INTRA.DIHEDRAL>
-1.33233

>  <SCORE.INTRA.DIHEDRAL.0>
9.75037

>  <SCORE.INTRA.POLAR>
0

>  <SCORE.INTRA.POLAR.0>
0

>  <SCORE.INTRA.REPUL>
0

>  <SCORE.INTRA.REPUL.0>
0

>  <SCORE.INTRA.SOLV>
-0.942856

>  <SCORE.INTRA.SOLV.lig_0>
-48.4279

>  <SCORE.INTRA.VDW>
2.10536

>  <SCORE.INTRA.VDW.0>
-4.69037

>  <SCORE.INTRA.norm>
0.0358435

>  <SCORE.RESTR>
1.16587

>  <SCORE.RESTR.CAVITY>
1.16587

>  <SCORE.RESTR.norm>
0.0431803

>  <SCORE.SYSTEM>
0

>  <SCORE.SYSTEM.CONST>
0

>  <SCORE.SYSTEM.DIHEDRAL>
0

>  <SCORE.SYSTEM.SOLV>
0

>  <SCORE.SYSTEM.norm>
0

>  <SCORE.heavy>
27

>  <SCORE.norm>
-0.118413

>  <RMSD>
5.196

$$$$
ligand
 OpenBabel02271912153D
libRbt.so/2013.1/901 2013/11/27
 27 29  0  0  0  0  0  0  0  0999 V2000
   15.4324   -6.2656   14.4635 N   0  0  0  0  0  0  0  0  0  0  0  0
   14.1796   -6.9161   13.9694 C   0  0  2  0  0  0  0  0  0  0  0  0
   13.6223   -7.9118   15.0108 C   0  0  0  0  0  0  0  0  0  0  0  0
   12.4951   -7.7659   15.4932 O   0  0  0  0  0  0  0  0  0  0  0  0
   14.4512   -7.5843   12.6257 C   0  0  0  0  0  0  0  0  0  0  0  0
   14.7419   -6.6186   11.4890 C   0  0  0  0  0  0  0  0  0  0  0  0
   13.4302   -5.3883   11.2383 S   0  0  2  0  0  0  0  0  0  0  0  0
   11.9903   -6.4712   11.0157 C   0  0  0  0  0  0  0  0  0  0  0  0
   13.6630   -4.7221    9.5825 C   0  0  0  0  0  0  0  0  0  0  0  0
   14.7973   -3.7155    9.6095 C   0  0  1  0  0  0  0  0  0  0  0  0
   16.0508   -4.3158    9.8970 O   0  0  0  0  0  0  0  0  0  0  0  0
   14.9388   -3.0074    8.2842 C   0  0  1  0  0  0  0  0  0  0  0  0
   14.0718   -1.9127    8.2031 O   0  0  0  0  0  0  0  0  0  0  0  0
   16.3752   -2.5840    8.3330 C   0  0  1  0  0  0  0  0  0  0  0  0
   16.4681   -1.3313    8.9846 O   0  0  0  0  0  0  0  0  0  0  0  0
   17.0595   -3.6660    9.1585 C   0  0  2  0  0  0  0  0  0  0  0  0
   14.2768   -8.8919   15.4113 O   0  0  0  0  0  0  0  0  0  0  0  0
   21.2164   -6.8523    8.5058 N   0  0  0  0  0  0  0  0  0  0  0  0
   20.9329   -6.0345    9.5900 C   0  0  0  0  0  0  0  0  0  0  0  0
   19.7944   -5.2376    9.6040 N   0  0  0  0  0  0  0  0  0  0  0  0
   18.9497   -5.2777    8.5575 C   0  0  0  0  0  0  0  0  0  0  0  0
   19.2168   -6.1090    7.4661 C   0  0  0  0  0  0  0  0  0  0  0  0
   20.3565   -6.8912    7.4294 C   0  0  0  0  0  0  0  0  0  0  0  0
   20.6108   -7.6692    6.3879 N   0  0  0  0  0  0  0  0  0  0  0  0
   18.2221   -5.9684    6.5830 N   0  0  0  0  0  0  0  0  0  0  0  0
   17.3362   -5.0787    7.0829 C   0  0  0  0  0  0  0  0  0  0  0  0
   17.7689   -4.6426    8.3105 N   0  0  0  0  0  0  0  0  0  0  0  0
  2  1  1  1  0  0  0
  2  3  1  0  0  0  0
  2  5  1  0  0  0  0
  3  4  1  0  0  0  0
  3 17  1  0  0  0  0
  5  6  1  0  0  0  0
  7  6  1  6  0  0  0
  7  8  1  0  0  0  0
  7  9  1  0  0  0  0
 10  9  1  6  0  0  0
 10 11  1  0  0  0  0
 10 12  1  0  0  0  0
 11 16  1  0  0  0  0
 12 13  1  1  0  0  0
 12 14  1  0  0  0  0
 14 15  1  1  0  0  0
 14 16  1  0  0  0  0
 16 27  1  6  0  0  0
 18 19  2  0  0  0  0
 18 23  1  0  0  0  0
 19 20  1  0  0  0  0
 20 21  2  0  0  0  0
 21 22  1  0  0  0  0
 21 27  1  0  0  0  0
 22 23  2  0  0  0  0
 22 25  1  0  0  0  0
 23 24  1  0  0  0  0
 25 26  2  0  0  0  0
 26 27  1  0  0  0  0
M  END
>  <CHROM.1>
119.90829847,-67.57141298,-55.94904020,-55.38856694,-78.17450340,66.10598410
-97.71972836,16.14437126,-5.48984454,10.20946328,-2.41683583,0.47900773,-0.80045698

>  <Name>
ligand

>  <RI>
0

>  <Rbt.Current_Directory>
/home/itssahil/PROJECTS/Mol_Feturizer/Test_systems_manuscript/rnas/2ydh

>  <Rbt.Executable>
rbdock ($Id: //depot/dev/client3/rdock/2013.1/src/exe/rbdock.cxx#4 $)

>  <Rbt.Library>
libRbt.so (2013.1, Build901 2013/11/27)

>  <Rbt.Parameter_File>
/export/apps/rDock/src/rDock_2013.1_src/data/scripts/dock_solv.prm

>  <Rbt.Receptor>
prm/pocket_docking_6.prm

>  <SCORE>
-10.6248

>  <SCORE.INTER>
-10.2982

>  <SCORE.INTER.CONST>
1

>  <SCORE.INTER.POLAR>
0

>  <SCORE.INTER.ROT>
7

>  <SCORE.INTER.SOLV>
14.7771

>  <SCORE.INTER.VDW>
-20.0578

>  <SCORE.INTER.norm>
-0.381415

>  <SCORE.INTRA>
-0.33743

>  <SCORE.INTRA.DIHEDRAL>
-5.5558

>  <SCORE.INTRA.DIHEDRAL.0>
9.75037

>  <SCORE.INTRA.POLAR>
0

>  <SCORE.INTRA.POLAR.0>
0

>  <SCORE.INTRA.REPUL>
0

>  <SCORE.INTRA.REPUL.0>
0

>  <SCORE.INTRA.SOLV>
-0.28731

>  <SCORE.INTRA.SOLV.lig_0>
-48.4279

>  <SCORE.INTRA.VDW>
2.58413

>  <SCORE.INTRA.VDW.0>
-4.69037

>  <SCORE.INTRA.norm>
-0.0124974

>  <SCORE.RESTR>
0.0108243

>  <SCORE.RESTR.CAVITY>
0.0108243

>  <SCORE.RESTR.norm>
0.000400901

>  <SCORE.SYSTEM>
0

>  <SCORE.SYSTEM.CONST>
0

>  <SCORE.SYSTEM.DIHEDRAL>
0

>  <SCORE.SYSTEM.SOLV>
0

>  <SCORE.SYSTEM.norm>
0

>  <SCORE.heavy>
27

>  <SCORE.norm>
-0.393512

>  <RMSD>
5.198

$$$$
ligand
 OpenBabel02271912153D
libRbt.so/2013.1/901 2013/11/27
 27 29  0  0  0  0  0  0  0  0999 V2000
   15.0554  -10.0114   11.3143 N   0  0  0  0  0  0  0  0  0  0  0  0
   14.0597   -9.4792   12.2951 C   0  0  2  0  0  0  0  0  0  0  0  0
   14.1999  -10.1795   13.6650 C   0  0  0  0  0  0  0  0  0  0  0  0
   14.8615   -9.6722   14.5759 O   0  0  0  0  0  0  0  0  0  0  0  0
   12.6547   -9.6221   11.7197 C   0  0  0  0  0  0  0  0  0  0  0  0
   12.4923   -9.0767   10.3107 C   0  0  0  0  0  0  0  0  0  0  0  0
   13.1577   -7.3994   10.1085 S   0  0  2  0  0  0  0  0  0  0  0  0
   11.9590   -6.4419   11.0791 C   0  0  0  0  0  0  0  0  0  0  0  0
   12.7710   -6.8948    8.4245 C   0  0  0  0  0  0  0  0  0  0  0  0
   13.6097   -5.6827    8.0668 C   0  0  1  0  0  0  0  0  0  0  0  0
   15.0014   -5.9235    8.2060 O   0  0  0  0  0  0  0  0  0  0  0  0
   13.3755   -5.2510    6.6397 C   0  0  1  0  0  0  0  0  0  0  0  0
   12.2604   -4.4118    6.5440 O   0  0  0  0  0  0  0  0  0  0  0  0
   14.6521   -4.5250    6.3426 C   0  0  1  0  0  0  0  0  0  0  0  0
   14.5232   -3.1750    6.7465 O   0  0  0  0  0  0  0  0  0  0  0  0
   15.6973   -5.2376    7.1910 C   0  0  2  0  0  0  0  0  0  0  0  0
   13.6643  -11.2761   13.9099 O   0  0  0  0  0  0  0  0  0  0  0  0
   15.7960   -9.1310    3.6288 N   0  0  0  0  0  0  0  0  0  0  0  0
   14.6884   -8.4575    4.1230 C   0  0  0  0  0  0  0  0  0  0  0  0
   14.8291   -7.4568    5.0770 N   0  0  0  0  0  0  0  0  0  0  0  0
   16.0598   -7.1279    5.5097 C   0  0  0  0  0  0  0  0  0  0  0  0
   17.1846   -7.7889    5.0081 C   0  0  0  0  0  0  0  0  0  0  0  0
   17.0578   -8.8010    4.0745 C   0  0  0  0  0  0  0  0  0  0  0  0
   18.1259   -9.4319    3.6102 N   0  0  0  0  0  0  0  0  0  0  0  0
   18.2689   -7.2640    5.5892 N   0  0  0  0  0  0  0  0  0  0  0  0
   17.8651   -6.2929    6.4376 C   0  0  0  0  0  0  0  0  0  0  0  0
   16.4967   -6.1906    6.3982 N   0  0  0  0  0  0  0  0  0  0  0  0
  2  1  1  6  0  0  0
  2  3  1  0  0  0  0
  2  5  1  0  0  0  0
  3  4  1  0  0  0  0
  3 17  1  0  0  0  0
  5  6  1  0  0  0  0
  7  6  1  6  0  0  0
  7  8  1  0  0  0  0
  7  9  1  0  0  0  0
 10  9  1  6  0  0  0
 10 11  1  0  0  0  0
 10 12  1  0  0  0  0
 11 16  1  0  0  0  0
 12 13  1  1  0  0  0
 12 14  1  0  0  0  0
 14 15  1  1  0  0  0
 14 16  1  0  0  0  0
 16 27  1  6  0  0  0
 18 19  2  0  0  0  0
 18 23  1  0  0  0  0
 19 20  1  0  0  0  0
 20 21  2  0  0  0  0
 21 22  1  0  0  0  0
 21 27  1  0  0  0  0
 22 23  2  0  0  0  0
 22 25  1  0  0  0  0
 23 24  1  0  0  0  0
 25 26  2  0  0  0  0
 26 27  1  0  0  0  0
M  END
>  <CHROM.1>
96.28374984,-50.38873284,-49.18505787,-69.95024936,-164.74047507,57.04576963
71.42722323,14.68932104,-7.46640307,8.22386552,-2.04999955,0.86495657,-0.87062052

>  <Name>
ligand

>  <RI>
0

>  <Rbt.Current_Directory>
/home/itssahil/PROJECTS/Mol_Feturizer/Test_systems_manuscript/rnas/2ydh

>  <Rbt.Executable>
rbdock ($Id: //depot/dev/client3/rdock/2013.1/src/exe/rbdock.cxx#4 $)

>  <Rbt.Library>
libRbt.so (2013.1, Build901 2013/11/27)

>  <Rbt.Parameter_File>
/export/apps/rDock/src/rDock_2013.1_src/data/scripts/dock_solv.prm

>  <Rbt.Receptor>
prm/pocket_docking_7.prm

>  <SCORE>
-12.987

>  <SCORE.INTER>
-12.9799

>  <SCORE.INTER.CONST>
1

>  <SCORE.INTER.POLAR>
0

>  <SCORE.INTER.ROT>
7

>  <SCORE.INTER.SOLV>
16.1361

>  <SCORE.INTER.VDW>
-22.2986

>  <SCORE.INTER.norm>
-0.480735

>  <SCORE.INTRA>
-0.00716259

>  <SCORE.INTRA.DIHEDRAL>
-4.53278

>  <SCORE.INTRA.DIHEDRAL.0>
9.75037

>  <SCORE.INTRA.POLAR>
0

>  <SCORE.INTRA.POLAR.0>
0

>  <SCORE.INTRA.REPUL>
0

>  <SCORE.INTRA.REPUL.0>
0

>  <SCORE.INTRA.SOLV>
0.226554

>  <SCORE.INTRA.SOLV.lig_0>
-48.4279

>  <SCORE.INTRA.VDW>
2.14595

>  <SCORE.INTRA.VDW.0>
-4.69037

>  <SCORE.INTRA.norm>
-0.000265281

>  <SCORE.RESTR>
0

>  <SCORE.RESTR.CAVITY>
0

>  <SCORE.RESTR.norm>
0

>  <SCORE.SYSTEM>
0

>  <SCORE.SYSTEM.CONST>
0

>  <SCORE.SYSTEM.DIHEDRAL>
0

>  <SCORE.SYSTEM.SOLV>
0

>  <SCORE.SYSTEM.norm>
0

>  <SCORE.heavy>
27

>  <SCORE.norm>
-0.481001

>  <RMSD>
5.200

$$$$
ligand
 OpenBabel02271912153D
libRbt.so/2013.1/901 2013/11/27
 27 29  0  0  0  0  0  0  0  0999 V2000
   13.4347  -10.6473   11.0212 N   0  0  0  0  0  0  0  0  0  0  0  0
   13.6534   -9.6068   12.0730 C   0  0  2  0  0  0  0  0  0  0  0  0
   14.0197  -10.2537   13.4272 C   0  0  0  0  0  0  0  0  0  0  0  0
   14.9637   -9.8309   14.1015 O   0  0  0  0  0  0  0  0  0  0  0  0
   12.4153   -8.7224   12.1767 C   0  0  0  0  0  0  0  0  0  0  0  0
   12.0519   -7.9940   10.8935 C   0  0  0  0  0  0  0  0  0  0  0  0
   13.3449   -6.8534   10.3241 S   0  0  2  0  0  0  0  0  0  0  0  0
   13.1309   -5.4870   11.5000 C   0  0  0  0  0  0  0  0  0  0  0  0
   12.7481   -6.1286    8.7884 C   0  0  0  0  0  0  0  0  0  0  0  0
   13.6890   -5.0154    8.3688 C   0  0  1  0  0  0  0  0  0  0  0  0
   15.0478   -5.4249    8.3621 O   0  0  0  0  0  0  0  0  0  0  0  0
   13.3698   -4.5168    6.9805 C   0  0  1  0  0  0  0  0  0  0  0  0
   12.3615   -3.5478    7.0128 O   0  0  0  0  0  0  0  0  0  0  0  0
   14.6899   -3.9401    6.5683 C   0  0  1  0  0  0  0  0  0  0  0  0
   14.7669   -2.5969    7.0067 O   0  0  0  0  0  0  0  0  0  0  0  0
   15.7189   -4.7973    7.2940 C   0  0  2  0  0  0  0  0  0  0  0  0
   13.3923  -11.2224   13.8935 O   0  0  0  0  0  0  0  0  0  0  0  0
   15.1097   -9.2710    4.5603 N   0  0  0  0  0  0  0  0  0  0  0  0
   14.1640   -8.6077    5.3287 C   0  0  0  0  0  0  0  0  0  0  0  0
   14.4877   -7.4373    6.0046 N   0  0  0  0  0  0  0  0  0  0  0  0
   15.7309   -6.9350    5.8935 C   0  0  0  0  0  0  0  0  0  0  0  0
   16.6879   -7.5861    5.1100 C   0  0  0  0  0  0  0  0  0  0  0  0
   16.3860   -8.7627    4.4493 C   0  0  0  0  0  0  0  0  0  0  0  0
   17.2996   -9.3819    3.7168 N   0  0  0  0  0  0  0  0  0  0  0  0
   17.8202   -6.8759    5.1609 N   0  0  0  0  0  0  0  0  0  0  0  0
   17.6075   -5.7980    5.9477 C   0  0  0  0  0  0  0  0  0  0  0  0
   16.3143   -5.8153    6.4078 N   0  0  0  0  0  0  0  0  0  0  0  0
  2  1  1  6  0  0  0
  2  3  1  0  0  0  0
  2  5  1  0  0  0  0
  3  4  1  0  0  0  0
  3 17  1  0  0  0  0
  5  6  1  0  0  0  0
  7  6  1  1  0  0  0
  7  8  1  0  0  0  0
  7  9  1  0  0  0  0
 10  9  1  6  0  0  0
 10 11  1  0  0  0  0
 10 12  1  0  0  0  0
 11 16  1  0  0  0  0
 12 13  1  1  0  0  0
 12 14  1  0  0  0  0
 14 15  1  1  0  0  0
 14 16  1  0  0  0  0
 16 27  1  6  0  0  0
 18 19  2  0  0  0  0
 18 23  1  0  0  0  0
 19 20  1  0  0  0  0
 20 21  2  0  0  0  0
 21 22  1  0  0  0  0
 21 27  1  0  0  0  0
 22 23  2  0  0  0  0
 22 25  1  0  0  0  0
 23 24  1  0  0  0  0
 25 26  2  0  0  0  0
 26 27  1  0  0  0  0
M  END
>  <CHROM.1>
133.33449760,-59.68082034,-61.46554888,-75.13683527,171.68091009,50.56599869
47.83265089,14.50154633,-7.11038666,8.43555739,-2.21013219,1.05802180,-0.58786550

>  <Name>
ligand

>  <RI>
0

>  <Rbt.Current_Directory>
/home/itssahil/PROJECTS/Mol_Feturizer/Test_systems_manuscript/rnas/2ydh

>  <Rbt.Executable>
rbdock ($Id: //depot/dev/client3/rdock/2013.1/src/exe/rbdock.cxx#4 $)

>  <Rbt.Library>
libRbt.so (2013.1, Build901 2013/11/27)

>  <Rbt.Parameter_File>
/export/apps/rDock/src/rDock_2013.1_src/data/scripts/dock_solv.prm

>  <Rbt.Receptor>
prm/pocket_docking_5.prm

>  <SCORE>
-12.2692

>  <SCORE.INTER>
-10.6774

>  <SCORE.INTER.CONST>
1

>  <SCORE.INTER.POLAR>
0

>  <SCORE.INTER.ROT>
7

>  <SCORE.INTER.SOLV>
18.8507

>  <SCORE.INTER.VDW>
-21.6685

>  <SCORE.INTER.norm>
-0.39546

>  <SCORE.INTRA>
-1.59178

>  <SCORE.INTRA.DIHEDRAL>
-6.19125

>  <SCORE.INTRA.DIHEDRAL.0>
9.75037

>  <SCORE.INTRA.POLAR>
0

>  <SCORE.INTRA.POLAR.0>
0

>  <SCORE.INTRA.REPUL>
0

>  <SCORE.INTRA.REPUL.0>
0

>  <SCORE.INTRA.SOLV>
-0.152716

>  <SCORE.INTRA.SOLV.lig_0>
-48.4279

>  <SCORE.INTRA.VDW>
1.5802

>  <SCORE.INTRA.VDW.0>
-4.69037

>  <SCORE.INTRA.norm>
-0.0589548

>  <SCORE.RESTR>
0

>  <SCORE.RESTR.CAVITY>
0

>  <SCORE.RESTR.norm>
0

>  <SCORE.SYSTEM>
0

>  <SCORE.SYSTEM.CONST>
0

>  <SCORE.SYSTEM.DIHEDRAL>
0

>  <SCORE.SYSTEM.SOLV>
0

>  <SCORE.SYSTEM.norm>
0

>  <SCORE.heavy>
27

>  <SCORE.norm>
-0.454415

>  <RMSD>
5.206

$$$$
ligand
 OpenBabel02271912153D
libRbt.so/2013.1/901 2013/11/27
 27 29  0  0  0  0  0  0  0  0999 V2000
   18.1044   -4.6191   11.5406 N   0  0  0  0  0  0  0  0  0  0  0  0
   16.9421   -3.7041   11.3206 C   0  0  2  0  0  0  0  0  0  0  0  0
   15.6124   -4.3937   11.6990 C   0  0  0  0  0  0  0  0  0  0  0  0
   14.5784   -3.7389   11.8627 O   0  0  0  0  0  0  0  0  0  0  0  0
   16.9449   -3.2192    9.8748 C   0  0  0  0  0  0  0  0  0  0  0  0
   16.9852   -4.3293    8.8379 C   0  0  0  0  0  0  0  0  0  0  0  0
   16.5034   -3.7782    7.1762 S   0  0  2  0  0  0  0  0  0  0  0  0
   15.1878   -2.5949    7.5817 C   0  0  0  0  0  0  0  0  0  0  0  0
   15.5790   -5.1334    6.4354 C   0  0  0  0  0  0  0  0  0  0  0  0
   16.4240   -6.3921    6.4825 C   0  0  1  0  0  0  0  0  0  0  0  0
   16.7460   -6.7820    7.8086 O   0  0  0  0  0  0  0  0  0  0  0  0
   15.7144   -7.5579    5.8380 C   0  0  1  0  0  0  0  0  0  0  0  0
   15.9157   -7.5670    4.4538 O   0  0  0  0  0  0  0  0  0  0  0  0
   16.3869   -8.7154    6.5111 C   0  0  1  0  0  0  0  0  0  0  0  0
   17.5544   -9.0581    5.7888 O   0  0  0  0  0  0  0  0  0  0  0  0
   16.7508   -8.1884    7.8932 C   0  0  2  0  0  0  0  0  0  0  0  0
   15.5233   -5.6247   11.8599 O   0  0  0  0  0  0  0  0  0  0  0  0
   12.1267   -7.4568   10.3306 N   0  0  0  0  0  0  0  0  0  0  0  0
   12.6710   -6.7097    9.2961 C   0  0  0  0  0  0  0  0  0  0  0  0
   13.9169   -7.0251    8.7673 N   0  0  0  0  0  0  0  0  0  0  0  0
   14.5916   -8.0815    9.2563 C   0  0  0  0  0  0  0  0  0  0  0  0
   14.0467   -8.8509   10.2882 C   0  0  0  0  0  0  0  0  0  0  0  0
   12.8178   -8.5359   10.8382 C   0  0  0  0  0  0  0  0  0  0  0  0
   12.3106   -9.2616   11.8234 N   0  0  0  0  0  0  0  0  0  0  0  0
   14.9069   -9.8352   10.5716 N   0  0  0  0  0  0  0  0  0  0  0  0
   15.9736   -9.7132    9.7510 C   0  0  0  0  0  0  0  0  0  0  0  0
   15.7935   -8.6325    8.9239 N   0  0  0  0  0  0  0  0  0  0  0  0
  2  1  1  6  0  0  0
  2  3  1  0  0  0  0
  2  5  1  0  0  0  0
  3  4  1  0  0  0  0
  3 17  1  0  0  0  0
  5  6  1  0  0  0  0
  7  6  1  1  0  0  0
  7  8  1  0  0  0  0
  7  9  1  0  0  0  0
 10  9  1  1  0  0  0
 10 11  1  0  0  0  0
 10 12  1  0  0  0  0
 11 16  1  0  0  0  0
 12 13  1  6  0  0  0
 12 14  1  0  0  0  0
 14 15  1  6  0  0  0
 14 16  1  0  0  0  0
 16 27  1  1  0  0  0
 18 19  2  0  0  0  0
 18 23  1  0  0  0  0
 19 20  1  0  0  0  0
 20 21  2  0  0  0  0
 21 22  1  0  0  0  0
 21 27  1  0  0  0  0
 22 23  2  0  0  0  0
 22 25  1  0  0  0  0
 23 24  1  0  0  0  0
 25 26  2  0  0  0  0
 26 27  1  0  0  0  0
M  END
>  <CHROM.1>
164.50953516,53.94282471,163.09016271,-36.93514123,-54.92179966,61.30462622
35.11077093,15.51757598,-6.46589638,8.86975265,0.63184665,1.05194095,0.71426100

>  <Name>
ligand

>  <RI>
0

>  <Rbt.Current_Directory>
/home/itssahil/PROJECTS/Mol_Feturizer/Test_systems_manuscript/rnas/2ydh

>  <Rbt.Executable>
rbdock ($Id: //depot/dev/client3/rdock/2013.1/src/exe/rbdock.cxx#4 $)

>  <Rbt.Library>
libRbt.so (2013.1, Build901 2013/11/27)

>  <Rbt.Parameter_File>
/export/apps/rDock/src/rDock_2013.1_src/data/scripts/dock_solv.prm

>  <Rbt.Receptor>
prm/pocket_docking_3.prm

>  <SCORE>
-7.45875

>  <SCORE.INTER>
-9.208

>  <SCORE.INTER.CONST>
1

>  <SCORE.INTER.POLAR>
0

>  <SCORE.INTER.ROT>
7

>  <SCORE.INTER.SOLV>
12.4461

>  <SCORE.INTER.VDW>
-18.554

>  <SCORE.INTER.norm>
-0.341037

>  <SCORE.INTRA>
1.74925

>  <SCORE.INTRA.DIHEDRAL>
-2.84699

>  <SCORE.INTRA.DIHEDRAL.0>
9.75037

>  <SCORE.INTRA.POLAR>
0

>  <SCORE.INTRA.POLAR.0>
0

>  <SCORE.INTRA.REPUL>
0

>  <SCORE.INTRA.REPUL.0>
0

>  <SCORE.INTRA.SOLV>
-0.614482

>  <SCORE.INTRA.SOLV.lig_0>
-48.4279

>  <SCORE.INTRA.VDW>
3.47998

>  <SCORE.INTRA.VDW.0>
-4.69037

>  <SCORE.INTRA.norm>
0.0647869

>  <SCORE.RESTR>
0

>  <SCORE.RESTR.CAVITY>
0

>  <SCORE.RESTR.norm>
0

>  <SCORE.SYSTEM>
0

>  <SCORE.SYSTEM.CONST>
0

>  <SCORE.SYSTEM.DIHEDRAL>
0

>  <SCORE.SYSTEM.SOLV>
0

>  <SCORE.SYSTEM.norm>
0

>  <SCORE.heavy>
27

>  <SCORE.norm>
-0.27625

>  <RMSD>
5.211

$$$$
ligand
 OpenBabel02271912153D
libRbt.so/2013.1/901 2013/11/27
 27 29  0  0  0  0  0  0  0  0999 V2000
   14.7333   -5.5868   11.2670 N   0  0  0  0  0  0  0  0  0  0  0  0
   13.2582   -5.4417   11.0674 C   0  0  2  0  0  0  0  0  0  0  0  0
   12.4727   -6.3007   12.0830 C   0  0  0  0  0  0  0  0  0  0  0  0
   13.0265   -6.7776   13.0783 O   0  0  0  0  0  0  0  0  0  0  0  0
   12.9046   -5.7921    9.6259 C   0  0  0  0  0  0  0  0  0  0  0  0
   13.3146   -4.7448    8.6041 C   0  0  0  0  0  0  0  0  0  0  0  0
   15.1140   -4.5881    8.4182 S   0  0  2  0  0  0  0  0  0  0  0  0
   15.3520   -2.8517    8.8912 C   0  0  0  0  0  0  0  0  0  0  0  0
   15.4444   -4.5477    6.6493 C   0  0  0  0  0  0  0  0  0  0  0  0
   15.3324   -5.9544    6.0932 C   0  0  1  0  0  0  0  0  0  0  0  0
   16.1333   -6.8859    6.8039 O   0  0  0  0  0  0  0  0  0  0  0  0
   13.9110   -6.4588    6.1494 C   0  0  1  0  0  0  0  0  0  0  0  0
   13.1838   -6.0410    5.0299 O   0  0  0  0  0  0  0  0  0  0  0  0
   14.1289   -7.9412    6.1566 C   0  0  1  0  0  0  0  0  0  0  0  0
   14.2147   -8.4043    4.8223 O   0  0  0  0  0  0  0  0  0  0  0  0
   15.4622   -8.1229    6.8705 C   0  0  2  0  0  0  0  0  0  0  0  0
   11.2618   -6.5538   11.9448 O   0  0  0  0  0  0  0  0  0  0  0  0
   12.1635   -9.4034   10.7868 N   0  0  0  0  0  0  0  0  0  0  0  0
   11.8429   -9.0698    9.4789 C   0  0  0  0  0  0  0  0  0  0  0  0
   12.8350   -8.7406    8.5631 N   0  0  0  0  0  0  0  0  0  0  0  0
   14.1233   -8.7658    8.9504 C   0  0  0  0  0  0  0  0  0  0  0  0
   14.4597   -9.1151   10.2613 C   0  0  0  0  0  0  0  0  0  0  0  0
   13.4818   -9.4242   11.1887 C   0  0  0  0  0  0  0  0  0  0  0  0
   13.8049   -9.7440   12.4328 N   0  0  0  0  0  0  0  0  0  0  0  0
   15.7919   -9.0744   10.3736 N   0  0  0  0  0  0  0  0  0  0  0  0
   16.3058   -8.7139    9.1769 C   0  0  0  0  0  0  0  0  0  0  0  0
   15.2849   -8.5226    8.2793 N   0  0  0  0  0  0  0  0  0  0  0  0
  2  1  1  6  0  0  0
  2  3  1  0  0  0  0
  2  5  1  0  0  0  0
  3  4  1  0  0  0  0
  3 17  1  0  0  0  0
  5  6  1  0  0  0  0
  7  6  1  6  0  0  0
  7  8  1  0  0  0  0
  7  9  1  0  0  0  0
 10  9  1  1  0  0  0
 10 11  1  0  0  0  0
 10 12  1  0  0  0  0
 11 16  1  0  0  0  0
 12 13  1  6  0  0  0
 12 14  1  0  0  0  0
 14 15  1  6  0  0  0
 14 16  1  0  0  0  0
 16 27  1  1  0  0  0
 18 19  2  0  0  0  0
 18 23  1  0  0  0  0
 19 20  1  0  0  0  0
 20 21  2  0  0  0  0
 21 22  1  0  0  0  0
 21 27  1  0  0  0  0
 22 23  2  0  0  0  0
 22 25  1  0  0  0  0
 23 24  1  0  0  0  0
 25 26  2  0  0  0  0
 26 27  1  0  0  0  0
M  END
>  <CHROM.1>
14.53834164,-73.24864112,67.71380494,-119.61353851,-76.71025573,-52.76855186
120.52428048,14.09351159,-6.99411909,8.94284540,3.08486363,-1.26328240,-2.88065684

>  <Name>
ligand

>  <RI>
0

>  <Rbt.Current_Directory>
/home/itssahil/PROJECTS/Mol_Feturizer/Test_systems_manuscript/rnas/2ydh

>  <Rbt.Executable>
rbdock ($Id: //depot/dev/client3/rdock/2013.1/src/exe/rbdock.cxx#4 $)

>  <Rbt.Library>
libRbt.so (2013.1, Build901 2013/11/27)

>  <Rbt.Parameter_File>
/export/apps/rDock/src/rDock_2013.1_src/data/scripts/dock_solv.prm

>  <Rbt.Receptor>
prm/pocket_docking_8.prm

>  <SCORE>
-11.724

>  <SCORE.INTER>
-11.2797

>  <SCORE.INTER.CONST>
1

>  <SCORE.INTER.POLAR>
0

>  <SCORE.INTER.ROT>
7

>  <SCORE.INTER.SOLV>
8.05267

>  <SCORE.INTER.VDW>
-18.4707

>  <SCORE.INTER.norm>
-0.417767

>  <SCORE.INTRA>
-0.444254

>  <SCORE.INTRA.DIHEDRAL>
-1.04042

>  <SCORE.INTRA.DIHEDRAL.0>
9.75037

>  <SCORE.INTRA.POLAR>
0

>  <SCORE.INTRA.POLAR.0>
0

>  <SCORE.INTRA.REPUL>
0

>  <SCORE.INTRA.REPUL.0>
0

>  <SCORE.INTRA.SOLV>
2.8772

>  <SCORE.INTRA.SOLV.lig_0>
-48.4279

>  <SCORE.INTRA.VDW>
-1.36265

>  <SCORE.INTRA.VDW.0>
-4.69037

>  <SCORE.INTRA.norm>
-0.0164539

>  <SCORE.RESTR>
0

>  <SCORE.RESTR.CAVITY>
0

>  <SCORE.RESTR.norm>
0

>  <SCORE.SYSTEM>
0

>  <SCORE.SYSTEM.CONST>
0

>  <SCORE.SYSTEM.DIHEDRAL>
0

>  <SCORE.SYSTEM.SOLV>
0

>  <SCORE.SYSTEM.norm>
0

>  <SCORE.heavy>
27

>  <SCORE.norm>
-0.434221

>  <RMSD>
5.214

$$$$
ligand
 OpenBabel02271912153D
libRbt.so/2013.1/901 2013/11/27
 27 29  0  0  0  0  0  0  0  0999 V2000
   12.9692   -8.1867   11.9795 N   0  0  0  0  0  0  0  0  0  0  0  0
   14.1858   -8.4137   11.1400 C   0  0  2  0  0  0  0  0  0  0  0  0
   14.3040   -9.8963   10.7220 C   0  0  0  0  0  0  0  0  0  0  0  0
   15.2638  -10.2968   10.0564 O   0  0  0  0  0  0  0  0  0  0  0  0
   15.4201   -7.9310   11.8945 C   0  0  0  0  0  0  0  0  0  0  0  0
   15.5246   -6.4212   12.0311 C   0  0  0  0  0  0  0  0  0  0  0  0
   15.7964   -5.5738   10.4484 S   0  0  2  0  0  0  0  0  0  0  0  0
   17.5719   -5.8674   10.2092 C   0  0  0  0  0  0  0  0  0  0  0  0
   15.7480   -3.8087   10.7977 C   0  0  0  0  0  0  0  0  0  0  0  0
   15.7355   -3.0455    9.4870 C   0  0  1  0  0  0  0  0  0  0  0  0
   16.8619   -3.3395    8.6753 O   0  0  0  0  0  0  0  0  0  0  0  0
   14.5064   -3.3674    8.6724 C   0  0  1  0  0  0  0  0  0  0  0  0
   13.4236   -2.5704    9.0581 O   0  0  0  0  0  0  0  0  0  0  0  0
   14.9806   -3.0397    7.2894 C   0  0  1  0  0  0  0  0  0  0  0  0
   14.7587   -1.6654    7.0360 O   0  0  0  0  0  0  0  0  0  0  0  0
   16.4733   -3.3416    7.3211 C   0  0  2  0  0  0  0  0  0  0  0  0
   13.4458  -10.7444   11.0278 O   0  0  0  0  0  0  0  0  0  0  0  0
   14.7344   -7.6626    4.8384 N   0  0  0  0  0  0  0  0  0  0  0  0
   13.9943   -6.5679    5.2608 C   0  0  0  0  0  0  0  0  0  0  0  0
   14.6032   -5.5061    5.9191 N   0  0  0  0  0  0  0  0  0  0  0  0
   15.9316   -5.5371    6.1303 C   0  0  0  0  0  0  0  0  0  0  0  0
   16.6903   -6.6276    5.6959 C   0  0  0  0  0  0  0  0  0  0  0  0
   16.0945   -7.7004    5.0586 C   0  0  0  0  0  0  0  0  0  0  0  0
   16.8162   -8.7367    4.6585 N   0  0  0  0  0  0  0  0  0  0  0  0
   17.9686   -6.3990    6.0165 N   0  0  0  0  0  0  0  0  0  0  0  0
   18.0407   -5.2000    6.6356 C   0  0  0  0  0  0  0  0  0  0  0  0
   16.7863   -4.6477    6.7111 N   0  0  0  0  0  0  0  0  0  0  0  0
  2  1  1  1  0  0  0
  2  3  1  0  0  0  0
  2  5  1  0  0  0  0
  3  4  1  0  0  0  0
  3 17  1  0  0  0  0
  5  6  1  0  0  0  0
  7  6  1  1  0  0  0
  7  8  1  0  0  0  0
  7  9  1  0  0  0  0
 10  9  1  1  0  0  0
 10 11  1  0  0  0  0
 10 12  1  0  0  0  0
 11 16  1  0  0  0  0
 12 13  1  1  0  0  0
 12 14  1  0  0  0  0
 14 15  1  1  0  0  0
 14 16  1  0  0  0  0
 16 27  1  1  0  0  0
 18 19  2  0  0  0  0
 18 23  1  0  0  0  0
 19 20  1  0  0  0  0
 20 21  2  0  0  0  0
 21 22  1  0  0  0  0
 21 27  1  0  0  0  0
 22 23  2  0  0  0  0
 22 25  1  0  0  0  0
 23 24  1  0  0  0  0
 25 26  2  0  0  0  0
 26 27  1  0  0  0  0
M  END
>  <CHROM.1>
-177.86745820,-70.72985492,-67.00416584,-78.57617214,-170.58203948,-58.17133518
120.31757532,15.49829239,-5.97025458,8.49772567,2.64805375,-1.33496945,-2.82046091

>  <Name>
ligand

>  <RI>
0

>  <Rbt.Current_Directory>
/home/itssahil/PROJECTS/Mol_Feturizer/Test_systems_manuscript/rnas/2ydh

>  <Rbt.Executable>
rbdock ($Id: //depot/dev/client3/rdock/2013.1/src/exe/rbdock.cxx#4 $)

>  <Rbt.Library>
libRbt.so (2013.1, Build901 2013/11/27)

>  <Rbt.Parameter_File>
/export/apps/rDock/src/rDock_2013.1_src/data/scripts/dock_solv.prm

>  <Rbt.Receptor>
prm/pocket_docking_8.prm

>  <SCORE>
-12.591

>  <SCORE.INTER>
-11.8691

>  <SCORE.INTER.CONST>
1

>  <SCORE.INTER.POLAR>
0

>  <SCORE.INTER.ROT>
7

>  <SCORE.INTER.SOLV>
12.7921

>  <SCORE.INTER.VDW>
-20.4434

>  <SCORE.INTER.norm>
-0.439596

>  <SCORE.INTRA>
-0.721943

>  <SCORE.INTRA.DIHEDRAL>
-4.86441

>  <SCORE.INTRA.DIHEDRAL.0>
9.75037

>  <SCORE.INTRA.POLAR>
0

>  <SCORE.INTRA.POLAR.0>
0

>  <SCORE.INTRA.REPUL>
0

>  <SCORE.INTRA.REPUL.0>
0

>  <SCORE.INTRA.SOLV>
-0.258609

>  <SCORE.INTRA.SOLV.lig_0>
-48.4279

>  <SCORE.INTRA.VDW>
1.83957

>  <SCORE.INTRA.VDW.0>
-4.69037

>  <SCORE.INTRA.norm>
-0.0267386

>  <SCORE.RESTR>
0

>  <SCORE.RESTR.CAVITY>
0

>  <SCORE.RESTR.norm>
0

>  <SCORE.SYSTEM>
0

>  <SCORE.SYSTEM.CONST>
0

>  <SCORE.SYSTEM.DIHEDRAL>
0

>  <SCORE.SYSTEM.SOLV>
0

>  <SCORE.SYSTEM.norm>
0

>  <SCORE.heavy>
27

>  <SCORE.norm>
-0.466335

>  <RMSD>
5.219

$$$$
ligand
 OpenBabel02271912153D
libRbt.so/2013.1/901 2013/11/27
 27 29  0  0  0  0  0  0  0  0999 V2000
   18.0610   -4.9216   11.7563 N   0  0  0  0  0  0  0  0  0  0  0  0
   16.5884   -4.7367   11.5719 C   0  0  2  0  0  0  0  0  0  0  0  0
   15.8099   -5.9932   12.0211 C   0  0  0  0  0  0  0  0  0  0  0  0
   16.1491   -7.1206   11.6489 O   0  0  0  0  0  0  0  0  0  0  0  0
   16.3009   -4.3734   10.1190 C   0  0  0  0  0  0  0  0  0  0  0  0
   16.8302   -3.0142    9.6927 C   0  0  0  0  0  0  0  0  0  0  0  0
   16.6690   -2.7073    7.9103 S   0  0  2  0  0  0  0  0  0  0  0  0
   17.0107   -0.9257    7.8427 C   0  0  0  0  0  0  0  0  0  0  0  0
   14.9092   -2.7701    7.5372 C   0  0  0  0  0  0  0  0  0  0  0  0
   14.6097   -4.0501    6.7805 C   0  0  1  0  0  0  0  0  0  0  0  0
   15.0622   -5.2068    7.4671 O   0  0  0  0  0  0  0  0  0  0  0  0
   13.1279   -4.2222    6.5515 C   0  0  1  0  0  0  0  0  0  0  0  0
   12.7127   -3.5378    5.4044 O   0  0  0  0  0  0  0  0  0  0  0  0
   13.0304   -5.7081    6.3852 C   0  0  1  0  0  0  0  0  0  0  0  0
   13.2538   -6.0390    5.0277 O   0  0  0  0  0  0  0  0  0  0  0  0
   14.1494   -6.2596    7.2593 C   0  0  2  0  0  0  0  0  0  0  0  0
   14.8141   -5.9286   12.7650 O   0  0  0  0  0  0  0  0  0  0  0  0
   14.4599   -9.8444   11.1209 N   0  0  0  0  0  0  0  0  0  0  0  0
   15.2265   -9.7677    9.9672 C   0  0  0  0  0  0  0  0  0  0  0  0
   15.0103   -8.7622    9.0325 N   0  0  0  0  0  0  0  0  0  0  0  0
   14.0559   -7.8424    9.2638 C   0  0  0  0  0  0  0  0  0  0  0  0
   13.2873   -7.9003   10.4298 C   0  0  0  0  0  0  0  0  0  0  0  0
   13.4772   -8.9074   11.3580 C   0  0  0  0  0  0  0  0  0  0  0  0
   12.7389   -8.9644   12.4563 N   0  0  0  0  0  0  0  0  0  0  0  0
   12.4325   -6.8716   10.4158 N   0  0  0  0  0  0  0  0  0  0  0  0
   12.6390   -6.1663    9.2818 C   0  0  0  0  0  0  0  0  0  0  0  0
   13.6466   -6.7514    8.5560 N   0  0  0  0  0  0  0  0  0  0  0  0
  2  1  1  6  0  0  0
  2  3  1  0  0  0  0
  2  5  1  0  0  0  0
  3  4  1  0  0  0  0
  3 17  1  0  0  0  0
  5  6  1  0  0  0  0
  7  6  1  1  0  0  0
  7  8  1  0  0  0  0
  7  9  1  0  0  0  0
 10  9  1  1  0  0  0
 10 11  1  0  0  0  0
 10 12  1  0  0  0  0
 11 16  1  0  0  0  0
 12 13  1  6  0  0  0
 12 14  1  0  0  0  0
 14 15  1  6  0  0  0
 14 16  1  0  0  0  0
 16 27  1  1  0  0  0
 18 19  2  0  0  0  0
 18 23  1  0  0  0  0
 19 20  1  0  0  0  0
 20 21  2  0  0  0  0
 21 22  1  0  0  0  0
 21 27  1  0  0  0  0
 22 23  2  0  0  0  0
 22 25  1  0  0  0  0
 23 24  1  0  0  0  0
 25 26  2  0  0  0  0
 26 27  1  0  0  0  0
M  END
>  <CHROM.1>
-48.24483589,-66.96765802,172.28136372,167.28854104,-107.45645877,54.37602364
-99.03016719,14.78358543,-5.68439984,9.14427648,-1.78244196,-0.82579820,-0.83523565

>  <Name>
ligand

>  <RI>
0

>  <Rbt.Current_Directory>
/home/itssahil/PROJECTS/Mol_Feturizer/Test_systems_manuscript/rnas/2ydh

>  <Rbt.Executable>
rbdock ($Id: //depot/dev/client3/rdock/2013.1/src/exe/rbdock.cxx#4 $)

>  <Rbt.Library>
libRbt.so (2013.1, Build901 2013/11/27)

>  <Rbt.Parameter_File>
/export/apps/rDock/src/rDock_2013.1_src/data/scripts/dock_solv.prm

>  <Rbt.Receptor>
prm/pocket_docking_3.prm

>  <SCORE>
-17.6281

>  <SCORE.INTER>
-15.5863

>  <SCORE.INTER.CONST>
1

>  <SCORE.INTER.POLAR>
0

>  <SCORE.INTER.ROT>
7

>  <SCORE.INTER.SOLV>
13.0185

>  <SCORE.INTER.VDW>
-22.997

>  <SCORE.INTER.norm>
-0.57727

>  <SCORE.INTRA>
-2.0418

>  <SCORE.INTRA.DIHEDRAL>
-2.75244

>  <SCORE.INTRA.DIHEDRAL.0>
9.75037

>  <SCORE.INTRA.POLAR>
0

>  <SCORE.INTRA.POLAR.0>
0

>  <SCORE.INTRA.REPUL>
0

>  <SCORE.INTRA.REPUL.0>
0

>  <SCORE.INTRA.SOLV>
-0.45701

>  <SCORE.INTRA.SOLV.lig_0>
-48.4279

>  <SCORE.INTRA.VDW>
-0.437075

>  <SCORE.INTRA.VDW.0>
-4.69037

>  <SCORE.INTRA.norm>
-0.0756222

>  <SCORE.RESTR>
0

>  <SCORE.RESTR.CAVITY>
0

>  <SCORE.RESTR.norm>
0

>  <SCORE.SYSTEM>
0

>  <SCORE.SYSTEM.CONST>
0

>  <SCORE.SYSTEM.DIHEDRAL>
0

>  <SCORE.SYSTEM.SOLV>
0

>  <SCORE.SYSTEM.norm>
0

>  <SCORE.heavy>
27

>  <SCORE.norm>
-0.652892

>  <RMSD>
5.222

$$$$
ligand
 OpenBabel02271912153D
libRbt.so/2013.1/901 2013/11/27
 27 29  0  0  0  0  0  0  0  0999 V2000
   12.6646  -10.5935   13.5814 N   0  0  0  0  0  0  0  0  0  0  0  0
   14.0315   -9.9890   13.6333 C   0  0  2  0  0  0  0  0  0  0  0  0
   14.5305   -9.8675   15.0904 C   0  0  0  0  0  0  0  0  0  0  0  0
   13.7609   -9.5560   16.0043 O   0  0  0  0  0  0  0  0  0  0  0  0
   14.0180   -8.6421   12.9181 C   0  0  0  0  0  0  0  0  0  0  0  0
   13.6798   -8.7177   11.4386 C   0  0  0  0  0  0  0  0  0  0  0  0
   13.6312   -7.0932   10.6289 S   0  0  2  0  0  0  0  0  0  0  0  0
   12.0492   -6.4544   11.2492 C   0  0  0  0  0  0  0  0  0  0  0  0
   13.2628   -7.3971    8.8934 C   0  0  0  0  0  0  0  0  0  0  0  0
   13.6540   -6.1756    8.0838 C   0  0  1  0  0  0  0  0  0  0  0  0
   15.0534   -5.9395    8.0966 O   0  0  0  0  0  0  0  0  0  0  0  0
   13.2417   -6.3158    6.6387 C   0  0  1  0  0  0  0  0  0  0  0  0
   11.9135   -5.9182    6.4532 O   0  0  0  0  0  0  0  0  0  0  0  0
   14.2056   -5.3838    5.9699 C   0  0  1  0  0  0  0  0  0  0  0  0
   13.6647   -4.0763    5.9720 O   0  0  0  0  0  0  0  0  0  0  0  0
   15.4546   -5.4452    6.8397 C   0  0  2  0  0  0  0  0  0  0  0  0
   15.7173  -10.0699   15.4065 O   0  0  0  0  0  0  0  0  0  0  0  0
   16.6373   -9.4735    3.6408 N   0  0  0  0  0  0  0  0  0  0  0  0
   15.3876   -8.9277    3.8956 C   0  0  0  0  0  0  0  0  0  0  0  0
   15.2393   -7.8682    4.7828 N   0  0  0  0  0  0  0  0  0  0  0  0
   16.3281   -7.3568    5.3855 C   0  0  0  0  0  0  0  0  0  0  0  0
   17.5943   -7.8883    5.1251 C   0  0  0  0  0  0  0  0  0  0  0  0
   17.7541   -8.9560    4.2611 C   0  0  0  0  0  0  0  0  0  0  0  0
   18.9549   -9.4633    4.0260 N   0  0  0  0  0  0  0  0  0  0  0  0
   18.4906   -7.1943    5.8352 N   0  0  0  0  0  0  0  0  0  0  0  0
   17.8317   -6.2420    6.5316 C   0  0  0  0  0  0  0  0  0  0  0  0
   16.4884   -6.3243    6.2614 N   0  0  0  0  0  0  0  0  0  0  0  0
  2  1  1  1  0  0  0
  2  3  1  0  0  0  0
  2  5  1  0  0  0  0
  3  4  1  0  0  0  0
  3 17  1  0  0  0  0
  5  6  1  0  0  0  0
  7  6  1  1  0  0  0
  7  8  1  0  0  0  0
  7  9  1  0  0  0  0
 10  9  1  1  0  0  0
 10 11  1  0  0  0  0
 10 12  1  0  0  0  0
 11 16  1  0  0  0  0
 12 13  1  1  0  0  0
 12 14  1  0  0  0  0
 14 15  1  1  0  0  0
 14 16  1  0  0  0  0
 16 27  1  6  0  0  0
 18 19  2  0  0  0  0
 18 23  1  0  0  0  0
 19 20  1  0  0  0  0
 20 21  2  0  0  0  0
 21 22  1  0  0  0  0
 21 27  1  0  0  0  0
 22 23  2  0  0  0  0
 22 25  1  0  0  0  0
 23 24  1  0  0  0  0
 25 26  2  0  0  0  0
 26 27  1  0  0  0  0
M  END
>  <CHROM.1>
-38.19677737,-62.57369897,178.53282189,-75.24954875,-161.38722302,65.39245541
94.88356263,14.87531957,-7.63085230,8.60987239,-1.91006514,0.67246906,-1.14717993

>  <Name>
ligand

>  <RI>
0

>  <Rbt.Current_Directory>
/home/itssahil/PROJECTS/Mol_Feturizer/Test_systems_manuscript/rnas/2ydh

>  <Rbt.Executable>
rbdock ($Id: //depot/dev/client3/rdock/2013.1/src/exe/rbdock.cxx#4 $)

>  <Rbt.Library>
libRbt.so (2013.1, Build901 2013/11/27)

>  <Rbt.Parameter_File>
/export/apps/rDock/src/rDock_2013.1_src/data/scripts/dock_solv.prm

>  <Rbt.Receptor>
prm/pocket_docking_7.prm

>  <SCORE>
-11.8842

>  <SCORE.INTER>
-11.2449

>  <SCORE.INTER.CONST>
1

>  <SCORE.INTER.POLAR>
0

>  <SCORE.INTER.ROT>
7

>  <SCORE.INTER.SOLV>
13.0606

>  <SCORE.INTER.VDW>
-20.1168

>  <SCORE.INTER.norm>
-0.416478

>  <SCORE.INTRA>
-0.639277

>  <SCORE.INTRA.DIHEDRAL>
-4.64378

>  <SCORE.INTRA.DIHEDRAL.0>
9.75037

>  <SCORE.INTRA.POLAR>
0

>  <SCORE.INTRA.POLAR.0>
0

>  <SCORE.INTRA.REPUL>
0

>  <SCORE.INTRA.REPUL.0>
0

>  <SCORE.INTRA.SOLV>
-0.88421

>  <SCORE.INTRA.SOLV.lig_0>
-48.4279

>  <SCORE.INTRA.VDW>
2.12472

>  <SCORE.INTRA.VDW.0>
-4.69037

>  <SCORE.INTRA.norm>
-0.0236769

>  <SCORE.RESTR>
0

>  <SCORE.RESTR.CAVITY>
0

>  <SCORE.RESTR.norm>
0

>  <SCORE.SYSTEM>
0

>  <SCORE.SYSTEM.CONST>
0

>  <SCORE.SYSTEM.DIHEDRAL>
0

>  <SCORE.SYSTEM.SOLV>
0

>  <SCORE.SYSTEM.norm>
0

>  <SCORE.heavy>
27

>  <SCORE.norm>
-0.440155

>  <RMSD>
5.236

$$$$
ligand
 OpenBabel02271912153D
libRbt.so/2013.1/901 2013/11/27
 27 29  0  0  0  0  0  0  0  0999 V2000
   13.8200   -8.6385   13.4955 N   0  0  0  0  0  0  0  0  0  0  0  0
   12.7283   -8.6297   12.4734 C   0  0  2  0  0  0  0  0  0  0  0  0
   12.2970  -10.0676   12.1085 C   0  0  0  0  0  0  0  0  0  0  0  0
   12.9371  -10.7380   11.2927 O   0  0  0  0  0  0  0  0  0  0  0  0
   13.1846   -7.8407   11.2507 C   0  0  0  0  0  0  0  0  0  0  0  0
   13.5374   -6.3898   11.5327 C   0  0  0  0  0  0  0  0  0  0  0  0
   14.2256   -5.5247   10.0922 S   0  0  2  0  0  0  0  0  0  0  0  0
   15.8149   -6.3831    9.9109 C   0  0  0  0  0  0  0  0  0  0  0  0
   14.7370   -3.8979   10.6682 C   0  0  0  0  0  0  0  0  0  0  0  0
   15.1971   -3.0749    9.4801 C   0  0  1  0  0  0  0  0  0  0  0  0
   16.4032   -3.5637    8.9138 O   0  0  0  0  0  0  0  0  0  0  0  0
   14.1631   -3.0665    8.3808 C   0  0  1  0  0  0  0  0  0  0  0  0
   13.2034   -2.0726    8.5997 O   0  0  0  0  0  0  0  0  0  0  0  0
   15.0144   -2.7714    7.1836 C   0  0  1  0  0  0  0  0  0  0  0  0
   15.1433   -1.3696    7.0398 O   0  0  0  0  0  0  0  0  0  0  0  0
   16.3620   -3.3992    7.5152 C   0  0  2  0  0  0  0  0  0  0  0  0
   11.2940  -10.6089   12.6090 O   0  0  0  0  0  0  0  0  0  0  0  0
   14.1934   -7.4318    4.8895 N   0  0  0  0  0  0  0  0  0  0  0  0
   13.5657   -6.2892    5.3638 C   0  0  0  0  0  0  0  0  0  0  0  0
   14.2799   -5.3176    6.0548 N   0  0  0  0  0  0  0  0  0  0  0  0
   15.6011   -5.4837    6.2471 C   0  0  0  0  0  0  0  0  0  0  0  0
   16.2476   -6.6234    5.7607 C   0  0  0  0  0  0  0  0  0  0  0  0
   15.5457   -7.6081    5.0901 C   0  0  0  0  0  0  0  0  0  0  0  0
   16.1608   -8.6916    4.6405 N   0  0  0  0  0  0  0  0  0  0  0  0
   17.5448   -6.5309    6.0731 N   0  0  0  0  0  0  0  0  0  0  0  0
   17.7375   -5.3699    6.7373 C   0  0  0  0  0  0  0  0  0  0  0  0
   16.5425   -4.7038    6.8508 N   0  0  0  0  0  0  0  0  0  0  0  0
  2  1  1  1  0  0  0
  2  3  1  0  0  0  0
  2  5  1  0  0  0  0
  3  4  1  0  0  0  0
  3 17  1  0  0  0  0
  5  6  1  0  0  0  0
  7  6  1  1  0  0  0
  7  8  1  0  0  0  0
  7  9  1  0  0  0  0
 10  9  1  1  0  0  0
 10 11  1  0  0  0  0
 10 12  1  0  0  0  0
 11 16  1  0  0  0  0
 12 13  1  1  0  0  0
 12 14  1  0  0  0  0
 14 15  1  1  0  0  0
 14 16  1  0  0  0  0
 16 27  1  6  0  0  0
 18 19  2  0  0  0  0
 18 23  1  0  0  0  0
 19 20  1  0  0  0  0
 20 21  2  0  0  0  0
 21 22  1  0  0  0  0
 21 27  1  0  0  0  0
 22 23  2  0  0  0  0
 22 25  1  0  0  0  0
 23 24  1  0  0  0  0
 25 26  2  0  0  0  0
 26 27  1  0  0  0  0
M  END
>  <CHROM.1>
-81.65802416,-60.03259181,174.50469918,-67.85162518,-174.51476401,-68.32500763
104.26375195,14.66445746,-5.96884201,8.67837934,2.80273276,-1.16956606,-2.78077738

>  <Name>
ligand

>  <RI>
0

>  <Rbt.Current_Directory>
/home/itssahil/PROJECTS/Mol_Feturizer/Test_systems_manuscript/rnas/2ydh

>  <Rbt.Executable>
rbdock ($Id: //depot/dev/client3/rdock/2013.1/src/exe/rbdock.cxx#4 $)

>  <Rbt.Library>
libRbt.so (2013.1, Build901 2013/11/27)

>  <Rbt.Parameter_File>
/export/apps/rDock/src/rDock_2013.1_src/data/scripts/dock_solv.prm

>  <Rbt.Receptor>
prm/pocket_docking_4.prm

>  <SCORE>
-12.8543

>  <SCORE.INTER>
-11.8033

>  <SCORE.INTER.CONST>
1

>  <SCORE.INTER.POLAR>
0

>  <SCORE.INTER.ROT>
7

>  <SCORE.INTER.SOLV>
12.4862

>  <SCORE.INTER.VDW>
-20.2976

>  <SCORE.INTER.norm>
-0.437158

>  <SCORE.INTRA>
-1.05107

>  <SCORE.INTRA.DIHEDRAL>
-5.88646

>  <SCORE.INTRA.DIHEDRAL.0>
9.75037

>  <SCORE.INTRA.POLAR>
0

>  <SCORE.INTRA.POLAR.0>
0

>  <SCORE.INTRA.REPUL>
0

>  <SCORE.INTRA.REPUL.0>
0

>  <SCORE.INTRA.SOLV>
-0.474658

>  <SCORE.INTRA.SOLV.lig_0>
-48.4279

>  <SCORE.INTRA.VDW>
2.12949

>  <SCORE.INTRA.VDW.0>
-4.69037

>  <SCORE.INTRA.norm>
-0.0389283

>  <SCORE.RESTR>
0

>  <SCORE.RESTR.CAVITY>
0

>  <SCORE.RESTR.norm>
0

>  <SCORE.SYSTEM>
0

>  <SCORE.SYSTEM.CONST>
0

>  <SCORE.SYSTEM.DIHEDRAL>
0

>  <SCORE.SYSTEM.SOLV>
0

>  <SCORE.SYSTEM.norm>
0

>  <SCORE.heavy>
27

>  <SCORE.norm>
-0.476087

>  <RMSD>
5.242

$$$$
ligand
 OpenBabel02271912153D
libRbt.so/2013.1/901 2013/11/27
 27 29  0  0  0  0  0  0  0  0999 V2000
   14.4749   -4.2439   11.8015 N   0  0  0  0  0  0  0  0  0  0  0  0
   15.6850   -4.6932   11.0461 C   0  0  2  0  0  0  0  0  0  0  0  0
   16.7663   -5.2412   12.0037 C   0  0  0  0  0  0  0  0  0  0  0  0
   17.9568   -4.9487   11.8558 O   0  0  0  0  0  0  0  0  0  0  0  0
   16.2060   -3.5422   10.1920 C   0  0  0  0  0  0  0  0  0  0  0  0
   17.1982   -3.9540    9.1173 C   0  0  0  0  0  0  0  0  0  0  0  0
   16.9460   -3.0929    7.5387 S   0  0  2  0  0  0  0  0  0  0  0  0
   17.0474   -1.3626    8.0785 C   0  0  0  0  0  0  0  0  0  0  0  0
   15.1998   -3.2625    7.1364 C   0  0  0  0  0  0  0  0  0  0  0  0
   14.9816   -4.5871    6.4303 C   0  0  1  0  0  0  0  0  0  0  0  0
   15.7896   -5.6262    6.9609 O   0  0  0  0  0  0  0  0  0  0  0  0
   13.5466   -5.0417    6.5405 C   0  0  1  0  0  0  0  0  0  0  0  0
   12.7577   -4.4658    5.5392 O   0  0  0  0  0  0  0  0  0  0  0  0
   13.6957   -6.5212    6.3568 C   0  0  1  0  0  0  0  0  0  0  0  0
   13.6598   -6.8234    4.9749 O   0  0  0  0  0  0  0  0  0  0  0  0
   15.0689   -6.8366    6.9357 C   0  0  2  0  0  0  0  0  0  0  0  0
   16.4927   -5.9977   12.9536 O   0  0  0  0  0  0  0  0  0  0  0  0
   12.2499   -9.5099   10.5086 N   0  0  0  0  0  0  0  0  0  0  0  0
   11.8915   -9.1916    9.2067 C   0  0  0  0  0  0  0  0  0  0  0  0
   12.7472   -8.4631    8.3891 N   0  0  0  0  0  0  0  0  0  0  0  0
   13.9458   -8.0802    8.8654 C   0  0  0  0  0  0  0  0  0  0  0  0
   14.3244   -8.4081   10.1703 C   0  0  0  0  0  0  0  0  0  0  0  0
   13.4745   -9.1139   11.0019 C   0  0  0  0  0  0  0  0  0  0  0  0
   13.8334   -9.4128   12.2414 N   0  0  0  0  0  0  0  0  0  0  0  0
   15.5534   -7.9241   10.3807 N   0  0  0  0  0  0  0  0  0  0  0  0
   15.9627   -7.3052    9.2513 C   0  0  0  0  0  0  0  0  0  0  0  0
   14.9794   -7.3960    8.2977 N   0  0  0  0  0  0  0  0  0  0  0  0
  2  1  1  1  0  0  0
  2  3  1  0  0  0  0
  2  5  1  0  0  0  0
  3  4  1  0  0  0  0
  3 17  1  0  0  0  0
  5  6  1  0  0  0  0
  7  6  1  1  0  0  0
  7  8  1  0  0  0  0
  7  9  1  0  0  0  0
 10  9  1  1  0  0  0
 10 11  1  0  0  0  0
 10 12  1  0  0  0  0
 11 16  1  0  0  0  0
 12 13  1  6  0  0  0
 12 14  1  0  0  0  0
 14 15  1  6  0  0  0
 14 16  1  0  0  0  0
 16 27  1  1  0  0  0
 18 19  2  0  0  0  0
 18 23  1  0  0  0  0
 19 20  1  0  0  0  0
 20 21  2  0  0  0  0
 21 22  1  0  0  0  0
 21 27  1  0  0  0  0
 22 23  2  0  0  0  0
 22 25  1  0  0  0  0
 23 24  1  0  0  0  0
 25 26  2  0  0  0  0
 26 27  1  0  0  0  0
M  END
>  <CHROM.1>
-136.92574728,-165.02864794,139.26929046,55.92971877,-84.79953732,37.59073382
144.51259500,15.03569088,-5.89924175,8.93015296,-0.85158568,0.90174279,2.10603290

>  <Name>
ligand

>  <RI>
0

>  <Rbt.Current_Directory>
/home/itssahil/PROJECTS/Mol_Feturizer/Test_systems_manuscript/rnas/2ydh

>  <Rbt.Executable>
rbdock ($Id: //depot/dev/client3/rdock/2013.1/src/exe/rbdock.cxx#4 $)

>  <Rbt.Library>
libRbt.so (2013.1, Build901 2013/11/27)

>  <Rbt.Parameter_File>
/export/apps/rDock/src/rDock_2013.1_src/data/scripts/dock_solv.prm

>  <Rbt.Receptor>
prm/pocket_docking_5.prm

>  <SCORE>
-10.9519

>  <SCORE.INTER>
-12.7937

>  <SCORE.INTER.CONST>
1

>  <SCORE.INTER.POLAR>
0

>  <SCORE.INTER.ROT>
7

>  <SCORE.INTER.SOLV>
13.0883

>  <SCORE.INTER.VDW>
-21.1586

>  <SCORE.INTER.norm>
-0.473839

>  <SCORE.INTRA>
1.84172

>  <SCORE.INTRA.DIHEDRAL>
0.820562

>  <SCORE.INTRA.DIHEDRAL.0>
9.75037

>  <SCORE.INTRA.POLAR>
0

>  <SCORE.INTRA.POLAR.0>
0

>  <SCORE.INTRA.REPUL>
0

>  <SCORE.INTRA.REPUL.0>
0

>  <SCORE.INTRA.SOLV>
-1.28587

>  <SCORE.INTRA.SOLV.lig_0>
-48.4279

>  <SCORE.INTRA.VDW>
2.07437

>  <SCORE.INTRA.VDW.0>
-4.69037

>  <SCORE.INTRA.norm>
0.0682117

>  <SCORE.RESTR>
0

>  <SCORE.RESTR.CAVITY>
0

>  <SCORE.RESTR.norm>
0

>  <SCORE.SYSTEM>
0

>  <SCORE.SYSTEM.CONST>
0

>  <SCORE.SYSTEM.DIHEDRAL>
0

>  <SCORE.SYSTEM.SOLV>
0

>  <SCORE.SYSTEM.norm>
0

>  <SCORE.heavy>
27

>  <SCORE.norm>
-0.405627

>  <RMSD>
5.248

$$$$
ligand
 OpenBabel02271912153D
libRbt.so/2013.1/901 2013/11/27
 27 29  0  0  0  0  0  0  0  0999 V2000
   14.0897   -6.0664   11.3513 N   0  0  0  0  0  0  0  0  0  0  0  0
   15.4498   -5.6035   10.9360 C   0  0  2  0  0  0  0  0  0  0  0  0
   16.2124   -4.9805   12.1264 C   0  0  0  0  0  0  0  0  0  0  0  0
   15.6082   -4.5111   13.0956 O   0  0  0  0  0  0  0  0  0  0  0  0
   15.3202   -4.6325    9.7673 C   0  0  0  0  0  0  0  0  0  0  0  0
   16.6442   -4.1699    9.1825 C   0  0  0  0  0  0  0  0  0  0  0  0
   16.4840   -3.4469    7.5247 S   0  0  2  0  0  0  0  0  0  0  0  0
   15.3663   -2.0584    7.8689 C   0  0  0  0  0  0  0  0  0  0  0  0
   15.4282   -4.5583    6.5813 C   0  0  0  0  0  0  0  0  0  0  0  0
   16.2165   -5.8035    6.2228 C   0  0  1  0  0  0  0  0  0  0  0  0
   17.3725   -5.9669    7.0299 O   0  0  0  0  0  0  0  0  0  0  0  0
   15.3826   -7.0509    6.3857 C   0  0  1  0  0  0  0  0  0  0  0  0
   14.6182   -7.2987    5.2408 O   0  0  0  0  0  0  0  0  0  0  0  0
   16.4461   -8.0871    6.5862 C   0  0  1  0  0  0  0  0  0  0  0  0
   16.8717   -8.5658    5.3244 O   0  0  0  0  0  0  0  0  0  0  0  0
   17.5762   -7.3383    7.2808 C   0  0  2  0  0  0  0  0  0  0  0  0
   17.4551   -4.9183   12.1616 O   0  0  0  0  0  0  0  0  0  0  0  0
   15.5318   -9.9073   11.4136 N   0  0  0  0  0  0  0  0  0  0  0  0
   15.1619  -10.0092   10.0803 C   0  0  0  0  0  0  0  0  0  0  0  0
   15.7940   -9.2478    9.1045 N   0  0  0  0  0  0  0  0  0  0  0  0
   16.7900   -8.4162    9.4607 C   0  0  0  0  0  0  0  0  0  0  0  0
   17.1817   -8.3162   10.7986 C   0  0  0  0  0  0  0  0  0  0  0  0
   16.5475   -9.0518   11.7828 C   0  0  0  0  0  0  0  0  0  0  0  0
   16.9151   -8.9454   13.0509 N   0  0  0  0  0  0  0  0  0  0  0  0
   18.1895   -7.4399   10.8724 N   0  0  0  0  0  0  0  0  0  0  0  0
   18.4474   -6.9869    9.6256 C   0  0  0  0  0  0  0  0  0  0  0  0
   17.5914   -7.5856    8.7350 N   0  0  0  0  0  0  0  0  0  0  0  0
  2  1  1  1  0  0  0
  2  3  1  0  0  0  0
  2  5  1  0  0  0  0
  3  4  1  0  0  0  0
  3 17  1  0  0  0  0
  5  6  1  0  0  0  0
  7  6  1  1  0  0  0
  7  8  1  0  0  0  0
  7  9  1  0  0  0  0
 10  9  1  1  0  0  0
 10 11  1  0  0  0  0
 10 12  1  0  0  0  0
 11 16  1  0  0  0  0
 12 13  1  6  0  0  0
 12 14  1  0  0  0  0
 14 15  1  6  0  0  0
 14 16  1  0  0  0  0
 16 27  1  1  0  0  0
 18 19  2  0  0  0  0
 18 23  1  0  0  0  0
 19 20  1  0  0  0  0
 20 21  2  0  0  0  0
 21 22  1  0  0  0  0
 21 27  1  0  0  0  0
 22 23  2  0  0  0  0
 22 25  1  0  0  0  0
 23 24  1  0  0  0  0
 25 26  2  0  0  0  0
 26 27  1  0  0  0  0
M  END
>  <CHROM.1>
-23.77567672,-175.57362456,162.42936288,60.08288471,-74.00985501,18.15939793
122.07853713,16.31748366,-6.48820167,9.12294895,0.86933532,-1.48711851,1.26257279

>  <Name>
ligand

>  <RI>
0

>  <Rbt.Current_Directory>
/home/itssahil/PROJECTS/Mol_Feturizer/Test_systems_manuscript/rnas/2ydh

>  <Rbt.Executable>
rbdock ($Id: //depot/dev/client3/rdock/2013.1/src/exe/rbdock.cxx#4 $)

>  <Rbt.Library>
libRbt.so (2013.1, Build901 2013/11/27)

>  <Rbt.Parameter_File>
/export/apps/rDock/src/rDock_2013.1_src/data/scripts/dock_solv.prm

>  <Rbt.Receptor>
prm/pocket_docking_5.prm

>  <SCORE>
-9.26603

>  <SCORE.INTER>
-9.26893

>  <SCORE.INTER.CONST>
1

>  <SCORE.INTER.POLAR>
0

>  <SCORE.INTER.ROT>
7

>  <SCORE.INTER.SOLV>
10.0128

>  <SCORE.INTER.VDW>
-17.7836

>  <SCORE.INTER.norm>
-0.343294

>  <SCORE.INTRA>
0.00290372

>  <SCORE.INTRA.DIHEDRAL>
-1.13607

>  <SCORE.INTRA.DIHEDRAL.0>
9.75037

>  <SCORE.INTRA.POLAR>
0

>  <SCORE.INTRA.POLAR.0>
0

>  <SCORE.INTRA.REPUL>
0

>  <SCORE.INTRA.REPUL.0>
0

>  <SCORE.INTRA.SOLV>
-0.552265

>  <SCORE.INTRA.SOLV.lig_0>
-48.4279

>  <SCORE.INTRA.VDW>
0.847073

>  <SCORE.INTRA.VDW.0>
-4.69037

>  <SCORE.INTRA.norm>
0.000107545

>  <SCORE.RESTR>
0

>  <SCORE.RESTR.CAVITY>
0

>  <SCORE.RESTR.norm>
0

>  <SCORE.SYSTEM>
0

>  <SCORE.SYSTEM.CONST>
0

>  <SCORE.SYSTEM.DIHEDRAL>
0

>  <SCORE.SYSTEM.SOLV>
0

>  <SCORE.SYSTEM.norm>
0

>  <SCORE.heavy>
27

>  <SCORE.norm>
-0.343186

>  <RMSD>
5.260

$$$$
ligand
 OpenBabel02271912153D
libRbt.so/2013.1/901 2013/11/27
 27 29  0  0  0  0  0  0  0  0999 V2000
   12.0360   -8.9532   11.6716 N   0  0  0  0  0  0  0  0  0  0  0  0
   12.0411   -8.2038   12.9658 C   0  0  2  0  0  0  0  0  0  0  0  0
   10.6716   -7.5390   13.2285 C   0  0  0  0  0  0  0  0  0  0  0  0
   10.1485   -7.5760   14.3465 O   0  0  0  0  0  0  0  0  0  0  0  0
   13.1791   -7.1887   12.9596 C   0  0  0  0  0  0  0  0  0  0  0  0
   13.0154   -6.0647   11.9502 C   0  0  0  0  0  0  0  0  0  0  0  0
   14.5958   -5.4106   11.3407 S   0  0  2  0  0  0  0  0  0  0  0  0
   15.2180   -4.5866   12.8339 C   0  0  0  0  0  0  0  0  0  0  0  0
   14.1960   -4.0151   10.2766 C   0  0  0  0  0  0  0  0  0  0  0  0
   15.4313   -3.6253    9.4875 C   0  0  1  0  0  0  0  0  0  0  0  0
   16.1775   -4.7517    9.0532 O   0  0  0  0  0  0  0  0  0  0  0  0
   15.0717   -2.8306    8.2558 C   0  0  1  0  0  0  0  0  0  0  0  0
   14.9295   -1.4720    8.5569 O   0  0  0  0  0  0  0  0  0  0  0  0
   16.2623   -3.0911    7.3842 C   0  0  1  0  0  0  0  0  0  0  0  0
   17.2679   -2.1391    7.6751 O   0  0  0  0  0  0  0  0  0  0  0  0
   16.7209   -4.4887    7.7802 C   0  0  2  0  0  0  0  0  0  0  0  0
   10.0368   -6.9474   12.3361 O   0  0  0  0  0  0  0  0  0  0  0  0
   17.8959   -8.7110    4.8391 N   0  0  0  0  0  0  0  0  0  0  0  0
   18.7355   -8.0052    5.6885 C   0  0  0  0  0  0  0  0  0  0  0  0
   18.2741   -6.8968    6.3885 N   0  0  0  0  0  0  0  0  0  0  0  0
   16.9902   -6.5189    6.2513 C   0  0  0  0  0  0  0  0  0  0  0  0
   16.1307   -7.2312    5.4101 C   0  0  0  0  0  0  0  0  0  0  0  0
   16.5816   -8.3229    4.6913 C   0  0  0  0  0  0  0  0  0  0  0  0
   15.7660   -8.9881    3.8870 N   0  0  0  0  0  0  0  0  0  0  0  0
   14.9232   -6.6587    5.4683 N   0  0  0  0  0  0  0  0  0  0  0  0
   14.9927   -5.6118    6.3198 C   0  0  0  0  0  0  0  0  0  0  0  0
   16.2674   -5.5122    6.8196 N   0  0  0  0  0  0  0  0  0  0  0  0
  2  1  1  6  0  0  0
  2  3  1  0  0  0  0
  2  5  1  0  0  0  0
  3  4  1  0  0  0  0
  3 17  1  0  0  0  0
  5  6  1  0  0  0  0
  7  6  1  1  0  0  0
  7  8  1  0  0  0  0
  7  9  1  0  0  0  0
 10  9  1  6  0  0  0
 10 11  1  0  0  0  0
 10 12  1  0  0  0  0
 11 16  1  0  0  0  0
 12 13  1  1  0  0  0
 12 14  1  0  0  0  0
 14 15  1  1  0  0  0
 14 16  1  0  0  0  0
 16 27  1  6  0  0  0
 18 19  2  0  0  0  0
 18 23  1  0  0  0  0
 19 20  1  0  0  0  0
 20 21  2  0  0  0  0
 21 22  1  0  0  0  0
 21 27  1  0  0  0  0
 22 23  2  0  0  0  0
 22 25  1  0  0  0  0
 23 24  1  0  0  0  0
 25 26  2  0  0  0  0
 26 27  1  0  0  0  0
M  END
>  <CHROM.1>
136.67744637,66.47575919,-150.39210573,-69.15802450,-167.07015970,39.24541536
-108.34636408,14.87466652,-5.89167517,9.03136457,2.80464768,0.91107074,0.48181481

>  <Name>
ligand

>  <RI>
0

>  <Rbt.Current_Directory>
/home/itssahil/PROJECTS/Mol_Feturizer/Test_systems_manuscript/rnas/2ydh

>  <Rbt.Executable>
rbdock ($Id: //depot/dev/client3/rdock/2013.1/src/exe/rbdock.cxx#4 $)

>  <Rbt.Library>
libRbt.so (2013.1, Build901 2013/11/27)

>  <Rbt.Parameter_File>
/export/apps/rDock/src/rDock_2013.1_src/data/scripts/dock_solv.prm

>  <Rbt.Receptor>
prm/pocket_docking_5.prm

>  <SCORE>
-9.60682

>  <SCORE.INTER>
-11.369

>  <SCORE.INTER.CONST>
1

>  <SCORE.INTER.POLAR>
0

>  <SCORE.INTER.ROT>
7

>  <SCORE.INTER.SOLV>
14.7809

>  <SCORE.INTER.VDW>
-20.773

>  <SCORE.INTER.norm>
-0.421076

>  <SCORE.INTRA>
1.76222

>  <SCORE.INTRA.DIHEDRAL>
-1.29283

>  <SCORE.INTRA.DIHEDRAL.0>
9.75037

>  <SCORE.INTRA.POLAR>
0

>  <SCORE.INTRA.POLAR.0>
0

>  <SCORE.INTRA.REPUL>
0

>  <SCORE.INTRA.REPUL.0>
0

>  <SCORE.INTRA.SOLV>
-0.735044

>  <SCORE.INTRA.SOLV.lig_0>
-48.4279

>  <SCORE.INTRA.VDW>
2.77615

>  <SCORE.INTRA.VDW.0>
-4.69037

>  <SCORE.INTRA.norm>
0.0652674

>  <SCORE.RESTR>
0

>  <SCORE.RESTR.CAVITY>
0

>  <SCORE.RESTR.norm>
0

>  <SCORE.SYSTEM>
0

>  <SCORE.SYSTEM.CONST>
0

>  <SCORE.SYSTEM.DIHEDRAL>
0

>  <SCORE.SYSTEM.SOLV>
0

>  <SCORE.SYSTEM.norm>
0

>  <SCORE.heavy>
27

>  <SCORE.norm>
-0.355808

>  <RMSD>
5.260

$$$$
ligand
 OpenBabel02271912153D
libRbt.so/2013.1/901 2013/11/27
 27 29  0  0  0  0  0  0  0  0999 V2000
   12.2062   -7.9995    9.8941 N   0  0  0  0  0  0  0  0  0  0  0  0
   12.8928   -8.3342   11.1798 C   0  0  2  0  0  0  0  0  0  0  0  0
   12.5472   -9.7687   11.6375 C   0  0  0  0  0  0  0  0  0  0  0  0
   13.2468  -10.7303   11.3050 O   0  0  0  0  0  0  0  0  0  0  0  0
   12.5307   -7.2935   12.2340 C   0  0  0  0  0  0  0  0  0  0  0  0
   12.9762   -5.8790   11.9023 C   0  0  0  0  0  0  0  0  0  0  0  0
   14.7449   -5.7563   11.5103 S   0  0  2  0  0  0  0  0  0  0  0  0
   15.3561   -4.8824   12.9794 C   0  0  0  0  0  0  0  0  0  0  0  0
   14.8996   -4.5001   10.2305 C   0  0  0  0  0  0  0  0  0  0  0  0
   16.1631   -4.7602    9.4326 C   0  0  1  0  0  0  0  0  0  0  0  0
   16.1591   -6.0342    8.8071 O   0  0  0  0  0  0  0  0  0  0  0  0
   16.3495   -3.7325    8.3432 C   0  0  1  0  0  0  0  0  0  0  0  0
   16.9871   -2.5883    8.8341 O   0  0  0  0  0  0  0  0  0  0  0  0
   17.2127   -4.4860    7.3776 C   0  0  1  0  0  0  0  0  0  0  0  0
   18.5704   -4.3151    7.7376 O   0  0  0  0  0  0  0  0  0  0  0  0
   16.7939   -5.9400    7.5528 C   0  0  2  0  0  0  0  0  0  0  0  0
   11.5573  -10.0199   12.3491 O   0  0  0  0  0  0  0  0  0  0  0  0
   15.9065   -9.0893    3.4111 N   0  0  0  0  0  0  0  0  0  0  0  0
   17.0478   -9.0176    4.1967 C   0  0  0  0  0  0  0  0  0  0  0  0
   17.1319   -8.1174    5.2522 N   0  0  0  0  0  0  0  0  0  0  0  0
   16.0823   -7.3203    5.5230 C   0  0  0  0  0  0  0  0  0  0  0  0
   14.9214   -7.3940    4.7481 C   0  0  0  0  0  0  0  0  0  0  0  0
   14.8318   -8.2698    3.6819 C   0  0  0  0  0  0  0  0  0  0  0  0
   13.7335   -8.3283    2.9437 N   0  0  0  0  0  0  0  0  0  0  0  0
   14.0397   -6.5140    5.2353 N   0  0  0  0  0  0  0  0  0  0  0  0
   14.6053   -5.8908    6.2926 C   0  0  0  0  0  0  0  0  0  0  0  0
   15.8721   -6.3818    6.4893 N   0  0  0  0  0  0  0  0  0  0  0  0
  2  1  1  6  0  0  0
  2  3  1  0  0  0  0
  2  5  1  0  0  0  0
  3  4  1  0  0  0  0
  3 17  1  0  0  0  0
  5  6  1  0  0  0  0
  7  6  1  1  0  0  0
  7  8  1  0  0  0  0
  7  9  1  0  0  0  0
 10  9  1  6  0  0  0
 10 11  1  0  0  0  0
 10 12  1  0  0  0  0
 11 16  1  0  0  0  0
 12 13  1  1  0  0  0
 12 14  1  0  0  0  0
 14 15  1  1  0  0  0
 14 16  1  0  0  0  0
 16 27  1  6  0  0  0
 18 19  2  0  0  0  0
 18 23  1  0  0  0  0
 19 20  1  0  0  0  0
 20 21  2  0  0  0  0
 21 22  1  0  0  0  0
 21 27  1  0  0  0  0
 22 23  2  0  0  0  0
 22 25  1  0  0  0  0
 23 24  1  0  0  0  0
 25 26  2  0  0  0  0
 26 27  1  0  0  0  0
M  END
>  <CHROM.1>
91.21878149,-62.27262964,-53.38028777,-109.18949110,-154.88693616,59.86786060
-126.95908180,14.99845558,-6.71774128,8.45550553,2.15842875,0.90813832,1.10645591

>  <Name>
ligand

>  <RI>
0

>  <Rbt.Current_Directory>
/home/itssahil/PROJECTS/Mol_Feturizer/Test_systems_manuscript/rnas/2ydh

>  <Rbt.Executable>
rbdock ($Id: //depot/dev/client3/rdock/2013.1/src/exe/rbdock.cxx#4 $)

>  <Rbt.Library>
libRbt.so (2013.1, Build901 2013/11/27)

>  <Rbt.Parameter_File>
/export/apps/rDock/src/rDock_2013.1_src/data/scripts/dock_solv.prm

>  <Rbt.Receptor>
prm/pocket_docking_3.prm

>  <SCORE>
-4.60483

>  <SCORE.INTER>
-6.45005

>  <SCORE.INTER.CONST>
1

>  <SCORE.INTER.POLAR>
0

>  <SCORE.INTER.ROT>
7

>  <SCORE.INTER.SOLV>
19.2198

>  <SCORE.INTER.VDW>
-18.9733

>  <SCORE.INTER.norm>
-0.238891

>  <SCORE.INTRA>
1.84522

>  <SCORE.INTRA.DIHEDRAL>
-0.456729

>  <SCORE.INTRA.DIHEDRAL.0>
9.75037

>  <SCORE.INTRA.POLAR>
0

>  <SCORE.INTRA.POLAR.0>
0

>  <SCORE.INTRA.REPUL>
0

>  <SCORE.INTRA.REPUL.0>
0

>  <SCORE.INTRA.SOLV>
-0.0264683

>  <SCORE.INTRA.SOLV.lig_0>
-48.4279

>  <SCORE.INTRA.VDW>
2.08681

>  <SCORE.INTRA.VDW.0>
-4.69037

>  <SCORE.INTRA.norm>
0.0683413

>  <SCORE.RESTR>
0

>  <SCORE.RESTR.CAVITY>
0

>  <SCORE.RESTR.norm>
0

>  <SCORE.SYSTEM>
0

>  <SCORE.SYSTEM.CONST>
0

>  <SCORE.SYSTEM.DIHEDRAL>
0

>  <SCORE.SYSTEM.SOLV>
0

>  <SCORE.SYSTEM.norm>
0

>  <SCORE.heavy>
27

>  <SCORE.norm>
-0.170549

>  <RMSD>
5.262

$$$$
ligand
 OpenBabel02271912153D
libRbt.so/2013.1/901 2013/11/27
 27 29  0  0  0  0  0  0  0  0999 V2000
   14.7862   -8.6488   12.1860 N   0  0  0  0  0  0  0  0  0  0  0  0
   13.4945   -8.9760   12.8652 C   0  0  2  0  0  0  0  0  0  0  0  0
   12.6977  -10.0307   12.0657 C   0  0  0  0  0  0  0  0  0  0  0  0
   11.6665  -10.5326   12.5232 O   0  0  0  0  0  0  0  0  0  0  0  0
   12.6953   -7.6949   13.0789 C   0  0  0  0  0  0  0  0  0  0  0  0
   12.2324   -7.0199   11.7986 C   0  0  0  0  0  0  0  0  0  0  0  0
   13.5980   -6.3617   10.7992 S   0  0  2  0  0  0  0  0  0  0  0  0
   14.0761   -4.9181   11.7906 C   0  0  0  0  0  0  0  0  0  0  0  0
   12.8505   -5.5966    9.3516 C   0  0  0  0  0  0  0  0  0  0  0  0
   13.8704   -4.6898    8.6896 C   0  0  1  0  0  0  0  0  0  0  0  0
   15.1238   -5.3279    8.4996 O   0  0  0  0  0  0  0  0  0  0  0  0
   13.3990   -4.2267    7.3327 C   0  0  1  0  0  0  0  0  0  0  0  0
   12.5804   -3.0977    7.4423 O   0  0  0  0  0  0  0  0  0  0  0  0
   14.7025   -3.9126    6.6639 C   0  0  1  0  0  0  0  0  0  0  0  0
   15.0691   -2.5794    6.9646 O   0  0  0  0  0  0  0  0  0  0  0  0
   15.6909   -4.8904    7.2864 C   0  0  2  0  0  0  0  0  0  0  0  0
   13.0561  -10.4231   10.9401 O   0  0  0  0  0  0  0  0  0  0  0  0
   13.8997   -8.2138    3.5979 N   0  0  0  0  0  0  0  0  0  0  0  0
   13.2252   -7.1561    4.1901 C   0  0  0  0  0  0  0  0  0  0  0  0
   13.8364   -6.3766    5.1649 N   0  0  0  0  0  0  0  0  0  0  0  0
   15.1058   -6.6441    5.5217 C   0  0  0  0  0  0  0  0  0  0  0  0
   15.8008   -7.6976    4.9212 C   0  0  0  0  0  0  0  0  0  0  0  0
   15.1981   -8.4946    3.9654 C   0  0  0  0  0  0  0  0  0  0  0  0
   15.8573   -9.4987    3.4070 N   0  0  0  0  0  0  0  0  0  0  0  0
   17.0320   -7.7342    5.4426 N   0  0  0  0  0  0  0  0  0  0  0  0
   17.1366   -6.7375    6.3491 C   0  0  0  0  0  0  0  0  0  0  0  0
   15.9518   -6.0467    6.4084 N   0  0  0  0  0  0  0  0  0  0  0  0
  2  1  1  6  0  0  0
  2  3  1  0  0  0  0
  2  5  1  0  0  0  0
  3  4  1  0  0  0  0
  3 17  1  0  0  0  0
  5  6  1  0  0  0  0
  7  6  1  1  0  0  0
  7  8  1  0  0  0  0
  7  9  1  0  0  0  0
 10  9  1  6  0  0  0
 10 11  1  0  0  0  0
 10 12  1  0  0  0  0
 11 16  1  0  0  0  0
 12 13  1  1  0  0  0
 12 14  1  0  0  0  0
 14 15  1  1  0  0  0
 14 16  1  0  0  0  0
 16 27  1  6  0  0  0
 18 19  2  0  0  0  0
 18 23  1  0  0  0  0
 19 20  1  0  0  0  0
 20 21  2  0  0  0  0
 21 22  1  0  0  0  0
 21 27  1  0  0  0  0
 22 23  2  0  0  0  0
 22 25  1  0  0  0  0
 23 24  1  0  0  0  0
 25 26  2  0  0  0  0
 26 27  1  0  0  0  0
M  END
>  <CHROM.1>
172.80771168,65.59181179,-66.67370801,-73.21399774,163.70437873,48.79204202
87.12425332,14.17727378,-6.74975344,8.33796312,-2.92128151,1.27477640,0.01553188

>  <Name>
ligand

>  <RI>
0

>  <Rbt.Current_Directory>
/home/itssahil/PROJECTS/Mol_Feturizer/Test_systems_manuscript/rnas/2ydh

>  <Rbt.Executable>
rbdock ($Id: //depot/dev/client3/rdock/2013.1/src/exe/rbdock.cxx#4 $)

>  <Rbt.Library>
libRbt.so (2013.1, Build901 2013/11/27)

>  <Rbt.Parameter_File>
/export/apps/rDock/src/rDock_2013.1_src/data/scripts/dock_solv.prm

>  <Rbt.Receptor>
prm/pocket_docking_3.prm

>  <SCORE>
-11.245

>  <SCORE.INTER>
-11.5297

>  <SCORE.INTER.CONST>
1

>  <SCORE.INTER.POLAR>
0

>  <SCORE.INTER.ROT>
7

>  <SCORE.INTER.SOLV>
14.6618

>  <SCORE.INTER.VDW>
-20.8404

>  <SCORE.INTER.norm>
-0.427026

>  <SCORE.INTRA>
0.248144

>  <SCORE.INTRA.DIHEDRAL>
-5.66487

>  <SCORE.INTRA.DIHEDRAL.0>
9.75037

>  <SCORE.INTRA.POLAR>
0

>  <SCORE.INTRA.POLAR.0>
0

>  <SCORE.INTRA.REPUL>
0

>  <SCORE.INTRA.REPUL.0>
0

>  <SCORE.INTRA.SOLV>
1.24972

>  <SCORE.INTRA.SOLV.lig_0>
-48.4279

>  <SCORE.INTRA.VDW>
2.45572

>  <SCORE.INTRA.VDW.0>
-4.69037

>  <SCORE.INTRA.norm>
0.00919051

>  <SCORE.RESTR>
0.0365998

>  <SCORE.RESTR.CAVITY>
0.0365998

>  <SCORE.RESTR.norm>
0.00135555

>  <SCORE.SYSTEM>
0

>  <SCORE.SYSTEM.CONST>
0

>  <SCORE.SYSTEM.DIHEDRAL>
0

>  <SCORE.SYSTEM.SOLV>
0

>  <SCORE.SYSTEM.norm>
0

>  <SCORE.heavy>
27

>  <SCORE.norm>
-0.41648

>  <RMSD>
5.263

$$$$
ligand
 OpenBabel02271912153D
libRbt.so/2013.1/901 2013/11/27
 27 29  0  0  0  0  0  0  0  0999 V2000
   16.6358   -6.4895   11.7348 N   0  0  0  0  0  0  0  0  0  0  0  0
   17.5933   -6.9079   10.6648 C   0  0  2  0  0  0  0  0  0  0  0  0
   18.8419   -5.9983   10.6494 C   0  0  0  0  0  0  0  0  0  0  0  0
   18.7508   -4.7864   10.8675 O   0  0  0  0  0  0  0  0  0  0  0  0
   16.8763   -6.9196    9.3189 C   0  0  0  0  0  0  0  0  0  0  0  0
   17.7414   -7.3548    8.1478 C   0  0  0  0  0  0  0  0  0  0  0  0
   16.8591   -7.3465    6.5608 S   0  0  2  0  0  0  0  0  0  0  0  0
   18.0479   -8.2280    5.5095 C   0  0  0  0  0  0  0  0  0  0  0  0
   16.9646   -5.6658    5.9252 C   0  0  0  0  0  0  0  0  0  0  0  0
   15.7364   -4.8926    6.3661 C   0  0  1  0  0  0  0  0  0  0  0  0
   14.5425   -5.6494    6.2397 O   0  0  0  0  0  0  0  0  0  0  0  0
   15.8407   -4.4676    7.8105 C   0  0  1  0  0  0  0  0  0  0  0  0
   16.5462   -3.2659    7.9321 O   0  0  0  0  0  0  0  0  0  0  0  0
   14.3952   -4.3093    8.1718 C   0  0  1  0  0  0  0  0  0  0  0  0
   13.9750   -2.9990    7.8419 O   0  0  0  0  0  0  0  0  0  0  0  0
   13.6754   -5.3340    7.3044 C   0  0  2  0  0  0  0  0  0  0  0  0
   19.9825   -6.4376   10.4142 O   0  0  0  0  0  0  0  0  0  0  0  0
   11.7985   -7.4960   11.7386 N   0  0  0  0  0  0  0  0  0  0  0  0
   11.9395   -6.1480   11.4425 C   0  0  0  0  0  0  0  0  0  0  0  0
   12.4683   -5.7366   10.2249 N   0  0  0  0  0  0  0  0  0  0  0  0
   12.8292   -6.6621    9.3174 C   0  0  0  0  0  0  0  0  0  0  0  0
   12.6777   -8.0229    9.5982 C   0  0  0  0  0  0  0  0  0  0  0  0
   12.1730   -8.4468   10.8137 C   0  0  0  0  0  0  0  0  0  0  0  0
   12.0415   -9.7379   11.0794 N   0  0  0  0  0  0  0  0  0  0  0  0
   13.0952   -8.7162    8.5333 N   0  0  0  0  0  0  0  0  0  0  0  0
   13.5017   -7.8377    7.5903 C   0  0  0  0  0  0  0  0  0  0  0  0
   13.3395   -6.5571    8.0575 N   0  0  0  0  0  0  0  0  0  0  0  0
  2  1  1  1  0  0  0
  2  3  1  0  0  0  0
  2  5  1  0  0  0  0
  3  4  1  0  0  0  0
  3 17  1  0  0  0  0
  5  6  1  0  0  0  0
  7  6  1  1  0  0  0
  7  8  1  0  0  0  0
  7  9  1  0  0  0  0
 10  9  1  1  0  0  0
 10 11  1  0  0  0  0
 10 12  1  0  0  0  0
 11 16  1  0  0  0  0
 12 13  1  6  0  0  0
 12 14  1  0  0  0  0
 14 15  1  6  0  0  0
 14 16  1  0  0  0  0
 16 27  1  1  0  0  0
 18 19  2  0  0  0  0
 18 23  1  0  0  0  0
 19 20  1  0  0  0  0
 20 21  2  0  0  0  0
 21 22  1  0  0  0  0
 21 27  1  0  0  0  0
 22 23  2  0  0  0  0
 22 25  1  0  0  0  0
 23 24  1  0  0  0  0
 25 26  2  0  0  0  0
 26 27  1  0  0  0  0
M  END
>  <CHROM.1>
-37.47614165,-178.96431884,-179.62324641,-168.61269985,-93.09985858,-42.78879882
161.77961514,15.31350309,-6.38080731,8.74046696,-0.40708947,0.13545495,1.89977904

>  <Name>
ligand

>  <RI>
0

>  <Rbt.Current_Directory>
/home/itssahil/PROJECTS/Mol_Feturizer/Test_systems_manuscript/rnas/2ydh

>  <Rbt.Executable>
rbdock ($Id: //depot/dev/client3/rdock/2013.1/src/exe/rbdock.cxx#4 $)

>  <Rbt.Library>
libRbt.so (2013.1, Build901 2013/11/27)

>  <Rbt.Parameter_File>
/export/apps/rDock/src/rDock_2013.1_src/data/scripts/dock_solv.prm

>  <Rbt.Receptor>
prm/pocket_docking_7.prm

>  <SCORE>
-10.0009

>  <SCORE.INTER>
-8.47498

>  <SCORE.INTER.CONST>
1

>  <SCORE.INTER.POLAR>
0

>  <SCORE.INTER.ROT>
7

>  <SCORE.INTER.SOLV>
11.0684

>  <SCORE.INTER.VDW>
-17.6061

>  <SCORE.INTER.norm>
-0.313888

>  <SCORE.INTRA>
-1.52594

>  <SCORE.INTRA.DIHEDRAL>
-3.05942

>  <SCORE.INTRA.DIHEDRAL.0>
9.75037

>  <SCORE.INTRA.POLAR>
0

>  <SCORE.INTRA.POLAR.0>
0

>  <SCORE.INTRA.REPUL>
0

>  <SCORE.INTRA.REPUL.0>
0

>  <SCORE.INTRA.SOLV>
-1.001

>  <SCORE.INTRA.SOLV.lig_0>
-48.4279

>  <SCORE.INTRA.VDW>
0.504268

>  <SCORE.INTRA.VDW.0>
-4.69037

>  <SCORE.INTRA.norm>
-0.0565163

>  <SCORE.RESTR>
0

>  <SCORE.RESTR.CAVITY>
0

>  <SCORE.RESTR.norm>
0

>  <SCORE.SYSTEM>
0

>  <SCORE.SYSTEM.CONST>
0

>  <SCORE.SYSTEM.DIHEDRAL>
0

>  <SCORE.SYSTEM.SOLV>
0

>  <SCORE.SYSTEM.norm>
0

>  <SCORE.heavy>
27

>  <SCORE.norm>
-0.370404

>  <RMSD>
5.263

$$$$
ligand
 OpenBabel02271912153D
libRbt.so/2013.1/901 2013/11/27
 27 29  0  0  0  0  0  0  0  0999 V2000
   13.2665   -8.7355   14.2017 N   0  0  0  0  0  0  0  0  0  0  0  0
   12.5881   -8.6961   12.8694 C   0  0  2  0  0  0  0  0  0  0  0  0
   12.3114  -10.1224   12.3442 C   0  0  0  0  0  0  0  0  0  0  0  0
   11.3642  -10.7877   12.7739 O   0  0  0  0  0  0  0  0  0  0  0  0
   13.4309   -7.8801   11.8951 C   0  0  0  0  0  0  0  0  0  0  0  0
   13.7496   -6.4705   12.3649 C   0  0  0  0  0  0  0  0  0  0  0  0
   14.7372   -5.5219   11.1726 S   0  0  2  0  0  0  0  0  0  0  0  0
   15.0080   -3.9875   12.1042 C   0  0  0  0  0  0  0  0  0  0  0  0
   13.6041   -4.9859    9.8808 C   0  0  0  0  0  0  0  0  0  0  0  0
   14.3033   -3.9668    9.0016 C   0  0  1  0  0  0  0  0  0  0  0  0
   15.6278   -4.3528    8.6686 O   0  0  0  0  0  0  0  0  0  0  0  0
   13.5632   -3.7576    7.7030 C   0  0  1  0  0  0  0  0  0  0  0  0
   12.5415   -2.8139    7.8521 O   0  0  0  0  0  0  0  0  0  0  0  0
   14.6644   -3.2582    6.8182 C   0  0  1  0  0  0  0  0  0  0  0  0
   14.7699   -1.8539    6.9560 O   0  0  0  0  0  0  0  0  0  0  0  0
   15.9165   -3.9417    7.3523 C   0  0  2  0  0  0  0  0  0  0  0  0
   13.0242  -10.6628   11.4786 O   0  0  0  0  0  0  0  0  0  0  0  0
   14.4165   -8.2709    4.7319 N   0  0  0  0  0  0  0  0  0  0  0  0
   13.6149   -7.3736    5.4226 C   0  0  0  0  0  0  0  0  0  0  0  0
   14.1689   -6.2807    6.0783 N   0  0  0  0  0  0  0  0  0  0  0  0
   15.4988   -6.0846    6.0236 C   0  0  0  0  0  0  0  0  0  0  0  0
   16.3150   -6.9732    5.3182 C   0  0  0  0  0  0  0  0  0  0  0  0
   15.7801   -8.0765    4.6790 C   0  0  0  0  0  0  0  0  0  0  0  0
   16.5590   -8.9219    4.0209 N   0  0  0  0  0  0  0  0  0  0  0  0
   17.5777   -6.5421    5.4121 N   0  0  0  0  0  0  0  0  0  0  0  0
   17.5837   -5.4103    6.1504 C   0  0  0  0  0  0  0  0  0  0  0  0
   16.3010   -5.1080    6.5350 N   0  0  0  0  0  0  0  0  0  0  0  0
  2  1  1  1  0  0  0
  2  3  1  0  0  0  0
  2  5  1  0  0  0  0
  3  4  1  0  0  0  0
  3 17  1  0  0  0  0
  5  6  1  0  0  0  0
  7  6  1  1  0  0  0
  7  8  1  0  0  0  0
  7  9  1  0  0  0  0
 10  9  1  1  0  0  0
 10 11  1  0  0  0  0
 10 12  1  0  0  0  0
 11 16  1  0  0  0  0
 12 13  1  1  0  0  0
 12 14  1  0  0  0  0
 14 15  1  1  0  0  0
 14 16  1  0  0  0  0
 16 27  1  6  0  0  0
 18 19  2  0  0  0  0
 18 23  1  0  0  0  0
 19 20  1  0  0  0  0
 20 21  2  0  0  0  0
 21 22  1  0  0  0  0
 21 27  1  0  0  0  0
 22 23  2  0  0  0  0
 22 25  1  0  0  0  0
 23 24  1  0  0  0  0
 25 26  2  0  0  0  0
 26 27  1  0  0  0  0
M  END
>  <CHROM.1>
78.29637474,-55.66416034,-179.32524635,-176.24253076,169.01049175,44.28382512
75.02979023,14.49670014,-6.26717070,8.72471914,3.01264170,-1.21923103,-2.84172771

>  <Name>
ligand

>  <RI>
0

>  <Rbt.Current_Directory>
/home/itssahil/PROJECTS/Mol_Feturizer/Test_systems_manuscript/rnas/2ydh

>  <Rbt.Executable>
rbdock ($Id: //depot/dev/client3/rdock/2013.1/src/exe/rbdock.cxx#4 $)

>  <Rbt.Library>
libRbt.so (2013.1, Build901 2013/11/27)

>  <Rbt.Parameter_File>
/export/apps/rDock/src/rDock_2013.1_src/data/scripts/dock_solv.prm

>  <Rbt.Receptor>
prm/pocket_docking_8.prm

>  <SCORE>
-13.5676

>  <SCORE.INTER>
-12.9941

>  <SCORE.INTER.CONST>
1

>  <SCORE.INTER.POLAR>
0

>  <SCORE.INTER.ROT>
7

>  <SCORE.INTER.SOLV>
13.8001

>  <SCORE.INTER.VDW>
-21.5294

>  <SCORE.INTER.norm>
-0.481264

>  <SCORE.INTRA>
-0.573463

>  <SCORE.INTRA.DIHEDRAL>
-5.46367

>  <SCORE.INTRA.DIHEDRAL.0>
9.75037

>  <SCORE.INTRA.POLAR>
0

>  <SCORE.INTRA.POLAR.0>
0

>  <SCORE.INTRA.REPUL>
0

>  <SCORE.INTRA.REPUL.0>
0

>  <SCORE.INTRA.SOLV>
-0.742157

>  <SCORE.INTRA.SOLV.lig_0>
-48.4279

>  <SCORE.INTRA.VDW>
2.52945

>  <SCORE.INTRA.VDW.0>
-4.69037

>  <SCORE.INTRA.norm>
-0.0212394

>  <SCORE.RESTR>
0

>  <SCORE.RESTR.CAVITY>
0

>  <SCORE.RESTR.norm>
0

>  <SCORE.SYSTEM>
0

>  <SCORE.SYSTEM.CONST>
0

>  <SCORE.SYSTEM.DIHEDRAL>
0

>  <SCORE.SYSTEM.SOLV>
0

>  <SCORE.SYSTEM.norm>
0

>  <SCORE.heavy>
27

>  <SCORE.norm>
-0.502503

>  <RMSD>
5.276

$$$$
ligand
 OpenBabel02271912153D
libRbt.so/2013.1/901 2013/11/27
 27 29  0  0  0  0  0  0  0  0999 V2000
   18.9368   -7.5867    7.7916 N   0  0  0  0  0  0  0  0  0  0  0  0
   18.3182   -7.1301    6.5088 C   0  0  2  0  0  0  0  0  0  0  0  0
   18.0751   -5.6046    6.5210 C   0  0  0  0  0  0  0  0  0  0  0  0
   18.5803   -4.8851    7.3880 O   0  0  0  0  0  0  0  0  0  0  0  0
   17.0337   -7.9131    6.2582 C   0  0  0  0  0  0  0  0  0  0  0  0
   15.9164   -7.6239    7.2467 C   0  0  0  0  0  0  0  0  0  0  0  0
   14.4071   -8.5807    6.9250 S   0  0  2  0  0  0  0  0  0  0  0  0
   13.8321   -7.7979    5.3913 C   0  0  0  0  0  0  0  0  0  0  0  0
   13.1818   -8.0206    8.1187 C   0  0  0  0  0  0  0  0  0  0  0  0
   13.5267   -8.5859    9.4833 C   0  0  1  0  0  0  0  0  0  0  0  0
   14.9042   -8.4498    9.7964 O   0  0  0  0  0  0  0  0  0  0  0  0
   12.7530   -7.8940   10.5790 C   0  0  1  0  0  0  0  0  0  0  0  0
   11.4895   -8.4708   10.7447 O   0  0  0  0  0  0  0  0  0  0  0  0
   13.6413   -8.1384   11.7606 C   0  0  1  0  0  0  0  0  0  0  0  0
   13.3063   -9.3834   12.3436 O   0  0  0  0  0  0  0  0  0  0  0  0
   15.0459   -8.1858   11.1730 C   0  0  2  0  0  0  0  0  0  0  0  0
   17.3634   -5.0372    5.6719 O   0  0  0  0  0  0  0  0  0  0  0  0
   16.4507   -3.4812    9.2360 N   0  0  0  0  0  0  0  0  0  0  0  0
   15.6678   -4.4523    8.6287 C   0  0  0  0  0  0  0  0  0  0  0  0
   15.3980   -5.6552    9.2704 N   0  0  0  0  0  0  0  0  0  0  0  0
   15.8897   -5.8678   10.5046 C   0  0  0  0  0  0  0  0  0  0  0  0
   16.6671   -4.8908   11.1329 C   0  0  0  0  0  0  0  0  0  0  0  0
   16.9612   -3.6983   10.4978 C   0  0  0  0  0  0  0  0  0  0  0  0
   17.7075   -2.7800   11.0930 N   0  0  0  0  0  0  0  0  0  0  0  0
   17.0110   -5.3473   12.3422 N   0  0  0  0  0  0  0  0  0  0  0  0
   16.4739   -6.5775   12.4977 C   0  0  0  0  0  0  0  0  0  0  0  0
   15.7701   -6.9156   11.3687 N   0  0  0  0  0  0  0  0  0  0  0  0
  2  1  1  1  0  0  0
  2  3  1  0  0  0  0
  2  5  1  0  0  0  0
  3  4  1  0  0  0  0
  3 17  1  0  0  0  0
  5  6  1  0  0  0  0
  7  6  1  1  0  0  0
  7  8  1  0  0  0  0
  7  9  1  0  0  0  0
 10  9  1  6  0  0  0
 10 11  1  0  0  0  0
 10 12  1  0  0  0  0
 11 16  1  0  0  0  0
 12 13  1  1  0  0  0
 12 14  1  0  0  0  0
 14 15  1  6  0  0  0
 14 16  1  0  0  0  0
 16 27  1  6  0  0  0
 18 19  2  0  0  0  0
 18 23  1  0  0  0  0
 19 20  1  0  0  0  0
 20 21  2  0  0  0  0
 21 22  1  0  0  0  0
 21 27  1  0  0  0  0
 22 23  2  0  0  0  0
 22 25  1  0  0  0  0
 23 24  1  0  0  0  0
 25 26  2  0  0  0  0
 26 27  1  0  0  0  0
M  END
>  <CHROM.1>
12.65774916,67.12092866,-179.62449950,-70.03595361,-74.33519263,45.71853182
23.18606254,15.62022670,-6.76442851,9.11909713,0.32281869,-0.74027899,-1.89553647

>  <Name>
ligand

>  <RI>
0

>  <Rbt.Current_Directory>
/home/itssahil/PROJECTS/Mol_Feturizer/Test_systems_manuscript/rnas/2ydh

>  <Rbt.Executable>
rbdock ($Id: //depot/dev/client3/rdock/2013.1/src/exe/rbdock.cxx#4 $)

>  <Rbt.Library>
libRbt.so (2013.1, Build901 2013/11/27)

>  <Rbt.Parameter_File>
/export/apps/rDock/src/rDock_2013.1_src/data/scripts/dock_solv.prm

>  <Rbt.Receptor>
prm/pocket_docking_4.prm

>  <SCORE>
-5.9304

>  <SCORE.INTER>
-3.42098

>  <SCORE.INTER.CONST>
1

>  <SCORE.INTER.POLAR>
0

>  <SCORE.INTER.ROT>
7

>  <SCORE.INTER.SOLV>
15.627

>  <SCORE.INTER.VDW>
-15.7563

>  <SCORE.INTER.norm>
-0.126703

>  <SCORE.INTRA>
-2.50942

>  <SCORE.INTRA.DIHEDRAL>
-5.65255

>  <SCORE.INTRA.DIHEDRAL.0>
9.75037

>  <SCORE.INTRA.POLAR>
0

>  <SCORE.INTRA.POLAR.0>
0

>  <SCORE.INTRA.REPUL>
0

>  <SCORE.INTRA.REPUL.0>
0

>  <SCORE.INTRA.SOLV>
-0.724912

>  <SCORE.INTRA.SOLV.lig_0>
-48.4279

>  <SCORE.INTRA.VDW>
0.679314

>  <SCORE.INTRA.VDW.0>
-4.69037

>  <SCORE.INTRA.norm>
-0.0929413

>  <SCORE.RESTR>
0

>  <SCORE.RESTR.CAVITY>
0

>  <SCORE.RESTR.norm>
0

>  <SCORE.SYSTEM>
0

>  <SCORE.SYSTEM.CONST>
0

>  <SCORE.SYSTEM.DIHEDRAL>
0

>  <SCORE.SYSTEM.SOLV>
0

>  <SCORE.SYSTEM.norm>
0

>  <SCORE.heavy>
27

>  <SCORE.norm>
-0.219644

>  <RMSD>
5.283

$$$$
ligand
 OpenBabel02271912153D
libRbt.so/2013.1/901 2013/11/27
 27 29  0  0  0  0  0  0  0  0999 V2000
   16.9666   -3.3732   10.7849 N   0  0  0  0  0  0  0  0  0  0  0  0
   15.5749   -3.6758   10.3285 C   0  0  2  0  0  0  0  0  0  0  0  0
   14.6880   -4.1266   11.5104 C   0  0  0  0  0  0  0  0  0  0  0  0
   13.4781   -4.3229   11.3613 O   0  0  0  0  0  0  0  0  0  0  0  0
   15.6212   -4.7183    9.2165 C   0  0  0  0  0  0  0  0  0  0  0  0
   16.1932   -4.2131    7.9025 C   0  0  0  0  0  0  0  0  0  0  0  0
   14.9209   -3.6669    6.7278 S   0  0  2  0  0  0  0  0  0  0  0  0
   14.0166   -2.4654    7.7447 C   0  0  0  0  0  0  0  0  0  0  0  0
   13.7368   -5.0156    6.5919 C   0  0  0  0  0  0  0  0  0  0  0  0
   14.4550   -6.2559    6.0952 C   0  0  1  0  0  0  0  0  0  0  0  0
   15.4736   -6.6875    6.9841 O   0  0  0  0  0  0  0  0  0  0  0  0
   13.5016   -7.4125    5.9189 C   0  0  1  0  0  0  0  0  0  0  0  0
   12.8790   -7.3656    4.6672 O   0  0  0  0  0  0  0  0  0  0  0  0
   14.4346   -8.5788    6.0388 C   0  0  1  0  0  0  0  0  0  0  0  0
   14.9823   -8.8680    4.7666 O   0  0  0  0  0  0  0  0  0  0  0  0
   15.5220   -8.0955    6.9898 C   0  0  2  0  0  0  0  0  0  0  0  0
   15.1443   -4.3057   12.6545 O   0  0  0  0  0  0  0  0  0  0  0  0
   12.1519   -9.4368   10.8241 N   0  0  0  0  0  0  0  0  0  0  0  0
   11.8523   -8.9670    9.5535 C   0  0  0  0  0  0  0  0  0  0  0  0
   12.8628   -8.6418    8.6566 N   0  0  0  0  0  0  0  0  0  0  0  0
   14.1469   -8.8043    9.0241 C   0  0  0  0  0  0  0  0  0  0  0  0
   14.4610   -9.2911   10.2960 C   0  0  0  0  0  0  0  0  0  0  0  0
   13.4663   -9.5986   11.2060 C   0  0  0  0  0  0  0  0  0  0  0  0
   13.7692  -10.0493   12.4142 N   0  0  0  0  0  0  0  0  0  0  0  0
   15.7926   -9.3681   10.3946 N   0  0  0  0  0  0  0  0  0  0  0  0
   16.3275   -8.9489    9.2266 C   0  0  0  0  0  0  0  0  0  0  0  0
   15.3207   -8.5992    8.3616 N   0  0  0  0  0  0  0  0  0  0  0  0
  2  1  1  1  0  0  0
  2  3  1  0  0  0  0
  2  5  1  0  0  0  0
  3  4  1  0  0  0  0
  3 17  1  0  0  0  0
  5  6  1  0  0  0  0
  7  6  1  1  0  0  0
  7  8  1  0  0  0  0
  7  9  1  0  0  0  0
 10  9  1  1  0  0  0
 10 11  1  0  0  0  0
 10 12  1  0  0  0  0
 11 16  1  0  0  0  0
 12 13  1  6  0  0  0
 12 14  1  0  0  0  0
 14 15  1  6  0  0  0
 14 16  1  0  0  0  0
 16 27  1  1  0  0  0
 18 19  2  0  0  0  0
 18 23  1  0  0  0  0
 19 20  1  0  0  0  0
 20 21  2  0  0  0  0
 21 22  1  0  0  0  0
 21 27  1  0  0  0  0
 22 23  2  0  0  0  0
 22 25  1  0  0  0  0
 23 24  1  0  0  0  0
 25 26  2  0  0  0  0
 26 27  1  0  0  0  0
M  END
>  <CHROM.1>
174.31059175,-70.13510224,-95.54377496,54.39518136,-59.60169339,61.50206467
83.10169034,14.53215294,-6.63005427,8.61512907,-0.12861597,1.35270290,1.66143639

>  <Name>
ligand

>  <RI>
0

>  <Rbt.Current_Directory>
/home/itssahil/PROJECTS/Mol_Feturizer/Test_systems_manuscript/rnas/2ydh

>  <Rbt.Executable>
rbdock ($Id: //depot/dev/client3/rdock/2013.1/src/exe/rbdock.cxx#4 $)

>  <Rbt.Library>
libRbt.so (2013.1, Build901 2013/11/27)

>  <Rbt.Parameter_File>
/export/apps/rDock/src/rDock_2013.1_src/data/scripts/dock_solv.prm

>  <Rbt.Receptor>
prm/pocket_docking_4.prm

>  <SCORE>
-12.5111

>  <SCORE.INTER>
-13.9579

>  <SCORE.INTER.CONST>
1

>  <SCORE.INTER.POLAR>
0

>  <SCORE.INTER.ROT>
7

>  <SCORE.INTER.SOLV>
14.3913

>  <SCORE.INTER.VDW>
-22.369

>  <SCORE.INTER.norm>
-0.516961

>  <SCORE.INTRA>
1.44686

>  <SCORE.INTRA.DIHEDRAL>
-2.58462

>  <SCORE.INTRA.DIHEDRAL.0>
9.75037

>  <SCORE.INTRA.POLAR>
0

>  <SCORE.INTRA.POLAR.0>
0

>  <SCORE.INTRA.REPUL>
0

>  <SCORE.INTRA.REPUL.0>
0

>  <SCORE.INTRA.SOLV>
-0.238606

>  <SCORE.INTRA.SOLV.lig_0>
-48.4279

>  <SCORE.INTRA.VDW>
2.85847

>  <SCORE.INTRA.VDW.0>
-4.69037

>  <SCORE.INTRA.norm>
0.0535875

>  <SCORE.RESTR>
0

>  <SCORE.RESTR.CAVITY>
0

>  <SCORE.RESTR.norm>
0

>  <SCORE.SYSTEM>
0

>  <SCORE.SYSTEM.CONST>
0

>  <SCORE.SYSTEM.DIHEDRAL>
0

>  <SCORE.SYSTEM.SOLV>
0

>  <SCORE.SYSTEM.norm>
0

>  <SCORE.heavy>
27

>  <SCORE.norm>
-0.463373

>  <RMSD>
5.303

$$$$
ligand
 OpenBabel02271912153D
libRbt.so/2013.1/901 2013/11/27
 27 29  0  0  0  0  0  0  0  0999 V2000
   21.0686   -6.0345    9.3820 N   0  0  0  0  0  0  0  0  0  0  0  0
   19.5848   -5.9698    9.2061 C   0  0  2  0  0  0  0  0  0  0  0  0
   18.9341   -5.0865   10.2937 C   0  0  0  0  0  0  0  0  0  0  0  0
   17.7073   -4.9696   10.3709 O   0  0  0  0  0  0  0  0  0  0  0  0
   19.0129   -7.3835    9.1982 C   0  0  0  0  0  0  0  0  0  0  0  0
   18.1348   -7.7014    7.9995 C   0  0  0  0  0  0  0  0  0  0  0  0
   16.6762   -6.6276    7.8725 S   0  0  2  0  0  0  0  0  0  0  0  0
   15.5711   -7.6753    6.8842 C   0  0  0  0  0  0  0  0  0  0  0  0
   17.1014   -5.3218    6.7089 C   0  0  0  0  0  0  0  0  0  0  0  0
   16.1718   -4.1433    6.9269 C   0  0  1  0  0  0  0  0  0  0  0  0
   14.8413   -4.5455    7.2135 O   0  0  0  0  0  0  0  0  0  0  0  0
   16.6321   -3.2826    8.0780 C   0  0  1  0  0  0  0  0  0  0  0  0
   17.5888   -2.3518    7.6598 O   0  0  0  0  0  0  0  0  0  0  0  0
   15.3474   -2.6252    8.4810 C   0  0  1  0  0  0  0  0  0  0  0  0
   15.1638   -1.4531    7.7098 O   0  0  0  0  0  0  0  0  0  0  0  0
   14.2759   -3.6554    8.1479 C   0  0  2  0  0  0  0  0  0  0  0  0
   19.6072   -4.4550   11.1289 O   0  0  0  0  0  0  0  0  0  0  0  0
   12.3704   -8.1317   10.1950 N   0  0  0  0  0  0  0  0  0  0  0  0
   12.6730   -7.8640    8.8679 C   0  0  0  0  0  0  0  0  0  0  0  0
   13.1582   -6.6195    8.4839 N   0  0  0  0  0  0  0  0  0  0  0  0
   13.3528   -5.6716    9.4186 C   0  0  0  0  0  0  0  0  0  0  0  0
   13.0659   -5.9344   10.7611 C   0  0  0  0  0  0  0  0  0  0  0  0
   12.5626   -7.1608   11.1544 C   0  0  0  0  0  0  0  0  0  0  0  0
   12.2820   -7.4015   12.4263 N   0  0  0  0  0  0  0  0  0  0  0  0
   13.3596   -4.8396   11.4711 N   0  0  0  0  0  0  0  0  0  0  0  0
   13.8245   -3.8973   10.6214 C   0  0  0  0  0  0  0  0  0  0  0  0
   13.8320   -4.3974    9.3431 N   0  0  0  0  0  0  0  0  0  0  0  0
  2  1  1  1  0  0  0
  2  3  1  0  0  0  0
  2  5  1  0  0  0  0
  3  4  1  0  0  0  0
  3 17  1  0  0  0  0
  5  6  1  0  0  0  0
  7  6  1  6  0  0  0
  7  8  1  0  0  0  0
  7  9  1  0  0  0  0
 10  9  1  1  0  0  0
 10 11  1  0  0  0  0
 10 12  1  0  0  0  0
 11 16  1  0  0  0  0
 12 13  1  6  0  0  0
 12 14  1  0  0  0  0
 14 15  1  6  0  0  0
 14 16  1  0  0  0  0
 16 27  1  1  0  0  0
 18 19  2  0  0  0  0
 18 23  1  0  0  0  0
 19 20  1  0  0  0  0
 20 21  2  0  0  0  0
 21 22  1  0  0  0  0
 21 27  1  0  0  0  0
 22 23  2  0  0  0  0
 22 25  1  0  0  0  0
 23 24  1  0  0  0  0
 25 26  2  0  0  0  0
 26 27  1  0  0  0  0
M  END
>  <CHROM.1>
-175.65032630,-127.22263497,-60.56701340,-156.64232886,-159.53177843,-38.57470958
-32.19032861,15.81906259,-5.39642871,9.01939815,-0.26613855,-0.13417615,2.76349554

>  <Name>
ligand

>  <RI>
0

>  <Rbt.Current_Directory>
/home/itssahil/PROJECTS/Mol_Feturizer/Test_systems_manuscript/rnas/2ydh

>  <Rbt.Executable>
rbdock ($Id: //depot/dev/client3/rdock/2013.1/src/exe/rbdock.cxx#4 $)

>  <Rbt.Library>
libRbt.so (2013.1, Build901 2013/11/27)

>  <Rbt.Parameter_File>
/export/apps/rDock/src/rDock_2013.1_src/data/scripts/dock_solv.prm

>  <Rbt.Receptor>
prm/pocket_docking_6.prm

>  <SCORE>
-9.42379

>  <SCORE.INTER>
-11.0771

>  <SCORE.INTER.CONST>
1

>  <SCORE.INTER.POLAR>
0

>  <SCORE.INTER.ROT>
7

>  <SCORE.INTER.SOLV>
11.835

>  <SCORE.INTER.VDW>
-19.5964

>  <SCORE.INTER.norm>
-0.410264

>  <SCORE.INTRA>
1.65335

>  <SCORE.INTRA.DIHEDRAL>
4.5733

>  <SCORE.INTRA.DIHEDRAL.0>
9.75037

>  <SCORE.INTRA.POLAR>
0

>  <SCORE.INTRA.POLAR.0>
0

>  <SCORE.INTRA.REPUL>
0

>  <SCORE.INTRA.REPUL.0>
0

>  <SCORE.INTRA.SOLV>
-0.90147

>  <SCORE.INTRA.SOLV.lig_0>
-48.4279

>  <SCORE.INTRA.VDW>
-0.182562

>  <SCORE.INTRA.VDW.0>
-4.69037

>  <SCORE.INTRA.norm>
0.0612352

>  <SCORE.RESTR>
0

>  <SCORE.RESTR.CAVITY>
0

>  <SCORE.RESTR.norm>
0

>  <SCORE.SYSTEM>
0

>  <SCORE.SYSTEM.CONST>
0

>  <SCORE.SYSTEM.DIHEDRAL>
0

>  <SCORE.SYSTEM.SOLV>
0

>  <SCORE.SYSTEM.norm>
0

>  <SCORE.heavy>
27

>  <SCORE.norm>
-0.349029

>  <RMSD>
5.303

$$$$
ligand
 OpenBabel02271912153D
libRbt.so/2013.1/901 2013/11/27
 27 29  0  0  0  0  0  0  0  0999 V2000
   17.7659   -3.3928    7.0543 N   0  0  0  0  0  0  0  0  0  0  0  0
   16.4876   -2.7318    7.4613 C   0  0  2  0  0  0  0  0  0  0  0  0
   16.7596   -1.4780    8.3219 C   0  0  0  0  0  0  0  0  0  0  0  0
   16.7355   -0.3470    7.8270 O   0  0  0  0  0  0  0  0  0  0  0  0
   15.6021   -3.7416    8.1836 C   0  0  0  0  0  0  0  0  0  0  0  0
   16.3400   -4.6409    9.1613 C   0  0  0  0  0  0  0  0  0  0  0  0
   16.3531   -3.9980   10.8594 S   0  0  2  0  0  0  0  0  0  0  0  0
   18.1230   -4.1084   11.2480 C   0  0  0  0  0  0  0  0  0  0  0  0
   15.6552   -5.2894   11.9011 C   0  0  0  0  0  0  0  0  0  0  0  0
   14.1685   -5.4004   11.6215 C   0  0  1  0  0  0  0  0  0  0  0  0
   13.8212   -4.9292   10.3287 O   0  0  0  0  0  0  0  0  0  0  0  0
   13.6947   -6.8304   11.7139 C   0  0  1  0  0  0  0  0  0  0  0  0
   13.3939   -7.1769   13.0353 O   0  0  0  0  0  0  0  0  0  0  0  0
   12.4699   -6.7868   10.8519 C   0  0  1  0  0  0  0  0  0  0  0  0
   11.3617   -6.3944   11.6394 O   0  0  0  0  0  0  0  0  0  0  0  0
   12.7828   -5.7249    9.8055 C   0  0  2  0  0  0  0  0  0  0  0  0
   17.0179   -1.5484    9.5375 O   0  0  0  0  0  0  0  0  0  0  0  0
   16.1506   -8.8447    7.2009 N   0  0  0  0  0  0  0  0  0  0  0  0
   16.1359   -8.5530    8.5572 C   0  0  0  0  0  0  0  0  0  0  0  0
   15.1833   -7.6938    9.0917 N   0  0  0  0  0  0  0  0  0  0  0  0
   14.2538   -7.1552    8.2816 C   0  0  0  0  0  0  0  0  0  0  0  0
   14.2492   -7.4535    6.9161 C   0  0  0  0  0  0  0  0  0  0  0  0
   15.2037   -8.2897    6.3671 C   0  0  0  0  0  0  0  0  0  0  0  0
   15.2018   -8.5608    5.0705 N   0  0  0  0  0  0  0  0  0  0  0  0
   13.2242   -6.8050    6.3524 N   0  0  0  0  0  0  0  0  0  0  0  0
   12.5815   -6.1107    7.3173 C   0  0  0  0  0  0  0  0  0  0  0  0
   13.2038   -6.3198    8.5230 N   0  0  0  0  0  0  0  0  0  0  0  0
  2  1  1  1  0  0  0
  2  3  1  0  0  0  0
  2  5  1  0  0  0  0
  3  4  1  0  0  0  0
  3 17  1  0  0  0  0
  5  6  1  0  0  0  0
  7  6  1  6  0  0  0
  7  8  1  0  0  0  0
  7  9  1  0  0  0  0
 10  9  1  6  0  0  0
 10 11  1  0  0  0  0
 10 12  1  0  0  0  0
 11 16  1  0  0  0  0
 12 13  1  1  0  0  0
 12 14  1  0  0  0  0
 14 15  1  1  0  0  0
 14 16  1  0  0  0  0
 16 27  1  6  0  0  0
 18 19  2  0  0  0  0
 18 23  1  0  0  0  0
 19 20  1  0  0  0  0
 20 21  2  0  0  0  0
 21 22  1  0  0  0  0
 21 27  1  0  0  0  0
 22 23  2  0  0  0  0
 22 25  1  0  0  0  0
 23 24  1  0  0  0  0
 25 26  2  0  0  0  0
 26 27  1  0  0  0  0
M  END
>  <CHROM.1>
99.11593694,41.82868476,92.76050567,-129.46739115,-70.80033042,24.34416695
60.13678328,15.03639883,-5.42443153,9.19953478,-0.47755273,-0.93700905,-2.12042658

>  <Name>
ligand

>  <RI>
0

>  <Rbt.Current_Directory>
/home/itssahil/PROJECTS/Mol_Feturizer/Test_systems_manuscript/rnas/2ydh

>  <Rbt.Executable>
rbdock ($Id: //depot/dev/client3/rdock/2013.1/src/exe/rbdock.cxx#4 $)

>  <Rbt.Library>
libRbt.so (2013.1, Build901 2013/11/27)

>  <Rbt.Parameter_File>
/export/apps/rDock/src/rDock_2013.1_src/data/scripts/dock_solv.prm

>  <Rbt.Receptor>
prm/pocket_docking_3.prm

>  <SCORE>
-5.08032

>  <SCORE.INTER>
-9.10765

>  <SCORE.INTER.CONST>
1

>  <SCORE.INTER.POLAR>
0

>  <SCORE.INTER.ROT>
7

>  <SCORE.INTER.SOLV>
16.7191

>  <SCORE.INTER.VDW>
-19.9115

>  <SCORE.INTER.norm>
-0.33732

>  <SCORE.INTRA>
4.00969

>  <SCORE.INTRA.DIHEDRAL>
5.57166

>  <SCORE.INTRA.DIHEDRAL.0>
9.75037

>  <SCORE.INTRA.POLAR>
0

>  <SCORE.INTRA.POLAR.0>
0

>  <SCORE.INTRA.REPUL>
0

>  <SCORE.INTRA.REPUL.0>
0

>  <SCORE.INTRA.SOLV>
0.415177

>  <SCORE.INTRA.SOLV.lig_0>
-48.4279

>  <SCORE.INTRA.VDW>
1.01627

>  <SCORE.INTRA.VDW.0>
-4.69037

>  <SCORE.INTRA.norm>
0.148507

>  <SCORE.RESTR>
0.017628

>  <SCORE.RESTR.CAVITY>
0.017628

>  <SCORE.RESTR.norm>
0.000652888

>  <SCORE.SYSTEM>
0

>  <SCORE.SYSTEM.CONST>
0

>  <SCORE.SYSTEM.DIHEDRAL>
0

>  <SCORE.SYSTEM.SOLV>
0

>  <SCORE.SYSTEM.norm>
0

>  <SCORE.heavy>
27

>  <SCORE.norm>
-0.18816

>  <RMSD>
5.309

$$$$
ligand
 OpenBabel02271912153D
libRbt.so/2013.1/901 2013/11/27
 27 29  0  0  0  0  0  0  0  0999 V2000
   15.7693   -8.8684   10.3765 N   0  0  0  0  0  0  0  0  0  0  0  0
   16.7158   -8.0251    9.5829 C   0  0  2  0  0  0  0  0  0  0  0  0
   17.8778   -7.5147   10.4638 C   0  0  0  0  0  0  0  0  0  0  0  0
   17.7051   -6.6096   11.2858 O   0  0  0  0  0  0  0  0  0  0  0  0
   15.9487   -6.8817    8.9273 C   0  0  0  0  0  0  0  0  0  0  0  0
   15.0369   -7.3061    7.7882 C   0  0  0  0  0  0  0  0  0  0  0  0
   14.1278   -5.9227    7.0421 S   0  0  2  0  0  0  0  0  0  0  0  0
   13.4646   -6.7196    5.5519 C   0  0  0  0  0  0  0  0  0  0  0  0
   15.3640   -4.8078    6.3573 C   0  0  0  0  0  0  0  0  0  0  0  0
   15.4311   -3.5580    7.2141 C   0  0  1  0  0  0  0  0  0  0  0  0
   14.3870   -3.4991    8.1735 O   0  0  0  0  0  0  0  0  0  0  0  0
   16.7339   -3.4772    7.9717 C   0  0  1  0  0  0  0  0  0  0  0  0
   17.7379   -2.9002    7.1870 O   0  0  0  0  0  0  0  0  0  0  0  0
   16.3466   -2.5998    9.1228 C   0  0  1  0  0  0  0  0  0  0  0  0
   16.5084   -1.2448    8.7486 O   0  0  0  0  0  0  0  0  0  0  0  0
   14.8753   -2.9153    9.3592 C   0  0  2  0  0  0  0  0  0  0  0  0
   19.0287   -7.9818   10.3835 O   0  0  0  0  0  0  0  0  0  0  0  0
   12.3084   -7.0654   11.3707 N   0  0  0  0  0  0  0  0  0  0  0  0
   12.1399   -6.4838   10.1225 C   0  0  0  0  0  0  0  0  0  0  0  0
   12.8901   -5.3768    9.7442 N   0  0  0  0  0  0  0  0  0  0  0  0
   13.8039   -4.8781   10.5966 C   0  0  0  0  0  0  0  0  0  0  0  0
   13.9934   -5.4647   11.8510 C   0  0  0  0  0  0  0  0  0  0  0  0
   13.2392   -6.5532   12.2489 C   0  0  0  0  0  0  0  0  0  0  0  0
   13.4149   -7.0990   13.4430 N   0  0  0  0  0  0  0  0  0  0  0  0
   14.9591   -4.7897   12.4841 N   0  0  0  0  0  0  0  0  0  0  0  0
   15.3860   -3.7996   11.6695 C   0  0  0  0  0  0  0  0  0  0  0  0
   14.6834   -3.8418   10.4909 N   0  0  0  0  0  0  0  0  0  0  0  0
  2  1  1  1  0  0  0
  2  3  1  0  0  0  0
  2  5  1  0  0  0  0
  3  4  1  0  0  0  0
  3 17  1  0  0  0  0
  5  6  1  0  0  0  0
  7  6  1  1  0  0  0
  7  8  1  0  0  0  0
  7  9  1  0  0  0  0
 10  9  1  1  0  0  0
 10 11  1  0  0  0  0
 10 12  1  0  0  0  0
 11 16  1  0  0  0  0
 12 13  1  6  0  0  0
 12 14  1  0  0  0  0
 14 15  1  6  0  0  0
 14 16  1  0  0  0  0
 16 27  1  1  0  0  0
 18 19  2  0  0  0  0
 18 23  1  0  0  0  0
 19 20  1  0  0  0  0
 20 21  2  0  0  0  0
 21 22  1  0  0  0  0
 21 27  1  0  0  0  0
 22 23  2  0  0  0  0
 22 25  1  0  0  0  0
 23 24  1  0  0  0  0
 25 26  2  0  0  0  0
 26 27  1  0  0  0  0
M  END
>  <CHROM.1>
-74.44695640,-71.13943983,179.44160491,168.29981263,-108.05134794,-9.27494875
-21.77709589,15.18890217,-5.42177095,9.43644356,-1.80791319,0.53928901,-0.73539175

>  <Name>
ligand

>  <RI>
0

>  <Rbt.Current_Directory>
/home/itssahil/PROJECTS/Mol_Feturizer/Test_systems_manuscript/rnas/2ydh

>  <Rbt.Executable>
rbdock ($Id: //depot/dev/client3/rdock/2013.1/src/exe/rbdock.cxx#4 $)

>  <Rbt.Library>
libRbt.so (2013.1, Build901 2013/11/27)

>  <Rbt.Parameter_File>
/export/apps/rDock/src/rDock_2013.1_src/data/scripts/dock_solv.prm

>  <Rbt.Receptor>
prm/pocket_docking_6.prm

>  <SCORE>
-8.80955

>  <SCORE.INTER>
-9.55941

>  <SCORE.INTER.CONST>
1

>  <SCORE.INTER.POLAR>
0

>  <SCORE.INTER.ROT>
7

>  <SCORE.INTER.SOLV>
10.6068

>  <SCORE.INTER.VDW>
-18.1752

>  <SCORE.INTER.norm>
-0.354052

>  <SCORE.INTRA>
0.749859

>  <SCORE.INTRA.DIHEDRAL>
2.19976

>  <SCORE.INTRA.DIHEDRAL.0>
9.75037

>  <SCORE.INTRA.POLAR>
0

>  <SCORE.INTRA.POLAR.0>
0

>  <SCORE.INTRA.REPUL>
0

>  <SCORE.INTRA.REPUL.0>
0

>  <SCORE.INTRA.SOLV>
-0.333382

>  <SCORE.INTRA.SOLV.lig_0>
-48.4279

>  <SCORE.INTRA.VDW>
-0.18333

>  <SCORE.INTRA.VDW.0>
-4.69037

>  <SCORE.INTRA.norm>
0.0277726

>  <SCORE.RESTR>
0

>  <SCORE.RESTR.CAVITY>
0

>  <SCORE.RESTR.norm>
0

>  <SCORE.SYSTEM>
0

>  <SCORE.SYSTEM.CONST>
0

>  <SCORE.SYSTEM.DIHEDRAL>
0

>  <SCORE.SYSTEM.SOLV>
0

>  <SCORE.SYSTEM.norm>
0

>  <SCORE.heavy>
27

>  <SCORE.norm>
-0.32628

>  <RMSD>
5.312

$$$$
ligand
 OpenBabel02271912153D
libRbt.so/2013.1/901 2013/11/27
 27 29  0  0  0  0  0  0  0  0999 V2000
   13.7983   -8.4002   10.9077 N   0  0  0  0  0  0  0  0  0  0  0  0
   12.5424   -8.0773   11.6528 C   0  0  2  0  0  0  0  0  0  0  0  0
   11.4566   -9.1472   11.4018 C   0  0  0  0  0  0  0  0  0  0  0  0
   11.1551   -9.9670   12.2746 O   0  0  0  0  0  0  0  0  0  0  0  0
   12.0694   -6.6795   11.2679 C   0  0  0  0  0  0  0  0  0  0  0  0
   12.8646   -5.5491   11.8995 C   0  0  0  0  0  0  0  0  0  0  0  0
   14.4807   -5.2823   11.1159 S   0  0  2  0  0  0  0  0  0  0  0  0
   15.2712   -4.1943   12.3353 C   0  0  0  0  0  0  0  0  0  0  0  0
   14.2012   -4.1630    9.7342 C   0  0  0  0  0  0  0  0  0  0  0  0
   15.5377   -3.7923    9.1202 C   0  0  1  0  0  0  0  0  0  0  0  0
   16.3521   -4.9260    8.8640 O   0  0  0  0  0  0  0  0  0  0  0  0
   15.3605   -3.0685    7.8077 C   0  0  1  0  0  0  0  0  0  0  0  0
   15.1610   -1.6990    8.0108 O   0  0  0  0  0  0  0  0  0  0  0  0
   16.6716   -3.3522    7.1402 C   0  0  1  0  0  0  0  0  0  0  0  0
   17.6122   -2.3687    7.5277 O   0  0  0  0  0  0  0  0  0  0  0  0
   17.0790   -4.7192    7.6750 C   0  0  2  0  0  0  0  0  0  0  0  0
   10.8464   -9.2354   10.3205 O   0  0  0  0  0  0  0  0  0  0  0  0
   13.5388   -7.1552    4.6104 N   0  0  0  0  0  0  0  0  0  0  0  0
   13.3407   -6.0522    5.4282 C   0  0  0  0  0  0  0  0  0  0  0  0
   14.3806   -5.5334    6.1904 N   0  0  0  0  0  0  0  0  0  0  0  0
   15.5982   -6.1009    6.1162 C   0  0  0  0  0  0  0  0  0  0  0  0
   15.8137   -7.2033    5.2843 C   0  0  0  0  0  0  0  0  0  0  0  0
   14.7833   -7.7429    4.5367 C   0  0  0  0  0  0  0  0  0  0  0  0
   14.9900   -8.7945    3.7581 N   0  0  0  0  0  0  0  0  0  0  0  0
   17.0995   -7.5570    5.3876 N   0  0  0  0  0  0  0  0  0  0  0  0
   17.7015   -6.7127    6.2542 C   0  0  0  0  0  0  0  0  0  0  0  0
   16.7860   -5.7987    6.7133 N   0  0  0  0  0  0  0  0  0  0  0  0
  2  1  1  6  0  0  0
  2  3  1  0  0  0  0
  2  5  1  0  0  0  0
  3  4  1  0  0  0  0
  3 17  1  0  0  0  0
  5  6  1  0  0  0  0
  7  6  1  1  0  0  0
  7  8  1  0  0  0  0
  7  9  1  0  0  0  0
 10  9  1  6  0  0  0
 10 11  1  0  0  0  0
 10 12  1  0  0  0  0
 11 16  1  0  0  0  0
 12 13  1  1  0  0  0
 12 14  1  0  0  0  0
 14 15  1  1  0  0  0
 14 16  1  0  0  0  0
 16 27  1  6  0  0  0
 18 19  2  0  0  0  0
 18 23  1  0  0  0  0
 19 20  1  0  0  0  0
 20 21  2  0  0  0  0
 21 22  1  0  0  0  0
 21 27  1  0  0  0  0
 22 23  2  0  0  0  0
 22 25  1  0  0  0  0
 23 24  1  0  0  0  0
 25 26  2  0  0  0  0
 26 27  1  0  0  0  0
M  END
>  <CHROM.1>
106.57937509,-75.86040936,76.39805804,-167.03371969,174.48230884,49.04837526
63.95970096,14.65250072,-5.98051089,8.49219170,2.69294412,0.92620165,0.98204459

>  <Name>
ligand

>  <RI>
0

>  <Rbt.Current_Directory>
/home/itssahil/PROJECTS/Mol_Feturizer/Test_systems_manuscript/rnas/2ydh

>  <Rbt.Executable>
rbdock ($Id: //depot/dev/client3/rdock/2013.1/src/exe/rbdock.cxx#4 $)

>  <Rbt.Library>
libRbt.so (2013.1, Build901 2013/11/27)

>  <Rbt.Parameter_File>
/export/apps/rDock/src/rDock_2013.1_src/data/scripts/dock_solv.prm

>  <Rbt.Receptor>
prm/pocket_docking_4.prm

>  <SCORE>
-13.2258

>  <SCORE.INTER>
-13.1595

>  <SCORE.INTER.CONST>
1

>  <SCORE.INTER.POLAR>
0

>  <SCORE.INTER.ROT>
7

>  <SCORE.INTER.SOLV>
13.6554

>  <SCORE.INTER.VDW>
-21.5914

>  <SCORE.INTER.norm>
-0.487388

>  <SCORE.INTRA>
-0.0677942

>  <SCORE.INTRA.DIHEDRAL>
-3.28118

>  <SCORE.INTRA.DIHEDRAL.0>
9.75037

>  <SCORE.INTRA.POLAR>
0

>  <SCORE.INTRA.POLAR.0>
0

>  <SCORE.INTRA.REPUL>
0

>  <SCORE.INTRA.REPUL.0>
0

>  <SCORE.INTRA.SOLV>
0.462467

>  <SCORE.INTRA.SOLV.lig_0>
-48.4279

>  <SCORE.INTRA.VDW>
1.34156

>  <SCORE.INTRA.VDW.0>
-4.69037

>  <SCORE.INTRA.norm>
-0.0025109

>  <SCORE.RESTR>
0.00146733

>  <SCORE.RESTR.CAVITY>
0.00146733

>  <SCORE.RESTR.norm>
5.43454e-05

>  <SCORE.SYSTEM>
0

>  <SCORE.SYSTEM.CONST>
0

>  <SCORE.SYSTEM.DIHEDRAL>
0

>  <SCORE.SYSTEM.SOLV>
0

>  <SCORE.SYSTEM.norm>
0

>  <SCORE.heavy>
27

>  <SCORE.norm>
-0.489845

>  <RMSD>
5.330

$$$$
ligand
 OpenBabel02271912153D
libRbt.so/2013.1/901 2013/11/27
 27 29  0  0  0  0  0  0  0  0999 V2000
   17.2698   -8.4413   10.7897 N   0  0  0  0  0  0  0  0  0  0  0  0
   16.6327   -7.6120   11.8588 C   0  0  2  0  0  0  0  0  0  0  0  0
   16.4116   -8.4381   13.1454 C   0  0  0  0  0  0  0  0  0  0  0  0
   16.8658   -9.5810   13.2556 O   0  0  0  0  0  0  0  0  0  0  0  0
   15.3326   -7.0151   11.3306 C   0  0  0  0  0  0  0  0  0  0  0  0
   14.6818   -6.0022   12.2577 C   0  0  0  0  0  0  0  0  0  0  0  0
   13.3056   -5.1029   11.4866 S   0  0  2  0  0  0  0  0  0  0  0  0
   12.1297   -6.4582   11.2107 C   0  0  0  0  0  0  0  0  0  0  0  0
   13.8280   -4.7073    9.8102 C   0  0  0  0  0  0  0  0  0  0  0  0
   14.7627   -3.5134    9.8524 C   0  0  1  0  0  0  0  0  0  0  0  0
   15.8036   -3.6707   10.8043 O   0  0  0  0  0  0  0  0  0  0  0  0
   15.4185   -3.2781    8.5136 C   0  0  1  0  0  0  0  0  0  0  0  0
   14.5994   -2.5098    7.6797 O   0  0  0  0  0  0  0  0  0  0  0  0
   16.6557   -2.5382    8.9223 C   0  0  1  0  0  0  0  0  0  0  0  0
   16.3663   -1.1551    8.9963 O   0  0  0  0  0  0  0  0  0  0  0  0
   16.9850   -3.0884   10.3040 C   0  0  2  0  0  0  0  0  0  0  0  0
   15.7689   -7.9984   14.1165 O   0  0  0  0  0  0  0  0  0  0  0  0
   19.7243   -6.5883    7.4571 N   0  0  0  0  0  0  0  0  0  0  0  0
   18.6897   -5.7682    7.0311 C   0  0  0  0  0  0  0  0  0  0  0  0
   18.0552   -4.9031    7.9145 N   0  0  0  0  0  0  0  0  0  0  0  0
   18.4664   -4.8508    9.1945 C   0  0  0  0  0  0  0  0  0  0  0  0
   19.5178   -5.6613    9.6319 C   0  0  0  0  0  0  0  0  0  0  0  0
   20.1440   -6.5419    8.7691 C   0  0  0  0  0  0  0  0  0  0  0  0
   21.1328   -7.3158    9.1910 N   0  0  0  0  0  0  0  0  0  0  0  0
   19.7305   -5.4035   10.9270 N   0  0  0  0  0  0  0  0  0  0  0  0
   18.8503   -4.4561   11.3192 C   0  0  0  0  0  0  0  0  0  0  0  0
   18.0602   -4.0971   10.2555 N   0  0  0  0  0  0  0  0  0  0  0  0
  2  1  1  6  0  0  0
  2  3  1  0  0  0  0
  2  5  1  0  0  0  0
  3  4  1  0  0  0  0
  3 17  1  0  0  0  0
  5  6  1  0  0  0  0
  7  6  1  1  0  0  0
  7  8  1  0  0  0  0
  7  9  1  0  0  0  0
 10  9  1  6  0  0  0
 10 11  1  0  0  0  0
 10 12  1  0  0  0  0
 11 16  1  0  0  0  0
 12 13  1  6  0  0  0
 12 14  1  0  0  0  0
 14 15  1  1  0  0  0
 14 16  1  0  0  0  0
 16 27  1  6  0  0  0
 18 19  2  0  0  0  0
 18 23  1  0  0  0  0
 19 20  1  0  0  0  0
 20 21  2  0  0  0  0
 21 22  1  0  0  0  0
 21 27  1  0  0  0  0
 22 23  2  0  0  0  0
 22 25  1  0  0  0  0
 23 24  1  0  0  0  0
 25 26  2  0  0  0  0
 26 27  1  0  0  0  0
M  END
>  <CHROM.1>
7.50008760,-172.24356276,169.99305840,64.64252469,-78.42984422,50.00992028
96.72853599,16.61059882,-5.41132580,10.31911522,-2.37732914,0.36668386,-0.64329801

>  <Name>
ligand

>  <RI>
0

>  <Rbt.Current_Directory>
/home/itssahil/PROJECTS/Mol_Feturizer/Test_systems_manuscript/rnas/2ydh

>  <Rbt.Executable>
rbdock ($Id: //depot/dev/client3/rdock/2013.1/src/exe/rbdock.cxx#4 $)

>  <Rbt.Library>
libRbt.so (2013.1, Build901 2013/11/27)

>  <Rbt.Parameter_File>
/export/apps/rDock/src/rDock_2013.1_src/data/scripts/dock_solv.prm

>  <Rbt.Receptor>
prm/pocket_docking_8.prm

>  <SCORE>
-14.1812

>  <SCORE.INTER>
-12.9552

>  <SCORE.INTER.CONST>
1

>  <SCORE.INTER.POLAR>
0

>  <SCORE.INTER.ROT>
7

>  <SCORE.INTER.SOLV>
10.022

>  <SCORE.INTER.VDW>
-20.2441

>  <SCORE.INTER.norm>
-0.479822

>  <SCORE.INTRA>
-1.22596

>  <SCORE.INTRA.DIHEDRAL>
-5.04279

>  <SCORE.INTRA.DIHEDRAL.0>
9.75037

>  <SCORE.INTRA.POLAR>
0

>  <SCORE.INTRA.POLAR.0>
0

>  <SCORE.INTRA.REPUL>
0

>  <SCORE.INTRA.REPUL.0>
0

>  <SCORE.INTRA.SOLV>
-0.96264

>  <SCORE.INTRA.SOLV.lig_0>
-48.4279

>  <SCORE.INTRA.VDW>
1.77675

>  <SCORE.INTRA.VDW.0>
-4.69037

>  <SCORE.INTRA.norm>
-0.0454061

>  <SCORE.RESTR>
0

>  <SCORE.RESTR.CAVITY>
0

>  <SCORE.RESTR.norm>
0

>  <SCORE.SYSTEM>
0

>  <SCORE.SYSTEM.CONST>
0

>  <SCORE.SYSTEM.DIHEDRAL>
0

>  <SCORE.SYSTEM.SOLV>
0

>  <SCORE.SYSTEM.norm>
0

>  <SCORE.heavy>
27

>  <SCORE.norm>
-0.525228

>  <RMSD>
5.333

$$$$
ligand
 OpenBabel02271912153D
libRbt.so/2013.1/901 2013/11/27
 27 29  0  0  0  0  0  0  0  0999 V2000
   12.1531  -10.1802   12.5545 N   0  0  0  0  0  0  0  0  0  0  0  0
   12.6765  -10.0758   11.1575 C   0  0  2  0  0  0  0  0  0  0  0  0
   14.2086   -9.8774   11.1513 C   0  0  0  0  0  0  0  0  0  0  0  0
   14.8627   -9.9942   10.1106 O   0  0  0  0  0  0  0  0  0  0  0  0
   11.9502   -8.9517   10.4264 C   0  0  0  0  0  0  0  0  0  0  0  0
   12.1285   -7.5769   11.0488 C   0  0  0  0  0  0  0  0  0  0  0  0
   13.7335   -6.8184   10.6676 S   0  0  2  0  0  0  0  0  0  0  0  0
   13.7354   -5.4284   11.8353 C   0  0  0  0  0  0  0  0  0  0  0  0
   13.5420   -5.9832    9.0847 C   0  0  0  0  0  0  0  0  0  0  0  0
   14.8700   -5.3678    8.6866 C   0  0  1  0  0  0  0  0  0  0  0  0
   15.8456   -6.3447    8.3578 O   0  0  0  0  0  0  0  0  0  0  0  0
   14.7228   -4.4668    7.4847 C   0  0  1  0  0  0  0  0  0  0  0  0
   14.3282   -3.1800    7.8655 O   0  0  0  0  0  0  0  0  0  0  0  0
   16.1160   -4.4872    6.9340 C   0  0  1  0  0  0  0  0  0  0  0  0
   16.8801   -3.4781    7.5665 O   0  0  0  0  0  0  0  0  0  0  0  0
   16.6467   -5.8669    7.3019 C   0  0  2  0  0  0  0  0  0  0  0  0
   14.8480   -9.5997   12.1826 O   0  0  0  0  0  0  0  0  0  0  0  0
   13.8037   -8.0253    3.4138 N   0  0  0  0  0  0  0  0  0  0  0  0
   13.3970   -7.0746    4.3387 C   0  0  0  0  0  0  0  0  0  0  0  0
   14.2687   -6.6136    5.3181 N   0  0  0  0  0  0  0  0  0  0  0  0
   15.5283   -7.0853    5.3535 C   0  0  0  0  0  0  0  0  0  0  0  0
   15.9541   -8.0320    4.4176 C   0  0  0  0  0  0  0  0  0  0  0  0
   15.0915   -8.5152    3.4510 C   0  0  0  0  0  0  0  0  0  0  0  0
   15.4966   -9.4205    2.5730 N   0  0  0  0  0  0  0  0  0  0  0  0
   17.2372   -8.3155    4.6673 N   0  0  0  0  0  0  0  0  0  0  0  0
   17.6344   -7.5771    5.7270 C   0  0  0  0  0  0  0  0  0  0  0  0
   16.5879   -6.8034    6.1637 N   0  0  0  0  0  0  0  0  0  0  0  0
  2  1  1  1  0  0  0
  2  3  1  0  0  0  0
  2  5  1  0  0  0  0
  3  4  1  0  0  0  0
  3 17  1  0  0  0  0
  5  6  1  0  0  0  0
  7  6  1  1  0  0  0
  7  8  1  0  0  0  0
  7  9  1  0  0  0  0
 10  9  1  6  0  0  0
 10 11  1  0  0  0  0
 10 12  1  0  0  0  0
 11 16  1  0  0  0  0
 12 13  1  1  0  0  0
 12 14  1  0  0  0  0
 14 15  1  1  0  0  0
 14 16  1  0  0  0  0
 16 27  1  6  0  0  0
 18 19  2  0  0  0  0
 18 23  1  0  0  0  0
 19 20  1  0  0  0  0
 20 21  2  0  0  0  0
 21 22  1  0  0  0  0
 21 27  1  0  0  0  0
 22 23  2  0  0  0  0
 22 25  1  0  0  0  0
 23 24  1  0  0  0  0
 25 26  2  0  0  0  0
 26 27  1  0  0  0  0
M  END
>  <CHROM.1>
167.61757593,60.98050190,77.80897730,-168.02756560,-178.02336700,68.94129656
67.84757621,14.69509546,-7.17605064,8.00920385,2.70057024,1.19964082,0.66709278

>  <Name>
ligand

>  <RI>
0

>  <Rbt.Current_Directory>
/home/itssahil/PROJECTS/Mol_Feturizer/Test_systems_manuscript/rnas/2ydh

>  <Rbt.Executable>
rbdock ($Id: //depot/dev/client3/rdock/2013.1/src/exe/rbdock.cxx#4 $)

>  <Rbt.Library>
libRbt.so (2013.1, Build901 2013/11/27)

>  <Rbt.Parameter_File>
/export/apps/rDock/src/rDock_2013.1_src/data/scripts/dock_solv.prm

>  <Rbt.Receptor>
prm/pocket_docking_5.prm

>  <SCORE>
-13.0622

>  <SCORE.INTER>
-11.6551

>  <SCORE.INTER.CONST>
1

>  <SCORE.INTER.POLAR>
0

>  <SCORE.INTER.ROT>
7

>  <SCORE.INTER.SOLV>
15.1018

>  <SCORE.INTER.VDW>
-21.0707

>  <SCORE.INTER.norm>
-0.431672

>  <SCORE.INTRA>
-1.40703

>  <SCORE.INTRA.DIHEDRAL>
-4.06523

>  <SCORE.INTRA.DIHEDRAL.0>
9.75037

>  <SCORE.INTRA.POLAR>
0

>  <SCORE.INTRA.POLAR.0>
0

>  <SCORE.INTRA.REPUL>
0

>  <SCORE.INTRA.REPUL.0>
0

>  <SCORE.INTRA.SOLV>
-0.3779

>  <SCORE.INTRA.SOLV.lig_0>
-48.4279

>  <SCORE.INTRA.VDW>
0.814534

>  <SCORE.INTRA.VDW.0>
-4.69037

>  <SCORE.INTRA.norm>
-0.0521123

>  <SCORE.RESTR>
0

>  <SCORE.RESTR.CAVITY>
0

>  <SCORE.RESTR.norm>
0

>  <SCORE.SYSTEM>
0

>  <SCORE.SYSTEM.CONST>
0

>  <SCORE.SYSTEM.DIHEDRAL>
0

>  <SCORE.SYSTEM.SOLV>
0

>  <SCORE.SYSTEM.norm>
0

>  <SCORE.heavy>
27

>  <SCORE.norm>
-0.483784

>  <RMSD>
5.340

$$$$
ligand
 OpenBabel02271912153D
libRbt.so/2013.1/901 2013/11/27
 27 29  0  0  0  0  0  0  0  0999 V2000
   12.0816   -9.9468   12.3826 N   0  0  0  0  0  0  0  0  0  0  0  0
   12.6610   -9.8403   11.0079 C   0  0  2  0  0  0  0  0  0  0  0  0
   14.2006   -9.7246   11.0611 C   0  0  0  0  0  0  0  0  0  0  0  0
   14.8775   -9.7409   10.0285 O   0  0  0  0  0  0  0  0  0  0  0  0
   12.0227   -8.6630   10.2783 C   0  0  0  0  0  0  0  0  0  0  0  0
   12.2538   -7.3133   10.9371 C   0  0  0  0  0  0  0  0  0  0  0  0
   13.9089   -6.6352   10.6244 S   0  0  2  0  0  0  0  0  0  0  0  0
   13.9054   -5.2069   11.7449 C   0  0  0  0  0  0  0  0  0  0  0  0
   13.8426   -5.8482    9.0070 C   0  0  0  0  0  0  0  0  0  0  0  0
   15.2328   -5.3720    8.6315 C   0  0  1  0  0  0  0  0  0  0  0  0
   16.0966   -6.4406    8.2763 O   0  0  0  0  0  0  0  0  0  0  0  0
   15.1936   -4.4250    7.4570 C   0  0  1  0  0  0  0  0  0  0  0  0
   14.9412   -3.1142    7.8752 O   0  0  0  0  0  0  0  0  0  0  0  0
   16.5795   -4.5831    6.9100 C   0  0  1  0  0  0  0  0  0  0  0  0
   17.4464   -3.6838    7.5749 O   0  0  0  0  0  0  0  0  0  0  0  0
   16.9523   -6.0232    7.2377 C   0  0  2  0  0  0  0  0  0  0  0  0
   14.8233   -9.6165   12.1334 O   0  0  0  0  0  0  0  0  0  0  0  0
   13.8079   -7.9813    3.4778 N   0  0  0  0  0  0  0  0  0  0  0  0
   13.4839   -7.0612    4.4641 C   0  0  0  0  0  0  0  0  0  0  0  0
   14.4295   -6.6531    5.3973 N   0  0  0  0  0  0  0  0  0  0  0  0
   15.6794   -7.1461    5.3270 C   0  0  0  0  0  0  0  0  0  0  0  0
   16.0218   -8.0622    4.3285 C   0  0  0  0  0  0  0  0  0  0  0  0
   15.0857   -8.4931    3.4066 C   0  0  0  0  0  0  0  0  0  0  0  0
   15.4122   -9.3698    2.4688 N   0  0  0  0  0  0  0  0  0  0  0  0
   17.3135   -8.3760    4.4773 N   0  0  0  0  0  0  0  0  0  0  0  0
   17.7966   -7.6862    5.5341 C   0  0  0  0  0  0  0  0  0  0  0  0
   16.7975   -6.9133    6.0716 N   0  0  0  0  0  0  0  0  0  0  0  0
  2  1  1  1  0  0  0
  2  3  1  0  0  0  0
  2  5  1  0  0  0  0
  3  4  1  0  0  0  0
  3 17  1  0  0  0  0
  5  6  1  0  0  0  0
  7  6  1  1  0  0  0
  7  8  1  0  0  0  0
  7  9  1  0  0  0  0
 10  9  1  6  0  0  0
 10 11  1  0  0  0  0
 10 12  1  0  0  0  0
 11 16  1  0  0  0  0
 12 13  1  1  0  0  0
 12 14  1  0  0  0  0
 14 15  1  1  0  0  0
 14 16  1  0  0  0  0
 16 27  1  6  0  0  0
 18 19  2  0  0  0  0
 18 23  1  0  0  0  0
 19 20  1  0  0  0  0
 20 21  2  0  0  0  0
 21 22  1  0  0  0  0
 21 27  1  0  0  0  0
 22 23  2  0  0  0  0
 22 25  1  0  0  0  0
 23 24  1  0  0  0  0
 25 26  2  0  0  0  0
 26 27  1  0  0  0  0
M  END
>  <CHROM.1>
173.78680301,61.14189449,77.91962687,-171.55200197,-174.84250892,73.24318106
61.01255359,14.86965346,-7.12318042,7.94671101,2.48274326,1.11654466,0.86707691

>  <Name>
ligand

>  <RI>
0

>  <Rbt.Current_Directory>
/home/itssahil/PROJECTS/Mol_Feturizer/Test_systems_manuscript/rnas/2ydh

>  <Rbt.Executable>
rbdock ($Id: //depot/dev/client3/rdock/2013.1/src/exe/rbdock.cxx#4 $)

>  <Rbt.Library>
libRbt.so (2013.1, Build901 2013/11/27)

>  <Rbt.Parameter_File>
/export/apps/rDock/src/rDock_2013.1_src/data/scripts/dock_solv.prm

>  <Rbt.Receptor>
prm/pocket_docking_4.prm

>  <SCORE>
-12.7521

>  <SCORE.INTER>
-11.3544

>  <SCORE.INTER.CONST>
1

>  <SCORE.INTER.POLAR>
0

>  <SCORE.INTER.ROT>
7

>  <SCORE.INTER.SOLV>
14.912

>  <SCORE.INTER.VDW>
-20.8069

>  <SCORE.INTER.norm>
-0.420534

>  <SCORE.INTRA>
-1.39774

>  <SCORE.INTRA.DIHEDRAL>
-3.84709

>  <SCORE.INTRA.DIHEDRAL.0>
9.75037

>  <SCORE.INTRA.POLAR>
0

>  <SCORE.INTRA.POLAR.0>
0

>  <SCORE.INTRA.REPUL>
0

>  <SCORE.INTRA.REPUL.0>
0

>  <SCORE.INTRA.SOLV>
-0.381093

>  <SCORE.INTRA.SOLV.lig_0>
-48.4279

>  <SCORE.INTRA.VDW>
0.716354

>  <SCORE.INTRA.VDW.0>
-4.69037

>  <SCORE.INTRA.norm>
-0.051768

>  <SCORE.RESTR>
0

>  <SCORE.RESTR.CAVITY>
0

>  <SCORE.RESTR.norm>
0

>  <SCORE.SYSTEM>
0

>  <SCORE.SYSTEM.CONST>
0

>  <SCORE.SYSTEM.DIHEDRAL>
0

>  <SCORE.SYSTEM.SOLV>
0

>  <SCORE.SYSTEM.norm>
0

>  <SCORE.heavy>
27

>  <SCORE.norm>
-0.472302

>  <RMSD>
5.351

$$$$
ligand
 OpenBabel02271912153D
libRbt.so/2013.1/901 2013/11/27
 27 29  0  0  0  0  0  0  0  0999 V2000
   14.5704   -5.2017   12.3053 N   0  0  0  0  0  0  0  0  0  0  0  0
   13.3444   -5.1793   11.4492 C   0  0  2  0  0  0  0  0  0  0  0  0
   12.4023   -6.3533   11.7966 C   0  0  0  0  0  0  0  0  0  0  0  0
   12.5897   -7.0456   12.8018 O   0  0  0  0  0  0  0  0  0  0  0  0
   13.7517   -5.1870    9.9796 C   0  0  0  0  0  0  0  0  0  0  0  0
   14.0723   -3.8163    9.4074 C   0  0  0  0  0  0  0  0  0  0  0  0
   14.8922   -3.8873    7.7888 S   0  0  2  0  0  0  0  0  0  0  0  0
   14.6062   -2.1971    7.1915 C   0  0  0  0  0  0  0  0  0  0  0  0
   13.8207   -4.8553    6.7142 C   0  0  0  0  0  0  0  0  0  0  0  0
   14.4676   -6.2025    6.4547 C   0  0  1  0  0  0  0  0  0  0  0  0
   14.9847   -6.7945    7.6364 O   0  0  0  0  0  0  0  0  0  0  0  0
   13.4842   -7.1822    5.8623 C   0  0  1  0  0  0  0  0  0  0  0  0
   13.4054   -7.0388    4.4731 O   0  0  0  0  0  0  0  0  0  0  0  0
   14.1017   -8.4888    6.2579 C   0  0  1  0  0  0  0  0  0  0  0  0
   15.0421   -8.8748    5.2736 O   0  0  0  0  0  0  0  0  0  0  0  0
   14.8029   -8.1904    7.5769 C   0  0  2  0  0  0  0  0  0  0  0  0
   11.4262   -6.6561   11.0861 O   0  0  0  0  0  0  0  0  0  0  0  0
   14.7548  -10.0370   12.5212 N   0  0  0  0  0  0  0  0  0  0  0  0
   15.8576   -9.7109   11.7452 C   0  0  0  0  0  0  0  0  0  0  0  0
   15.7024   -9.2463   10.4446 N   0  0  0  0  0  0  0  0  0  0  0  0
   14.4632   -9.0948    9.9430 C   0  0  0  0  0  0  0  0  0  0  0  0
   13.3440   -9.4055   10.7204 C   0  0  0  0  0  0  0  0  0  0  0  0
   13.4841   -9.8889   12.0083 C   0  0  0  0  0  0  0  0  0  0  0  0
   12.4206  -10.1923   12.7373 N   0  0  0  0  0  0  0  0  0  0  0  0
   12.2499   -9.1532    9.9936 N   0  0  0  0  0  0  0  0  0  0  0  0
   12.6424   -8.6914    8.7858 C   0  0  0  0  0  0  0  0  0  0  0  0
   14.0134   -8.6437    8.7376 N   0  0  0  0  0  0  0  0  0  0  0  0
  2  1  1  1  0  0  0
  2  3  1  0  0  0  0
  2  5  1  0  0  0  0
  3  4  1  0  0  0  0
  3 17  1  0  0  0  0
  5  6  1  0  0  0  0
  7  6  1  1  0  0  0
  7  8  1  0  0  0  0
  7  9  1  0  0  0  0
 10  9  1  1  0  0  0
 10 11  1  0  0  0  0
 10 12  1  0  0  0  0
 11 16  1  0  0  0  0
 12 13  1  6  0  0  0
 12 14  1  0  0  0  0
 14 15  1  6  0  0  0
 14 16  1  0  0  0  0
 16 27  1  1  0  0  0
 18 19  2  0  0  0  0
 18 23  1  0  0  0  0
 19 20  1  0  0  0  0
 20 21  2  0  0  0  0
 21 22  1  0  0  0  0
 21 27  1  0  0  0  0
 22 23  2  0  0  0  0
 22 25  1  0  0  0  0
 23 24  1  0  0  0  0
 25 26  2  0  0  0  0
 26 27  1  0  0  0  0
M  END
>  <CHROM.1>
10.82333997,-84.53411994,167.44600239,161.75968130,-108.46952602,45.25851274
-92.84913741,13.92003690,-7.08739490,9.19452187,2.54276788,-1.41128914,3.12112069

>  <Name>
ligand

>  <RI>
0

>  <Rbt.Current_Directory>
/home/itssahil/PROJECTS/Mol_Feturizer/Test_systems_manuscript/rnas/2ydh

>  <Rbt.Executable>
rbdock ($Id: //depot/dev/client3/rdock/2013.1/src/exe/rbdock.cxx#4 $)

>  <Rbt.Library>
libRbt.so (2013.1, Build901 2013/11/27)

>  <Rbt.Parameter_File>
/export/apps/rDock/src/rDock_2013.1_src/data/scripts/dock_solv.prm

>  <Rbt.Receptor>
prm/pocket_docking_3.prm

>  <SCORE>
-14.0537

>  <SCORE.INTER>
-13.9765

>  <SCORE.INTER.CONST>
1

>  <SCORE.INTER.POLAR>
0

>  <SCORE.INTER.ROT>
7

>  <SCORE.INTER.SOLV>
11.8759

>  <SCORE.INTER.VDW>
-21.543

>  <SCORE.INTER.norm>
-0.517649

>  <SCORE.INTRA>
-0.0772107

>  <SCORE.INTRA.DIHEDRAL>
0.542798

>  <SCORE.INTRA.DIHEDRAL.0>
9.75037

>  <SCORE.INTRA.POLAR>
0

>  <SCORE.INTRA.POLAR.0>
0

>  <SCORE.INTRA.REPUL>
0

>  <SCORE.INTRA.REPUL.0>
0

>  <SCORE.INTRA.SOLV>
-0.0856079

>  <SCORE.INTRA.SOLV.lig_0>
-48.4279

>  <SCORE.INTRA.VDW>
-0.305806

>  <SCORE.INTRA.VDW.0>
-4.69037

>  <SCORE.INTRA.norm>
-0.00285966

>  <SCORE.RESTR>
0

>  <SCORE.RESTR.CAVITY>
0

>  <SCORE.RESTR.norm>
0

>  <SCORE.SYSTEM>
0

>  <SCORE.SYSTEM.CONST>
0

>  <SCORE.SYSTEM.DIHEDRAL>
0

>  <SCORE.SYSTEM.SOLV>
0

>  <SCORE.SYSTEM.norm>
0

>  <SCORE.heavy>
27

>  <SCORE.norm>
-0.520509

>  <RMSD>
5.365

$$$$
ligand
 OpenBabel02271912153D
libRbt.so/2013.1/901 2013/11/27
 27 29  0  0  0  0  0  0  0  0999 V2000
   17.9320   -4.4885    9.7330 N   0  0  0  0  0  0  0  0  0  0  0  0
   16.7382   -3.6396    9.4316 C   0  0  2  0  0  0  0  0  0  0  0  0
   15.4528   -4.2568   10.0261 C   0  0  0  0  0  0  0  0  0  0  0  0
   14.5102   -3.5446   10.3852 O   0  0  0  0  0  0  0  0  0  0  0  0
   16.6304   -3.4326    7.9245 C   0  0  0  0  0  0  0  0  0  0  0  0
   15.4124   -2.6385    7.4830 C   0  0  0  0  0  0  0  0  0  0  0  0
   14.1872   -3.6388    6.5914 S   0  0  2  0  0  0  0  0  0  0  0  0
   12.6697   -3.1810    7.4764 C   0  0  0  0  0  0  0  0  0  0  0  0
   14.4346   -5.3417    7.1193 C   0  0  0  0  0  0  0  0  0  0  0  0
   15.1067   -6.1136    5.9998 C   0  0  1  0  0  0  0  0  0  0  0  0
   16.4381   -5.6823    5.7644 O   0  0  0  0  0  0  0  0  0  0  0  0
   15.1670   -7.5902    6.3061 C   0  0  1  0  0  0  0  0  0  0  0  0
   13.9812   -8.2309    5.9322 O   0  0  0  0  0  0  0  0  0  0  0  0
   16.3269   -8.0156    5.4583 C   0  0  1  0  0  0  0  0  0  0  0  0
   15.8620   -8.3289    4.1591 O   0  0  0  0  0  0  0  0  0  0  0  0
   17.2339   -6.7924    5.4191 C   0  0  2  0  0  0  0  0  0  0  0  0
   15.3109   -5.4846   10.1742 O   0  0  0  0  0  0  0  0  0  0  0  0
   21.1003   -9.7720    7.4272 N   0  0  0  0  0  0  0  0  0  0  0  0
   20.1831  -10.1165    6.4450 C   0  0  0  0  0  0  0  0  0  0  0  0
   19.2087   -9.2160    6.0315 N   0  0  0  0  0  0  0  0  0  0  0  0
   19.1706   -7.9885    6.5812 C   0  0  0  0  0  0  0  0  0  0  0  0
   20.0988   -7.6246    7.5608 C   0  0  0  0  0  0  0  0  0  0  0  0
   21.0603   -8.5175    7.9969 C   0  0  0  0  0  0  0  0  0  0  0  0
   21.9309   -8.1716    8.9333 N   0  0  0  0  0  0  0  0  0  0  0  0
   19.8481   -6.3615    7.9224 N   0  0  0  0  0  0  0  0  0  0  0  0
   18.7951   -5.9169    7.2014 C   0  0  0  0  0  0  0  0  0  0  0  0
   18.3640   -6.9119    6.3597 N   0  0  0  0  0  0  0  0  0  0  0  0
  2  1  1  6  0  0  0
  2  3  1  0  0  0  0
  2  5  1  0  0  0  0
  3  4  1  0  0  0  0
  3 17  1  0  0  0  0
  5  6  1  0  0  0  0
  7  6  1  1  0  0  0
  7  8  1  0  0  0  0
  7  9  1  0  0  0  0
 10  9  1  1  0  0  0
 10 11  1  0  0  0  0
 10 12  1  0  0  0  0
 11 16  1  0  0  0  0
 12 13  1  6  0  0  0
 12 14  1  0  0  0  0
 14 15  1  6  0  0  0
 14 16  1  0  0  0  0
 16 27  1  1  0  0  0
 18 19  2  0  0  0  0
 18 23  1  0  0  0  0
 19 20  1  0  0  0  0
 20 21  2  0  0  0  0
 21 22  1  0  0  0  0
 21 27  1  0  0  0  0
 22 23  2  0  0  0  0
 22 25  1  0  0  0  0
 23 24  1  0  0  0  0
 25 26  2  0  0  0  0
 26 27  1  0  0  0  0
M  END
>  <CHROM.1>
150.05818013,177.14792367,-110.60596386,130.54795296,-106.08243421,67.63939380
163.09900251,16.90787155,-6.16386899,7.29350160,-2.57787995,0.44927450,-2.35802781

>  <Name>
ligand

>  <RI>
0

>  <Rbt.Current_Directory>
/home/itssahil/PROJECTS/Mol_Feturizer/Test_systems_manuscript/rnas/2ydh

>  <Rbt.Executable>
rbdock ($Id: //depot/dev/client3/rdock/2013.1/src/exe/rbdock.cxx#4 $)

>  <Rbt.Library>
libRbt.so (2013.1, Build901 2013/11/27)

>  <Rbt.Parameter_File>
/export/apps/rDock/src/rDock_2013.1_src/data/scripts/dock_solv.prm

>  <Rbt.Receptor>
prm/pocket_docking_8.prm

>  <SCORE>
-10.8674

>  <SCORE.INTER>
-14.4117

>  <SCORE.INTER.CONST>
1

>  <SCORE.INTER.POLAR>
0

>  <SCORE.INTER.ROT>
7

>  <SCORE.INTER.SOLV>
7.81114

>  <SCORE.INTER.VDW>
-20.4782

>  <SCORE.INTER.norm>
-0.533765

>  <SCORE.INTRA>
3.5443

>  <SCORE.INTRA.DIHEDRAL>
5.5362

>  <SCORE.INTRA.DIHEDRAL.0>
9.75037

>  <SCORE.INTRA.POLAR>
0

>  <SCORE.INTRA.POLAR.0>
0

>  <SCORE.INTRA.REPUL>
0

>  <SCORE.INTRA.REPUL.0>
0

>  <SCORE.INTRA.SOLV>
-0.121749

>  <SCORE.INTRA.SOLV.lig_0>
-48.4279

>  <SCORE.INTRA.VDW>
0.837076

>  <SCORE.INTRA.VDW.0>
-4.69037

>  <SCORE.INTRA.norm>
0.13127

>  <SCORE.RESTR>
0

>  <SCORE.RESTR.CAVITY>
0

>  <SCORE.RESTR.norm>
0

>  <SCORE.SYSTEM>
0

>  <SCORE.SYSTEM.CONST>
0

>  <SCORE.SYSTEM.DIHEDRAL>
0

>  <SCORE.SYSTEM.SOLV>
0

>  <SCORE.SYSTEM.norm>
0

>  <SCORE.heavy>
27

>  <SCORE.norm>
-0.402495

>  <RMSD>
5.366

$$$$
ligand
 OpenBabel02271912153D
libRbt.so/2013.1/901 2013/11/27
 27 29  0  0  0  0  0  0  0  0999 V2000
   18.3881   -7.6338    8.1535 N   0  0  0  0  0  0  0  0  0  0  0  0
   16.9045   -7.4556    8.0898 C   0  0  2  0  0  0  0  0  0  0  0  0
   16.1886   -8.3952    9.0855 C   0  0  0  0  0  0  0  0  0  0  0  0
   16.8198   -9.2286    9.7426 O   0  0  0  0  0  0  0  0  0  0  0  0
   16.4291   -7.6698    6.6568 C   0  0  0  0  0  0  0  0  0  0  0  0
   14.9392   -7.4550    6.4484 C   0  0  0  0  0  0  0  0  0  0  0  0
   14.3227   -5.9210    7.1992 S   0  0  2  0  0  0  0  0  0  0  0  0
   12.6153   -5.9063    6.5826 C   0  0  0  0  0  0  0  0  0  0  0  0
   15.0691   -4.5652    6.2803 C   0  0  0  0  0  0  0  0  0  0  0  0
   15.5132   -3.4921    7.2559 C   0  0  1  0  0  0  0  0  0  0  0  0
   14.5639   -3.2670    8.2865 O   0  0  0  0  0  0  0  0  0  0  0  0
   16.8151   -3.8592    7.9254 C   0  0  1  0  0  0  0  0  0  0  0  0
   17.9092   -3.4871    7.1372 O   0  0  0  0  0  0  0  0  0  0  0  0
   16.7309   -3.0535    9.1859 C   0  0  1  0  0  0  0  0  0  0  0  0
   17.2482   -1.7588    8.9446 O   0  0  0  0  0  0  0  0  0  0  0  0
   15.2399   -2.9836    9.4897 C   0  0  2  0  0  0  0  0  0  0  0  0
   14.9575   -8.3605    9.2658 O   0  0  0  0  0  0  0  0  0  0  0  0
   16.4848   -7.2135   12.3909 N   0  0  0  0  0  0  0  0  0  0  0  0
   17.2638   -6.5780   11.4349 C   0  0  0  0  0  0  0  0  0  0  0  0
   16.7824   -5.4741   10.7414 N   0  0  0  0  0  0  0  0  0  0  0  0
   15.5509   -5.0082   11.0182 C   0  0  0  0  0  0  0  0  0  0  0  0
   14.7625   -5.6307   11.9901 C   0  0  0  0  0  0  0  0  0  0  0  0
   15.2203   -6.7427   12.6726 C   0  0  0  0  0  0  0  0  0  0  0  0
   14.4652   -7.3359   13.5851 N   0  0  0  0  0  0  0  0  0  0  0  0
   13.6050   -4.9660   12.0749 N   0  0  0  0  0  0  0  0  0  0  0  0
   13.6391   -3.9441   11.1913 C   0  0  0  0  0  0  0  0  0  0  0  0
   14.8416   -3.9515   10.5293 N   0  0  0  0  0  0  0  0  0  0  0  0
  2  1  1  6  0  0  0
  2  3  1  0  0  0  0
  2  5  1  0  0  0  0
  3  4  1  0  0  0  0
  3 17  1  0  0  0  0
  5  6  1  0  0  0  0
  7  6  1  6  0  0  0
  7  8  1  0  0  0  0
  7  9  1  0  0  0  0
 10  9  1  6  0  0  0
 10 11  1  0  0  0  0
 10 12  1  0  0  0  0
 11 16  1  0  0  0  0
 12 13  1  6  0  0  0
 12 14  1  0  0  0  0
 14 15  1  6  0  0  0
 14 16  1  0  0  0  0
 16 27  1  1  0  0  0
 18 19  2  0  0  0  0
 18 23  1  0  0  0  0
 19 20  1  0  0  0  0
 20 21  2  0  0  0  0
 21 22  1  0  0  0  0
 21 27  1  0  0  0  0
 22 23  2  0  0  0  0
 22 25  1  0  0  0  0
 23 24  1  0  0  0  0
 25 26  2  0  0  0  0
 26 27  1  0  0  0  0
M  END
>  <CHROM.1>
-4.91331938,-177.42820659,47.42264136,173.33460740,-137.81099899,-41.52519338
104.83099301,15.62205461,-5.61533611,9.21259955,-1.28907368,-1.45271405,2.36756643

>  <Name>
ligand

>  <RI>
0

>  <Rbt.Current_Directory>
/home/itssahil/PROJECTS/Mol_Feturizer/Test_systems_manuscript/rnas/2ydh

>  <Rbt.Executable>
rbdock ($Id: //depot/dev/client3/rdock/2013.1/src/exe/rbdock.cxx#4 $)

>  <Rbt.Library>
libRbt.so (2013.1, Build901 2013/11/27)

>  <Rbt.Parameter_File>
/export/apps/rDock/src/rDock_2013.1_src/data/scripts/dock_solv.prm

>  <Rbt.Receptor>
prm/pocket_docking_6.prm

>  <SCORE>
-9.33609

>  <SCORE.INTER>
-7.87532

>  <SCORE.INTER.CONST>
1

>  <SCORE.INTER.POLAR>
0

>  <SCORE.INTER.ROT>
7

>  <SCORE.INTER.SOLV>
7.66648

>  <SCORE.INTER.VDW>
-16.0724

>  <SCORE.INTER.norm>
-0.291679

>  <SCORE.INTRA>
-1.46077

>  <SCORE.INTRA.DIHEDRAL>
-0.889389

>  <SCORE.INTRA.DIHEDRAL.0>
9.75037

>  <SCORE.INTRA.POLAR>
0

>  <SCORE.INTRA.POLAR.0>
0

>  <SCORE.INTRA.REPUL>
0

>  <SCORE.INTRA.REPUL.0>
0

>  <SCORE.INTRA.SOLV>
-0.158953

>  <SCORE.INTRA.SOLV.lig_0>
-48.4279

>  <SCORE.INTRA.VDW>
-0.936597

>  <SCORE.INTRA.VDW.0>
-4.69037

>  <SCORE.INTRA.norm>
-0.0541025

>  <SCORE.RESTR>
0

>  <SCORE.RESTR.CAVITY>
0

>  <SCORE.RESTR.norm>
0

>  <SCORE.SYSTEM>
0

>  <SCORE.SYSTEM.CONST>
0

>  <SCORE.SYSTEM.DIHEDRAL>
0

>  <SCORE.SYSTEM.SOLV>
0

>  <SCORE.SYSTEM.norm>
0

>  <SCORE.heavy>
27

>  <SCORE.norm>
-0.345781

>  <RMSD>
5.369

$$$$
ligand
 OpenBabel02271912153D
libRbt.so/2013.1/901 2013/11/27
 27 29  0  0  0  0  0  0  0  0999 V2000
   16.1643   -8.2277   10.4974 N   0  0  0  0  0  0  0  0  0  0  0  0
   15.3937   -8.7848    9.3430 C   0  0  2  0  0  0  0  0  0  0  0  0
   16.0763   -8.4396    8.0007 C   0  0  0  0  0  0  0  0  0  0  0  0
   15.5396   -8.7142    6.9231 O   0  0  0  0  0  0  0  0  0  0  0  0
   13.9562   -8.2792    9.4015 C   0  0  0  0  0  0  0  0  0  0  0  0
   13.8126   -6.7718    9.2738 C   0  0  0  0  0  0  0  0  0  0  0  0
   14.3630   -5.8701   10.7506 S   0  0  2  0  0  0  0  0  0  0  0  0
   13.2688   -6.5858   12.0100 C   0  0  0  0  0  0  0  0  0  0  0  0
   13.7202   -4.1958   10.5974 C   0  0  0  0  0  0  0  0  0  0  0  0
   14.7266   -3.3469    9.8443 C   0  0  1  0  0  0  0  0  0  0  0  0
   15.9731   -3.2559   10.5167 O   0  0  0  0  0  0  0  0  0  0  0  0
   15.0041   -3.9077    8.4709 C   0  0  1  0  0  0  0  0  0  0  0  0
   14.0536   -3.4654    7.5449 O   0  0  0  0  0  0  0  0  0  0  0  0
   16.3634   -3.3410    8.1949 C   0  0  1  0  0  0  0  0  0  0  0  0
   16.2225   -2.0577    7.6158 O   0  0  0  0  0  0  0  0  0  0  0  0
   17.0146   -3.2374    9.5681 C   0  0  2  0  0  0  0  0  0  0  0  0
   17.1870   -7.8808    7.9432 O   0  0  0  0  0  0  0  0  0  0  0  0
   19.9825   -7.1387    7.6110 N   0  0  0  0  0  0  0  0  0  0  0  0
   19.1905   -6.2392    6.9121 C   0  0  0  0  0  0  0  0  0  0  0  0
   18.4517   -5.2703    7.5805 N   0  0  0  0  0  0  0  0  0  0  0  0
   18.5239   -5.1961    8.9220 C   0  0  0  0  0  0  0  0  0  0  0  0
   19.3302   -6.0870    9.6359 C   0  0  0  0  0  0  0  0  0  0  0  0
   20.0539   -7.0695    8.9857 C   0  0  0  0  0  0  0  0  0  0  0  0
   20.8082   -7.9185    9.6676 N   0  0  0  0  0  0  0  0  0  0  0  0
   19.2309   -5.7875   10.9357 N   0  0  0  0  0  0  0  0  0  0  0  0
   18.3915   -4.7363   11.0640 C   0  0  0  0  0  0  0  0  0  0  0  0
   17.9462   -4.3522    9.8236 N   0  0  0  0  0  0  0  0  0  0  0  0
  2  1  1  1  0  0  0
  2  3  1  0  0  0  0
  2  5  1  0  0  0  0
  3  4  1  0  0  0  0
  3 17  1  0  0  0  0
  5  6  1  0  0  0  0
  7  6  1  6  0  0  0
  7  8  1  0  0  0  0
  7  9  1  0  0  0  0
 10  9  1  1  0  0  0
 10 11  1  0  0  0  0
 10 12  1  0  0  0  0
 11 16  1  0  0  0  0
 12 13  1  6  0  0  0
 12 14  1  0  0  0  0
 14 15  1  1  0  0  0
 14 16  1  0  0  0  0
 16 27  1  1  0  0  0
 18 19  2  0  0  0  0
 18 23  1  0  0  0  0
 19 20  1  0  0  0  0
 20 21  2  0  0  0  0
 21 22  1  0  0  0  0
 21 27  1  0  0  0  0
 22 23  2  0  0  0  0
 22 25  1  0  0  0  0
 23 24  1  0  0  0  0
 25 26  2  0  0  0  0
 26 27  1  0  0  0  0
M  END
>  <CHROM.1>
-174.00916650,62.67718439,-72.30704696,-58.91620726,-88.89997982,-61.29608461
136.99720716,16.50846046,-5.77197353,9.23391512,0.39003849,-0.22330433,-3.13091481

>  <Name>
ligand

>  <RI>
0

>  <Rbt.Current_Directory>
/home/itssahil/PROJECTS/Mol_Feturizer/Test_systems_manuscript/rnas/2ydh

>  <Rbt.Executable>
rbdock ($Id: //depot/dev/client3/rdock/2013.1/src/exe/rbdock.cxx#4 $)

>  <Rbt.Library>
libRbt.so (2013.1, Build901 2013/11/27)

>  <Rbt.Parameter_File>
/export/apps/rDock/src/rDock_2013.1_src/data/scripts/dock_solv.prm

>  <Rbt.Receptor>
prm/pocket_docking_8.prm

>  <SCORE>
-8.67626

>  <SCORE.INTER>
-8.17895

>  <SCORE.INTER.CONST>
1

>  <SCORE.INTER.POLAR>
0

>  <SCORE.INTER.ROT>
7

>  <SCORE.INTER.SOLV>
5.92185

>  <SCORE.INTER.VDW>
-15.6933

>  <SCORE.INTER.norm>
-0.302924

>  <SCORE.INTRA>
-0.497307

>  <SCORE.INTRA.DIHEDRAL>
-4.69167

>  <SCORE.INTRA.DIHEDRAL.0>
9.75037

>  <SCORE.INTRA.POLAR>
0

>  <SCORE.INTRA.POLAR.0>
0

>  <SCORE.INTRA.REPUL>
0

>  <SCORE.INTRA.REPUL.0>
0

>  <SCORE.INTRA.SOLV>
1.59621

>  <SCORE.INTRA.SOLV.lig_0>
-48.4279

>  <SCORE.INTRA.VDW>
1.05043

>  <SCORE.INTRA.VDW.0>
-4.69037

>  <SCORE.INTRA.norm>
-0.0184188

>  <SCORE.RESTR>
0

>  <SCORE.RESTR.CAVITY>
0

>  <SCORE.RESTR.norm>
0

>  <SCORE.SYSTEM>
0

>  <SCORE.SYSTEM.CONST>
0

>  <SCORE.SYSTEM.DIHEDRAL>
0

>  <SCORE.SYSTEM.SOLV>
0

>  <SCORE.SYSTEM.norm>
0

>  <SCORE.heavy>
27

>  <SCORE.norm>
-0.321343

>  <RMSD>
5.369

$$$$
ligand
 OpenBabel02271912153D
libRbt.so/2013.1/901 2013/11/27
 27 29  0  0  0  0  0  0  0  0999 V2000
   12.8808   -2.9041    6.4498 N   0  0  0  0  0  0  0  0  0  0  0  0
   14.0388   -3.4127    7.2479 C   0  0  2  0  0  0  0  0  0  0  0  0
   14.8152   -4.4989    6.4707 C   0  0  0  0  0  0  0  0  0  0  0  0
   16.0150   -4.6999    6.6822 O   0  0  0  0  0  0  0  0  0  0  0  0
   13.5412   -3.9191    8.5975 C   0  0  0  0  0  0  0  0  0  0  0  0
   14.6421   -4.3254    9.5630 C   0  0  0  0  0  0  0  0  0  0  0  0
   14.0415   -4.6343   11.2485 S   0  0  2  0  0  0  0  0  0  0  0  0
   15.4077   -3.9446   12.2250 C   0  0  0  0  0  0  0  0  0  0  0  0
   14.2215   -6.4013   11.5402 C   0  0  0  0  0  0  0  0  0  0  0  0
   13.1638   -7.1437   10.7460 C   0  0  1  0  0  0  0  0  0  0  0  0
   13.1352   -6.7550    9.3814 O   0  0  0  0  0  0  0  0  0  0  0  0
   13.3954   -8.6348   10.7771 C   0  0  1  0  0  0  0  0  0  0  0  0
   12.8297   -9.2086   11.9205 O   0  0  0  0  0  0  0  0  0  0  0  0
   12.6914   -9.0642    9.5261 C   0  0  1  0  0  0  0  0  0  0  0  0
   11.3261   -9.2947    9.8175 O   0  0  0  0  0  0  0  0  0  0  0  0
   12.8420   -7.8778    8.5825 C   0  0  2  0  0  0  0  0  0  0  0  0
   14.2763   -5.2094    5.6022 O   0  0  0  0  0  0  0  0  0  0  0  0
   14.4013   -7.7277    3.5422 N   0  0  0  0  0  0  0  0  0  0  0  0
   13.1563   -7.3981    4.0581 C   0  0  0  0  0  0  0  0  0  0  0  0
   12.8970   -7.5054    5.4192 N   0  0  0  0  0  0  0  0  0  0  0  0
   13.8758   -7.9171    6.2455 C   0  0  0  0  0  0  0  0  0  0  0  0
   15.1387   -8.2375    5.7396 C   0  0  0  0  0  0  0  0  0  0  0  0
   15.4044   -8.1557    4.3851 C   0  0  0  0  0  0  0  0  0  0  0  0
   16.5996   -8.4709    3.9090 N   0  0  0  0  0  0  0  0  0  0  0  0
   15.9178   -8.5994    6.7648 N   0  0  0  0  0  0  0  0  0  0  0  0
   15.1889   -8.5149    7.8995 C   0  0  0  0  0  0  0  0  0  0  0  0
   13.9196   -8.0882    7.5974 N   0  0  0  0  0  0  0  0  0  0  0  0
  2  1  1  6  0  0  0
  2  3  1  0  0  0  0
  2  5  1  0  0  0  0
  3  4  1  0  0  0  0
  3 17  1  0  0  0  0
  5  6  1  0  0  0  0
  7  6  1  6  0  0  0
  7  8  1  0  0  0  0
  7  9  1  0  0  0  0
 10  9  1  1  0  0  0
 10 11  1  0  0  0  0
 10 12  1  0  0  0  0
 11 16  1  0  0  0  0
 12 13  1  1  0  0  0
 12 14  1  0  0  0  0
 14 15  1  1  0  0  0
 14 16  1  0  0  0  0
 16 27  1  6  0  0  0
 18 19  2  0  0  0  0
 18 23  1  0  0  0  0
 19 20  1  0  0  0  0
 20 21  2  0  0  0  0
 21 22  1  0  0  0  0
 21 27  1  0  0  0  0
 22 23  2  0  0  0  0
 22 25  1  0  0  0  0
 23 24  1  0  0  0  0
 25 26  2  0  0  0  0
 26 27  1  0  0  0  0
M  END
>  <CHROM.1>
153.23601857,-173.72238124,169.55811383,-142.08220670,-73.01093162,50.80800848
-110.45646863,14.04804662,-6.63462977,8.08337934,-0.92319251,1.29266466,0.76066173

>  <Name>
ligand

>  <RI>
0

>  <Rbt.Current_Directory>
/home/itssahil/PROJECTS/Mol_Feturizer/Test_systems_manuscript/rnas/2ydh

>  <Rbt.Executable>
rbdock ($Id: //depot/dev/client3/rdock/2013.1/src/exe/rbdock.cxx#4 $)

>  <Rbt.Library>
libRbt.so (2013.1, Build901 2013/11/27)

>  <Rbt.Parameter_File>
/export/apps/rDock/src/rDock_2013.1_src/data/scripts/dock_solv.prm

>  <Rbt.Receptor>
prm/pocket_docking_2.prm

>  <SCORE>
-11.1815

>  <SCORE.INTER>
-11.6414

>  <SCORE.INTER.CONST>
1

>  <SCORE.INTER.POLAR>
0

>  <SCORE.INTER.ROT>
7

>  <SCORE.INTER.SOLV>
19.3963

>  <SCORE.INTER.VDW>
-22.4931

>  <SCORE.INTER.norm>
-0.431164

>  <SCORE.INTRA>
-1.25727

>  <SCORE.INTRA.DIHEDRAL>
-1.96234

>  <SCORE.INTRA.DIHEDRAL.0>
9.75037

>  <SCORE.INTRA.POLAR>
0

>  <SCORE.INTRA.POLAR.0>
0

>  <SCORE.INTRA.REPUL>
0

>  <SCORE.INTRA.REPUL.0>
0

>  <SCORE.INTRA.SOLV>
-1.31085

>  <SCORE.INTRA.SOLV.lig_0>
-48.4279

>  <SCORE.INTRA.VDW>
0.37933

>  <SCORE.INTRA.VDW.0>
-4.69037

>  <SCORE.INTRA.norm>
-0.0465655

>  <SCORE.RESTR>
1.71717

>  <SCORE.RESTR.CAVITY>
1.71717

>  <SCORE.RESTR.norm>
0.063599

>  <SCORE.SYSTEM>
0

>  <SCORE.SYSTEM.CONST>
0

>  <SCORE.SYSTEM.DIHEDRAL>
0

>  <SCORE.SYSTEM.SOLV>
0

>  <SCORE.SYSTEM.norm>
0

>  <SCORE.heavy>
27

>  <SCORE.norm>
-0.414131

>  <RMSD>
5.370

$$$$
ligand
 OpenBabel02271912153D
libRbt.so/2013.1/901 2013/11/27
 27 29  0  0  0  0  0  0  0  0999 V2000
   19.0632   -8.1604    7.9057 N   0  0  0  0  0  0  0  0  0  0  0  0
   18.0551   -8.0696    9.0067 C   0  0  2  0  0  0  0  0  0  0  0  0
   18.3046   -9.1528   10.0796 C   0  0  0  0  0  0  0  0  0  0  0  0
   17.4419   -9.4306   10.9181 O   0  0  0  0  0  0  0  0  0  0  0  0
   16.6513   -8.1592    8.4176 C   0  0  0  0  0  0  0  0  0  0  0  0
   16.2931   -7.0283    7.4679 C   0  0  0  0  0  0  0  0  0  0  0  0
   14.5621   -7.0704    6.9213 S   0  0  2  0  0  0  0  0  0  0  0  0
   14.6371   -8.3778    5.6640 C   0  0  0  0  0  0  0  0  0  0  0  0
   14.3053   -5.5966    5.9204 C   0  0  0  0  0  0  0  0  0  0  0  0
   14.0759   -4.4102    6.8373 C   0  0  1  0  0  0  0  0  0  0  0  0
   12.9904   -4.6132    7.7287 O   0  0  0  0  0  0  0  0  0  0  0  0
   15.2935   -4.1208    7.6808 C   0  0  1  0  0  0  0  0  0  0  0  0
   16.2038   -3.3135    6.9907 O   0  0  0  0  0  0  0  0  0  0  0  0
   14.6775   -3.4051    8.8441 C   0  0  1  0  0  0  0  0  0  0  0  0
   14.5868   -2.0251    8.5450 O   0  0  0  0  0  0  0  0  0  0  0  0
   13.2877   -4.0157    8.9695 C   0  0  2  0  0  0  0  0  0  0  0  0
   19.3750   -9.7841   10.1516 O   0  0  0  0  0  0  0  0  0  0  0  0
   14.9022   -5.6056   13.7365 N   0  0  0  0  0  0  0  0  0  0  0  0
   15.2671   -4.4538   13.0548 C   0  0  0  0  0  0  0  0  0  0  0  0
   14.7601   -4.1829   11.7894 N   0  0  0  0  0  0  0  0  0  0  0  0
   13.8898   -5.0435   11.2307 C   0  0  0  0  0  0  0  0  0  0  0  0
   13.5030   -6.1997   11.9141 C   0  0  0  0  0  0  0  0  0  0  0  0
   14.0156   -6.4925   13.1644 C   0  0  0  0  0  0  0  0  0  0  0  0
   13.6544   -7.5951   13.8035 N   0  0  0  0  0  0  0  0  0  0  0  0
   12.6302   -6.8632   11.1479 N   0  0  0  0  0  0  0  0  0  0  0  0
   12.4522   -6.1622   10.0064 C   0  0  0  0  0  0  0  0  0  0  0  0
   13.2226   -5.0266   10.0418 N   0  0  0  0  0  0  0  0  0  0  0  0
  2  1  1  6  0  0  0
  2  3  1  0  0  0  0
  2  5  1  0  0  0  0
  3  4  1  0  0  0  0
  3 17  1  0  0  0  0
  5  6  1  0  0  0  0
  7  6  1  6  0  0  0
  7  8  1  0  0  0  0
  7  9  1  0  0  0  0
 10  9  1  1  0  0  0
 10 11  1  0  0  0  0
 10 12  1  0  0  0  0
 11 16  1  0  0  0  0
 12 13  1  6  0  0  0
 12 14  1  0  0  0  0
 14 15  1  6  0  0  0
 14 16  1  0  0  0  0
 16 27  1  1  0  0  0
 18 19  2  0  0  0  0
 18 23  1  0  0  0  0
 19 20  1  0  0  0  0
 20 21  2  0  0  0  0
 21 22  1  0  0  0  0
 21 27  1  0  0  0  0
 22 23  2  0  0  0  0
 22 25  1  0  0  0  0
 23 24  1  0  0  0  0
 25 26  2  0  0  0  0
 26 27  1  0  0  0  0
M  END
>  <CHROM.1>
-164.91967069,-62.68050511,-173.99267574,-78.07851420,-80.56245159,-56.47531783
152.64269878,15.13091116,-6.14371792,9.35768837,-0.09617688,0.84813190,-1.35130779

>  <Name>
ligand

>  <RI>
0

>  <Rbt.Current_Directory>
/home/itssahil/PROJECTS/Mol_Feturizer/Test_systems_manuscript/rnas/2ydh

>  <Rbt.Executable>
rbdock ($Id: //depot/dev/client3/rdock/2013.1/src/exe/rbdock.cxx#4 $)

>  <Rbt.Library>
libRbt.so (2013.1, Build901 2013/11/27)

>  <Rbt.Parameter_File>
/export/apps/rDock/src/rDock_2013.1_src/data/scripts/dock_solv.prm

>  <Rbt.Receptor>
prm/pocket_docking_7.prm

>  <SCORE>
-12.5218

>  <SCORE.INTER>
-11.5486

>  <SCORE.INTER.CONST>
1

>  <SCORE.INTER.POLAR>
0

>  <SCORE.INTER.ROT>
7

>  <SCORE.INTER.SOLV>
7.97061

>  <SCORE.INTER.VDW>
-18.6226

>  <SCORE.INTER.norm>
-0.427726

>  <SCORE.INTRA>
-0.973145

>  <SCORE.INTRA.DIHEDRAL>
-5.63956

>  <SCORE.INTRA.DIHEDRAL.0>
9.75037

>  <SCORE.INTRA.POLAR>
0

>  <SCORE.INTRA.POLAR.0>
0

>  <SCORE.INTRA.REPUL>
0

>  <SCORE.INTRA.REPUL.0>
0

>  <SCORE.INTRA.SOLV>
-0.511478

>  <SCORE.INTRA.SOLV.lig_0>
-48.4279

>  <SCORE.INTRA.VDW>
2.10237

>  <SCORE.INTRA.VDW.0>
-4.69037

>  <SCORE.INTRA.norm>
-0.0360424

>  <SCORE.RESTR>
0

>  <SCORE.RESTR.CAVITY>
0

>  <SCORE.RESTR.norm>
0

>  <SCORE.SYSTEM>
0

>  <SCORE.SYSTEM.CONST>
0

>  <SCORE.SYSTEM.DIHEDRAL>
0

>  <SCORE.SYSTEM.SOLV>
0

>  <SCORE.SYSTEM.norm>
0

>  <SCORE.heavy>
27

>  <SCORE.norm>
-0.463769

>  <RMSD>
5.382

$$$$
ligand
 OpenBabel02271912153D
libRbt.so/2013.1/901 2013/11/27
 27 29  0  0  0  0  0  0  0  0999 V2000
   14.7002   -5.8686   11.2456 N   0  0  0  0  0  0  0  0  0  0  0  0
   15.6151   -4.9114   10.5503 C   0  0  2  0  0  0  0  0  0  0  0  0
   16.8815   -4.6414   11.3928 C   0  0  0  0  0  0  0  0  0  0  0  0
   17.0759   -5.2321   12.4595 O   0  0  0  0  0  0  0  0  0  0  0  0
   14.8568   -3.6281   10.2282 C   0  0  0  0  0  0  0  0  0  0  0  0
   13.7562   -3.7894    9.1929 C   0  0  0  0  0  0  0  0  0  0  0  0
   14.3856   -4.0769    7.5142 S   0  0  2  0  0  0  0  0  0  0  0  0
   13.6616   -2.6628    6.6358 C   0  0  0  0  0  0  0  0  0  0  0  0
   13.4469   -5.4595    6.8453 C   0  0  0  0  0  0  0  0  0  0  0  0
   14.4067   -6.5704    6.4643 C   0  0  1  0  0  0  0  0  0  0  0  0
   15.3186   -6.8828    7.5060 O   0  0  0  0  0  0  0  0  0  0  0  0
   13.6707   -7.8432    6.1234 C   0  0  1  0  0  0  0  0  0  0  0  0
   13.2596   -7.8445    4.7864 O   0  0  0  0  0  0  0  0  0  0  0  0
   14.7293   -8.8703    6.3866 C   0  0  1  0  0  0  0  0  0  0  0  0
   15.5123   -9.0395    5.2202 O   0  0  0  0  0  0  0  0  0  0  0  0
   15.5670   -8.2697    7.5082 C   0  0  2  0  0  0  0  0  0  0  0  0
   17.7514   -3.8225   11.0434 O   0  0  0  0  0  0  0  0  0  0  0  0
   11.8231   -9.4465   11.0377 N   0  0  0  0  0  0  0  0  0  0  0  0
   11.6636   -8.8546    9.7931 C   0  0  0  0  0  0  0  0  0  0  0  0
   12.7608   -8.5957    8.9805 N   0  0  0  0  0  0  0  0  0  0  0  0
   13.9900   -8.9428    9.4034 C   0  0  0  0  0  0  0  0  0  0  0  0
   14.1617   -9.5535   10.6489 C   0  0  0  0  0  0  0  0  0  0  0  0
   13.0815   -9.7977   11.4768 C   0  0  0  0  0  0  0  0  0  0  0  0
   13.2506  -10.3668   12.6609 N   0  0  0  0  0  0  0  0  0  0  0  0
   15.4655   -9.8030   10.8134 N   0  0  0  0  0  0  0  0  0  0  0  0
   16.1201   -9.3726    9.7123 C   0  0  0  0  0  0  0  0  0  0  0  0
   15.2196   -8.8397    8.8237 N   0  0  0  0  0  0  0  0  0  0  0  0
  2  1  1  1  0  0  0
  2  3  1  0  0  0  0
  2  5  1  0  0  0  0
  3  4  1  0  0  0  0
  3 17  1  0  0  0  0
  5  6  1  0  0  0  0
  7  6  1  1  0  0  0
  7  8  1  0  0  0  0
  7  9  1  0  0  0  0
 10  9  1  1  0  0  0
 10 11  1  0  0  0  0
 10 12  1  0  0  0  0
 11 16  1  0  0  0  0
 12 13  1  6  0  0  0
 12 14  1  0  0  0  0
 14 15  1  6  0  0  0
 14 16  1  0  0  0  0
 16 27  1  1  0  0  0
 18 19  2  0  0  0  0
 18 23  1  0  0  0  0
 19 20  1  0  0  0  0
 20 21  2  0  0  0  0
 21 22  1  0  0  0  0
 21 27  1  0  0  0  0
 22 23  2  0  0  0  0
 22 25  1  0  0  0  0
 23 24  1  0  0  0  0
 25 26  2  0  0  0  0
 26 27  1  0  0  0  0
M  END
>  <CHROM.1>
3.50194810,-67.22843205,-70.82889903,-120.81775013,-121.59665241,49.78783788
66.39884200,14.54972752,-6.93432666,8.93392739,-0.79312942,1.21906066,2.20489554

>  <Name>
ligand

>  <RI>
0

>  <Rbt.Current_Directory>
/home/itssahil/PROJECTS/Mol_Feturizer/Test_systems_manuscript/rnas/2ydh

>  <Rbt.Executable>
rbdock ($Id: //depot/dev/client3/rdock/2013.1/src/exe/rbdock.cxx#4 $)

>  <Rbt.Library>
libRbt.so (2013.1, Build901 2013/11/27)

>  <Rbt.Parameter_File>
/export/apps/rDock/src/rDock_2013.1_src/data/scripts/dock_solv.prm

>  <Rbt.Receptor>
prm/pocket_docking_3.prm

>  <SCORE>
-10.4633

>  <SCORE.INTER>
-12.6228

>  <SCORE.INTER.CONST>
1

>  <SCORE.INTER.POLAR>
0

>  <SCORE.INTER.ROT>
7

>  <SCORE.INTER.SOLV>
11.6917

>  <SCORE.INTER.VDW>
-20.5791

>  <SCORE.INTER.norm>
-0.467512

>  <SCORE.INTRA>
2.12143

>  <SCORE.INTRA.DIHEDRAL>
2.99958

>  <SCORE.INTRA.DIHEDRAL.0>
9.75037

>  <SCORE.INTRA.POLAR>
0

>  <SCORE.INTRA.POLAR.0>
0

>  <SCORE.INTRA.REPUL>
0

>  <SCORE.INTRA.REPUL.0>
0

>  <SCORE.INTRA.SOLV>
0.481522

>  <SCORE.INTRA.SOLV.lig_0>
-48.4279

>  <SCORE.INTRA.VDW>
0.38088

>  <SCORE.INTRA.VDW.0>
-4.69037

>  <SCORE.INTRA.norm>
0.0785716

>  <SCORE.RESTR>
0.0381015

>  <SCORE.RESTR.CAVITY>
0.0381015

>  <SCORE.RESTR.norm>
0.00141117

>  <SCORE.SYSTEM>
0

>  <SCORE.SYSTEM.CONST>
0

>  <SCORE.SYSTEM.DIHEDRAL>
0

>  <SCORE.SYSTEM.SOLV>
0

>  <SCORE.SYSTEM.norm>
0

>  <SCORE.heavy>
27

>  <SCORE.norm>
-0.38753

>  <RMSD>
5.390

$$$$
ligand
 OpenBabel02271912153D
libRbt.so/2013.1/901 2013/11/27
 27 29  0  0  0  0  0  0  0  0999 V2000
   15.1242   -4.0217    9.7841 N   0  0  0  0  0  0  0  0  0  0  0  0
   15.3517   -2.6584    9.2129 C   0  0  2  0  0  0  0  0  0  0  0  0
   14.3017   -2.3275    8.1291 C   0  0  0  0  0  0  0  0  0  0  0  0
   13.1085   -2.5993    8.2929 O   0  0  0  0  0  0  0  0  0  0  0  0
   16.7767   -2.5640    8.6779 C   0  0  0  0  0  0  0  0  0  0  0  0
   17.0304   -3.3700    7.4149 C   0  0  0  0  0  0  0  0  0  0  0  0
   16.7379   -5.1494    7.6275 S   0  0  2  0  0  0  0  0  0  0  0  0
   18.2849   -5.6514    8.4340 C   0  0  0  0  0  0  0  0  0  0  0  0
   16.9020   -5.8936    5.9967 C   0  0  0  0  0  0  0  0  0  0  0  0
   16.2124   -7.2445    5.9982 C   0  0  1  0  0  0  0  0  0  0  0  0
   16.5650   -8.0343    7.1234 O   0  0  0  0  0  0  0  0  0  0  0  0
   14.7104   -7.0977    6.0133 C   0  0  1  0  0  0  0  0  0  0  0  0
   14.2079   -6.9286    4.7188 O   0  0  0  0  0  0  0  0  0  0  0  0
   14.2964   -8.4083    6.6098 C   0  0  1  0  0  0  0  0  0  0  0  0
   14.1678   -9.3680    5.5781 O   0  0  0  0  0  0  0  0  0  0  0  0
   15.4436   -8.7777    7.5414 C   0  0  2  0  0  0  0  0  0  0  0  0
   14.6060   -1.7834    7.0517 O   0  0  0  0  0  0  0  0  0  0  0  0
   11.8550   -8.6044   11.4080 N   0  0  0  0  0  0  0  0  0  0  0  0
   11.6730   -9.0166   10.0959 C   0  0  0  0  0  0  0  0  0  0  0  0
   12.7243   -8.9893    9.1873 N   0  0  0  0  0  0  0  0  0  0  0  0
   13.9372   -8.5743    9.5959 C   0  0  0  0  0  0  0  0  0  0  0  0
   14.1365   -8.1711   10.9193 C   0  0  0  0  0  0  0  0  0  0  0  0
   13.0947   -8.1729   11.8284 C   0  0  0  0  0  0  0  0  0  0  0  0
   13.2860   -7.7795   13.0787 N   0  0  0  0  0  0  0  0  0  0  0  0
   15.4209   -7.8250   11.0595 N   0  0  0  0  0  0  0  0  0  0  0  0
   16.0376   -7.9995    9.8699 C   0  0  0  0  0  0  0  0  0  0  0  0
   15.1332   -8.4689    8.9500 N   0  0  0  0  0  0  0  0  0  0  0  0
  2  1  1  6  0  0  0
  2  3  1  0  0  0  0
  2  5  1  0  0  0  0
  3  4  1  0  0  0  0
  3 17  1  0  0  0  0
  5  6  1  0  0  0  0
  7  6  1  6  0  0  0
  7  8  1  0  0  0  0
  7  9  1  0  0  0  0
 10  9  1  1  0  0  0
 10 11  1  0  0  0  0
 10 12  1  0  0  0  0
 11 16  1  0  0  0  0
 12 13  1  6  0  0  0
 12 14  1  0  0  0  0
 14 15  1  6  0  0  0
 14 16  1  0  0  0  0
 16 27  1  1  0  0  0
 18 19  2  0  0  0  0
 18 23  1  0  0  0  0
 19 20  1  0  0  0  0
 20 21  2  0  0  0  0
 21 22  1  0  0  0  0
 21 27  1  0  0  0  0
 22 23  2  0  0  0  0
 22 25  1  0  0  0  0
 23 24  1  0  0  0  0
 25 26  2  0  0  0  0
 26 27  1  0  0  0  0
M  END
>  <CHROM.1>
42.99899915,71.05602017,-60.12542837,-80.18443847,-160.33242790,-47.43982842
155.04820101,14.97063049,-6.38367439,8.40440328,0.58866085,1.09067617,0.46462283

>  <Name>
ligand

>  <RI>
0

>  <Rbt.Current_Directory>
/home/itssahil/PROJECTS/Mol_Feturizer/Test_systems_manuscript/rnas/2ydh

>  <Rbt.Executable>
rbdock ($Id: //depot/dev/client3/rdock/2013.1/src/exe/rbdock.cxx#4 $)

>  <Rbt.Library>
libRbt.so (2013.1, Build901 2013/11/27)

>  <Rbt.Parameter_File>
/export/apps/rDock/src/rDock_2013.1_src/data/scripts/dock_solv.prm

>  <Rbt.Receptor>
prm/pocket_docking_4.prm

>  <SCORE>
-11.4286

>  <SCORE.INTER>
-12.6168

>  <SCORE.INTER.CONST>
1

>  <SCORE.INTER.POLAR>
0

>  <SCORE.INTER.ROT>
7

>  <SCORE.INTER.SOLV>
8.45453

>  <SCORE.INTER.VDW>
-19.4961

>  <SCORE.INTER.norm>
-0.46729

>  <SCORE.INTRA>
1.18821

>  <SCORE.INTRA.DIHEDRAL>
-3.30966

>  <SCORE.INTRA.DIHEDRAL.0>
9.75037

>  <SCORE.INTRA.POLAR>
0

>  <SCORE.INTRA.POLAR.0>
0

>  <SCORE.INTRA.REPUL>
0

>  <SCORE.INTRA.REPUL.0>
0

>  <SCORE.INTRA.SOLV>
1.38716

>  <SCORE.INTRA.SOLV.lig_0>
-48.4279

>  <SCORE.INTRA.VDW>
2.14946

>  <SCORE.INTRA.VDW.0>
-4.69037

>  <SCORE.INTRA.norm>
0.044008

>  <SCORE.RESTR>
0

>  <SCORE.RESTR.CAVITY>
0

>  <SCORE.RESTR.norm>
0

>  <SCORE.SYSTEM>
0

>  <SCORE.SYSTEM.CONST>
0

>  <SCORE.SYSTEM.DIHEDRAL>
0

>  <SCORE.SYSTEM.SOLV>
0

>  <SCORE.SYSTEM.norm>
0

>  <SCORE.heavy>
27

>  <SCORE.norm>
-0.423282

>  <RMSD>
5.393

$$$$
ligand
 OpenBabel02271912153D
libRbt.so/2013.1/901 2013/11/27
 27 29  0  0  0  0  0  0  0  0999 V2000
   17.9450   -6.9244    5.7738 N   0  0  0  0  0  0  0  0  0  0  0  0
   16.8581   -6.4985    6.7087 C   0  0  2  0  0  0  0  0  0  0  0  0
   17.4103   -6.2621    8.1320 C   0  0  0  0  0  0  0  0  0  0  0  0
   16.6605   -6.2491    9.1130 O   0  0  0  0  0  0  0  0  0  0  0  0
   15.7401   -7.5354    6.6927 C   0  0  0  0  0  0  0  0  0  0  0  0
   14.4981   -7.1351    7.4714 C   0  0  0  0  0  0  0  0  0  0  0  0
   13.2839   -6.2288    6.4708 S   0  0  2  0  0  0  0  0  0  0  0  0
   13.2371   -7.2626    4.9793 C   0  0  0  0  0  0  0  0  0  0  0  0
   14.1137   -4.7456    5.8781 C   0  0  0  0  0  0  0  0  0  0  0  0
   14.1281   -3.7107    6.9868 C   0  0  1  0  0  0  0  0  0  0  0  0
   13.0811   -3.9039    7.9252 O   0  0  0  0  0  0  0  0  0  0  0  0
   15.4254   -3.7449    7.7572 C   0  0  1  0  0  0  0  0  0  0  0  0
   16.4058   -2.9712    7.1272 O   0  0  0  0  0  0  0  0  0  0  0  0
   15.0008   -3.1552    9.0676 C   0  0  1  0  0  0  0  0  0  0  0  0
   15.1070   -1.7459    8.9987 O   0  0  0  0  0  0  0  0  0  0  0  0
   13.5433   -3.5732    9.2144 C   0  0  2  0  0  0  0  0  0  0  0  0
   18.6201   -6.0706    8.3534 O   0  0  0  0  0  0  0  0  0  0  0  0
   14.8312   -5.9170   13.7649 N   0  0  0  0  0  0  0  0  0  0  0  0
   15.2661   -4.6893   13.2870 C   0  0  0  0  0  0  0  0  0  0  0  0
   14.8421   -4.2138   12.0519 N   0  0  0  0  0  0  0  0  0  0  0  0
   13.9835   -4.9494   11.3225 C   0  0  0  0  0  0  0  0  0  0  0  0
   13.5264   -6.1809   11.8002 C   0  0  0  0  0  0  0  0  0  0  0  0
   13.9565   -6.6760   13.0175 C   0  0  0  0  0  0  0  0  0  0  0  0
   13.5290   -7.8487   13.4610 N   0  0  0  0  0  0  0  0  0  0  0  0
   12.6829   -6.6905   10.8959 N   0  0  0  0  0  0  0  0  0  0  0  0
   12.5913   -5.8202    9.8662 C   0  0  0  0  0  0  0  0  0  0  0  0
   13.3883   -4.7307   10.1156 N   0  0  0  0  0  0  0  0  0  0  0  0
  2  1  1  6  0  0  0
  2  3  1  0  0  0  0
  2  5  1  0  0  0  0
  3  4  1  0  0  0  0
  3 17  1  0  0  0  0
  5  6  1  0  0  0  0
  7  6  1  1  0  0  0
  7  8  1  0  0  0  0
  7  9  1  0  0  0  0
 10  9  1  6  0  0  0
 10 11  1  0  0  0  0
 10 12  1  0  0  0  0
 11 16  1  0  0  0  0
 12 13  1  6  0  0  0
 12 14  1  0  0  0  0
 14 15  1  6  0  0  0
 14 16  1  0  0  0  0
 16 27  1  1  0  0  0
 18 19  2  0  0  0  0
 18 23  1  0  0  0  0
 19 20  1  0  0  0  0
 20 21  2  0  0  0  0
 21 22  1  0  0  0  0
 21 27  1  0  0  0  0
 22 23  2  0  0  0  0
 22 25  1  0  0  0  0
 23 24  1  0  0  0  0
 25 26  2  0  0  0  0
 26 27  1  0  0  0  0
M  END
>  <CHROM.1>
-160.92465894,-172.80691168,89.49438983,46.29298178,-79.75216295,-24.41473846
162.82983610,14.76590637,-5.40418056,8.91499580,-1.25714503,-0.82515974,1.79813142

>  <Name>
ligand

>  <RI>
0

>  <Rbt.Current_Directory>
/home/itssahil/PROJECTS/Mol_Feturizer/Test_systems_manuscript/rnas/2ydh

>  <Rbt.Executable>
rbdock ($Id: //depot/dev/client3/rdock/2013.1/src/exe/rbdock.cxx#4 $)

>  <Rbt.Library>
libRbt.so (2013.1, Build901 2013/11/27)

>  <Rbt.Parameter_File>
/export/apps/rDock/src/rDock_2013.1_src/data/scripts/dock_solv.prm

>  <Rbt.Receptor>
prm/pocket_docking_5.prm

>  <SCORE>
-11.3506

>  <SCORE.INTER>
-12.6969

>  <SCORE.INTER.CONST>
1

>  <SCORE.INTER.POLAR>
0

>  <SCORE.INTER.ROT>
7

>  <SCORE.INTER.SOLV>
10.7465

>  <SCORE.INTER.VDW>
-20.3134

>  <SCORE.INTER.norm>
-0.470256

>  <SCORE.INTRA>
1.34629

>  <SCORE.INTRA.DIHEDRAL>
0.128175

>  <SCORE.INTRA.DIHEDRAL.0>
9.75037

>  <SCORE.INTRA.POLAR>
0

>  <SCORE.INTRA.POLAR.0>
0

>  <SCORE.INTRA.REPUL>
0

>  <SCORE.INTRA.REPUL.0>
0

>  <SCORE.INTRA.SOLV>
-0.610123

>  <SCORE.INTRA.SOLV.lig_0>
-48.4279

>  <SCORE.INTRA.VDW>
1.58726

>  <SCORE.INTRA.VDW.0>
-4.69037

>  <SCORE.INTRA.norm>
0.0498624

>  <SCORE.RESTR>
0

>  <SCORE.RESTR.CAVITY>
0

>  <SCORE.RESTR.norm>
0

>  <SCORE.SYSTEM>
0

>  <SCORE.SYSTEM.CONST>
0

>  <SCORE.SYSTEM.DIHEDRAL>
0

>  <SCORE.SYSTEM.SOLV>
0

>  <SCORE.SYSTEM.norm>
0

>  <SCORE.heavy>
27

>  <SCORE.norm>
-0.420394

>  <RMSD>
5.395

$$$$
ligand
 OpenBabel02271912153D
libRbt.so/2013.1/901 2013/11/27
 27 29  0  0  0  0  0  0  0  0999 V2000
   17.5485   -1.3336    8.3153 N   0  0  0  0  0  0  0  0  0  0  0  0
   16.7942   -2.6207    8.4214 C   0  0  2  0  0  0  0  0  0  0  0  0
   17.6972   -3.8245    8.0721 C   0  0  0  0  0  0  0  0  0  0  0  0
   18.1126   -4.5863    8.9506 O   0  0  0  0  0  0  0  0  0  0  0  0
   15.5554   -2.5571    7.5342 C   0  0  0  0  0  0  0  0  0  0  0  0
   14.9223   -3.9065    7.2384 C   0  0  0  0  0  0  0  0  0  0  0  0
   13.4876   -3.7995    6.1306 S   0  0  2  0  0  0  0  0  0  0  0  0
   12.2341   -3.1386    7.2652 C   0  0  0  0  0  0  0  0  0  0  0  0
   12.9135   -5.4858    5.8723 C   0  0  0  0  0  0  0  0  0  0  0  0
   14.1135   -6.3912    5.6708 C   0  0  1  0  0  0  0  0  0  0  0  0
   14.9166   -6.4978    6.8360 O   0  0  0  0  0  0  0  0  0  0  0  0
   13.6922   -7.7906    5.2937 C   0  0  1  0  0  0  0  0  0  0  0  0
   13.4770   -7.8976    3.9157 O   0  0  0  0  0  0  0  0  0  0  0  0
   14.8835   -8.5826    5.7394 C   0  0  1  0  0  0  0  0  0  0  0  0
   15.8372   -8.6144    4.6945 O   0  0  0  0  0  0  0  0  0  0  0  0
   15.4265   -7.8076    6.9331 C   0  0  2  0  0  0  0  0  0  0  0  0
   18.0482   -4.0767    6.9048 O   0  0  0  0  0  0  0  0  0  0  0  0
   12.1847   -7.7254   11.0976 N   0  0  0  0  0  0  0  0  0  0  0  0
   12.1929   -6.8662   10.0084 C   0  0  0  0  0  0  0  0  0  0  0  0
   13.1284   -7.0129    8.9911 N   0  0  0  0  0  0  0  0  0  0  0  0
   14.0238   -8.0148    9.0594 C   0  0  0  0  0  0  0  0  0  0  0  0
   14.0158   -8.8961   10.1443 C   0  0  0  0  0  0  0  0  0  0  0  0
   13.1045   -8.7491   11.1738 C   0  0  0  0  0  0  0  0  0  0  0  0
   13.1079   -9.5802   12.2052 N   0  0  0  0  0  0  0  0  0  0  0  0
   14.9888   -9.7945    9.9574 N   0  0  0  0  0  0  0  0  0  0  0  0
   15.6075   -9.5104    8.7900 C   0  0  0  0  0  0  0  0  0  0  0  0
   15.0188   -8.4112    8.2158 N   0  0  0  0  0  0  0  0  0  0  0  0
  2  1  1  6  0  0  0
  2  3  1  0  0  0  0
  2  5  1  0  0  0  0
  3  4  1  0  0  0  0
  3 17  1  0  0  0  0
  5  6  1  0  0  0  0
  7  6  1  1  0  0  0
  7  8  1  0  0  0  0
  7  9  1  0  0  0  0
 10  9  1  1  0  0  0
 10 11  1  0  0  0  0
 10 12  1  0  0  0  0
 11 16  1  0  0  0  0
 12 13  1  6  0  0  0
 12 14  1  0  0  0  0
 14 15  1  6  0  0  0
 14 16  1  0  0  0  0
 16 27  1  1  0  0  0
 18 19  2  0  0  0  0
 18 23  1  0  0  0  0
 19 20  1  0  0  0  0
 20 21  2  0  0  0  0
 21 22  1  0  0  0  0
 21 27  1  0  0  0  0
 22 23  2  0  0  0  0
 22 25  1  0  0  0  0
 23 24  1  0  0  0  0
 25 26  2  0  0  0  0
 26 27  1  0  0  0  0
M  END
>  <CHROM.1>
106.41816605,163.44385508,-177.86408850,-75.18214570,-42.15024806,66.15469698
17.50546923,14.68177169,-6.25204828,7.74768187,-0.56086736,1.14225347,1.76991610

>  <Name>
ligand

>  <RI>
0

>  <Rbt.Current_Directory>
/home/itssahil/PROJECTS/Mol_Feturizer/Test_systems_manuscript/rnas/2ydh

>  <Rbt.Executable>
rbdock ($Id: //depot/dev/client3/rdock/2013.1/src/exe/rbdock.cxx#4 $)

>  <Rbt.Library>
libRbt.so (2013.1, Build901 2013/11/27)

>  <Rbt.Parameter_File>
/export/apps/rDock/src/rDock_2013.1_src/data/scripts/dock_solv.prm

>  <Rbt.Receptor>
prm/pocket_docking_2.prm

>  <SCORE>
-12.8433

>  <SCORE.INTER>
-14.4618

>  <SCORE.INTER.CONST>
1

>  <SCORE.INTER.POLAR>
0

>  <SCORE.INTER.ROT>
7

>  <SCORE.INTER.SOLV>
16.1089

>  <SCORE.INTER.VDW>
-23.2775

>  <SCORE.INTER.norm>
-0.535623

>  <SCORE.INTRA>
1.0019

>  <SCORE.INTRA.DIHEDRAL>
-3.65023

>  <SCORE.INTRA.DIHEDRAL.0>
9.75037

>  <SCORE.INTRA.POLAR>
0

>  <SCORE.INTRA.POLAR.0>
0

>  <SCORE.INTRA.REPUL>
0

>  <SCORE.INTRA.REPUL.0>
0

>  <SCORE.INTRA.SOLV>
-1.36937

>  <SCORE.INTRA.SOLV.lig_0>
-48.4279

>  <SCORE.INTRA.VDW>
3.51169

>  <SCORE.INTRA.VDW.0>
-4.69037

>  <SCORE.INTRA.norm>
0.0371073

>  <SCORE.RESTR>
0.616599

>  <SCORE.RESTR.CAVITY>
0.616599

>  <SCORE.RESTR.norm>
0.022837

>  <SCORE.SYSTEM>
0

>  <SCORE.SYSTEM.CONST>
0

>  <SCORE.SYSTEM.DIHEDRAL>
0

>  <SCORE.SYSTEM.SOLV>
0

>  <SCORE.SYSTEM.norm>
0

>  <SCORE.heavy>
27

>  <SCORE.norm>
-0.475678

>  <RMSD>
5.412

$$$$
ligand
 OpenBabel02271912153D
libRbt.so/2013.1/901 2013/11/27
 27 29  0  0  0  0  0  0  0  0999 V2000
   15.3571   -8.6969   10.5962 N   0  0  0  0  0  0  0  0  0  0  0  0
   15.3717   -8.4066    9.1292 C   0  0  2  0  0  0  0  0  0  0  0  0
   16.2361   -7.1648    8.8169 C   0  0  0  0  0  0  0  0  0  0  0  0
   16.1464   -6.1379    9.4966 O   0  0  0  0  0  0  0  0  0  0  0  0
   13.9397   -8.2484    8.6292 C   0  0  0  0  0  0  0  0  0  0  0  0
   13.7944   -8.2694    7.1167 C   0  0  0  0  0  0  0  0  0  0  0  0
   13.3730   -6.6494    6.4130 S   0  0  2  0  0  0  0  0  0  0  0  0
   13.4152   -7.0312    4.6388 C   0  0  0  0  0  0  0  0  0  0  0  0
   14.8292   -5.6104    6.6118 C   0  0  0  0  0  0  0  0  0  0  0  0
   14.4256   -4.3198    7.2990 C   0  0  1  0  0  0  0  0  0  0  0  0
   13.4224   -4.5180    8.2831 O   0  0  0  0  0  0  0  0  0  0  0  0
   15.6007   -3.6707    7.9888 C   0  0  1  0  0  0  0  0  0  0  0  0
   16.3321   -2.8778    7.0983 O   0  0  0  0  0  0  0  0  0  0  0  0
   14.9073   -2.8497    9.0328 C   0  0  1  0  0  0  0  0  0  0  0  0
   14.5661   -1.5913    8.4829 O   0  0  0  0  0  0  0  0  0  0  0  0
   13.6509   -3.6445    9.3647 C   0  0  2  0  0  0  0  0  0  0  0  0
   17.0489   -7.1396    7.8745 O   0  0  0  0  0  0  0  0  0  0  0  0
   12.1694   -7.7943   12.2703 N   0  0  0  0  0  0  0  0  0  0  0  0
   11.7096   -7.4275   11.0139 C   0  0  0  0  0  0  0  0  0  0  0  0
   12.1937   -6.2884   10.3816 N   0  0  0  0  0  0  0  0  0  0  0  0
   13.1344   -5.5456   10.9928 C   0  0  0  0  0  0  0  0  0  0  0  0
   13.6164   -5.9134   12.2521 C   0  0  0  0  0  0  0  0  0  0  0  0
   13.1285   -7.0321   12.9020 C   0  0  0  0  0  0  0  0  0  0  0  0
   13.5806   -7.3705   14.1002 N   0  0  0  0  0  0  0  0  0  0  0  0
   14.5432   -5.0216   12.6193 N   0  0  0  0  0  0  0  0  0  0  0  0
   14.6631   -4.1064   11.6324 C   0  0  0  0  0  0  0  0  0  0  0  0
   13.7995   -4.4180   10.6119 N   0  0  0  0  0  0  0  0  0  0  0  0
  2  1  1  1  0  0  0
  2  3  1  0  0  0  0
  2  5  1  0  0  0  0
  3  4  1  0  0  0  0
  3 17  1  0  0  0  0
  5  6  1  0  0  0  0
  7  6  1  1  0  0  0
  7  8  1  0  0  0  0
  7  9  1  0  0  0  0
 10  9  1  1  0  0  0
 10 11  1  0  0  0  0
 10 12  1  0  0  0  0
 11 16  1  0  0  0  0
 12 13  1  6  0  0  0
 12 14  1  0  0  0  0
 14 15  1  6  0  0  0
 14 16  1  0  0  0  0
 16 27  1  1  0  0  0
 18 19  2  0  0  0  0
 18 23  1  0  0  0  0
 19 20  1  0  0  0  0
 20 21  2  0  0  0  0
 21 22  1  0  0  0  0
 21 27  1  0  0  0  0
 22 23  2  0  0  0  0
 22 25  1  0  0  0  0
 23 24  1  0  0  0  0
 25 26  2  0  0  0  0
 26 27  1  0  0  0  0
M  END
>  <CHROM.1>
-44.98088979,-166.60444314,-109.10200889,175.77492259,-127.56544413,36.60885797
-37.01516071,14.25514032,-5.85267258,9.23923168,2.65521926,1.31593620,0.79186438

>  <Name>
ligand

>  <RI>
0

>  <Rbt.Current_Directory>
/home/itssahil/PROJECTS/Mol_Feturizer/Test_systems_manuscript/rnas/2ydh

>  <Rbt.Executable>
rbdock ($Id: //depot/dev/client3/rdock/2013.1/src/exe/rbdock.cxx#4 $)

>  <Rbt.Library>
libRbt.so (2013.1, Build901 2013/11/27)

>  <Rbt.Parameter_File>
/export/apps/rDock/src/rDock_2013.1_src/data/scripts/dock_solv.prm

>  <Rbt.Receptor>
prm/pocket_docking_3.prm

>  <SCORE>
-11.1819

>  <SCORE.INTER>
-12.2583

>  <SCORE.INTER.CONST>
1

>  <SCORE.INTER.POLAR>
0

>  <SCORE.INTER.ROT>
7

>  <SCORE.INTER.SOLV>
9.3783

>  <SCORE.INTER.VDW>
-19.565

>  <SCORE.INTER.norm>
-0.454012

>  <SCORE.INTRA>
1.07619

>  <SCORE.INTRA.DIHEDRAL>
5.19892

>  <SCORE.INTRA.DIHEDRAL.0>
9.75037

>  <SCORE.INTRA.POLAR>
0

>  <SCORE.INTRA.POLAR.0>
0

>  <SCORE.INTRA.REPUL>
0

>  <SCORE.INTRA.REPUL.0>
0

>  <SCORE.INTRA.SOLV>
-0.0447415

>  <SCORE.INTRA.SOLV.lig_0>
-48.4279

>  <SCORE.INTRA.VDW>
-1.5009

>  <SCORE.INTRA.VDW.0>
-4.69037

>  <SCORE.INTRA.norm>
0.0398589

>  <SCORE.RESTR>
0.000193903

>  <SCORE.RESTR.CAVITY>
0.000193903

>  <SCORE.RESTR.norm>
7.18161e-06

>  <SCORE.SYSTEM>
0

>  <SCORE.SYSTEM.CONST>
0

>  <SCORE.SYSTEM.DIHEDRAL>
0

>  <SCORE.SYSTEM.SOLV>
0

>  <SCORE.SYSTEM.norm>
0

>  <SCORE.heavy>
27

>  <SCORE.norm>
-0.414146

>  <RMSD>
5.421

$$$$
ligand
 OpenBabel02271912153D
libRbt.so/2013.1/901 2013/11/27
 27 29  0  0  0  0  0  0  0  0999 V2000
   12.1565   -8.9558   13.3321 N   0  0  0  0  0  0  0  0  0  0  0  0
   12.5325   -8.1635   12.1208 C   0  0  2  0  0  0  0  0  0  0  0  0
   11.6736   -6.8847   12.0044 C   0  0  0  0  0  0  0  0  0  0  0  0
   10.4460   -6.9271   12.1309 O   0  0  0  0  0  0  0  0  0  0  0  0
   12.4179   -9.0455   10.8820 C   0  0  0  0  0  0  0  0  0  0  0  0
   13.4271  -10.1799   10.8206 C   0  0  0  0  0  0  0  0  0  0  0  0
   15.0403   -9.6712   10.1603 S   0  0  2  0  0  0  0  0  0  0  0  0
   15.6998   -8.7326   11.5672 C   0  0  0  0  0  0  0  0  0  0  0  0
   14.7146   -8.3723    8.9575 C   0  0  0  0  0  0  0  0  0  0  0  0
   16.0334   -7.7728    8.5080 C   0  0  1  0  0  0  0  0  0  0  0  0
   16.7615   -8.6395    7.6519 O   0  0  0  0  0  0  0  0  0  0  0  0
   15.8249   -6.4805    7.7568 C   0  0  1  0  0  0  0  0  0  0  0  0
   15.7206   -5.3979    8.6363 O   0  0  0  0  0  0  0  0  0  0  0  0
   17.0757   -6.4176    6.9342 C   0  0  1  0  0  0  0  0  0  0  0  0
   18.0949   -5.7874    7.6867 O   0  0  0  0  0  0  0  0  0  0  0  0
   17.4297   -7.8762    6.6742 C   0  0  2  0  0  0  0  0  0  0  0  0
   12.1714   -5.7671   11.7751 O   0  0  0  0  0  0  0  0  0  0  0  0
   13.7212   -7.9331    2.9189 N   0  0  0  0  0  0  0  0  0  0  0  0
   13.6638   -7.3207    4.1624 C   0  0  0  0  0  0  0  0  0  0  0  0
   14.7281   -7.4106    5.0516 N   0  0  0  0  0  0  0  0  0  0  0  0
   15.8338   -8.0861    4.6891 C   0  0  0  0  0  0  0  0  0  0  0  0
   15.9094   -8.6944    3.4330 C   0  0  0  0  0  0  0  0  0  0  0  0
   14.8499   -8.6312    2.5467 C   0  0  0  0  0  0  0  0  0  0  0  0
   14.9221   -9.2186    1.3617 N   0  0  0  0  0  0  0  0  0  0  0  0
   17.1076   -9.2791    3.3255 N   0  0  0  0  0  0  0  0  0  0  0  0
   17.7901   -9.0568    4.4704 C   0  0  0  0  0  0  0  0  0  0  0  0
   17.0169   -8.3136    5.3272 N   0  0  0  0  0  0  0  0  0  0  0  0
  2  1  1  1  0  0  0
  2  3  1  0  0  0  0
  2  5  1  0  0  0  0
  3  4  1  0  0  0  0
  3 17  1  0  0  0  0
  5  6  1  0  0  0  0
  7  6  1  1  0  0  0
  7  8  1  0  0  0  0
  7  9  1  0  0  0  0
 10  9  1  6  0  0  0
 10 11  1  0  0  0  0
 10 12  1  0  0  0  0
 11 16  1  0  0  0  0
 12 13  1  1  0  0  0
 12 14  1  0  0  0  0
 14 15  1  1  0  0  0
 14 16  1  0  0  0  0
 16 27  1  6  0  0  0
 18 19  2  0  0  0  0
 18 23  1  0  0  0  0
 19 20  1  0  0  0  0
 20 21  2  0  0  0  0
 21 22  1  0  0  0  0
 21 27  1  0  0  0  0
 22 23  2  0  0  0  0
 22 25  1  0  0  0  0
 23 24  1  0  0  0  0
 25 26  2  0  0  0  0
 26 27  1  0  0  0  0
M  END
>  <CHROM.1>
-47.76035897,-67.12062410,-83.29929417,73.94826244,172.32299175,72.99391374
73.64489101,14.90557718,-8.01077593,7.83138097,1.95776122,0.09990417,1.49312945

>  <Name>
ligand

>  <RI>
0

>  <Rbt.Current_Directory>
/home/itssahil/PROJECTS/Mol_Feturizer/Test_systems_manuscript/rnas/2ydh

>  <Rbt.Executable>
rbdock ($Id: //depot/dev/client3/rdock/2013.1/src/exe/rbdock.cxx#4 $)

>  <Rbt.Library>
libRbt.so (2013.1, Build901 2013/11/27)

>  <Rbt.Parameter_File>
/export/apps/rDock/src/rDock_2013.1_src/data/scripts/dock_solv.prm

>  <Rbt.Receptor>
prm/pocket_docking_6.prm

>  <SCORE>
-13.7426

>  <SCORE.INTER>
-14.5025

>  <SCORE.INTER.CONST>
1

>  <SCORE.INTER.POLAR>
0

>  <SCORE.INTER.ROT>
7

>  <SCORE.INTER.SOLV>
13.7791

>  <SCORE.INTER.VDW>
-22.528

>  <SCORE.INTER.norm>
-0.53713

>  <SCORE.INTRA>
0.75987

>  <SCORE.INTRA.DIHEDRAL>
-2.93482

>  <SCORE.INTRA.DIHEDRAL.0>
9.75037

>  <SCORE.INTRA.POLAR>
0

>  <SCORE.INTRA.POLAR.0>
0

>  <SCORE.INTRA.REPUL>
0

>  <SCORE.INTRA.REPUL.0>
0

>  <SCORE.INTRA.SOLV>
0.0186483

>  <SCORE.INTRA.SOLV.lig_0>
-48.4279

>  <SCORE.INTRA.VDW>
2.21796

>  <SCORE.INTRA.VDW.0>
-4.69037

>  <SCORE.INTRA.norm>
0.0281434

>  <SCORE.RESTR>
0

>  <SCORE.RESTR.CAVITY>
0

>  <SCORE.RESTR.norm>
0

>  <SCORE.SYSTEM>
0

>  <SCORE.SYSTEM.CONST>
0

>  <SCORE.SYSTEM.DIHEDRAL>
0

>  <SCORE.SYSTEM.SOLV>
0

>  <SCORE.SYSTEM.norm>
0

>  <SCORE.heavy>
27

>  <SCORE.norm>
-0.508987

>  <RMSD>
5.426

$$$$
ligand
 OpenBabel02271912153D
libRbt.so/2013.1/901 2013/11/27
 27 29  0  0  0  0  0  0  0  0999 V2000
   13.3474   -8.0727   15.3060 N   0  0  0  0  0  0  0  0  0  0  0  0
   13.7039   -7.7857   13.8822 C   0  0  2  0  0  0  0  0  0  0  0  0
   14.5308   -8.9395   13.2727 C   0  0  0  0  0  0  0  0  0  0  0  0
   15.2395   -9.6603   13.9820 O   0  0  0  0  0  0  0  0  0  0  0  0
   14.4370   -6.4508   13.8021 C   0  0  0  0  0  0  0  0  0  0  0  0
   14.7748   -6.0011   12.3905 C   0  0  0  0  0  0  0  0  0  0  0  0
   13.3800   -5.2151   11.5338 S   0  0  2  0  0  0  0  0  0  0  0  0
   12.3139   -6.6538   11.2350 C   0  0  0  0  0  0  0  0  0  0  0  0
   13.9556   -4.8191    9.8750 C   0  0  0  0  0  0  0  0  0  0  0  0
   14.8580   -3.6018    9.9423 C   0  0  1  0  0  0  0  0  0  0  0  0
   15.9064   -3.7532   10.8869 O   0  0  0  0  0  0  0  0  0  0  0  0
   15.5022   -3.3176    8.6074 C   0  0  1  0  0  0  0  0  0  0  0  0
   14.6596   -2.5523    7.7944 O   0  0  0  0  0  0  0  0  0  0  0  0
   16.7206   -2.5544    9.0295 C   0  0  1  0  0  0  0  0  0  0  0  0
   16.3944   -1.1817    9.1369 O   0  0  0  0  0  0  0  0  0  0  0  0
   17.0698   -3.1277   10.3968 C   0  0  2  0  0  0  0  0  0  0  0  0
   14.5260   -9.1901   12.0535 O   0  0  0  0  0  0  0  0  0  0  0  0
   19.7696   -6.6260    7.5104 N   0  0  0  0  0  0  0  0  0  0  0  0
   18.6905   -5.8488    7.1153 C   0  0  0  0  0  0  0  0  0  0  0  0
   18.0746   -4.9777    8.0060 N   0  0  0  0  0  0  0  0  0  0  0  0
   18.5472   -4.8771    9.2617 C   0  0  0  0  0  0  0  0  0  0  0  0
   19.6434   -5.6438    9.6670 C   0  0  0  0  0  0  0  0  0  0  0  0
   20.2524   -6.5300    8.7978 C   0  0  0  0  0  0  0  0  0  0  0  0
   21.2841   -7.2625    9.1899 N   0  0  0  0  0  0  0  0  0  0  0  0
   19.9122   -5.3432   10.9423 N   0  0  0  0  0  0  0  0  0  0  0  0
   19.0242   -4.4110   11.3528 C   0  0  0  0  0  0  0  0  0  0  0  0
   18.1716   -4.1056   10.3212 N   0  0  0  0  0  0  0  0  0  0  0  0
  2  1  1  1  0  0  0
  2  3  1  0  0  0  0
  2  5  1  0  0  0  0
  3  4  1  0  0  0  0
  3 17  1  0  0  0  0
  5  6  1  0  0  0  0
  7  6  1  1  0  0  0
  7  8  1  0  0  0  0
  7  9  1  0  0  0  0
 10  9  1  6  0  0  0
 10 11  1  0  0  0  0
 10 12  1  0  0  0  0
 11 16  1  0  0  0  0
 12 13  1  6  0  0  0
 12 14  1  0  0  0  0
 14 15  1  1  0  0  0
 14 16  1  0  0  0  0
 16 27  1  6  0  0  0
 18 19  2  0  0  0  0
 18 23  1  0  0  0  0
 19 20  1  0  0  0  0
 20 21  2  0  0  0  0
 21 22  1  0  0  0  0
 21 27  1  0  0  0  0
 22 23  2  0  0  0  0
 22 25  1  0  0  0  0
 23 24  1  0  0  0  0
 25 26  2  0  0  0  0
 26 27  1  0  0  0  0
M  END
>  <CHROM.1>
-27.61037686,-176.20111420,81.07136585,-71.54167330,-75.73599236,52.98926217
92.75258923,16.23780475,-5.48545478,10.64085045,-2.36396361,0.38157519,-0.60600775

>  <Name>
ligand

>  <RI>
0

>  <Rbt.Current_Directory>
/home/itssahil/PROJECTS/Mol_Feturizer/Test_systems_manuscript/rnas/2ydh

>  <Rbt.Executable>
rbdock ($Id: //depot/dev/client3/rdock/2013.1/src/exe/rbdock.cxx#4 $)

>  <Rbt.Library>
libRbt.so (2013.1, Build901 2013/11/27)

>  <Rbt.Parameter_File>
/export/apps/rDock/src/rDock_2013.1_src/data/scripts/dock_solv.prm

>  <Rbt.Receptor>
prm/pocket_docking_7.prm

>  <SCORE>
-15.0587

>  <SCORE.INTER>
-14.1398

>  <SCORE.INTER.CONST>
1

>  <SCORE.INTER.POLAR>
0

>  <SCORE.INTER.ROT>
7

>  <SCORE.INTER.SOLV>
9.00972

>  <SCORE.INTER.VDW>
-20.6964

>  <SCORE.INTER.norm>
-0.523696

>  <SCORE.INTRA>
-0.918939

>  <SCORE.INTRA.DIHEDRAL>
-4.74426

>  <SCORE.INTRA.DIHEDRAL.0>
9.75037

>  <SCORE.INTRA.POLAR>
0

>  <SCORE.INTRA.POLAR.0>
0

>  <SCORE.INTRA.REPUL>
0

>  <SCORE.INTRA.REPUL.0>
0

>  <SCORE.INTRA.SOLV>
-1.07146

>  <SCORE.INTRA.SOLV.lig_0>
-48.4279

>  <SCORE.INTRA.VDW>
1.98892

>  <SCORE.INTRA.VDW.0>
-4.69037

>  <SCORE.INTRA.norm>
-0.0340348

>  <SCORE.RESTR>
0

>  <SCORE.RESTR.CAVITY>
0

>  <SCORE.RESTR.norm>
0

>  <SCORE.SYSTEM>
0

>  <SCORE.SYSTEM.CONST>
0

>  <SCORE.SYSTEM.DIHEDRAL>
0

>  <SCORE.SYSTEM.SOLV>
0

>  <SCORE.SYSTEM.norm>
0

>  <SCORE.heavy>
27

>  <SCORE.norm>
-0.55773

>  <RMSD>
5.455

$$$$
ligand
 OpenBabel02271912153D
libRbt.so/2013.1/901 2013/11/27
 27 29  0  0  0  0  0  0  0  0999 V2000
   20.9859   -7.0003    6.8766 N   0  0  0  0  0  0  0  0  0  0  0  0
   19.5866   -6.6843    7.2996 C   0  0  2  0  0  0  0  0  0  0  0  0
   19.5755   -5.7669    8.5425 C   0  0  0  0  0  0  0  0  0  0  0  0
   18.6415   -4.9867    8.7511 O   0  0  0  0  0  0  0  0  0  0  0  0
   18.8236   -7.9828    7.5390 C   0  0  0  0  0  0  0  0  0  0  0  0
   17.5050   -8.0859    6.7909 C   0  0  0  0  0  0  0  0  0  0  0  0
   16.2812   -6.8528    7.3188 S   0  0  2  0  0  0  0  0  0  0  0  0
   14.7522   -7.6063    6.6944 C   0  0  0  0  0  0  0  0  0  0  0  0
   16.4786   -5.4356    6.2268 C   0  0  0  0  0  0  0  0  0  0  0  0
   15.5940   -4.3058    6.7183 C   0  0  1  0  0  0  0  0  0  0  0  0
   14.2972   -4.7503    7.0855 O   0  0  0  0  0  0  0  0  0  0  0  0
   16.1879   -3.6256    7.9277 C   0  0  1  0  0  0  0  0  0  0  0  0
   17.1060   -2.6398    7.5508 O   0  0  0  0  0  0  0  0  0  0  0  0
   14.9635   -3.0397    8.5621 C   0  0  1  0  0  0  0  0  0  0  0  0
   14.7131   -1.7660    7.9989 O   0  0  0  0  0  0  0  0  0  0  0  0
   13.8485   -4.0117    8.1983 C   0  0  2  0  0  0  0  0  0  0  0  0
   20.4980   -5.7671    9.3782 O   0  0  0  0  0  0  0  0  0  0  0  0
   14.5425   -5.3294   13.2619 N   0  0  0  0  0  0  0  0  0  0  0  0
   15.1092   -4.2664   12.5738 C   0  0  0  0  0  0  0  0  0  0  0  0
   14.8348   -4.0611   11.2269 N   0  0  0  0  0  0  0  0  0  0  0  0
   13.9930   -4.8965   10.5916 C   0  0  0  0  0  0  0  0  0  0  0  0
   13.4041   -5.9621   11.2781 C   0  0  0  0  0  0  0  0  0  0  0  0
   13.6846   -6.1909   12.6126 C   0  0  0  0  0  0  0  0  0  0  0  0
   13.1325   -7.2086   13.2560 N   0  0  0  0  0  0  0  0  0  0  0  0
   12.6098   -6.6181   10.4249 N   0  0  0  0  0  0  0  0  0  0  0  0
   12.6765   -5.9998    9.2252 C   0  0  0  0  0  0  0  0  0  0  0  0
   13.5270   -4.9256    9.3107 N   0  0  0  0  0  0  0  0  0  0  0  0
  2  1  1  1  0  0  0
  2  3  1  0  0  0  0
  2  5  1  0  0  0  0
  3  4  1  0  0  0  0
  3 17  1  0  0  0  0
  5  6  1  0  0  0  0
  7  6  1  6  0  0  0
  7  8  1  0  0  0  0
  7  9  1  0  0  0  0
 10  9  1  1  0  0  0
 10 11  1  0  0  0  0
 10 12  1  0  0  0  0
 11 16  1  0  0  0  0
 12 13  1  6  0  0  0
 12 14  1  0  0  0  0
 14 15  1  6  0  0  0
 14 16  1  0  0  0  0
 16 27  1  1  0  0  0
 18 19  2  0  0  0  0
 18 23  1  0  0  0  0
 19 20  1  0  0  0  0
 20 21  2  0  0  0  0
 21 22  1  0  0  0  0
 21 27  1  0  0  0  0
 22 23  2  0  0  0  0
 22 25  1  0  0  0  0
 23 24  1  0  0  0  0
 25 26  2  0  0  0  0
 26 27  1  0  0  0  0
M  END
>  <CHROM.1>
151.66555633,-127.32919558,-64.52256008,-161.32332930,-173.46808894,-43.93565033
125.98044176,15.90821918,-5.44585350,8.86274828,-0.44218462,-0.49330067,2.10150991

>  <Name>
ligand

>  <RI>
0

>  <Rbt.Current_Directory>
/home/itssahil/PROJECTS/Mol_Feturizer/Test_systems_manuscript/rnas/2ydh

>  <Rbt.Executable>
rbdock ($Id: //depot/dev/client3/rdock/2013.1/src/exe/rbdock.cxx#4 $)

>  <Rbt.Library>
libRbt.so (2013.1, Build901 2013/11/27)

>  <Rbt.Parameter_File>
/export/apps/rDock/src/rDock_2013.1_src/data/scripts/dock_solv.prm

>  <Rbt.Receptor>
prm/pocket_docking_7.prm

>  <SCORE>
-10.1192

>  <SCORE.INTER>
-11.4153

>  <SCORE.INTER.CONST>
1

>  <SCORE.INTER.POLAR>
0

>  <SCORE.INTER.ROT>
7

>  <SCORE.INTER.SOLV>
11.0305

>  <SCORE.INTER.VDW>
-19.5537

>  <SCORE.INTER.norm>
-0.42279

>  <SCORE.INTRA>
1.29612

>  <SCORE.INTRA.DIHEDRAL>
2.10381

>  <SCORE.INTRA.DIHEDRAL.0>
9.75037

>  <SCORE.INTRA.POLAR>
0

>  <SCORE.INTRA.POLAR.0>
0

>  <SCORE.INTRA.REPUL>
0

>  <SCORE.INTRA.REPUL.0>
0

>  <SCORE.INTRA.SOLV>
-0.883686

>  <SCORE.INTRA.SOLV.lig_0>
-48.4279

>  <SCORE.INTRA.VDW>
0.686063

>  <SCORE.INTRA.VDW.0>
-4.69037

>  <SCORE.INTRA.norm>
0.0480046

>  <SCORE.RESTR>
0

>  <SCORE.RESTR.CAVITY>
0

>  <SCORE.RESTR.norm>
0

>  <SCORE.SYSTEM>
0

>  <SCORE.SYSTEM.CONST>
0

>  <SCORE.SYSTEM.DIHEDRAL>
0

>  <SCORE.SYSTEM.SOLV>
0

>  <SCORE.SYSTEM.norm>
0

>  <SCORE.heavy>
27

>  <SCORE.norm>
-0.374785

>  <RMSD>
5.455

$$$$
ligand
 OpenBabel02271912153D
libRbt.so/2013.1/901 2013/11/27
 27 29  0  0  0  0  0  0  0  0999 V2000
   16.7732   -5.5732   10.9577 N   0  0  0  0  0  0  0  0  0  0  0  0
   17.6900   -4.6296   10.2465 C   0  0  2  0  0  0  0  0  0  0  0  0
   19.0798   -4.5914   10.9200 C   0  0  0  0  0  0  0  0  0  0  0  0
   19.2240   -4.1389   12.0598 O   0  0  0  0  0  0  0  0  0  0  0  0
   17.0462   -3.2487   10.1822 C   0  0  0  0  0  0  0  0  0  0  0  0
   15.7858   -3.1798    9.3362 C   0  0  0  0  0  0  0  0  0  0  0  0
   16.1215   -3.0460    7.5567 S   0  0  2  0  0  0  0  0  0  0  0  0
   14.4402   -2.8125    6.9130 C   0  0  0  0  0  0  0  0  0  0  0  0
   16.5192   -4.7056    6.9846 C   0  0  0  0  0  0  0  0  0  0  0  0
   15.3404   -5.6193    7.2604 C   0  0  1  0  0  0  0  0  0  0  0  0
   14.4080   -5.6426    6.1907 O   0  0  0  0  0  0  0  0  0  0  0  0
   15.7870   -7.0427    7.4897 C   0  0  1  0  0  0  0  0  0  0  0  0
   16.1576   -7.2455    8.8232 O   0  0  0  0  0  0  0  0  0  0  0  0
   14.5440   -7.7985    7.1309 C   0  0  1  0  0  0  0  0  0  0  0  0
   13.7161   -7.8998    8.2740 O   0  0  0  0  0  0  0  0  0  0  0  0
   13.8762   -6.9411    6.0635 C   0  0  2  0  0  0  0  0  0  0  0  0
   20.1068   -5.0044   10.3509 O   0  0  0  0  0  0  0  0  0  0  0  0
   17.2040   -9.2772    2.6979 N   0  0  0  0  0  0  0  0  0  0  0  0
   17.4228   -8.9641    4.0316 C   0  0  0  0  0  0  0  0  0  0  0  0
   16.4423   -8.3307    4.7858 N   0  0  0  0  0  0  0  0  0  0  0  0
   15.2599   -8.0366    4.2150 C   0  0  0  0  0  0  0  0  0  0  0  0
   15.0221   -8.3608    2.8764 C   0  0  0  0  0  0  0  0  0  0  0  0
   15.9962   -8.9717    2.1082 C   0  0  0  0  0  0  0  0  0  0  0  0
   15.7699   -9.2671    0.8370 N   0  0  0  0  0  0  0  0  0  0  0  0
   13.7786   -7.9754    2.5698 N   0  0  0  0  0  0  0  0  0  0  0  0
   13.2243   -7.4221    3.6710 C   0  0  0  0  0  0  0  0  0  0  0  0
   14.1277   -7.4556    4.7041 N   0  0  0  0  0  0  0  0  0  0  0  0
  2  1  1  1  0  0  0
  2  3  1  0  0  0  0
  2  5  1  0  0  0  0
  3  4  1  0  0  0  0
  3 17  1  0  0  0  0
  5  6  1  0  0  0  0
  7  6  1  1  0  0  0
  7  8  1  0  0  0  0
  7  9  1  0  0  0  0
 10  9  1  6  0  0  0
 10 11  1  0  0  0  0
 10 12  1  0  0  0  0
 11 16  1  0  0  0  0
 12 13  1  1  0  0  0
 12 14  1  0  0  0  0
 14 15  1  1  0  0  0
 14 16  1  0  0  0  0
 16 27  1  6  0  0  0
 18 19  2  0  0  0  0
 18 23  1  0  0  0  0
 19 20  1  0  0  0  0
 20 21  2  0  0  0  0
 21 22  1  0  0  0  0
 21 27  1  0  0  0  0
 22 23  2  0  0  0  0
 22 25  1  0  0  0  0
 23 24  1  0  0  0  0
 25 26  2  0  0  0  0
 26 27  1  0  0  0  0
M  END
>  <CHROM.1>
-66.23235855,-65.71030188,-80.76735276,-174.28027584,59.57811570,88.98361328
82.24027607,15.98621601,-6.19742629,6.79452439,-1.23171933,0.54646940,-2.29610708

>  <Name>
ligand

>  <RI>
0

>  <Rbt.Current_Directory>
/home/itssahil/PROJECTS/Mol_Feturizer/Test_systems_manuscript/rnas/2ydh

>  <Rbt.Executable>
rbdock ($Id: //depot/dev/client3/rdock/2013.1/src/exe/rbdock.cxx#4 $)

>  <Rbt.Library>
libRbt.so (2013.1, Build901 2013/11/27)

>  <Rbt.Parameter_File>
/export/apps/rDock/src/rDock_2013.1_src/data/scripts/dock_solv.prm

>  <Rbt.Receptor>
prm/pocket_docking_8.prm

>  <SCORE>
-17.0126

>  <SCORE.INTER>
-19.4241

>  <SCORE.INTER.CONST>
1

>  <SCORE.INTER.POLAR>
0

>  <SCORE.INTER.ROT>
7

>  <SCORE.INTER.SOLV>
13.0157

>  <SCORE.INTER.VDW>
-25.5546

>  <SCORE.INTER.norm>
-0.71941

>  <SCORE.INTRA>
2.40978

>  <SCORE.INTRA.DIHEDRAL>
-2.01467

>  <SCORE.INTRA.DIHEDRAL.0>
9.75037

>  <SCORE.INTRA.POLAR>
0

>  <SCORE.INTRA.POLAR.0>
0

>  <SCORE.INTRA.REPUL>
0

>  <SCORE.INTRA.REPUL.0>
0

>  <SCORE.INTRA.SOLV>
2.30614

>  <SCORE.INTRA.SOLV.lig_0>
-48.4279

>  <SCORE.INTRA.VDW>
2.26405

>  <SCORE.INTRA.VDW.0>
-4.69037

>  <SCORE.INTRA.norm>
0.0892512

>  <SCORE.RESTR>
0.00166734

>  <SCORE.RESTR.CAVITY>
0.00166734

>  <SCORE.RESTR.norm>
6.17534e-05

>  <SCORE.SYSTEM>
0

>  <SCORE.SYSTEM.CONST>
0

>  <SCORE.SYSTEM.DIHEDRAL>
0

>  <SCORE.SYSTEM.SOLV>
0

>  <SCORE.SYSTEM.norm>
0

>  <SCORE.heavy>
27

>  <SCORE.norm>
-0.630097

>  <RMSD>
5.457

$$$$
ligand
 OpenBabel02271912153D
libRbt.so/2013.1/901 2013/11/27
 27 29  0  0  0  0  0  0  0  0999 V2000
   19.7841   -7.8169    9.9673 N   0  0  0  0  0  0  0  0  0  0  0  0
   19.7922   -6.4405    9.3823 C   0  0  2  0  0  0  0  0  0  0  0  0
   20.3826   -5.4170   10.3775 C   0  0  0  0  0  0  0  0  0  0  0  0
   21.5911   -5.3974   10.6305 O   0  0  0  0  0  0  0  0  0  0  0  0
   18.3795   -6.0664    8.9463 C   0  0  0  0  0  0  0  0  0  0  0  0
   17.7575   -7.0198    7.9396 C   0  0  0  0  0  0  0  0  0  0  0  0
   16.0783   -6.5423    7.4405 S   0  0  2  0  0  0  0  0  0  0  0  0
   15.6479   -7.9220    6.3419 C   0  0  0  0  0  0  0  0  0  0  0  0
   16.2575   -5.1768    6.2815 C   0  0  0  0  0  0  0  0  0  0  0  0
   15.6796   -3.9205    6.9046 C   0  0  1  0  0  0  0  0  0  0  0  0
   14.3528   -4.1061    7.3729 O   0  0  0  0  0  0  0  0  0  0  0  0
   16.5040   -3.4582    8.0812 C   0  0  1  0  0  0  0  0  0  0  0  0
   17.5774   -2.6645    7.6632 O   0  0  0  0  0  0  0  0  0  0  0  0
   15.4907   -2.6706    8.8543 C   0  0  1  0  0  0  0  0  0  0  0  0
   15.4731   -1.3394    8.3748 O   0  0  0  0  0  0  0  0  0  0  0  0
   14.1671   -3.3624    8.5550 C   0  0  2  0  0  0  0  0  0  0  0  0
   19.6766   -4.5787   10.9675 O   0  0  0  0  0  0  0  0  0  0  0  0
   12.3869   -8.1039   10.0408 N   0  0  0  0  0  0  0  0  0  0  0  0
   12.6721   -7.6664    8.7556 C   0  0  0  0  0  0  0  0  0  0  0  0
   13.1240   -6.3723    8.5264 N   0  0  0  0  0  0  0  0  0  0  0  0
   13.3033   -5.5428    9.5705 C   0  0  0  0  0  0  0  0  0  0  0  0
   13.0338   -5.9771   10.8715 C   0  0  0  0  0  0  0  0  0  0  0  0
   12.5635   -7.2549   11.1122 C   0  0  0  0  0  0  0  0  0  0  0  0
   12.2991   -7.6582   12.3459 N   0  0  0  0  0  0  0  0  0  0  0  0
   13.3068   -4.9717   11.7103 N   0  0  0  0  0  0  0  0  0  0  0  0
   13.7419   -3.9200   10.9817 C   0  0  0  0  0  0  0  0  0  0  0  0
   13.7509   -4.2576    9.6511 N   0  0  0  0  0  0  0  0  0  0  0  0
  2  1  1  1  0  0  0
  2  3  1  0  0  0  0
  2  5  1  0  0  0  0
  3  4  1  0  0  0  0
  3 17  1  0  0  0  0
  5  6  1  0  0  0  0
  7  6  1  6  0  0  0
  7  8  1  0  0  0  0
  7  9  1  0  0  0  0
 10  9  1  1  0  0  0
 10 11  1  0  0  0  0
 10 12  1  0  0  0  0
 11 16  1  0  0  0  0
 12 13  1  6  0  0  0
 12 14  1  0  0  0  0
 14 15  1  6  0  0  0
 14 16  1  0  0  0  0
 16 27  1  1  0  0  0
 18 19  2  0  0  0  0
 18 23  1  0  0  0  0
 19 20  1  0  0  0  0
 20 21  2  0  0  0  0
 21 22  1  0  0  0  0
 21 27  1  0  0  0  0
 22 23  2  0  0  0  0
 22 25  1  0  0  0  0
 23 24  1  0  0  0  0
 25 26  2  0  0  0  0
 26 27  1  0  0  0  0
M  END
>  <CHROM.1>
72.06276944,-57.71341988,-179.87856140,-177.07508101,-113.71998369,-52.64480872
-14.03278927,15.83646761,-5.40857846,9.05640825,-0.13540450,-0.02827045,2.66318875

>  <Name>
ligand

>  <RI>
0

>  <Rbt.Current_Directory>
/home/itssahil/PROJECTS/Mol_Feturizer/Test_systems_manuscript/rnas/2ydh

>  <Rbt.Executable>
rbdock ($Id: //depot/dev/client3/rdock/2013.1/src/exe/rbdock.cxx#4 $)

>  <Rbt.Library>
libRbt.so (2013.1, Build901 2013/11/27)

>  <Rbt.Parameter_File>
/export/apps/rDock/src/rDock_2013.1_src/data/scripts/dock_solv.prm

>  <Rbt.Receptor>
prm/pocket_docking_7.prm

>  <SCORE>
-13.672

>  <SCORE.INTER>
-13.1146

>  <SCORE.INTER.CONST>
1

>  <SCORE.INTER.POLAR>
0

>  <SCORE.INTER.ROT>
7

>  <SCORE.INTER.SOLV>
8.75776

>  <SCORE.INTER.VDW>
-19.929

>  <SCORE.INTER.norm>
-0.485727

>  <SCORE.INTRA>
-0.557347

>  <SCORE.INTRA.DIHEDRAL>
-2.35678

>  <SCORE.INTRA.DIHEDRAL.0>
9.75037

>  <SCORE.INTRA.POLAR>
0

>  <SCORE.INTRA.POLAR.0>
0

>  <SCORE.INTRA.REPUL>
0

>  <SCORE.INTRA.REPUL.0>
0

>  <SCORE.INTRA.SOLV>
-0.386533

>  <SCORE.INTRA.SOLV.lig_0>
-48.4279

>  <SCORE.INTRA.VDW>
0.81431

>  <SCORE.INTRA.VDW.0>
-4.69037

>  <SCORE.INTRA.norm>
-0.0206425

>  <SCORE.RESTR>
0

>  <SCORE.RESTR.CAVITY>
0

>  <SCORE.RESTR.norm>
0

>  <SCORE.SYSTEM>
0

>  <SCORE.SYSTEM.CONST>
0

>  <SCORE.SYSTEM.DIHEDRAL>
0

>  <SCORE.SYSTEM.SOLV>
0

>  <SCORE.SYSTEM.norm>
0

>  <SCORE.heavy>
27

>  <SCORE.norm>
-0.506369

>  <RMSD>
5.467

$$$$
ligand
 OpenBabel02271912153D
libRbt.so/2013.1/901 2013/11/27
 27 29  0  0  0  0  0  0  0  0999 V2000
   15.6124   -7.7014    8.8190 N   0  0  0  0  0  0  0  0  0  0  0  0
   16.9777   -7.5448    8.2291 C   0  0  2  0  0  0  0  0  0  0  0  0
   18.0663   -7.6041    9.3237 C   0  0  0  0  0  0  0  0  0  0  0  0
   18.0667   -6.8070   10.2667 O   0  0  0  0  0  0  0  0  0  0  0  0
   17.0391   -6.2476    7.4296 C   0  0  0  0  0  0  0  0  0  0  0  0
   16.1334   -6.2158    6.2098 C   0  0  0  0  0  0  0  0  0  0  0  0
   14.3743   -6.0433    6.6255 S   0  0  2  0  0  0  0  0  0  0  0  0
   13.6274   -7.1525    5.3977 C   0  0  0  0  0  0  0  0  0  0  0  0
   13.8645   -4.4224    6.0316 C   0  0  0  0  0  0  0  0  0  0  0  0
   14.0503   -3.4076    7.1434 C   0  0  1  0  0  0  0  0  0  0  0  0
   13.1251   -3.5873    8.2045 O   0  0  0  0  0  0  0  0  0  0  0  0
   15.4331   -3.4920    7.7425 C   0  0  1  0  0  0  0  0  0  0  0  0
   16.3489   -2.7357    7.0036 O   0  0  0  0  0  0  0  0  0  0  0  0
   15.1956   -2.9133    9.1040 C   0  0  1  0  0  0  0  0  0  0  0  0
   15.3351   -1.5066    9.0413 O   0  0  0  0  0  0  0  0  0  0  0  0
   13.7565   -3.2922    9.4290 C   0  0  2  0  0  0  0  0  0  0  0  0
   18.9851   -8.4436    9.3039 O   0  0  0  0  0  0  0  0  0  0  0  0
   12.5887   -8.4018   10.0504 N   0  0  0  0  0  0  0  0  0  0  0  0
   12.4995   -7.6432    8.8923 C   0  0  0  0  0  0  0  0  0  0  0  0
   12.8336   -6.2942    8.8957 N   0  0  0  0  0  0  0  0  0  0  0  0
   13.2666   -5.7260   10.0358 C   0  0  0  0  0  0  0  0  0  0  0  0
   13.3752   -6.4837   11.2053 C   0  0  0  0  0  0  0  0  0  0  0  0
   13.0260   -7.8215   11.2216 C   0  0  0  0  0  0  0  0  0  0  0  0
   13.1202   -8.5327   12.3351 N   0  0  0  0  0  0  0  0  0  0  0  0
   13.8373   -5.6872   12.1754 N   0  0  0  0  0  0  0  0  0  0  0  0
   14.0260   -4.4542   11.6555 C   0  0  0  0  0  0  0  0  0  0  0  0
   13.6816   -4.4603   10.3267 N   0  0  0  0  0  0  0  0  0  0  0  0
  2  1  1  1  0  0  0
  2  3  1  0  0  0  0
  2  5  1  0  0  0  0
  3  4  1  0  0  0  0
  3 17  1  0  0  0  0
  5  6  1  0  0  0  0
  7  6  1  6  0  0  0
  7  8  1  0  0  0  0
  7  9  1  0  0  0  0
 10  9  1  6  0  0  0
 10 11  1  0  0  0  0
 10 12  1  0  0  0  0
 11 16  1  0  0  0  0
 12 13  1  6  0  0  0
 12 14  1  0  0  0  0
 14 15  1  6  0  0  0
 14 16  1  0  0  0  0
 16 27  1  1  0  0  0
 18 19  2  0  0  0  0
 18 23  1  0  0  0  0
 19 20  1  0  0  0  0
 20 21  2  0  0  0  0
 21 22  1  0  0  0  0
 21 27  1  0  0  0  0
 22 23  2  0  0  0  0
 22 25  1  0  0  0  0
 23 24  1  0  0  0  0
 25 26  2  0  0  0  0
 26 27  1  0  0  0  0
M  END
>  <CHROM.1>
-58.34873329,-64.96106174,73.14679508,-141.04793439,-91.25956487,-69.83611208
9.31507113,14.78855530,-5.70950605,8.80784228,-1.66885682,0.65057535,-0.63150361

>  <Name>
ligand

>  <RI>
0

>  <Rbt.Current_Directory>
/home/itssahil/PROJECTS/Mol_Feturizer/Test_systems_manuscript/rnas/2ydh

>  <Rbt.Executable>
rbdock ($Id: //depot/dev/client3/rdock/2013.1/src/exe/rbdock.cxx#4 $)

>  <Rbt.Library>
libRbt.so (2013.1, Build901 2013/11/27)

>  <Rbt.Parameter_File>
/export/apps/rDock/src/rDock_2013.1_src/data/scripts/dock_solv.prm

>  <Rbt.Receptor>
prm/pocket_docking_7.prm

>  <SCORE>
-9.75494

>  <SCORE.INTER>
-11.6324

>  <SCORE.INTER.CONST>
1

>  <SCORE.INTER.POLAR>
0

>  <SCORE.INTER.ROT>
7

>  <SCORE.INTER.SOLV>
6.7561

>  <SCORE.INTER.VDW>
-18.2736

>  <SCORE.INTER.norm>
-0.430828

>  <SCORE.INTRA>
1.87742

>  <SCORE.INTRA.DIHEDRAL>
-0.234586

>  <SCORE.INTRA.DIHEDRAL.0>
9.75037

>  <SCORE.INTRA.POLAR>
0

>  <SCORE.INTRA.POLAR.0>
0

>  <SCORE.INTRA.REPUL>
0

>  <SCORE.INTRA.REPUL.0>
0

>  <SCORE.INTRA.SOLV>
3.749

>  <SCORE.INTRA.SOLV.lig_0>
-48.4279

>  <SCORE.INTRA.VDW>
0.120209

>  <SCORE.INTRA.VDW.0>
-4.69037

>  <SCORE.INTRA.norm>
0.0695339

>  <SCORE.RESTR>
0

>  <SCORE.RESTR.CAVITY>
0

>  <SCORE.RESTR.norm>
0

>  <SCORE.SYSTEM>
0

>  <SCORE.SYSTEM.CONST>
0

>  <SCORE.SYSTEM.DIHEDRAL>
0

>  <SCORE.SYSTEM.SOLV>
0

>  <SCORE.SYSTEM.norm>
0

>  <SCORE.heavy>
27

>  <SCORE.norm>
-0.361294

>  <RMSD>
5.468

$$$$
ligand
 OpenBabel02271912153D
libRbt.so/2013.1/901 2013/11/27
 27 29  0  0  0  0  0  0  0  0999 V2000
   14.6817   -1.5462    6.9800 N   0  0  0  0  0  0  0  0  0  0  0  0
   15.6488   -1.7586    8.1009 C   0  0  2  0  0  0  0  0  0  0  0  0
   17.0916   -1.4255    7.6607 C   0  0  0  0  0  0  0  0  0  0  0  0
   17.8625   -2.3112    7.2786 O   0  0  0  0  0  0  0  0  0  0  0  0
   15.5224   -3.1885    8.6157 C   0  0  0  0  0  0  0  0  0  0  0  0
   16.5291   -3.5624    9.6908 C   0  0  0  0  0  0  0  0  0  0  0  0
   16.5931   -5.3458   10.0260 S   0  0  2  0  0  0  0  0  0  0  0  0
   17.8608   -5.3996   11.3243 C   0  0  0  0  0  0  0  0  0  0  0  0
   17.4466   -6.0986    8.6315 C   0  0  0  0  0  0  0  0  0  0  0  0
   16.4326   -6.8128    7.7584 C   0  0  1  0  0  0  0  0  0  0  0  0
   15.7087   -7.8069    8.4668 O   0  0  0  0  0  0  0  0  0  0  0  0
   15.4201   -5.8500    7.1876 C   0  0  1  0  0  0  0  0  0  0  0  0
   15.8965   -5.2551    6.0146 O   0  0  0  0  0  0  0  0  0  0  0  0
   14.2646   -6.7664    6.9234 C   0  0  1  0  0  0  0  0  0  0  0  0
   14.4100   -7.3380    5.6371 O   0  0  0  0  0  0  0  0  0  0  0  0
   14.3801   -7.8387    7.9991 C   0  0  2  0  0  0  0  0  0  0  0  0
   17.5409   -0.2648    7.6756 O   0  0  0  0  0  0  0  0  0  0  0  0
   11.8946   -9.7496   12.2453 N   0  0  0  0  0  0  0  0  0  0  0  0
   12.7823  -10.4112   11.4093 C   0  0  0  0  0  0  0  0  0  0  0  0
   13.3461   -9.7671   10.3144 N   0  0  0  0  0  0  0  0  0  0  0  0
   13.0377   -8.4790   10.0775 C   0  0  0  0  0  0  0  0  0  0  0  0
   12.1564   -7.7974   10.9215 C   0  0  0  0  0  0  0  0  0  0  0  0
   11.5717   -8.4319   12.0020 C   0  0  0  0  0  0  0  0  0  0  0  0
   10.7286   -7.7848   12.7926 N   0  0  0  0  0  0  0  0  0  0  0  0
   12.0367   -6.5432   10.4722 N   0  0  0  0  0  0  0  0  0  0  0  0
   12.8152   -6.4114    9.3756 C   0  0  0  0  0  0  0  0  0  0  0  0
   13.4483   -7.6019    9.1179 N   0  0  0  0  0  0  0  0  0  0  0  0
  2  1  1  6  0  0  0
  2  3  1  0  0  0  0
  2  5  1  0  0  0  0
  3  4  1  0  0  0  0
  3 17  1  0  0  0  0
  5  6  1  0  0  0  0
  7  6  1  6  0  0  0
  7  8  1  0  0  0  0
  7  9  1  0  0  0  0
 10  9  1  1  0  0  0
 10 11  1  0  0  0  0
 10 12  1  0  0  0  0
 11 16  1  0  0  0  0
 12 13  1  6  0  0  0
 12 14  1  0  0  0  0
 14 15  1  6  0  0  0
 14 16  1  0  0  0  0
 16 27  1  1  0  0  0
 18 19  2  0  0  0  0
 18 23  1  0  0  0  0
 19 20  1  0  0  0  0
 20 21  2  0  0  0  0
 21 22  1  0  0  0  0
 21 27  1  0  0  0  0
 22 23  2  0  0  0  0
 22 25  1  0  0  0  0
 23 24  1  0  0  0  0
 25 26  2  0  0  0  0
 26 27  1  0  0  0  0
M  END
>  <CHROM.1>
-96.30323720,175.62024594,-167.61508415,-179.82582564,-105.35111708,-58.16043143
-78.55004618,14.88204408,-5.88266000,9.04358311,0.19583861,0.99860162,0.85773913

>  <Name>
ligand

>  <RI>
0

>  <Rbt.Current_Directory>
/home/itssahil/PROJECTS/Mol_Feturizer/Test_systems_manuscript/rnas/2ydh

>  <Rbt.Executable>
rbdock ($Id: //depot/dev/client3/rdock/2013.1/src/exe/rbdock.cxx#4 $)

>  <Rbt.Library>
libRbt.so (2013.1, Build901 2013/11/27)

>  <Rbt.Parameter_File>
/export/apps/rDock/src/rDock_2013.1_src/data/scripts/dock_solv.prm

>  <Rbt.Receptor>
prm/pocket_docking_4.prm

>  <SCORE>
-7.34931

>  <SCORE.INTER>
-7.72648

>  <SCORE.INTER.CONST>
1

>  <SCORE.INTER.POLAR>
0

>  <SCORE.INTER.ROT>
7

>  <SCORE.INTER.SOLV>
18.3783

>  <SCORE.INTER.VDW>
-19.5437

>  <SCORE.INTER.norm>
-0.286166

>  <SCORE.INTRA>
0.37717

>  <SCORE.INTRA.DIHEDRAL>
-2.79055

>  <SCORE.INTRA.DIHEDRAL.0>
9.75037

>  <SCORE.INTRA.POLAR>
0

>  <SCORE.INTRA.POLAR.0>
0

>  <SCORE.INTRA.REPUL>
0

>  <SCORE.INTRA.REPUL.0>
0

>  <SCORE.INTRA.SOLV>
-0.584056

>  <SCORE.INTRA.SOLV.lig_0>
-48.4279

>  <SCORE.INTRA.VDW>
2.06447

>  <SCORE.INTRA.VDW.0>
-4.69037

>  <SCORE.INTRA.norm>
0.0139693

>  <SCORE.RESTR>
0

>  <SCORE.RESTR.CAVITY>
0

>  <SCORE.RESTR.norm>
0

>  <SCORE.SYSTEM>
0

>  <SCORE.SYSTEM.CONST>
0

>  <SCORE.SYSTEM.DIHEDRAL>
0

>  <SCORE.SYSTEM.SOLV>
0

>  <SCORE.SYSTEM.norm>
0

>  <SCORE.heavy>
27

>  <SCORE.norm>
-0.272197

>  <RMSD>
5.492

$$$$
ligand
 OpenBabel02271912153D
libRbt.so/2013.1/901 2013/11/27
 27 29  0  0  0  0  0  0  0  0999 V2000
   12.8384   -5.7717   10.8718 N   0  0  0  0  0  0  0  0  0  0  0  0
   14.2666   -5.4926   10.5266 C   0  0  2  0  0  0  0  0  0  0  0  0
   15.2223   -6.1175   11.5671 C   0  0  0  0  0  0  0  0  0  0  0  0
   16.3168   -6.5799   11.2310 O   0  0  0  0  0  0  0  0  0  0  0  0
   14.4709   -3.9873   10.3921 C   0  0  0  0  0  0  0  0  0  0  0  0
   13.7254   -3.3515    9.2306 C   0  0  0  0  0  0  0  0  0  0  0  0
   14.2945   -3.9327    7.6072 S   0  0  2  0  0  0  0  0  0  0  0  0
   13.4275   -2.7740    6.5112 C   0  0  0  0  0  0  0  0  0  0  0  0
   13.4298   -5.4782    7.2849 C   0  0  0  0  0  0  0  0  0  0  0  0
   14.4426   -6.5413    6.9046 C   0  0  1  0  0  0  0  0  0  0  0  0
   15.3302   -6.8524    7.9674 O   0  0  0  0  0  0  0  0  0  0  0  0
   13.7664   -7.8288    6.5010 C   0  0  1  0  0  0  0  0  0  0  0  0
   13.4005   -7.8038    5.1511 O   0  0  0  0  0  0  0  0  0  0  0  0
   14.8533   -8.8245    6.7700 C   0  0  1  0  0  0  0  0  0  0  0  0
   15.6805   -8.9290    5.6268 O   0  0  0  0  0  0  0  0  0  0  0  0
   15.6299   -8.2287    7.9371 C   0  0  2  0  0  0  0  0  0  0  0  0
   14.9355   -6.1883   12.7762 O   0  0  0  0  0  0  0  0  0  0  0  0
   11.8251   -9.5596   11.3446 N   0  0  0  0  0  0  0  0  0  0  0  0
   11.6864   -8.9204   10.1212 C   0  0  0  0  0  0  0  0  0  0  0  0
   12.7978   -8.6248    9.3407 N   0  0  0  0  0  0  0  0  0  0  0  0
   14.0204   -8.9826    9.7736 C   0  0  0  0  0  0  0  0  0  0  0  0
   14.1714   -9.6407   10.9974 C   0  0  0  0  0  0  0  0  0  0  0  0
   13.0767   -9.9220   11.7940 C   0  0  0  0  0  0  0  0  0  0  0  0
   13.2260  -10.5361   12.9581 N   0  0  0  0  0  0  0  0  0  0  0  0
   15.4730   -9.8904   11.1775 N   0  0  0  0  0  0  0  0  0  0  0  0
   16.1464   -9.4143   10.1069 C   0  0  0  0  0  0  0  0  0  0  0  0
   15.2604   -8.8513    9.2224 N   0  0  0  0  0  0  0  0  0  0  0  0
  2  1  1  1  0  0  0
  2  3  1  0  0  0  0
  2  5  1  0  0  0  0
  3  4  1  0  0  0  0
  3 17  1  0  0  0  0
  5  6  1  0  0  0  0
  7  6  1  1  0  0  0
  7  8  1  0  0  0  0
  7  9  1  0  0  0  0
 10  9  1  1  0  0  0
 10 11  1  0  0  0  0
 10 12  1  0  0  0  0
 11 16  1  0  0  0  0
 12 13  1  6  0  0  0
 12 14  1  0  0  0  0
 14 15  1  6  0  0  0
 14 16  1  0  0  0  0
 16 27  1  1  0  0  0
 18 19  2  0  0  0  0
 18 23  1  0  0  0  0
 19 20  1  0  0  0  0
 20 21  2  0  0  0  0
 21 22  1  0  0  0  0
 21 27  1  0  0  0  0
 22 23  2  0  0  0  0
 22 25  1  0  0  0  0
 23 24  1  0  0  0  0
 25 26  2  0  0  0  0
 26 27  1  0  0  0  0
M  END
>  <CHROM.1>
144.88614916,-65.79589977,-64.54385758,-170.23966089,-128.57362373,64.83426884
64.32741257,14.23691322,-7.15210976,9.19259949,2.16602136,-1.51976115,2.98523703

>  <Name>
ligand

>  <RI>
0

>  <Rbt.Current_Directory>
/home/itssahil/PROJECTS/Mol_Feturizer/Test_systems_manuscript/rnas/2ydh

>  <Rbt.Executable>
rbdock ($Id: //depot/dev/client3/rdock/2013.1/src/exe/rbdock.cxx#4 $)

>  <Rbt.Library>
libRbt.so (2013.1, Build901 2013/11/27)

>  <Rbt.Parameter_File>
/export/apps/rDock/src/rDock_2013.1_src/data/scripts/dock_solv.prm

>  <Rbt.Receptor>
prm/pocket_docking_4.prm

>  <SCORE>
-12.4844

>  <SCORE.INTER>
-10.776

>  <SCORE.INTER.CONST>
1

>  <SCORE.INTER.POLAR>
0

>  <SCORE.INTER.ROT>
7

>  <SCORE.INTER.SOLV>
13.1077

>  <SCORE.INTER.VDW>
-19.8199

>  <SCORE.INTER.norm>
-0.399111

>  <SCORE.INTRA>
-1.70839

>  <SCORE.INTRA.DIHEDRAL>
-1.18692

>  <SCORE.INTRA.DIHEDRAL.0>
9.75037

>  <SCORE.INTRA.POLAR>
0

>  <SCORE.INTRA.POLAR.0>
0

>  <SCORE.INTRA.REPUL>
0

>  <SCORE.INTRA.REPUL.0>
0

>  <SCORE.INTRA.SOLV>
2.0388

>  <SCORE.INTRA.SOLV.lig_0>
-48.4279

>  <SCORE.INTRA.VDW>
-2.13432

>  <SCORE.INTRA.VDW.0>
-4.69037

>  <SCORE.INTRA.norm>
-0.0632735

>  <SCORE.RESTR>
0

>  <SCORE.RESTR.CAVITY>
0

>  <SCORE.RESTR.norm>
0

>  <SCORE.SYSTEM>
0

>  <SCORE.SYSTEM.CONST>
0

>  <SCORE.SYSTEM.DIHEDRAL>
0

>  <SCORE.SYSTEM.SOLV>
0

>  <SCORE.SYSTEM.norm>
0

>  <SCORE.heavy>
27

>  <SCORE.norm>
-0.462384

>  <RMSD>
5.493

$$$$
ligand
 OpenBabel02271912153D
libRbt.so/2013.1/901 2013/11/27
 27 29  0  0  0  0  0  0  0  0999 V2000
   16.4807   -0.5721    8.1968 N   0  0  0  0  0  0  0  0  0  0  0  0
   16.2613   -1.9158    7.5781 C   0  0  2  0  0  0  0  0  0  0  0  0
   14.7628   -2.2917    7.5824 C   0  0  0  0  0  0  0  0  0  0  0  0
   14.2302   -2.8012    6.5918 O   0  0  0  0  0  0  0  0  0  0  0  0
   17.1142   -2.9526    8.3014 C   0  0  0  0  0  0  0  0  0  0  0  0
   16.7969   -3.1096    9.7792 C   0  0  0  0  0  0  0  0  0  0  0  0
   15.7094   -4.5197   10.1345 S   0  0  2  0  0  0  0  0  0  0  0  0
   15.5184   -4.3535   11.9322 C   0  0  0  0  0  0  0  0  0  0  0  0
   16.7267   -5.9982    9.9966 C   0  0  0  0  0  0  0  0  0  0  0  0
   15.8347   -7.2219   10.0847 C   0  0  1  0  0  0  0  0  0  0  0  0
   14.8586   -7.2591    9.0552 O   0  0  0  0  0  0  0  0  0  0  0  0
   16.6354   -8.4971    9.9822 C   0  0  1  0  0  0  0  0  0  0  0  0
   17.1447   -8.8736   11.2295 O   0  0  0  0  0  0  0  0  0  0  0  0
   15.5943   -9.4548    9.4883 C   0  0  1  0  0  0  0  0  0  0  0  0
   14.9063  -10.0045   10.5959 O   0  0  0  0  0  0  0  0  0  0  0  0
   14.6563   -8.5938    8.6522 C   0  0  2  0  0  0  0  0  0  0  0  0
   14.0304   -2.0962    8.5697 O   0  0  0  0  0  0  0  0  0  0  0  0
   18.1789   -8.5635    4.7217 N   0  0  0  0  0  0  0  0  0  0  0  0
   18.4136   -8.3772    6.0762 C   0  0  0  0  0  0  0  0  0  0  0  0
   17.3677   -8.4002    6.9912 N   0  0  0  0  0  0  0  0  0  0  0  0
   16.1153   -8.6252    6.5540 C   0  0  0  0  0  0  0  0  0  0  0  0
   15.8684   -8.8294    5.1936 C   0  0  0  0  0  0  0  0  0  0  0  0
   16.8963   -8.7881    4.2697 C   0  0  0  0  0  0  0  0  0  0  0  0
   16.6558   -8.9714    2.9800 N   0  0  0  0  0  0  0  0  0  0  0  0
   14.5572   -9.0419    5.0362 N   0  0  0  0  0  0  0  0  0  0  0  0
   13.9706   -8.9812    6.2521 C   0  0  0  0  0  0  0  0  0  0  0  0
   14.9232   -8.7280    7.2076 N   0  0  0  0  0  0  0  0  0  0  0  0
  2  1  1  1  0  0  0
  2  3  1  0  0  0  0
  2  5  1  0  0  0  0
  3  4  1  0  0  0  0
  3 17  1  0  0  0  0
  5  6  1  0  0  0  0
  7  6  1  1  0  0  0
  7  8  1  0  0  0  0
  7  9  1  0  0  0  0
 10  9  1  6  0  0  0
 10 11  1  0  0  0  0
 10 12  1  0  0  0  0
 11 16  1  0  0  0  0
 12 13  1  1  0  0  0
 12 14  1  0  0  0  0
 14 15  1  1  0  0  0
 14 16  1  0  0  0  0
 16 27  1  6  0  0  0
 18 19  2  0  0  0  0
 18 23  1  0  0  0  0
 19 20  1  0  0  0  0
 20 21  2  0  0  0  0
 21 22  1  0  0  0  0
 21 27  1  0  0  0  0
 22 23  2  0  0  0  0
 22 25  1  0  0  0  0
 23 24  1  0  0  0  0
 25 26  2  0  0  0  0
 26 27  1  0  0  0  0
M  END
>  <CHROM.1>
136.56014175,60.94750984,98.37583383,-178.24842206,-171.90296031,59.99941894
68.42403076,15.89891770,-6.43489889,8.08074246,-2.55670323,-1.48714530,2.54719676

>  <Name>
ligand

>  <RI>
0

>  <Rbt.Current_Directory>
/home/itssahil/PROJECTS/Mol_Feturizer/Test_systems_manuscript/rnas/2ydh

>  <Rbt.Executable>
rbdock ($Id: //depot/dev/client3/rdock/2013.1/src/exe/rbdock.cxx#4 $)

>  <Rbt.Library>
libRbt.so (2013.1, Build901 2013/11/27)

>  <Rbt.Parameter_File>
/export/apps/rDock/src/rDock_2013.1_src/data/scripts/dock_solv.prm

>  <Rbt.Receptor>
prm/pocket_docking_5.prm

>  <SCORE>
-11.5496

>  <SCORE.INTER>
-11.2649

>  <SCORE.INTER.CONST>
1

>  <SCORE.INTER.POLAR>
0

>  <SCORE.INTER.ROT>
7

>  <SCORE.INTER.SOLV>
20.0932

>  <SCORE.INTER.VDW>
-22.4743

>  <SCORE.INTER.norm>
-0.417218

>  <SCORE.INTRA>
-0.2847

>  <SCORE.INTRA.DIHEDRAL>
-1.88385

>  <SCORE.INTRA.DIHEDRAL.0>
9.75037

>  <SCORE.INTRA.POLAR>
0

>  <SCORE.INTRA.POLAR.0>
0

>  <SCORE.INTRA.REPUL>
0

>  <SCORE.INTRA.REPUL.0>
0

>  <SCORE.INTRA.SOLV>
-0.662702

>  <SCORE.INTRA.SOLV.lig_0>
-48.4279

>  <SCORE.INTRA.VDW>
0.988576

>  <SCORE.INTRA.VDW.0>
-4.69037

>  <SCORE.INTRA.norm>
-0.0105444

>  <SCORE.RESTR>
0

>  <SCORE.RESTR.CAVITY>
0

>  <SCORE.RESTR.norm>
0

>  <SCORE.SYSTEM>
0

>  <SCORE.SYSTEM.CONST>
0

>  <SCORE.SYSTEM.DIHEDRAL>
0

>  <SCORE.SYSTEM.SOLV>
0

>  <SCORE.SYSTEM.norm>
0

>  <SCORE.heavy>
27

>  <SCORE.norm>
-0.427762

>  <RMSD>
5.494

$$$$
ligand
 OpenBabel02271912153D
libRbt.so/2013.1/901 2013/11/27
 27 29  0  0  0  0  0  0  0  0999 V2000
   20.7803   -7.4156    8.1995 N   0  0  0  0  0  0  0  0  0  0  0  0
   19.6293   -6.7883    7.4794 C   0  0  2  0  0  0  0  0  0  0  0  0
   19.0548   -5.5984    8.2799 C   0  0  0  0  0  0  0  0  0  0  0  0
   18.6976   -4.5613    7.7128 O   0  0  0  0  0  0  0  0  0  0  0  0
   18.5722   -7.8491    7.1917 C   0  0  0  0  0  0  0  0  0  0  0  0
   17.3964   -7.3587    6.3634 C   0  0  0  0  0  0  0  0  0  0  0  0
   16.2140   -6.3613    7.3143 S   0  0  2  0  0  0  0  0  0  0  0  0
   14.9793   -7.6208    7.7440 C   0  0  0  0  0  0  0  0  0  0  0  0
   15.3233   -5.3487    6.1222 C   0  0  0  0  0  0  0  0  0  0  0  0
   14.5263   -4.2946    6.8667 C   0  0  1  0  0  0  0  0  0  0  0  0
   13.3950   -4.8360    7.5309 O   0  0  0  0  0  0  0  0  0  0  0  0
   15.3663   -3.6044    7.9136 C   0  0  1  0  0  0  0  0  0  0  0  0
   16.0968   -2.5491    7.3576 O   0  0  0  0  0  0  0  0  0  0  0  0
   14.3105   -3.1197    8.8599 C   0  0  1  0  0  0  0  0  0  0  0  0
   13.8485   -1.8530    8.4305 O   0  0  0  0  0  0  0  0  0  0  0  0
   13.2006   -4.1571    8.7500 C   0  0  2  0  0  0  0  0  0  0  0  0
   18.9316   -5.6267    9.5182 O   0  0  0  0  0  0  0  0  0  0  0  0
   15.0298   -5.4065   13.5408 N   0  0  0  0  0  0  0  0  0  0  0  0
   15.3005   -4.2672   12.7969 C   0  0  0  0  0  0  0  0  0  0  0  0
   14.7470   -4.0914   11.5343 N   0  0  0  0  0  0  0  0  0  0  0  0
   13.9233   -5.0332   11.0395 C   0  0  0  0  0  0  0  0  0  0  0  0
   13.6309   -6.1782   11.7859 C   0  0  0  0  0  0  0  0  0  0  0  0
   14.1913   -6.3763   13.0343 C   0  0  0  0  0  0  0  0  0  0  0  0
   13.9198   -7.4682   13.7332 N   0  0  0  0  0  0  0  0  0  0  0  0
   12.7867   -6.9337   11.0749 N   0  0  0  0  0  0  0  0  0  0  0  0
   12.5353   -6.3015    9.9072 C   0  0  0  0  0  0  0  0  0  0  0  0
   13.2286   -5.1174    9.8694 N   0  0  0  0  0  0  0  0  0  0  0  0
  2  1  1  1  0  0  0
  2  3  1  0  0  0  0
  2  5  1  0  0  0  0
  3  4  1  0  0  0  0
  3 17  1  0  0  0  0
  5  6  1  0  0  0  0
  7  6  1  6  0  0  0
  7  8  1  0  0  0  0
  7  9  1  0  0  0  0
 10  9  1  1  0  0  0
 10 11  1  0  0  0  0
 10 12  1  0  0  0  0
 11 16  1  0  0  0  0
 12 13  1  6  0  0  0
 12 14  1  0  0  0  0
 14 15  1  6  0  0  0
 14 16  1  0  0  0  0
 16 27  1  1  0  0  0
 18 19  2  0  0  0  0
 18 23  1  0  0  0  0
 19 20  1  0  0  0  0
 20 21  2  0  0  0  0
 21 22  1  0  0  0  0
 21 27  1  0  0  0  0
 22 23  2  0  0  0  0
 22 25  1  0  0  0  0
 23 24  1  0  0  0  0
 25 26  2  0  0  0  0
 26 27  1  0  0  0  0
M  END
>  <CHROM.1>
139.79054405,-175.38243369,-76.60784144,-96.34871321,-168.52980854,-73.01337213
131.74760284,15.61314238,-5.42902923,9.09235532,-0.57773646,-0.50079639,1.99936987

>  <Name>
ligand

>  <RI>
0

>  <Rbt.Current_Directory>
/home/itssahil/PROJECTS/Mol_Feturizer/Test_systems_manuscript/rnas/2ydh

>  <Rbt.Executable>
rbdock ($Id: //depot/dev/client3/rdock/2013.1/src/exe/rbdock.cxx#4 $)

>  <Rbt.Library>
libRbt.so (2013.1, Build901 2013/11/27)

>  <Rbt.Parameter_File>
/export/apps/rDock/src/rDock_2013.1_src/data/scripts/dock_solv.prm

>  <Rbt.Receptor>
prm/pocket_docking_6.prm

>  <SCORE>
-11.9337

>  <SCORE.INTER>
-11.532

>  <SCORE.INTER.CONST>
1

>  <SCORE.INTER.POLAR>
0

>  <SCORE.INTER.ROT>
7

>  <SCORE.INTER.SOLV>
8.0425

>  <SCORE.INTER.VDW>
-18.6355

>  <SCORE.INTER.norm>
-0.427111

>  <SCORE.INTRA>
-0.401654

>  <SCORE.INTRA.DIHEDRAL>
-1.89362

>  <SCORE.INTRA.DIHEDRAL.0>
9.75037

>  <SCORE.INTRA.POLAR>
0

>  <SCORE.INTRA.POLAR.0>
0

>  <SCORE.INTRA.REPUL>
0

>  <SCORE.INTRA.REPUL.0>
0

>  <SCORE.INTRA.SOLV>
-1.07001

>  <SCORE.INTRA.SOLV.lig_0>
-48.4279

>  <SCORE.INTRA.VDW>
1.08016

>  <SCORE.INTRA.VDW.0>
-4.69037

>  <SCORE.INTRA.norm>
-0.0148761

>  <SCORE.RESTR>
0

>  <SCORE.RESTR.CAVITY>
0

>  <SCORE.RESTR.norm>
0

>  <SCORE.SYSTEM>
0

>  <SCORE.SYSTEM.CONST>
0

>  <SCORE.SYSTEM.DIHEDRAL>
0

>  <SCORE.SYSTEM.SOLV>
0

>  <SCORE.SYSTEM.norm>
0

>  <SCORE.heavy>
27

>  <SCORE.norm>
-0.441987

>  <RMSD>
5.495

$$$$
ligand
 OpenBabel02271912153D
libRbt.so/2013.1/901 2013/11/27
 27 29  0  0  0  0  0  0  0  0999 V2000
   18.4763   -8.1294    8.4142 N   0  0  0  0  0  0  0  0  0  0  0  0
   17.4656   -7.0981    8.0249 C   0  0  2  0  0  0  0  0  0  0  0  0
   16.1836   -7.2266    8.8774 C   0  0  0  0  0  0  0  0  0  0  0  0
   15.4383   -8.2046    8.7650 O   0  0  0  0  0  0  0  0  0  0  0  0
   17.1748   -7.2111    6.5321 C   0  0  0  0  0  0  0  0  0  0  0  0
   16.3764   -6.0535    5.9563 C   0  0  0  0  0  0  0  0  0  0  0  0
   14.6526   -6.0163    6.5254 S   0  0  2  0  0  0  0  0  0  0  0  0
   13.8826   -7.1593    5.3437 C   0  0  0  0  0  0  0  0  0  0  0  0
   13.9779   -4.4287    6.0113 C   0  0  0  0  0  0  0  0  0  0  0  0
   14.1896   -3.4184    7.1227 C   0  0  1  0  0  0  0  0  0  0  0  0
   13.2034   -3.5127    8.1390 O   0  0  0  0  0  0  0  0  0  0  0  0
   15.5311   -3.6035    7.7889 C   0  0  1  0  0  0  0  0  0  0  0  0
   16.5379   -2.9298    7.0894 O   0  0  0  0  0  0  0  0  0  0  0  0
   15.2750   -2.9920    9.1326 C   0  0  1  0  0  0  0  0  0  0  0  0
   15.5275   -1.6013    9.0655 O   0  0  0  0  0  0  0  0  0  0  0  0
   13.7967   -3.2534    9.3903 C   0  0  2  0  0  0  0  0  0  0  0  0
   15.8434   -6.3591    9.7026 O   0  0  0  0  0  0  0  0  0  0  0  0
   12.4868   -8.3357    9.9502 N   0  0  0  0  0  0  0  0  0  0  0  0
   12.5624   -7.6007    8.7760 C   0  0  0  0  0  0  0  0  0  0  0  0
   12.9116   -6.2557    8.7976 N   0  0  0  0  0  0  0  0  0  0  0  0
   13.1974   -5.6684    9.9739 C   0  0  0  0  0  0  0  0  0  0  0  0
   13.1394   -6.4024   11.1619 C   0  0  0  0  0  0  0  0  0  0  0  0
   12.7729   -7.7356   11.1576 C   0  0  0  0  0  0  0  0  0  0  0  0
   12.7088   -8.4242   12.2874 N   0  0  0  0  0  0  0  0  0  0  0  0
   13.4796   -5.5907   12.1692 N   0  0  0  0  0  0  0  0  0  0  0  0
   13.7526   -4.3711   11.6550 C   0  0  0  0  0  0  0  0  0  0  0  0
   13.5874   -4.4014   10.2926 N   0  0  0  0  0  0  0  0  0  0  0  0
  2  1  1  1  0  0  0
  2  3  1  0  0  0  0
  2  5  1  0  0  0  0
  3  4  1  0  0  0  0
  3 17  1  0  0  0  0
  5  6  1  0  0  0  0
  7  6  1  6  0  0  0
  7  8  1  0  0  0  0
  7  9  1  0  0  0  0
 10  9  1  6  0  0  0
 10 11  1  0  0  0  0
 10 12  1  0  0  0  0
 11 16  1  0  0  0  0
 12 13  1  6  0  0  0
 12 14  1  0  0  0  0
 14 15  1  6  0  0  0
 14 16  1  0  0  0  0
 16 27  1  1  0  0  0
 18 19  2  0  0  0  0
 18 23  1  0  0  0  0
 19 20  1  0  0  0  0
 20 21  2  0  0  0  0
 21 22  1  0  0  0  0
 21 27  1  0  0  0  0
 22 23  2  0  0  0  0
 22 25  1  0  0  0  0
 23 24  1  0  0  0  0
 25 26  2  0  0  0  0
 26 27  1  0  0  0  0
M  END
>  <CHROM.1>
-67.90822003,-168.56526238,-69.59723676,-84.68057814,-91.14480769,-81.59629265
15.50476968,14.63879611,-5.68743628,8.65845171,-0.55931803,-0.94990561,2.96882231

>  <Name>
ligand

>  <RI>
0

>  <Rbt.Current_Directory>
/home/itssahil/PROJECTS/Mol_Feturizer/Test_systems_manuscript/rnas/2ydh

>  <Rbt.Executable>
rbdock ($Id: //depot/dev/client3/rdock/2013.1/src/exe/rbdock.cxx#4 $)

>  <Rbt.Library>
libRbt.so (2013.1, Build901 2013/11/27)

>  <Rbt.Parameter_File>
/export/apps/rDock/src/rDock_2013.1_src/data/scripts/dock_solv.prm

>  <Rbt.Receptor>
prm/pocket_docking_5.prm

>  <SCORE>
-14.5641

>  <SCORE.INTER>
-12.1084

>  <SCORE.INTER.CONST>
1

>  <SCORE.INTER.POLAR>
0

>  <SCORE.INTER.ROT>
7

>  <SCORE.INTER.SOLV>
7.56917

>  <SCORE.INTER.VDW>
-18.862

>  <SCORE.INTER.norm>
-0.44846

>  <SCORE.INTRA>
-2.45571

>  <SCORE.INTRA.DIHEDRAL>
-1.96849

>  <SCORE.INTRA.DIHEDRAL.0>
9.75037

>  <SCORE.INTRA.POLAR>
0

>  <SCORE.INTRA.POLAR.0>
0

>  <SCORE.INTRA.REPUL>
0

>  <SCORE.INTRA.REPUL.0>
0

>  <SCORE.INTRA.SOLV>
-0.815726

>  <SCORE.INTRA.SOLV.lig_0>
-48.4279

>  <SCORE.INTRA.VDW>
-1.0636

>  <SCORE.INTRA.VDW.0>
-4.69037

>  <SCORE.INTRA.norm>
-0.0909522

>  <SCORE.RESTR>
0

>  <SCORE.RESTR.CAVITY>
0

>  <SCORE.RESTR.norm>
0

>  <SCORE.SYSTEM>
0

>  <SCORE.SYSTEM.CONST>
0

>  <SCORE.SYSTEM.DIHEDRAL>
0

>  <SCORE.SYSTEM.SOLV>
0

>  <SCORE.SYSTEM.norm>
0

>  <SCORE.heavy>
27

>  <SCORE.norm>
-0.539413

>  <RMSD>
5.522

$$$$
ligand
 OpenBabel02271912153D
libRbt.so/2013.1/901 2013/11/27
 27 29  0  0  0  0  0  0  0  0999 V2000
   16.5844   -3.8292    9.2124 N   0  0  0  0  0  0  0  0  0  0  0  0
   17.4837   -4.9650    9.5839 C   0  0  2  0  0  0  0  0  0  0  0  0
   18.0617   -4.7748   11.0039 C   0  0  0  0  0  0  0  0  0  0  0  0
   18.9932   -3.9919   11.2138 O   0  0  0  0  0  0  0  0  0  0  0  0
   18.5799   -5.1084    8.5335 C   0  0  0  0  0  0  0  0  0  0  0  0
   18.0764   -5.4395    7.1384 C   0  0  0  0  0  0  0  0  0  0  0  0
   17.5086   -7.1558    6.9681 S   0  0  2  0  0  0  0  0  0  0  0  0
   19.0760   -7.9947    6.6006 C   0  0  0  0  0  0  0  0  0  0  0  0
   16.6465   -7.2557    5.3912 C   0  0  0  0  0  0  0  0  0  0  0  0
   15.1511   -7.2185    5.6421 C   0  0  1  0  0  0  0  0  0  0  0  0
   14.6775   -8.3926    6.2834 O   0  0  0  0  0  0  0  0  0  0  0  0
   14.7670   -6.0503    6.5172 C   0  0  1  0  0  0  0  0  0  0  0  0
   14.5908   -4.8888    5.7579 O   0  0  0  0  0  0  0  0  0  0  0  0
   13.4779   -6.5386    7.1043 C   0  0  1  0  0  0  0  0  0  0  0  0
   12.4146   -6.2039    6.2327 O   0  0  0  0  0  0  0  0  0  0  0  0
   13.6476   -8.0504    7.1819 C   0  0  2  0  0  0  0  0  0  0  0  0
   17.6250   -5.3976   11.9891 O   0  0  0  0  0  0  0  0  0  0  0  0
   12.0149   -9.5018   11.9867 N   0  0  0  0  0  0  0  0  0  0  0  0
   11.2370   -9.1301   10.8998 C   0  0  0  0  0  0  0  0  0  0  0  0
   11.8242   -8.7581    9.6963 N   0  0  0  0  0  0  0  0  0  0  0  0
   13.1647   -8.7785    9.5837 C   0  0  0  0  0  0  0  0  0  0  0  0
   13.9584   -9.1657   10.6670 C   0  0  0  0  0  0  0  0  0  0  0  0
   13.3887   -9.5179   11.8767 C   0  0  0  0  0  0  0  0  0  0  0  0
   14.1456   -9.8736   12.9039 N   0  0  0  0  0  0  0  0  0  0  0  0
   15.2391   -9.1107   10.2849 N   0  0  0  0  0  0  0  0  0  0  0  0
   15.2783   -8.7047    8.9966 C   0  0  0  0  0  0  0  0  0  0  0  0
   13.9994   -8.4981    8.5427 N   0  0  0  0  0  0  0  0  0  0  0  0
  2  1  1  6  0  0  0
  2  3  1  0  0  0  0
  2  5  1  0  0  0  0
  3  4  1  0  0  0  0
  3 17  1  0  0  0  0
  5  6  1  0  0  0  0
  7  6  1  6  0  0  0
  7  8  1  0  0  0  0
  7  9  1  0  0  0  0
 10  9  1  1  0  0  0
 10 11  1  0  0  0  0
 10 12  1  0  0  0  0
 11 16  1  0  0  0  0
 12 13  1  6  0  0  0
 12 14  1  0  0  0  0
 14 15  1  6  0  0  0
 14 16  1  0  0  0  0
 16 27  1  1  0  0  0
 18 19  2  0  0  0  0
 18 23  1  0  0  0  0
 19 20  1  0  0  0  0
 20 21  2  0  0  0  0
 21 22  1  0  0  0  0
 21 27  1  0  0  0  0
 22 23  2  0  0  0  0
 22 25  1  0  0  0  0
 23 24  1  0  0  0  0
 25 26  2  0  0  0  0
 26 27  1  0  0  0  0
M  END
>  <CHROM.1>
-77.60064769,-62.24231123,-73.64392367,-85.36098442,-101.25577652,-68.84913197
-155.94623287,15.40757327,-7.13261711,8.67112848,-0.47609184,0.57455767,1.70873572

>  <Name>
ligand

>  <RI>
0

>  <Rbt.Current_Directory>
/home/itssahil/PROJECTS/Mol_Feturizer/Test_systems_manuscript/rnas/2ydh

>  <Rbt.Executable>
rbdock ($Id: //depot/dev/client3/rdock/2013.1/src/exe/rbdock.cxx#4 $)

>  <Rbt.Library>
libRbt.so (2013.1, Build901 2013/11/27)

>  <Rbt.Parameter_File>
/export/apps/rDock/src/rDock_2013.1_src/data/scripts/dock_solv.prm

>  <Rbt.Receptor>
prm/pocket_docking_4.prm

>  <SCORE>
-10.2775

>  <SCORE.INTER>
-10.9468

>  <SCORE.INTER.CONST>
1

>  <SCORE.INTER.POLAR>
0

>  <SCORE.INTER.ROT>
7

>  <SCORE.INTER.SOLV>
10.8917

>  <SCORE.INTER.VDW>
-19.1951

>  <SCORE.INTER.norm>
-0.405437

>  <SCORE.INTRA>
0.669255

>  <SCORE.INTRA.DIHEDRAL>
-2.1247

>  <SCORE.INTRA.DIHEDRAL.0>
9.75037

>  <SCORE.INTRA.POLAR>
0

>  <SCORE.INTRA.POLAR.0>
0

>  <SCORE.INTRA.REPUL>
0

>  <SCORE.INTRA.REPUL.0>
0

>  <SCORE.INTRA.SOLV>
0.495567

>  <SCORE.INTRA.SOLV.lig_0>
-48.4279

>  <SCORE.INTRA.VDW>
1.48382

>  <SCORE.INTRA.VDW.0>
-4.69037

>  <SCORE.INTRA.norm>
0.0247872

>  <SCORE.RESTR>
0

>  <SCORE.RESTR.CAVITY>
0

>  <SCORE.RESTR.norm>
0

>  <SCORE.SYSTEM>
0

>  <SCORE.SYSTEM.CONST>
0

>  <SCORE.SYSTEM.DIHEDRAL>
0

>  <SCORE.SYSTEM.SOLV>
0

>  <SCORE.SYSTEM.norm>
0

>  <SCORE.heavy>
27

>  <SCORE.norm>
-0.38065

>  <RMSD>
5.541

$$$$
ligand
 OpenBabel02271912153D
libRbt.so/2013.1/901 2013/11/27
 27 29  0  0  0  0  0  0  0  0999 V2000
   19.8378   -6.0037    8.8145 N   0  0  0  0  0  0  0  0  0  0  0  0
   18.4857   -5.7787    9.4128 C   0  0  2  0  0  0  0  0  0  0  0  0
   17.5087   -5.1881    8.3720 C   0  0  0  0  0  0  0  0  0  0  0  0
   16.5175   -5.8214    7.9963 O   0  0  0  0  0  0  0  0  0  0  0  0
   18.6177   -4.8889   10.6443 C   0  0  0  0  0  0  0  0  0  0  0  0
   17.5895   -5.1593   11.7301 C   0  0  0  0  0  0  0  0  0  0  0  0
   15.9010   -5.3484   11.0896 S   0  0  2  0  0  0  0  0  0  0  0  0
   15.5983   -3.6808   10.4393 C   0  0  0  0  0  0  0  0  0  0  0  0
   14.8128   -5.3997   12.5224 C   0  0  0  0  0  0  0  0  0  0  0  0
   13.3874   -5.6199   12.0529 C   0  0  1  0  0  0  0  0  0  0  0  0
   13.2130   -5.3100   10.6790 O   0  0  0  0  0  0  0  0  0  0  0  0
   12.9596   -7.0549   12.2411 C   0  0  1  0  0  0  0  0  0  0  0  0
   12.4843   -7.2727   13.5385 O   0  0  0  0  0  0  0  0  0  0  0  0
   11.8715   -7.1702   11.2175 C   0  0  1  0  0  0  0  0  0  0  0  0
   10.6471   -6.7553   11.7927 O   0  0  0  0  0  0  0  0  0  0  0  0
   12.2920   -6.2120   10.1106 C   0  0  2  0  0  0  0  0  0  0  0  0
   17.6754   -4.0632    7.8658 O   0  0  0  0  0  0  0  0  0  0  0  0
   13.4470   -6.2809    4.9608 N   0  0  0  0  0  0  0  0  0  0  0  0
   12.7751   -5.2953    5.6692 C   0  0  0  0  0  0  0  0  0  0  0  0
   12.5352   -5.4336    7.0311 N   0  0  0  0  0  0  0  0  0  0  0  0
   12.9791   -6.5315    7.6698 C   0  0  0  0  0  0  0  0  0  0  0  0
   13.6706   -7.5242    6.9698 C   0  0  0  0  0  0  0  0  0  0  0  0
   13.8977   -7.4098    5.6107 C   0  0  0  0  0  0  0  0  0  0  0  0
   14.5440   -8.3584    4.9497 N   0  0  0  0  0  0  0  0  0  0  0  0
   14.0066   -8.4863    7.8361 N   0  0  0  0  0  0  0  0  0  0  0  0
   13.5526   -8.1315    9.0585 C   0  0  0  0  0  0  0  0  0  0  0  0
   12.9160   -6.9181    8.9756 N   0  0  0  0  0  0  0  0  0  0  0  0
  2  1  1  6  0  0  0
  2  3  1  0  0  0  0
  2  5  1  0  0  0  0
  3  4  1  0  0  0  0
  3 17  1  0  0  0  0
  5  6  1  0  0  0  0
  7  6  1  1  0  0  0
  7  8  1  0  0  0  0
  7  9  1  0  0  0  0
 10  9  1  6  0  0  0
 10 11  1  0  0  0  0
 10 12  1  0  0  0  0
 11 16  1  0  0  0  0
 12 13  1  1  0  0  0
 12 14  1  0  0  0  0
 14 15  1  1  0  0  0
 14 16  1  0  0  0  0
 16 27  1  6  0  0  0
 18 19  2  0  0  0  0
 18 23  1  0  0  0  0
 19 20  1  0  0  0  0
 20 21  2  0  0  0  0
 21 22  1  0  0  0  0
 21 27  1  0  0  0  0
 22 23  2  0  0  0  0
 22 25  1  0  0  0  0
 23 24  1  0  0  0  0
 25 26  2  0  0  0  0
 26 27  1  0  0  0  0
M  END
>  <CHROM.1>
115.26669940,-148.64455692,-45.07531853,-65.09149598,-177.48667575,-18.60168574
-87.15298545,14.66005223,-6.11702818,9.38924211,-0.31212823,0.29847268,1.42832343

>  <Name>
ligand

>  <RI>
0

>  <Rbt.Current_Directory>
/home/itssahil/PROJECTS/Mol_Feturizer/Test_systems_manuscript/rnas/2ydh

>  <Rbt.Executable>
rbdock ($Id: //depot/dev/client3/rdock/2013.1/src/exe/rbdock.cxx#4 $)

>  <Rbt.Library>
libRbt.so (2013.1, Build901 2013/11/27)

>  <Rbt.Parameter_File>
/export/apps/rDock/src/rDock_2013.1_src/data/scripts/dock_solv.prm

>  <Rbt.Receptor>
prm/pocket_docking_4.prm

>  <SCORE>
-7.71078

>  <SCORE.INTER>
-10.6006

>  <SCORE.INTER.CONST>
1

>  <SCORE.INTER.POLAR>
0

>  <SCORE.INTER.ROT>
7

>  <SCORE.INTER.SOLV>
13.4941

>  <SCORE.INTER.VDW>
-19.8318

>  <SCORE.INTER.norm>
-0.392616

>  <SCORE.INTRA>
2.64986

>  <SCORE.INTRA.DIHEDRAL>
1.56765

>  <SCORE.INTRA.DIHEDRAL.0>
9.75037

>  <SCORE.INTRA.POLAR>
0

>  <SCORE.INTRA.POLAR.0>
0

>  <SCORE.INTRA.REPUL>
0

>  <SCORE.INTRA.REPUL.0>
0

>  <SCORE.INTRA.SOLV>
-1.17262

>  <SCORE.INTRA.SOLV.lig_0>
-48.4279

>  <SCORE.INTRA.VDW>
2.45235

>  <SCORE.INTRA.VDW.0>
-4.69037

>  <SCORE.INTRA.norm>
0.0981431

>  <SCORE.RESTR>
0.239995

>  <SCORE.RESTR.CAVITY>
0.239995

>  <SCORE.RESTR.norm>
0.0088887

>  <SCORE.SYSTEM>
0

>  <SCORE.SYSTEM.CONST>
0

>  <SCORE.SYSTEM.DIHEDRAL>
0

>  <SCORE.SYSTEM.SOLV>
0

>  <SCORE.SYSTEM.norm>
0

>  <SCORE.heavy>
27

>  <SCORE.norm>
-0.285585

>  <RMSD>
5.547

$$$$
ligand
 OpenBabel02271912153D
libRbt.so/2013.1/901 2013/11/27
 27 29  0  0  0  0  0  0  0  0999 V2000
   17.9971   -5.9530    9.1747 N   0  0  0  0  0  0  0  0  0  0  0  0
   17.3852   -4.8180    9.9323 C   0  0  2  0  0  0  0  0  0  0  0  0
   17.9996   -4.6971   11.3446 C   0  0  0  0  0  0  0  0  0  0  0  0
   17.4994   -5.2823   12.3100 O   0  0  0  0  0  0  0  0  0  0  0  0
   15.8715   -4.9972    9.9794 C   0  0  0  0  0  0  0  0  0  0  0  0
   15.0844   -3.8907    9.2972 C   0  0  0  0  0  0  0  0  0  0  0  0
   15.1381   -3.9833    7.4846 S   0  0  2  0  0  0  0  0  0  0  0  0
   14.2982   -2.4357    7.0429 C   0  0  0  0  0  0  0  0  0  0  0  0
   13.9273   -5.2235    6.9993 C   0  0  0  0  0  0  0  0  0  0  0  0
   14.6554   -6.4754    6.5484 C   0  0  1  0  0  0  0  0  0  0  0  0
   15.5868   -6.9404    7.5130 O   0  0  0  0  0  0  0  0  0  0  0  0
   13.6935   -7.6070    6.2799 C   0  0  1  0  0  0  0  0  0  0  0  0
   13.1779   -7.5323    4.9818 O   0  0  0  0  0  0  0  0  0  0  0  0
   14.5863   -8.7965    6.4621 C   0  0  1  0  0  0  0  0  0  0  0  0
   15.2306   -9.0855    5.2358 O   0  0  0  0  0  0  0  0  0  0  0  0
   15.6021   -8.3492    7.5053 C   0  0  2  0  0  0  0  0  0  0  0  0
   19.0111   -4.0088   11.5737 O   0  0  0  0  0  0  0  0  0  0  0  0
   11.9012   -9.5264   11.0797 N   0  0  0  0  0  0  0  0  0  0  0  0
   11.7192   -9.0153    9.8029 C   0  0  0  0  0  0  0  0  0  0  0  0
   12.8069   -8.7435    8.9816 N   0  0  0  0  0  0  0  0  0  0  0  0
   14.0498   -8.9989    9.4289 C   0  0  0  0  0  0  0  0  0  0  0  0
   14.2451   -9.5281   10.7077 C   0  0  0  0  0  0  0  0  0  0  0  0
   13.1735   -9.7834   11.5435 C   0  0  0  0  0  0  0  0  0  0  0  0
   13.3643  -10.2747   12.7587 N   0  0  0  0  0  0  0  0  0  0  0  0
   15.5591   -9.6967   10.8918 N   0  0  0  0  0  0  0  0  0  0  0  0
   16.1977   -9.2942    9.7709 C   0  0  0  0  0  0  0  0  0  0  0  0
   15.2764   -8.8621    8.8495 N   0  0  0  0  0  0  0  0  0  0  0  0
  2  1  1  1  0  0  0
  2  3  1  0  0  0  0
  2  5  1  0  0  0  0
  3  4  1  0  0  0  0
  3 17  1  0  0  0  0
  5  6  1  0  0  0  0
  7  6  1  1  0  0  0
  7  8  1  0  0  0  0
  7  9  1  0  0  0  0
 10  9  1  1  0  0  0
 10 11  1  0  0  0  0
 10 12  1  0  0  0  0
 11 16  1  0  0  0  0
 12 13  1  6  0  0  0
 12 14  1  0  0  0  0
 14 15  1  6  0  0  0
 14 16  1  0  0  0  0
 16 27  1  1  0  0  0
 18 19  2  0  0  0  0
 18 23  1  0  0  0  0
 19 20  1  0  0  0  0
 20 21  2  0  0  0  0
 21 22  1  0  0  0  0
 21 27  1  0  0  0  0
 22 23  2  0  0  0  0
 22 25  1  0  0  0  0
 23 24  1  0  0  0  0
 25 26  2  0  0  0  0
 26 27  1  0  0  0  0
M  END
>  <CHROM.1>
-91.16847069,-117.72250734,74.86208359,-173.23214664,-106.69322964,53.12553425
80.39322006,15.04503447,-6.95905875,8.90164347,-0.52677562,0.93511924,2.17885170

>  <Name>
ligand

>  <RI>
0

>  <Rbt.Current_Directory>
/home/itssahil/PROJECTS/Mol_Feturizer/Test_systems_manuscript/rnas/2ydh

>  <Rbt.Executable>
rbdock ($Id: //depot/dev/client3/rdock/2013.1/src/exe/rbdock.cxx#4 $)

>  <Rbt.Library>
libRbt.so (2013.1, Build901 2013/11/27)

>  <Rbt.Parameter_File>
/export/apps/rDock/src/rDock_2013.1_src/data/scripts/dock_solv.prm

>  <Rbt.Receptor>
prm/pocket_docking_4.prm

>  <SCORE>
-9.2849

>  <SCORE.INTER>
-12.3813

>  <SCORE.INTER.CONST>
1

>  <SCORE.INTER.POLAR>
0

>  <SCORE.INTER.ROT>
7

>  <SCORE.INTER.SOLV>
10.8268

>  <SCORE.INTER.VDW>
-20.1298

>  <SCORE.INTER.norm>
-0.458565

>  <SCORE.INTRA>
3.09637

>  <SCORE.INTRA.DIHEDRAL>
3.82146

>  <SCORE.INTRA.DIHEDRAL.0>
9.75037

>  <SCORE.INTRA.POLAR>
0

>  <SCORE.INTRA.POLAR.0>
0

>  <SCORE.INTRA.REPUL>
0

>  <SCORE.INTRA.REPUL.0>
0

>  <SCORE.INTRA.SOLV>
1.27288

>  <SCORE.INTRA.SOLV.lig_0>
-48.4279

>  <SCORE.INTRA.VDW>
0.549204

>  <SCORE.INTRA.VDW.0>
-4.69037

>  <SCORE.INTRA.norm>
0.11468

>  <SCORE.RESTR>
0

>  <SCORE.RESTR.CAVITY>
0

>  <SCORE.RESTR.norm>
0

>  <SCORE.SYSTEM>
0

>  <SCORE.SYSTEM.CONST>
0

>  <SCORE.SYSTEM.DIHEDRAL>
0

>  <SCORE.SYSTEM.SOLV>
0

>  <SCORE.SYSTEM.norm>
0

>  <SCORE.heavy>
27

>  <SCORE.norm>
-0.343885

>  <RMSD>
5.560

$$$$
ligand
 OpenBabel02271912153D
libRbt.so/2013.1/901 2013/11/27
 27 29  0  0  0  0  0  0  0  0999 V2000
   19.6018   -7.0173    8.3282 N   0  0  0  0  0  0  0  0  0  0  0  0
   19.2635   -5.6643    8.8681 C   0  0  2  0  0  0  0  0  0  0  0  0
   19.1748   -5.6875   10.4102 C   0  0  0  0  0  0  0  0  0  0  0  0
   18.5660   -6.5849   11.0007 O   0  0  0  0  0  0  0  0  0  0  0  0
   17.9707   -5.1711    8.2271 C   0  0  0  0  0  0  0  0  0  0  0  0
   17.4232   -3.8844    8.8220 C   0  0  0  0  0  0  0  0  0  0  0  0
   16.6027   -2.8204    7.6007 S   0  0  2  0  0  0  0  0  0  0  0  0
   16.6044   -1.2329    8.4813 C   0  0  0  0  0  0  0  0  0  0  0  0
   14.8586   -3.2648    7.6241 C   0  0  0  0  0  0  0  0  0  0  0  0
   14.6314   -4.4255    6.6745 C   0  0  1  0  0  0  0  0  0  0  0  0
   15.3893   -5.5727    7.0261 O   0  0  0  0  0  0  0  0  0  0  0  0
   13.1813   -4.8431    6.6500 C   0  0  1  0  0  0  0  0  0  0  0  0
   12.4478   -4.0631    5.7498 O   0  0  0  0  0  0  0  0  0  0  0  0
   13.2965   -6.2663    6.1959 C   0  0  1  0  0  0  0  0  0  0  0  0
   13.3057   -6.3030    4.7814 O   0  0  0  0  0  0  0  0  0  0  0  0
   14.6371   -6.7315    6.7498 C   0  0  2  0  0  0  0  0  0  0  0  0
   19.7011   -4.8112   11.1205 O   0  0  0  0  0  0  0  0  0  0  0  0
   12.2042   -7.3990   11.3860 N   0  0  0  0  0  0  0  0  0  0  0  0
   11.9996   -6.3912   10.4549 C   0  0  0  0  0  0  0  0  0  0  0  0
   12.7373   -6.3469    9.2779 N   0  0  0  0  0  0  0  0  0  0  0  0
   13.6476   -7.3074    9.0347 C   0  0  0  0  0  0  0  0  0  0  0  0
   13.8519   -8.3364    9.9583 C   0  0  0  0  0  0  0  0  0  0  0  0
   13.1403   -8.3811   11.1430 C   0  0  0  0  0  0  0  0  0  0  0  0
   13.3453   -9.3523   12.0201 N   0  0  0  0  0  0  0  0  0  0  0  0
   14.7904   -9.1541    9.4688 N   0  0  0  0  0  0  0  0  0  0  0  0
   15.1818   -8.6763    8.2668 C   0  0  0  0  0  0  0  0  0  0  0  0
   14.4796   -7.5325    7.9784 N   0  0  0  0  0  0  0  0  0  0  0  0
  2  1  1  6  0  0  0
  2  3  1  0  0  0  0
  2  5  1  0  0  0  0
  3  4  1  0  0  0  0
  3 17  1  0  0  0  0
  5  6  1  0  0  0  0
  7  6  1  1  0  0  0
  7  8  1  0  0  0  0
  7  9  1  0  0  0  0
 10  9  1  1  0  0  0
 10 11  1  0  0  0  0
 10 12  1  0  0  0  0
 11 16  1  0  0  0  0
 12 13  1  6  0  0  0
 12 14  1  0  0  0  0
 14 15  1  6  0  0  0
 14 16  1  0  0  0  0
 16 27  1  1  0  0  0
 18 19  2  0  0  0  0
 18 23  1  0  0  0  0
 19 20  1  0  0  0  0
 20 21  2  0  0  0  0
 21 22  1  0  0  0  0
 21 27  1  0  0  0  0
 22 23  2  0  0  0  0
 22 25  1  0  0  0  0
 23 24  1  0  0  0  0
 25 26  2  0  0  0  0
 26 27  1  0  0  0  0
M  END
>  <CHROM.1>
-45.56675348,172.56449706,145.80769700,-161.64611000,-86.69137920,59.76940088
76.41243375,15.36884643,-5.83065945,8.55658587,-0.40312805,0.37372808,2.40051431

>  <Name>
ligand

>  <RI>
0

>  <Rbt.Current_Directory>
/home/itssahil/PROJECTS/Mol_Feturizer/Test_systems_manuscript/rnas/2ydh

>  <Rbt.Executable>
rbdock ($Id: //depot/dev/client3/rdock/2013.1/src/exe/rbdock.cxx#4 $)

>  <Rbt.Library>
libRbt.so (2013.1, Build901 2013/11/27)

>  <Rbt.Parameter_File>
/export/apps/rDock/src/rDock_2013.1_src/data/scripts/dock_solv.prm

>  <Rbt.Receptor>
prm/pocket_docking_6.prm

>  <SCORE>
-14.2871

>  <SCORE.INTER>
-14.837

>  <SCORE.INTER.CONST>
1

>  <SCORE.INTER.POLAR>
0

>  <SCORE.INTER.ROT>
7

>  <SCORE.INTER.SOLV>
8.89984

>  <SCORE.INTER.VDW>
-21.1246

>  <SCORE.INTER.norm>
-0.549518

>  <SCORE.INTRA>
0.549933

>  <SCORE.INTRA.DIHEDRAL>
-0.432747

>  <SCORE.INTRA.DIHEDRAL.0>
9.75037

>  <SCORE.INTRA.POLAR>
0

>  <SCORE.INTRA.POLAR.0>
0

>  <SCORE.INTRA.REPUL>
0

>  <SCORE.INTRA.REPUL.0>
0

>  <SCORE.INTRA.SOLV>
-1.32199

>  <SCORE.INTRA.SOLV.lig_0>
-48.4279

>  <SCORE.INTRA.VDW>
1.4273

>  <SCORE.INTRA.VDW.0>
-4.69037

>  <SCORE.INTRA.norm>
0.0203679

>  <SCORE.RESTR>
0

>  <SCORE.RESTR.CAVITY>
0

>  <SCORE.RESTR.norm>
0

>  <SCORE.SYSTEM>
0

>  <SCORE.SYSTEM.CONST>
0

>  <SCORE.SYSTEM.DIHEDRAL>
0

>  <SCORE.SYSTEM.SOLV>
0

>  <SCORE.SYSTEM.norm>
0

>  <SCORE.heavy>
27

>  <SCORE.norm>
-0.52915

>  <RMSD>
5.572

$$$$
ligand
 OpenBabel02271912153D
libRbt.so/2013.1/901 2013/11/27
 27 29  0  0  0  0  0  0  0  0999 V2000
   14.6361   -8.9768    6.0228 N   0  0  0  0  0  0  0  0  0  0  0  0
   15.1903   -8.6086    7.3622 C   0  0  2  0  0  0  0  0  0  0  0  0
   14.0579   -8.3668    8.3848 C   0  0  0  0  0  0  0  0  0  0  0  0
   12.8719   -8.3995    8.0429 O   0  0  0  0  0  0  0  0  0  0  0  0
   16.1010   -7.3939    7.2177 C   0  0  0  0  0  0  0  0  0  0  0  0
   15.6117   -6.3542    6.2234 C   0  0  0  0  0  0  0  0  0  0  0  0
   13.8992   -5.8276    6.5188 S   0  0  2  0  0  0  0  0  0  0  0  0
   13.0351   -6.7401    5.2087 C   0  0  0  0  0  0  0  0  0  0  0  0
   13.7791   -4.1278    5.9392 C   0  0  0  0  0  0  0  0  0  0  0  0
   14.0642   -3.1896    7.0965 C   0  0  1  0  0  0  0  0  0  0  0  0
   13.1310   -3.3331    8.1560 O   0  0  0  0  0  0  0  0  0  0  0  0
   15.4356   -3.4315    7.6783 C   0  0  1  0  0  0  0  0  0  0  0  0
   16.4150   -2.7292    6.9682 O   0  0  0  0  0  0  0  0  0  0  0  0
   15.2595   -2.8996    9.0679 C   0  0  1  0  0  0  0  0  0  0  0  0
   15.5299   -1.5106    9.0711 O   0  0  0  0  0  0  0  0  0  0  0  0
   13.7927   -3.1577    9.3874 C   0  0  2  0  0  0  0  0  0  0  0  0
   14.2850   -8.1253    9.5846 O   0  0  0  0  0  0  0  0  0  0  0  0
   14.9924   -5.7338   13.8352 N   0  0  0  0  0  0  0  0  0  0  0  0
   15.4471   -4.4896   13.4233 C   0  0  0  0  0  0  0  0  0  0  0  0
   15.0453   -3.9499   12.2073 N   0  0  0  0  0  0  0  0  0  0  0  0
   14.1889   -4.6394   11.4317 C   0  0  0  0  0  0  0  0  0  0  0  0
   13.7119   -5.8872   11.8430 C   0  0  0  0  0  0  0  0  0  0  0  0
   14.1199   -6.4457   13.0403 C   0  0  0  0  0  0  0  0  0  0  0  0
   13.6735   -7.6334   13.4207 N   0  0  0  0  0  0  0  0  0  0  0  0
   12.8754   -6.3427   10.9040 N   0  0  0  0  0  0  0  0  0  0  0  0
   12.8074   -5.4225    9.9167 C   0  0  0  0  0  0  0  0  0  0  0  0
   13.6127   -4.3557   10.2291 N   0  0  0  0  0  0  0  0  0  0  0  0
  2  1  1  6  0  0  0
  2  3  1  0  0  0  0
  2  5  1  0  0  0  0
  3  4  1  0  0  0  0
  3 17  1  0  0  0  0
  5  6  1  0  0  0  0
  7  6  1  6  0  0  0
  7  8  1  0  0  0  0
  7  9  1  0  0  0  0
 10  9  1  6  0  0  0
 10 11  1  0  0  0  0
 10 12  1  0  0  0  0
 11 16  1  0  0  0  0
 12 13  1  6  0  0  0
 12 14  1  0  0  0  0
 14 15  1  6  0  0  0
 14 16  1  0  0  0  0
 16 27  1  1  0  0  0
 18 19  2  0  0  0  0
 18 23  1  0  0  0  0
 19 20  1  0  0  0  0
 20 21  2  0  0  0  0
 21 22  1  0  0  0  0
 21 27  1  0  0  0  0
 22 23  2  0  0  0  0
 22 25  1  0  0  0  0
 23 24  1  0  0  0  0
 25 26  2  0  0  0  0
 26 27  1  0  0  0  0
M  END
>  <CHROM.1>
-4.59802235,38.16347156,52.24380569,-103.32975110,-92.11881675,-61.47450497
173.38357401,14.33655856,-5.48996897,8.98396526,1.53165642,-1.40830619,-1.74859859

>  <Name>
ligand

>  <RI>
0

>  <Rbt.Current_Directory>
/home/itssahil/PROJECTS/Mol_Feturizer/Test_systems_manuscript/rnas/2ydh

>  <Rbt.Executable>
rbdock ($Id: //depot/dev/client3/rdock/2013.1/src/exe/rbdock.cxx#4 $)

>  <Rbt.Library>
libRbt.so (2013.1, Build901 2013/11/27)

>  <Rbt.Parameter_File>
/export/apps/rDock/src/rDock_2013.1_src/data/scripts/dock_solv.prm

>  <Rbt.Receptor>
prm/pocket_docking_2.prm

>  <SCORE>
-8.79775

>  <SCORE.INTER>
-12.2274

>  <SCORE.INTER.CONST>
1

>  <SCORE.INTER.POLAR>
0

>  <SCORE.INTER.ROT>
7

>  <SCORE.INTER.SOLV>
12.8526

>  <SCORE.INTER.VDW>
-20.7024

>  <SCORE.INTER.norm>
-0.452866

>  <SCORE.INTRA>
2.09406

>  <SCORE.INTRA.DIHEDRAL>
-0.170801

>  <SCORE.INTRA.DIHEDRAL.0>
9.75037

>  <SCORE.INTRA.POLAR>
0

>  <SCORE.INTRA.POLAR.0>
0

>  <SCORE.INTRA.REPUL>
0

>  <SCORE.INTRA.REPUL.0>
0

>  <SCORE.INTRA.SOLV>
2.21763

>  <SCORE.INTRA.SOLV.lig_0>
-48.4279

>  <SCORE.INTRA.VDW>
1.07064

>  <SCORE.INTRA.VDW.0>
-4.69037

>  <SCORE.INTRA.norm>
0.0775578

>  <SCORE.RESTR>
1.33556

>  <SCORE.RESTR.CAVITY>
1.33556

>  <SCORE.RESTR.norm>
0.0494653

>  <SCORE.SYSTEM>
0

>  <SCORE.SYSTEM.CONST>
0

>  <SCORE.SYSTEM.DIHEDRAL>
0

>  <SCORE.SYSTEM.SOLV>
0

>  <SCORE.SYSTEM.norm>
0

>  <SCORE.heavy>
27

>  <SCORE.norm>
-0.325843

>  <RMSD>
5.602

$$$$
ligand
 OpenBabel02271912153D
libRbt.so/2013.1/901 2013/11/27
 27 29  0  0  0  0  0  0  0  0999 V2000
   18.7905   -4.7615    8.0686 N   0  0  0  0  0  0  0  0  0  0  0  0
   19.1404   -5.8316    9.0530 C   0  0  2  0  0  0  0  0  0  0  0  0
   19.1780   -5.2719   10.4925 C   0  0  0  0  0  0  0  0  0  0  0  0
   20.1342   -4.5998   10.8907 O   0  0  0  0  0  0  0  0  0  0  0  0
   20.4641   -6.4750    8.6536 C   0  0  0  0  0  0  0  0  0  0  0  0
   20.4860   -7.0506    7.2475 C   0  0  0  0  0  0  0  0  0  0  0  0
   19.1260   -8.2095    6.9244 S   0  0  2  0  0  0  0  0  0  0  0  0
   19.5731   -8.8005    5.2671 C   0  0  0  0  0  0  0  0  0  0  0  0
   17.6686   -7.2078    6.5891 C   0  0  0  0  0  0  0  0  0  0  0  0
   16.4366   -8.0902    6.6545 C   0  0  1  0  0  0  0  0  0  0  0  0
   16.3491   -8.8133    7.8726 O   0  0  0  0  0  0  0  0  0  0  0  0
   15.1697   -7.2796    6.5287 C   0  0  1  0  0  0  0  0  0  0  0  0
   14.8450   -7.0577    5.1863 O   0  0  0  0  0  0  0  0  0  0  0  0
   14.1806   -8.1797    7.2044 C   0  0  1  0  0  0  0  0  0  0  0  0
   13.6613   -9.0933    6.2568 O   0  0  0  0  0  0  0  0  0  0  0  0
   14.9982   -8.9136    8.2596 C   0  0  2  0  0  0  0  0  0  0  0  0
   18.2609   -5.4742   11.3094 O   0  0  0  0  0  0  0  0  0  0  0  0
   16.5049   -8.7484   13.3154 N   0  0  0  0  0  0  0  0  0  0  0  0
   17.0267   -9.5329   12.2971 C   0  0  0  0  0  0  0  0  0  0  0  0
   16.5059   -9.4702   11.0101 N   0  0  0  0  0  0  0  0  0  0  0  0
   15.4946   -8.6218   10.7496 C   0  0  0  0  0  0  0  0  0  0  0  0
   14.9706   -7.8153   11.7639 C   0  0  0  0  0  0  0  0  0  0  0  0
   15.4648   -7.8828   13.0535 C   0  0  0  0  0  0  0  0  0  0  0  0
   14.9576   -7.1243   14.0138 N   0  0  0  0  0  0  0  0  0  0  0  0
   13.9960   -7.0658   11.2373 N   0  0  0  0  0  0  0  0  0  0  0  0
   13.8905   -7.3710    9.9252 C   0  0  0  0  0  0  0  0  0  0  0  0
   14.8163   -8.3320    9.6030 N   0  0  0  0  0  0  0  0  0  0  0  0
  2  1  1  6  0  0  0
  2  3  1  0  0  0  0
  2  5  1  0  0  0  0
  3  4  1  0  0  0  0
  3 17  1  0  0  0  0
  5  6  1  0  0  0  0
  7  6  1  6  0  0  0
  7  8  1  0  0  0  0
  7  9  1  0  0  0  0
 10  9  1  1  0  0  0
 10 11  1  0  0  0  0
 10 12  1  0  0  0  0
 11 16  1  0  0  0  0
 12 13  1  6  0  0  0
 12 14  1  0  0  0  0
 14 15  1  6  0  0  0
 14 16  1  0  0  0  0
 16 27  1  1  0  0  0
 18 19  2  0  0  0  0
 18 23  1  0  0  0  0
 19 20  1  0  0  0  0
 20 21  2  0  0  0  0
 21 22  1  0  0  0  0
 21 27  1  0  0  0  0
 22 23  2  0  0  0  0
 22 25  1  0  0  0  0
 23 24  1  0  0  0  0
 25 26  2  0  0  0  0
 26 27  1  0  0  0  0
M  END
>  <CHROM.1>
-76.84013008,-56.58556962,-53.39795855,-174.40954177,-165.95667264,53.56889699
-53.15095176,16.89201539,-7.53452566,9.05225504,-1.08620312,0.38770453,1.43479050

>  <Name>
ligand

>  <RI>
0

>  <Rbt.Current_Directory>
/home/itssahil/PROJECTS/Mol_Feturizer/Test_systems_manuscript/rnas/2ydh

>  <Rbt.Executable>
rbdock ($Id: //depot/dev/client3/rdock/2013.1/src/exe/rbdock.cxx#4 $)

>  <Rbt.Library>
libRbt.so (2013.1, Build901 2013/11/27)

>  <Rbt.Parameter_File>
/export/apps/rDock/src/rDock_2013.1_src/data/scripts/dock_solv.prm

>  <Rbt.Receptor>
prm/pocket_docking_8.prm

>  <SCORE>
-5.5159

>  <SCORE.INTER>
-6.11488

>  <SCORE.INTER.CONST>
1

>  <SCORE.INTER.POLAR>
0

>  <SCORE.INTER.ROT>
7

>  <SCORE.INTER.SOLV>
13.5342

>  <SCORE.INTER.VDW>
-16.8547

>  <SCORE.INTER.norm>
-0.226477

>  <SCORE.INTRA>
0.598984

>  <SCORE.INTRA.DIHEDRAL>
-4.66035

>  <SCORE.INTRA.DIHEDRAL.0>
9.75037

>  <SCORE.INTRA.POLAR>
0

>  <SCORE.INTRA.POLAR.0>
0

>  <SCORE.INTRA.REPUL>
0

>  <SCORE.INTRA.REPUL.0>
0

>  <SCORE.INTRA.SOLV>
1.35374

>  <SCORE.INTRA.SOLV.lig_0>
-48.4279

>  <SCORE.INTRA.VDW>
2.25229

>  <SCORE.INTRA.VDW.0>
-4.69037

>  <SCORE.INTRA.norm>
0.0221846

>  <SCORE.RESTR>
0

>  <SCORE.RESTR.CAVITY>
0

>  <SCORE.RESTR.norm>
0

>  <SCORE.SYSTEM>
0

>  <SCORE.SYSTEM.CONST>
0

>  <SCORE.SYSTEM.DIHEDRAL>
0

>  <SCORE.SYSTEM.SOLV>
0

>  <SCORE.SYSTEM.norm>
0

>  <SCORE.heavy>
27

>  <SCORE.norm>
-0.204292

>  <RMSD>
5.607

$$$$
ligand
 OpenBabel02271912153D
libRbt.so/2013.1/901 2013/11/27
 27 29  0  0  0  0  0  0  0  0999 V2000
   13.5751  -10.5035   13.4198 N   0  0  0  0  0  0  0  0  0  0  0  0
   12.7833   -9.2556   13.6487 C   0  0  2  0  0  0  0  0  0  0  0  0
   11.2667   -9.5495   13.6365 C   0  0  0  0  0  0  0  0  0  0  0  0
   10.8080  -10.5096   13.0099 O   0  0  0  0  0  0  0  0  0  0  0  0
   13.1728   -8.2100   12.6092 C   0  0  0  0  0  0  0  0  0  0  0  0
   12.5081   -6.8565   12.7972 C   0  0  0  0  0  0  0  0  0  0  0  0
   12.9887   -5.6391   11.5386 S   0  0  2  0  0  0  0  0  0  0  0  0
   12.5556   -6.5350   10.0202 C   0  0  0  0  0  0  0  0  0  0  0  0
   14.7877   -5.6445   11.4818 C   0  0  0  0  0  0  0  0  0  0  0  0
   15.2651   -4.3692   10.8138 C   0  0  1  0  0  0  0  0  0  0  0  0
   16.6803   -4.2872   10.7457 O   0  0  0  0  0  0  0  0  0  0  0  0
   14.7465   -4.2586    9.4007 C   0  0  1  0  0  0  0  0  0  0  0  0
   13.4643   -3.7000    9.3771 O   0  0  0  0  0  0  0  0  0  0  0  0
   15.7670   -3.3491    8.7871 C   0  0  1  0  0  0  0  0  0  0  0  0
   15.3830   -2.0051    9.0072 O   0  0  0  0  0  0  0  0  0  0  0  0
   17.0540   -3.6654    9.5380 C   0  0  2  0  0  0  0  0  0  0  0  0
   10.4460   -8.8386   14.2451 O   0  0  0  0  0  0  0  0  0  0  0  0
   21.4526   -6.5786    9.3825 N   0  0  0  0  0  0  0  0  0  0  0  0
   20.9637   -5.8315   10.4444 C   0  0  0  0  0  0  0  0  0  0  0  0
   19.7878   -5.1012   10.3211 N   0  0  0  0  0  0  0  0  0  0  0  0
   19.1086   -5.1378    9.1602 C   0  0  0  0  0  0  0  0  0  0  0  0
   19.5831   -5.8990    8.0883 C   0  0  0  0  0  0  0  0  0  0  0  0
   20.7626   -6.6134    8.1899 C   0  0  0  0  0  0  0  0  0  0  0  0
   21.2139   -7.3246    7.1676 N   0  0  0  0  0  0  0  0  0  0  0  0
   18.7207   -5.7716    7.0739 N   0  0  0  0  0  0  0  0  0  0  0  0
   17.7177   -4.9582    7.4719 C   0  0  0  0  0  0  0  0  0  0  0  0
   17.9389   -4.5585    8.7664 N   0  0  0  0  0  0  0  0  0  0  0  0
  2  1  1  6  0  0  0
  2  3  1  0  0  0  0
  2  5  1  0  0  0  0
  3  4  1  0  0  0  0
  3 17  1  0  0  0  0
  5  6  1  0  0  0  0
  7  6  1  1  0  0  0
  7  8  1  0  0  0  0
  7  9  1  0  0  0  0
 10  9  1  6  0  0  0
 10 11  1  0  0  0  0
 10 12  1  0  0  0  0
 11 16  1  0  0  0  0
 12 13  1  1  0  0  0
 12 14  1  0  0  0  0
 14 15  1  1  0  0  0
 14 16  1  0  0  0  0
 16 27  1  6  0  0  0
 18 19  2  0  0  0  0
 18 23  1  0  0  0  0
 19 20  1  0  0  0  0
 20 21  2  0  0  0  0
 21 22  1  0  0  0  0
 21 27  1  0  0  0  0
 22 23  2  0  0  0  0
 22 25  1  0  0  0  0
 23 24  1  0  0  0  0
 25 26  2  0  0  0  0
 26 27  1  0  0  0  0
M  END
>  <CHROM.1>
-26.38696377,-175.77603584,-179.74770320,55.41861022,-161.51727609,179.19399800
-55.38069151,15.67261194,-6.09010933,10.47793179,-2.60526239,0.33185859,-0.44513378

>  <Name>
ligand

>  <RI>
0

>  <Rbt.Current_Directory>
/home/itssahil/PROJECTS/Mol_Feturizer/Test_systems_manuscript/rnas/2ydh

>  <Rbt.Executable>
rbdock ($Id: //depot/dev/client3/rdock/2013.1/src/exe/rbdock.cxx#4 $)

>  <Rbt.Library>
libRbt.so (2013.1, Build901 2013/11/27)

>  <Rbt.Parameter_File>
/export/apps/rDock/src/rDock_2013.1_src/data/scripts/dock_solv.prm

>  <Rbt.Receptor>
prm/pocket_docking_7.prm

>  <SCORE>
-8.08954

>  <SCORE.INTER>
-9.17569

>  <SCORE.INTER.CONST>
1

>  <SCORE.INTER.POLAR>
0

>  <SCORE.INTER.ROT>
7

>  <SCORE.INTER.SOLV>
11.3512

>  <SCORE.INTER.VDW>
-18.1675

>  <SCORE.INTER.norm>
-0.33984

>  <SCORE.INTRA>
1.08615

>  <SCORE.INTRA.DIHEDRAL>
-4.92387

>  <SCORE.INTRA.DIHEDRAL.0>
9.75037

>  <SCORE.INTRA.POLAR>
0

>  <SCORE.INTRA.POLAR.0>
0

>  <SCORE.INTRA.REPUL>
0

>  <SCORE.INTRA.REPUL.0>
0

>  <SCORE.INTRA.SOLV>
-1.15612

>  <SCORE.INTRA.SOLV.lig_0>
-48.4279

>  <SCORE.INTRA.VDW>
4.12615

>  <SCORE.INTRA.VDW.0>
-4.69037

>  <SCORE.INTRA.norm>
0.0402277

>  <SCORE.RESTR>
0

>  <SCORE.RESTR.CAVITY>
0

>  <SCORE.RESTR.norm>
0

>  <SCORE.SYSTEM>
0

>  <SCORE.SYSTEM.CONST>
0

>  <SCORE.SYSTEM.DIHEDRAL>
0

>  <SCORE.SYSTEM.SOLV>
0

>  <SCORE.SYSTEM.norm>
0

>  <SCORE.heavy>
27

>  <SCORE.norm>
-0.299613

>  <RMSD>
5.619

$$$$
ligand
 OpenBabel02271912153D
libRbt.so/2013.1/901 2013/11/27
 27 29  0  0  0  0  0  0  0  0999 V2000
   13.2891   -6.7779    6.4776 N   0  0  0  0  0  0  0  0  0  0  0  0
   14.3732   -7.0116    5.4742 C   0  0  2  0  0  0  0  0  0  0  0  0
   13.8016   -7.6006    4.1654 C   0  0  0  0  0  0  0  0  0  0  0  0
   12.5835   -7.6651    3.9735 O   0  0  0  0  0  0  0  0  0  0  0  0
   15.4454   -7.9074    6.0853 C   0  0  0  0  0  0  0  0  0  0  0  0
   15.0058   -8.6552    7.3330 C   0  0  0  0  0  0  0  0  0  0  0  0
   14.9418   -7.6065    8.8139 S   0  0  2  0  0  0  0  0  0  0  0  0
   16.6951   -7.1721    8.9956 C   0  0  0  0  0  0  0  0  0  0  0  0
   14.6780   -8.7098   10.2115 C   0  0  0  0  0  0  0  0  0  0  0  0
   14.6771   -7.8954   11.4910 C   0  0  1  0  0  0  0  0  0  0  0  0
   15.8848   -7.1738   11.6777 O   0  0  0  0  0  0  0  0  0  0  0  0
   13.5530   -6.8883   11.5036 C   0  0  1  0  0  0  0  0  0  0  0  0
   12.3643   -7.4662   11.9614 O   0  0  0  0  0  0  0  0  0  0  0  0
   14.0875   -5.8684   12.4623 C   0  0  1  0  0  0  0  0  0  0  0  0
   13.7354   -6.2415   13.7810 O   0  0  0  0  0  0  0  0  0  0  0  0
   15.5980   -5.9310   12.2761 C   0  0  2  0  0  0  0  0  0  0  0  0
   14.5322   -8.0369    3.2570 O   0  0  0  0  0  0  0  0  0  0  0  0
   14.5592   -2.2760    8.6127 N   0  0  0  0  0  0  0  0  0  0  0  0
   13.6775   -3.1802    9.1868 C   0  0  0  0  0  0  0  0  0  0  0  0
   14.1132   -4.0967   10.1363 N   0  0  0  0  0  0  0  0  0  0  0  0
   15.4045   -4.0901   10.5139 C   0  0  0  0  0  0  0  0  0  0  0  0
   16.2992   -3.1739    9.9537 C   0  0  0  0  0  0  0  0  0  0  0  0
   15.8842   -2.2706    8.9926 C   0  0  0  0  0  0  0  0  0  0  0  0
   16.7382   -1.4115    8.4567 N   0  0  0  0  0  0  0  0  0  0  0  0
   17.4997   -3.3724   10.5089 N   0  0  0  0  0  0  0  0  0  0  0  0
   17.3906   -4.3809   11.4018 C   0  0  0  0  0  0  0  0  0  0  0  0
   16.0956   -4.8359   11.4222 N   0  0  0  0  0  0  0  0  0  0  0  0
  2  1  1  1  0  0  0
  2  3  1  0  0  0  0
  2  5  1  0  0  0  0
  3  4  1  0  0  0  0
  3 17  1  0  0  0  0
  5  6  1  0  0  0  0
  7  6  1  6  0  0  0
  7  8  1  0  0  0  0
  7  9  1  0  0  0  0
 10  9  1  6  0  0  0
 10 11  1  0  0  0  0
 10 12  1  0  0  0  0
 11 16  1  0  0  0  0
 12 13  1  1  0  0  0
 12 14  1  0  0  0  0
 14 15  1  1  0  0  0
 14 16  1  0  0  0  0
 16 27  1  6  0  0  0
 18 19  2  0  0  0  0
 18 23  1  0  0  0  0
 19 20  1  0  0  0  0
 20 21  2  0  0  0  0
 21 22  1  0  0  0  0
 21 27  1  0  0  0  0
 22 23  2  0  0  0  0
 22 25  1  0  0  0  0
 23 24  1  0  0  0  0
 25 26  2  0  0  0  0
 26 27  1  0  0  0  0
M  END
>  <CHROM.1>
9.25878376,16.78735714,-76.06569353,-64.50036360,177.49838496,-58.27127164
97.13092164,14.89087985,-6.00563576,9.18735637,2.08653122,-1.23002413,-1.48043304

>  <Name>
ligand

>  <RI>
0

>  <Rbt.Current_Directory>
/home/itssahil/PROJECTS/Mol_Feturizer/Test_systems_manuscript/rnas/2ydh

>  <Rbt.Executable>
rbdock ($Id: //depot/dev/client3/rdock/2013.1/src/exe/rbdock.cxx#4 $)

>  <Rbt.Library>
libRbt.so (2013.1, Build901 2013/11/27)

>  <Rbt.Parameter_File>
/export/apps/rDock/src/rDock_2013.1_src/data/scripts/dock_solv.prm

>  <Rbt.Receptor>
prm/pocket_docking_3.prm

>  <SCORE>
-4.04845

>  <SCORE.INTER>
-7.76663

>  <SCORE.INTER.CONST>
1

>  <SCORE.INTER.POLAR>
0

>  <SCORE.INTER.ROT>
7

>  <SCORE.INTER.SOLV>
15.6744

>  <SCORE.INTER.VDW>
-18.6692

>  <SCORE.INTER.norm>
-0.287653

>  <SCORE.INTRA>
3.69063

>  <SCORE.INTRA.DIHEDRAL>
-0.945804

>  <SCORE.INTRA.DIHEDRAL.0>
9.75037

>  <SCORE.INTRA.POLAR>
0

>  <SCORE.INTRA.POLAR.0>
0

>  <SCORE.INTRA.REPUL>
0

>  <SCORE.INTRA.REPUL.0>
0

>  <SCORE.INTRA.SOLV>
1.52802

>  <SCORE.INTRA.SOLV.lig_0>
-48.4279

>  <SCORE.INTRA.VDW>
3.39952

>  <SCORE.INTRA.VDW.0>
-4.69037

>  <SCORE.INTRA.norm>
0.13669

>  <SCORE.RESTR>
0.0275512

>  <SCORE.RESTR.CAVITY>
0.0275512

>  <SCORE.RESTR.norm>
0.00102041

>  <SCORE.SYSTEM>
0

>  <SCORE.SYSTEM.CONST>
0

>  <SCORE.SYSTEM.DIHEDRAL>
0

>  <SCORE.SYSTEM.SOLV>
0

>  <SCORE.SYSTEM.norm>
0

>  <SCORE.heavy>
27

>  <SCORE.norm>
-0.149943

>  <RMSD>
5.642

$$$$
ligand
 OpenBabel02271912153D
libRbt.so/2013.1/901 2013/11/27
 27 29  0  0  0  0  0  0  0  0999 V2000
   14.9378   -8.9989    9.6799 N   0  0  0  0  0  0  0  0  0  0  0  0
   13.9070   -7.9223    9.5571 C   0  0  2  0  0  0  0  0  0  0  0  0
   12.4814   -8.4978    9.7090 C   0  0  0  0  0  0  0  0  0  0  0  0
   11.7232   -8.0973   10.5975 O   0  0  0  0  0  0  0  0  0  0  0  0
   14.0918   -7.1921    8.2311 C   0  0  0  0  0  0  0  0  0  0  0  0
   13.1073   -6.0593    7.9930 C   0  0  0  0  0  0  0  0  0  0  0  0
   13.4704   -5.0941    6.4985 S   0  0  2  0  0  0  0  0  0  0  0  0
   13.4357   -6.3994    5.2373 C   0  0  0  0  0  0  0  0  0  0  0  0
   15.2210   -4.6813    6.5685 C   0  0  0  0  0  0  0  0  0  0  0  0
   15.4046   -3.4521    7.4379 C   0  0  1  0  0  0  0  0  0  0  0  0
   14.5994   -3.4865    8.6061 O   0  0  0  0  0  0  0  0  0  0  0  0
   16.8367   -3.3054    7.8913 C   0  0  1  0  0  0  0  0  0  0  0  0
   17.6048   -2.6439    6.9274 O   0  0  0  0  0  0  0  0  0  0  0  0
   16.6656   -2.4850    9.1333 C   0  0  1  0  0  0  0  0  0  0  0  0
   16.6605   -1.1131    8.7864 O   0  0  0  0  0  0  0  0  0  0  0  0
   15.3051   -2.9023    9.6765 C   0  0  2  0  0  0  0  0  0  0  0  0
   12.0378   -9.3845    8.9564 O   0  0  0  0  0  0  0  0  0  0  0  0
   12.9954   -6.5434   12.7207 N   0  0  0  0  0  0  0  0  0  0  0  0
   12.4292   -5.8193   11.6816 C   0  0  0  0  0  0  0  0  0  0  0  0
   13.1730   -4.8783   10.9795 N   0  0  0  0  0  0  0  0  0  0  0  0
   14.4643   -4.6846   11.3039 C   0  0  0  0  0  0  0  0  0  0  0  0
   15.0501   -5.4189   12.3389 C   0  0  0  0  0  0  0  0  0  0  0  0
   14.3163   -6.3429   13.0598 C   0  0  0  0  0  0  0  0  0  0  0  0
   14.8729   -7.0286   14.0469 N   0  0  0  0  0  0  0  0  0  0  0  0
   16.3300   -5.0445   12.4417 N   0  0  0  0  0  0  0  0  0  0  0  0
   16.5707   -4.1012   11.5044 C   0  0  0  0  0  0  0  0  0  0  0  0
   15.4250   -3.8681   10.7851 N   0  0  0  0  0  0  0  0  0  0  0  0
  2  1  1  6  0  0  0
  2  3  1  0  0  0  0
  2  5  1  0  0  0  0
  3  4  1  0  0  0  0
  3 17  1  0  0  0  0
  5  6  1  0  0  0  0
  7  6  1  1  0  0  0
  7  8  1  0  0  0  0
  7  9  1  0  0  0  0
 10  9  1  1  0  0  0
 10 11  1  0  0  0  0
 10 12  1  0  0  0  0
 11 16  1  0  0  0  0
 12 13  1  6  0  0  0
 12 14  1  0  0  0  0
 14 15  1  6  0  0  0
 14 16  1  0  0  0  0
 16 27  1  1  0  0  0
 18 19  2  0  0  0  0
 18 23  1  0  0  0  0
 19 20  1  0  0  0  0
 20 21  2  0  0  0  0
 21 22  1  0  0  0  0
 21 27  1  0  0  0  0
 22 23  2  0  0  0  0
 22 25  1  0  0  0  0
 23 24  1  0  0  0  0
 25 26  2  0  0  0  0
 26 27  1  0  0  0  0
M  END
>  <CHROM.1>
121.02428921,-179.41811372,173.51034951,57.24657026,-83.06290784,41.85407112
-44.77296994,14.50259681,-5.36916029,9.48628036,2.45985902,0.95286201,1.74065283

>  <Name>
ligand

>  <RI>
0

>  <Rbt.Current_Directory>
/home/itssahil/PROJECTS/Mol_Feturizer/Test_systems_manuscript/rnas/2ydh

>  <Rbt.Executable>
rbdock ($Id: //depot/dev/client3/rdock/2013.1/src/exe/rbdock.cxx#4 $)

>  <Rbt.Library>
libRbt.so (2013.1, Build901 2013/11/27)

>  <Rbt.Parameter_File>
/export/apps/rDock/src/rDock_2013.1_src/data/scripts/dock_solv.prm

>  <Rbt.Receptor>
prm/pocket_docking_2.prm

>  <SCORE>
-13.4991

>  <SCORE.INTER>
-13.1968

>  <SCORE.INTER.CONST>
1

>  <SCORE.INTER.POLAR>
0

>  <SCORE.INTER.ROT>
7

>  <SCORE.INTER.SOLV>
13.2222

>  <SCORE.INTER.VDW>
-21.472

>  <SCORE.INTER.norm>
-0.488772

>  <SCORE.INTRA>
-1.63661

>  <SCORE.INTRA.DIHEDRAL>
-4.72479

>  <SCORE.INTRA.DIHEDRAL.0>
9.75037

>  <SCORE.INTRA.POLAR>
0

>  <SCORE.INTRA.POLAR.0>
0

>  <SCORE.INTRA.REPUL>
0

>  <SCORE.INTRA.REPUL.0>
0

>  <SCORE.INTRA.SOLV>
-1.32978

>  <SCORE.INTRA.SOLV.lig_0>
-48.4279

>  <SCORE.INTRA.VDW>
1.39068

>  <SCORE.INTRA.VDW.0>
-4.69037

>  <SCORE.INTRA.norm>
-0.0606151

>  <SCORE.RESTR>
1.33431

>  <SCORE.RESTR.CAVITY>
1.33431

>  <SCORE.RESTR.norm>
0.0494188

>  <SCORE.SYSTEM>
0

>  <SCORE.SYSTEM.CONST>
0

>  <SCORE.SYSTEM.DIHEDRAL>
0

>  <SCORE.SYSTEM.SOLV>
0

>  <SCORE.SYSTEM.norm>
0

>  <SCORE.heavy>
27

>  <SCORE.norm>
-0.499968

>  <RMSD>
5.670

$$$$
ligand
 OpenBabel02271912153D
libRbt.so/2013.1/901 2013/11/27
 27 29  0  0  0  0  0  0  0  0999 V2000
   19.5334   -6.4810    7.9859 N   0  0  0  0  0  0  0  0  0  0  0  0
   18.7064   -5.3143    8.4233 C   0  0  2  0  0  0  0  0  0  0  0  0
   18.1988   -5.5040    9.8701 C   0  0  0  0  0  0  0  0  0  0  0  0
   18.4252   -4.6590   10.7414 O   0  0  0  0  0  0  0  0  0  0  0  0
   17.5619   -5.1057    7.4373 C   0  0  0  0  0  0  0  0  0  0  0  0
   16.5400   -4.0671    7.8685 C   0  0  0  0  0  0  0  0  0  0  0  0
   15.1900   -3.8483    6.6740 S   0  0  2  0  0  0  0  0  0  0  0  0
   14.3247   -2.4270    7.3997 C   0  0  0  0  0  0  0  0  0  0  0  0
   14.0260   -5.1899    6.9657 C   0  0  0  0  0  0  0  0  0  0  0  0
   14.6673   -6.5000    6.5500 C   0  0  1  0  0  0  0  0  0  0  0  0
   15.5081   -7.0385    7.5587 O   0  0  0  0  0  0  0  0  0  0  0  0
   13.6280   -7.5477    6.2338 C   0  0  1  0  0  0  0  0  0  0  0  0
   13.1845   -7.4342    4.9120 O   0  0  0  0  0  0  0  0  0  0  0  0
   14.4076   -8.8074    6.4585 C   0  0  1  0  0  0  0  0  0  0  0  0
   15.0844   -9.1536    5.2651 O   0  0  0  0  0  0  0  0  0  0  0  0
   15.4052   -8.4436    7.5507 C   0  0  2  0  0  0  0  0  0  0  0  0
   17.5511   -6.5070   10.2220 O   0  0  0  0  0  0  0  0  0  0  0  0
   12.0081   -8.0494   11.5710 N   0  0  0  0  0  0  0  0  0  0  0  0
   12.0254   -7.3119   10.3960 C   0  0  0  0  0  0  0  0  0  0  0  0
   13.0034   -7.5281    9.4325 N   0  0  0  0  0  0  0  0  0  0  0  0
   13.9321   -8.4795    9.6388 C   0  0  0  0  0  0  0  0  0  0  0  0
   13.9159   -9.2393   10.8119 C   0  0  0  0  0  0  0  0  0  0  0  0
   12.9617   -9.0205   11.7884 C   0  0  0  0  0  0  0  0  0  0  0  0
   12.9570   -9.7358   12.9033 N   0  0  0  0  0  0  0  0  0  0  0  0
   14.9280  -10.1120   10.7560 N   0  0  0  0  0  0  0  0  0  0  0  0
   15.5791   -9.9293    9.5861 C   0  0  0  0  0  0  0  0  0  0  0  0
   14.9721   -8.9228    8.8769 N   0  0  0  0  0  0  0  0  0  0  0  0
  2  1  1  6  0  0  0
  2  3  1  0  0  0  0
  2  5  1  0  0  0  0
  3  4  1  0  0  0  0
  3 17  1  0  0  0  0
  5  6  1  0  0  0  0
  7  6  1  1  0  0  0
  7  8  1  0  0  0  0
  7  9  1  0  0  0  0
 10  9  1  1  0  0  0
 10 11  1  0  0  0  0
 10 12  1  0  0  0  0
 11 16  1  0  0  0  0
 12 13  1  6  0  0  0
 12 14  1  0  0  0  0
 14 15  1  6  0  0  0
 14 16  1  0  0  0  0
 16 27  1  1  0  0  0
 18 19  2  0  0  0  0
 18 23  1  0  0  0  0
 19 20  1  0  0  0  0
 20 21  2  0  0  0  0
 21 22  1  0  0  0  0
 21 27  1  0  0  0  0
 22 23  2  0  0  0  0
 22 25  1  0  0  0  0
 23 24  1  0  0  0  0
 25 26  2  0  0  0  0
 26 27  1  0  0  0  0
M  END
>  <CHROM.1>
124.54917043,172.20743045,-179.83215395,-172.98604382,-68.59052164,82.75556824
49.06356124,15.15988720,-6.91890550,8.51188857,-0.90262262,0.62964570,2.08135483

>  <Name>
ligand

>  <RI>
0

>  <Rbt.Current_Directory>
/home/itssahil/PROJECTS/Mol_Feturizer/Test_systems_manuscript/rnas/2ydh

>  <Rbt.Executable>
rbdock ($Id: //depot/dev/client3/rdock/2013.1/src/exe/rbdock.cxx#4 $)

>  <Rbt.Library>
libRbt.so (2013.1, Build901 2013/11/27)

>  <Rbt.Parameter_File>
/export/apps/rDock/src/rDock_2013.1_src/data/scripts/dock_solv.prm

>  <Rbt.Receptor>
prm/pocket_docking_4.prm

>  <SCORE>
-13.1706

>  <SCORE.INTER>
-11.4607

>  <SCORE.INTER.CONST>
1

>  <SCORE.INTER.POLAR>
0

>  <SCORE.INTER.ROT>
7

>  <SCORE.INTER.SOLV>
8.83206

>  <SCORE.INTER.VDW>
-18.8511

>  <SCORE.INTER.norm>
-0.42447

>  <SCORE.INTRA>
-1.70992

>  <SCORE.INTRA.DIHEDRAL>
-4.24441

>  <SCORE.INTRA.DIHEDRAL.0>
9.75037

>  <SCORE.INTRA.POLAR>
0

>  <SCORE.INTRA.POLAR.0>
0

>  <SCORE.INTRA.REPUL>
0

>  <SCORE.INTRA.REPUL.0>
0

>  <SCORE.INTRA.SOLV>
-1.06918

>  <SCORE.INTRA.SOLV.lig_0>
-48.4279

>  <SCORE.INTRA.VDW>
0.946873

>  <SCORE.INTRA.VDW.0>
-4.69037

>  <SCORE.INTRA.norm>
-0.0633304

>  <SCORE.RESTR>
0

>  <SCORE.RESTR.CAVITY>
0

>  <SCORE.RESTR.norm>
0

>  <SCORE.SYSTEM>
0

>  <SCORE.SYSTEM.CONST>
0

>  <SCORE.SYSTEM.DIHEDRAL>
0

>  <SCORE.SYSTEM.SOLV>
0

>  <SCORE.SYSTEM.norm>
0

>  <SCORE.heavy>
27

>  <SCORE.norm>
-0.4878

>  <RMSD>
5.682

$$$$
ligand
 OpenBabel02271912153D
libRbt.so/2013.1/901 2013/11/27
 27 29  0  0  0  0  0  0  0  0999 V2000
   18.3446   -4.9066   10.1524 N   0  0  0  0  0  0  0  0  0  0  0  0
   18.0083   -5.9183    9.1036 C   0  0  2  0  0  0  0  0  0  0  0  0
   19.2536   -6.7415    8.7058 C   0  0  0  0  0  0  0  0  0  0  0  0
   19.1812   -7.9609    8.5252 O   0  0  0  0  0  0  0  0  0  0  0  0
   17.3786   -5.2163    7.9051 C   0  0  0  0  0  0  0  0  0  0  0  0
   16.1128   -4.4385    8.2240 C   0  0  0  0  0  0  0  0  0  0  0  0
   15.2710   -3.7997    6.7475 S   0  0  2  0  0  0  0  0  0  0  0  0
   14.3901   -2.3766    7.4507 C   0  0  0  0  0  0  0  0  0  0  0  0
   13.9249   -4.9405    6.3918 C   0  0  0  0  0  0  0  0  0  0  0  0
   14.5024   -6.3151    6.1136 C   0  0  1  0  0  0  0  0  0  0  0  0
   15.1141   -6.8902    7.2578 O   0  0  0  0  0  0  0  0  0  0  0  0
   13.4368   -7.2782    5.6500 C   0  0  1  0  0  0  0  0  0  0  0  0
   13.2272   -7.1717    4.2710 O   0  0  0  0  0  0  0  0  0  0  0  0
   14.0501   -8.5927    6.0251 C   0  0  1  0  0  0  0  0  0  0  0  0
   14.8780   -9.0375    4.9672 O   0  0  0  0  0  0  0  0  0  0  0  0
   14.8853   -8.2804    7.2601 C   0  0  2  0  0  0  0  0  0  0  0  0
   20.3748   -6.2221    8.5559 O   0  0  0  0  0  0  0  0  0  0  0  0
   15.2657   -9.9248   12.2611 N   0  0  0  0  0  0  0  0  0  0  0  0
   16.2970   -9.6475   11.3756 C   0  0  0  0  0  0  0  0  0  0  0  0
   16.0296   -9.2334   10.0762 N   0  0  0  0  0  0  0  0  0  0  0  0
   14.7518   -9.0831    9.6828 C   0  0  0  0  0  0  0  0  0  0  0  0
   13.7044   -9.3448   10.5706 C   0  0  0  0  0  0  0  0  0  0  0  0
   13.9554   -9.7779   11.8595 C   0  0  0  0  0  0  0  0  0  0  0  0
   12.9591  -10.0351   12.6937 N   0  0  0  0  0  0  0  0  0  0  0  0
   12.5517   -9.1051    9.9358 N   0  0  0  0  0  0  0  0  0  0  0  0
   12.8380   -8.6986    8.6793 C   0  0  0  0  0  0  0  0  0  0  0  0
   14.1995   -8.6741    8.5053 N   0  0  0  0  0  0  0  0  0  0  0  0
  2  1  1  1  0  0  0
  2  3  1  0  0  0  0
  2  5  1  0  0  0  0
  3  4  1  0  0  0  0
  3 17  1  0  0  0  0
  5  6  1  0  0  0  0
  7  6  1  1  0  0  0
  7  8  1  0  0  0  0
  7  9  1  0  0  0  0
 10  9  1  1  0  0  0
 10 11  1  0  0  0  0
 10 12  1  0  0  0  0
 11 16  1  0  0  0  0
 12 13  1  6  0  0  0
 12 14  1  0  0  0  0
 14 15  1  6  0  0  0
 14 16  1  0  0  0  0
 16 27  1  1  0  0  0
 18 19  2  0  0  0  0
 18 23  1  0  0  0  0
 19 20  1  0  0  0  0
 20 21  2  0  0  0  0
 21 22  1  0  0  0  0
 21 27  1  0  0  0  0
 22 23  2  0  0  0  0
 22 25  1  0  0  0  0
 23 24  1  0  0  0  0
 25 26  2  0  0  0  0
 26 27  1  0  0  0  0
M  END
>  <CHROM.1>
138.45235095,-58.84168933,-172.40748880,-154.31497982,-61.03507934,66.37749123
-91.58288916,15.40166645,-7.17062776,8.32127343,-1.32340822,0.48907536,2.30156199

>  <Name>
ligand

>  <RI>
0

>  <Rbt.Current_Directory>
/home/itssahil/PROJECTS/Mol_Feturizer/Test_systems_manuscript/rnas/2ydh

>  <Rbt.Executable>
rbdock ($Id: //depot/dev/client3/rdock/2013.1/src/exe/rbdock.cxx#4 $)

>  <Rbt.Library>
libRbt.so (2013.1, Build901 2013/11/27)

>  <Rbt.Parameter_File>
/export/apps/rDock/src/rDock_2013.1_src/data/scripts/dock_solv.prm

>  <Rbt.Receptor>
prm/pocket_docking_6.prm

>  <SCORE>
-12.3966

>  <SCORE.INTER>
-12.3208

>  <SCORE.INTER.CONST>
1

>  <SCORE.INTER.POLAR>
0

>  <SCORE.INTER.ROT>
7

>  <SCORE.INTER.SOLV>
10.221

>  <SCORE.INTER.VDW>
-19.8876

>  <SCORE.INTER.norm>
-0.456327

>  <SCORE.INTRA>
-0.0757603

>  <SCORE.INTRA.DIHEDRAL>
-3.68474

>  <SCORE.INTRA.DIHEDRAL.0>
9.75037

>  <SCORE.INTRA.POLAR>
0

>  <SCORE.INTRA.POLAR.0>
0

>  <SCORE.INTRA.REPUL>
0

>  <SCORE.INTRA.REPUL.0>
0

>  <SCORE.INTRA.SOLV>
-0.537944

>  <SCORE.INTRA.SOLV.lig_0>
-48.4279

>  <SCORE.INTRA.VDW>
2.03558

>  <SCORE.INTRA.VDW.0>
-4.69037

>  <SCORE.INTRA.norm>
-0.00280594

>  <SCORE.RESTR>
0

>  <SCORE.RESTR.CAVITY>
0

>  <SCORE.RESTR.norm>
0

>  <SCORE.SYSTEM>
0

>  <SCORE.SYSTEM.CONST>
0

>  <SCORE.SYSTEM.DIHEDRAL>
0

>  <SCORE.SYSTEM.SOLV>
0

>  <SCORE.SYSTEM.norm>
0

>  <SCORE.heavy>
27

>  <SCORE.norm>
-0.459133

>  <RMSD>
5.693

$$$$
ligand
 OpenBabel02271912153D
libRbt.so/2013.1/901 2013/11/27
 27 29  0  0  0  0  0  0  0  0999 V2000
   14.6418   -8.8748   10.1279 N   0  0  0  0  0  0  0  0  0  0  0  0
   13.5392   -7.9323    9.7640 C   0  0  2  0  0  0  0  0  0  0  0  0
   12.1711   -8.6499    9.7662 C   0  0  0  0  0  0  0  0  0  0  0  0
   11.8707   -9.4533    8.8780 O   0  0  0  0  0  0  0  0  0  0  0  0
   13.8464   -7.2887    8.4160 C   0  0  0  0  0  0  0  0  0  0  0  0
   12.9007   -6.1658    8.0237 C   0  0  0  0  0  0  0  0  0  0  0  0
   13.4240   -5.2744    6.5308 S   0  0  2  0  0  0  0  0  0  0  0  0
   13.4227   -6.6226    5.3152 C   0  0  0  0  0  0  0  0  0  0  0  0
   15.1821   -4.9401    6.7240 C   0  0  0  0  0  0  0  0  0  0  0  0
   15.3583   -3.6973    7.5755 C   0  0  1  0  0  0  0  0  0  0  0  0
   14.5325   -3.7067    8.7296 O   0  0  0  0  0  0  0  0  0  0  0  0
   16.7831   -3.5517    8.0515 C   0  0  1  0  0  0  0  0  0  0  0  0
   17.5723   -2.9115    7.0903 O   0  0  0  0  0  0  0  0  0  0  0  0
   16.5955   -2.7090    9.2762 C   0  0  1  0  0  0  0  0  0  0  0  0
   16.6053   -1.3434    8.9060 O   0  0  0  0  0  0  0  0  0  0  0  0
   15.2230   -3.1087    9.8023 C   0  0  2  0  0  0  0  0  0  0  0  0
   11.3163   -8.4505   10.6489 O   0  0  0  0  0  0  0  0  0  0  0  0
   12.8227   -6.6439   12.9006 N   0  0  0  0  0  0  0  0  0  0  0  0
   12.2769   -5.9276   11.8452 C   0  0  0  0  0  0  0  0  0  0  0  0
   13.0437   -5.0155   11.1300 N   0  0  0  0  0  0  0  0  0  0  0  0
   14.3371   -4.8426   11.4577 C   0  0  0  0  0  0  0  0  0  0  0  0
   14.9023   -5.5696   12.5092 C   0  0  0  0  0  0  0  0  0  0  0  0
   14.1457   -6.4647   13.2430 C   0  0  0  0  0  0  0  0  0  0  0  0
   14.6830   -7.1434   14.2456 N   0  0  0  0  0  0  0  0  0  0  0  0
   16.1892   -5.2200   12.6120 N   0  0  0  0  0  0  0  0  0  0  0  0
   16.4542   -4.2995   11.6588 C   0  0  0  0  0  0  0  0  0  0  0  0
   15.3172   -4.0560   10.9291 N   0  0  0  0  0  0  0  0  0  0  0  0
  2  1  1  6  0  0  0
  2  3  1  0  0  0  0
  2  5  1  0  0  0  0
  3  4  1  0  0  0  0
  3 17  1  0  0  0  0
  5  6  1  0  0  0  0
  7  6  1  1  0  0  0
  7  8  1  0  0  0  0
  7  9  1  0  0  0  0
 10  9  1  1  0  0  0
 10 11  1  0  0  0  0
 10 12  1  0  0  0  0
 11 16  1  0  0  0  0
 12 13  1  6  0  0  0
 12 14  1  0  0  0  0
 14 15  1  6  0  0  0
 14 16  1  0  0  0  0
 16 27  1  1  0  0  0
 18 19  2  0  0  0  0
 18 23  1  0  0  0  0
 19 20  1  0  0  0  0
 20 21  2  0  0  0  0
 21 22  1  0  0  0  0
 21 27  1  0  0  0  0
 22 23  2  0  0  0  0
 22 25  1  0  0  0  0
 23 24  1  0  0  0  0
 25 26  2  0  0  0  0
 26 27  1  0  0  0  0
M  END
>  <CHROM.1>
-72.40477081,-171.83274693,172.15373381,60.16520893,-82.48776249,45.93160342
-45.87070865,14.36140148,-5.53556888,9.62007677,2.47373985,0.91577114,1.71155355

>  <Name>
ligand

>  <RI>
0

>  <Rbt.Current_Directory>
/home/itssahil/PROJECTS/Mol_Feturizer/Test_systems_manuscript/rnas/2ydh

>  <Rbt.Executable>
rbdock ($Id: //depot/dev/client3/rdock/2013.1/src/exe/rbdock.cxx#4 $)

>  <Rbt.Library>
libRbt.so (2013.1, Build901 2013/11/27)

>  <Rbt.Parameter_File>
/export/apps/rDock/src/rDock_2013.1_src/data/scripts/dock_solv.prm

>  <Rbt.Receptor>
prm/pocket_docking_3.prm

>  <SCORE>
-17.6586

>  <SCORE.INTER>
-15.3403

>  <SCORE.INTER.CONST>
1

>  <SCORE.INTER.POLAR>
0

>  <SCORE.INTER.ROT>
7

>  <SCORE.INTER.SOLV>
11.5098

>  <SCORE.INTER.VDW>
-22.3301

>  <SCORE.INTER.norm>
-0.56816

>  <SCORE.INTRA>
-2.31823

>  <SCORE.INTRA.DIHEDRAL>
-4.76908

>  <SCORE.INTRA.DIHEDRAL.0>
9.75037

>  <SCORE.INTRA.POLAR>
0

>  <SCORE.INTRA.POLAR.0>
0

>  <SCORE.INTRA.REPUL>
0

>  <SCORE.INTRA.REPUL.0>
0

>  <SCORE.INTRA.SOLV>
-1.29278

>  <SCORE.INTRA.SOLV.lig_0>
-48.4279

>  <SCORE.INTRA.VDW>
0.712698

>  <SCORE.INTRA.VDW.0>
-4.69037

>  <SCORE.INTRA.norm>
-0.0858605

>  <SCORE.RESTR>
0

>  <SCORE.RESTR.CAVITY>
0

>  <SCORE.RESTR.norm>
0

>  <SCORE.SYSTEM>
0

>  <SCORE.SYSTEM.CONST>
0

>  <SCORE.SYSTEM.DIHEDRAL>
0

>  <SCORE.SYSTEM.SOLV>
0

>  <SCORE.SYSTEM.norm>
0

>  <SCORE.heavy>
27

>  <SCORE.norm>
-0.65402

>  <RMSD>
5.712

$$$$
ligand
 OpenBabel02271912153D
libRbt.so/2013.1/901 2013/11/27
 27 29  0  0  0  0  0  0  0  0999 V2000
   21.1840   -8.9754    9.0864 N   0  0  0  0  0  0  0  0  0  0  0  0
   20.6824   -7.6347    8.6533 C   0  0  2  0  0  0  0  0  0  0  0  0
   20.8480   -6.5892    9.7786 C   0  0  0  0  0  0  0  0  0  0  0  0
   21.5811   -5.6062    9.6331 O   0  0  0  0  0  0  0  0  0  0  0  0
   19.2331   -7.7590    8.1955 C   0  0  0  0  0  0  0  0  0  0  0  0
   18.6885   -6.5301    7.4867 C   0  0  0  0  0  0  0  0  0  0  0  0
   16.8950   -6.5956    7.2111 S   0  0  2  0  0  0  0  0  0  0  0  0
   16.7822   -7.9900    6.0542 C   0  0  0  0  0  0  0  0  0  0  0  0
   16.4876   -5.1946    6.1569 C   0  0  0  0  0  0  0  0  0  0  0  0
   14.9815   -5.0169    6.1311 C   0  0  1  0  0  0  0  0  0  0  0  0
   14.2861   -6.2499    6.2335 O   0  0  0  0  0  0  0  0  0  0  0  0
   14.5087   -4.1459    7.2694 C   0  0  1  0  0  0  0  0  0  0  0  0
   14.5972   -2.7902    6.9365 O   0  0  0  0  0  0  0  0  0  0  0  0
   13.0872   -4.5982    7.4102 C   0  0  1  0  0  0  0  0  0  0  0  0
   12.2720   -3.8480    6.5298 O   0  0  0  0  0  0  0  0  0  0  0  0
   13.1145   -6.0630    6.9932 C   0  0  2  0  0  0  0  0  0  0  0  0
   20.2624   -6.6900   10.8723 O   0  0  0  0  0  0  0  0  0  0  0  0
   13.0037   -6.6221   12.2405 N   0  0  0  0  0  0  0  0  0  0  0  0
   12.9673   -5.4437   11.5093 C   0  0  0  0  0  0  0  0  0  0  0  0
   13.0191   -5.4641   10.1206 N   0  0  0  0  0  0  0  0  0  0  0  0
   13.0865   -6.6461    9.4814 C   0  0  0  0  0  0  0  0  0  0  0  0
   13.1085   -7.8406   10.2068 C   0  0  0  0  0  0  0  0  0  0  0  0
   13.0791   -7.8345   11.5892 C   0  0  0  0  0  0  0  0  0  0  0  0
   13.1111   -8.9688   12.2725 N   0  0  0  0  0  0  0  0  0  0  0  0
   13.1629   -8.8547    9.3363 N   0  0  0  0  0  0  0  0  0  0  0  0
   13.1730   -8.3390    8.0872 C   0  0  0  0  0  0  0  0  0  0  0  0
   13.1212   -6.9691    8.1573 N   0  0  0  0  0  0  0  0  0  0  0  0
  2  1  1  1  0  0  0
  2  3  1  0  0  0  0
  2  5  1  0  0  0  0
  3  4  1  0  0  0  0
  3 17  1  0  0  0  0
  5  6  1  0  0  0  0
  7  6  1  6  0  0  0
  7  8  1  0  0  0  0
  7  9  1  0  0  0  0
 10  9  1  1  0  0  0
 10 11  1  0  0  0  0
 10 12  1  0  0  0  0
 11 16  1  0  0  0  0
 12 13  1  6  0  0  0
 12 14  1  0  0  0  0
 14 15  1  6  0  0  0
 14 16  1  0  0  0  0
 16 27  1  1  0  0  0
 18 19  2  0  0  0  0
 18 23  1  0  0  0  0
 19 20  1  0  0  0  0
 20 21  2  0  0  0  0
 21 22  1  0  0  0  0
 21 27  1  0  0  0  0
 22 23  2  0  0  0  0
 22 25  1  0  0  0  0
 23 24  1  0  0  0  0
 25 26  2  0  0  0  0
 26 27  1  0  0  0  0
M  END
>  <CHROM.1>
117.00616195,-168.97636850,-170.06338672,-65.43466573,-167.97825791,-32.97102480
119.68347158,15.69909633,-6.45624548,8.53626847,0.06499783,-0.11165931,2.11853637

>  <Name>
ligand

>  <RI>
0

>  <Rbt.Current_Directory>
/home/itssahil/PROJECTS/Mol_Feturizer/Test_systems_manuscript/rnas/2ydh

>  <Rbt.Executable>
rbdock ($Id: //depot/dev/client3/rdock/2013.1/src/exe/rbdock.cxx#4 $)

>  <Rbt.Library>
libRbt.so (2013.1, Build901 2013/11/27)

>  <Rbt.Parameter_File>
/export/apps/rDock/src/rDock_2013.1_src/data/scripts/dock_solv.prm

>  <Rbt.Receptor>
prm/pocket_docking_7.prm

>  <SCORE>
-10.3041

>  <SCORE.INTER>
-10.8117

>  <SCORE.INTER.CONST>
1

>  <SCORE.INTER.POLAR>
0

>  <SCORE.INTER.ROT>
7

>  <SCORE.INTER.SOLV>
6.29261

>  <SCORE.INTER.VDW>
-17.572

>  <SCORE.INTER.norm>
-0.400432

>  <SCORE.INTRA>
0.507612

>  <SCORE.INTRA.DIHEDRAL>
-2.63569

>  <SCORE.INTRA.DIHEDRAL.0>
9.75037

>  <SCORE.INTRA.POLAR>
0

>  <SCORE.INTRA.POLAR.0>
0

>  <SCORE.INTRA.REPUL>
0

>  <SCORE.INTRA.REPUL.0>
0

>  <SCORE.INTRA.SOLV>
-1.34755

>  <SCORE.INTRA.SOLV.lig_0>
-48.4279

>  <SCORE.INTRA.VDW>
2.49923

>  <SCORE.INTRA.VDW.0>
-4.69037

>  <SCORE.INTRA.norm>
0.0188004

>  <SCORE.RESTR>
0

>  <SCORE.RESTR.CAVITY>
0

>  <SCORE.RESTR.norm>
0

>  <SCORE.SYSTEM>
0

>  <SCORE.SYSTEM.CONST>
0

>  <SCORE.SYSTEM.DIHEDRAL>
0

>  <SCORE.SYSTEM.SOLV>
0

>  <SCORE.SYSTEM.norm>
0

>  <SCORE.heavy>
27

>  <SCORE.norm>
-0.381632

>  <RMSD>
5.729

$$$$
ligand
 OpenBabel02271912153D
libRbt.so/2013.1/901 2013/11/27
 27 29  0  0  0  0  0  0  0  0999 V2000
   15.1142   -8.4418    9.5076 N   0  0  0  0  0  0  0  0  0  0  0  0
   13.7567   -8.2497    8.9099 C   0  0  2  0  0  0  0  0  0  0  0  0
   12.7151   -9.1651    9.5908 C   0  0  0  0  0  0  0  0  0  0  0  0
   11.6792   -9.4974    9.0066 O   0  0  0  0  0  0  0  0  0  0  0  0
   13.8277   -8.4831    7.4046 C   0  0  0  0  0  0  0  0  0  0  0  0
   14.6705   -7.4695    6.6488 C   0  0  0  0  0  0  0  0  0  0  0  0
   14.1287   -5.7547    6.9000 S   0  0  2  0  0  0  0  0  0  0  0  0
   13.0922   -5.5097    5.4299 C   0  0  0  0  0  0  0  0  0  0  0  0
   15.5501   -4.7108    6.5397 C   0  0  0  0  0  0  0  0  0  0  0  0
   15.4654   -3.4524    7.3822 C   0  0  1  0  0  0  0  0  0  0  0  0
   14.5243   -3.5668    8.4383 O   0  0  0  0  0  0  0  0  0  0  0  0
   16.7966   -3.1173    8.0096 C   0  0  1  0  0  0  0  0  0  0  0  0
   17.5972   -2.3818    7.1295 O   0  0  0  0  0  0  0  0  0  0  0  0
   16.3644   -2.3024    9.1903 C   0  0  1  0  0  0  0  0  0  0  0  0
   16.2360   -0.9488    8.7982 O   0  0  0  0  0  0  0  0  0  0  0  0
   15.0061   -2.8785    9.5693 C   0  0  2  0  0  0  0  0  0  0  0  0
   12.8663   -9.6005   10.7471 O   0  0  0  0  0  0  0  0  0  0  0  0
   12.8979   -6.8877   12.2785 N   0  0  0  0  0  0  0  0  0  0  0  0
   12.4086   -6.2881   11.1271 C   0  0  0  0  0  0  0  0  0  0  0  0
   13.0795   -5.2236   10.5369 N   0  0  0  0  0  0  0  0  0  0  0  0
   14.2282   -4.7850   11.0831 C   0  0  0  0  0  0  0  0  0  0  0  0
   14.7390   -5.3909   12.2344 C   0  0  0  0  0  0  0  0  0  0  0  0
   14.0711   -6.4368   12.8443 C   0  0  0  0  0  0  0  0  0  0  0  0
   14.5536   -7.0007   13.9415 N   0  0  0  0  0  0  0  0  0  0  0  0
   15.8839   -4.7777   12.5539 N   0  0  0  0  0  0  0  0  0  0  0  0
   16.1127   -3.8080   11.6410 C   0  0  0  0  0  0  0  0  0  0  0  0
   15.0975   -3.8006   10.7170 N   0  0  0  0  0  0  0  0  0  0  0  0
  2  1  1  1  0  0  0
  2  3  1  0  0  0  0
  2  5  1  0  0  0  0
  3  4  1  0  0  0  0
  3 17  1  0  0  0  0
  5  6  1  0  0  0  0
  7  6  1  6  0  0  0
  7  8  1  0  0  0  0
  7  9  1  0  0  0  0
 10  9  1  1  0  0  0
 10 11  1  0  0  0  0
 10 12  1  0  0  0  0
 11 16  1  0  0  0  0
 12 13  1  6  0  0  0
 12 14  1  0  0  0  0
 14 15  1  6  0  0  0
 14 16  1  0  0  0  0
 16 27  1  1  0  0  0
 18 19  2  0  0  0  0
 18 23  1  0  0  0  0
 19 20  1  0  0  0  0
 20 21  2  0  0  0  0
 21 22  1  0  0  0  0
 21 27  1  0  0  0  0
 22 23  2  0  0  0  0
 22 25  1  0  0  0  0
 23 24  1  0  0  0  0
 25 26  2  0  0  0  0
 26 27  1  0  0  0  0
M  END
>  <CHROM.1>
-156.03904504,-65.42334207,-56.67873199,-96.52957032,-149.92504865,14.75243216
-39.77845630,14.51730776,-5.55991329,9.36327547,2.82208411,1.08905778,1.55113963

>  <Name>
ligand

>  <RI>
0

>  <Rbt.Current_Directory>
/home/itssahil/PROJECTS/Mol_Feturizer/Test_systems_manuscript/rnas/2ydh

>  <Rbt.Executable>
rbdock ($Id: //depot/dev/client3/rdock/2013.1/src/exe/rbdock.cxx#4 $)

>  <Rbt.Library>
libRbt.so (2013.1, Build901 2013/11/27)

>  <Rbt.Parameter_File>
/export/apps/rDock/src/rDock_2013.1_src/data/scripts/dock_solv.prm

>  <Rbt.Receptor>
prm/pocket_docking_2.prm

>  <SCORE>
-7.55506

>  <SCORE.INTER>
-11.6045

>  <SCORE.INTER.CONST>
1

>  <SCORE.INTER.POLAR>
0

>  <SCORE.INTER.ROT>
7

>  <SCORE.INTER.SOLV>
11.763

>  <SCORE.INTER.VDW>
-19.924

>  <SCORE.INTER.norm>
-0.429797

>  <SCORE.INTRA>
3.17744

>  <SCORE.INTRA.DIHEDRAL>
3.21327

>  <SCORE.INTRA.DIHEDRAL.0>
9.75037

>  <SCORE.INTRA.POLAR>
0

>  <SCORE.INTRA.POLAR.0>
0

>  <SCORE.INTRA.REPUL>
0

>  <SCORE.INTRA.REPUL.0>
0

>  <SCORE.INTRA.SOLV>
0.0997156

>  <SCORE.INTRA.SOLV.lig_0>
-48.4279

>  <SCORE.INTRA.VDW>
1.52094

>  <SCORE.INTRA.VDW.0>
-4.69037

>  <SCORE.INTRA.norm>
0.117683

>  <SCORE.RESTR>
0.872013

>  <SCORE.RESTR.CAVITY>
0.872013

>  <SCORE.RESTR.norm>
0.0322968

>  <SCORE.SYSTEM>
0

>  <SCORE.SYSTEM.CONST>
0

>  <SCORE.SYSTEM.DIHEDRAL>
0

>  <SCORE.SYSTEM.SOLV>
0

>  <SCORE.SYSTEM.norm>
0

>  <SCORE.heavy>
27

>  <SCORE.norm>
-0.279817

>  <RMSD>
5.739

$$$$
ligand
 OpenBabel02271912153D
libRbt.so/2013.1/901 2013/11/27
 27 29  0  0  0  0  0  0  0  0999 V2000
   20.1637   -5.4124    9.6656 N   0  0  0  0  0  0  0  0  0  0  0  0
   19.0603   -6.2888    9.1645 C   0  0  2  0  0  0  0  0  0  0  0  0
   19.2184   -7.7345    9.6856 C   0  0  0  0  0  0  0  0  0  0  0  0
   20.3316   -8.2608    9.7787 O   0  0  0  0  0  0  0  0  0  0  0  0
   19.0181   -6.2301    7.6412 C   0  0  0  0  0  0  0  0  0  0  0  0
   17.9429   -7.0966    7.0068 C   0  0  0  0  0  0  0  0  0  0  0  0
   16.2588   -6.6215    7.4914 S   0  0  2  0  0  0  0  0  0  0  0  0
   15.3316   -8.0950    6.9770 C   0  0  0  0  0  0  0  0  0  0  0  0
   15.7098   -5.3922    6.2967 C   0  0  0  0  0  0  0  0  0  0  0  0
   14.4592   -4.7147    6.8237 C   0  0  1  0  0  0  0  0  0  0  0  0
   13.6559   -5.5863    7.6041 O   0  0  0  0  0  0  0  0  0  0  0  0
   14.7985   -3.5282    7.6925 C   0  0  1  0  0  0  0  0  0  0  0  0
   15.0020   -2.3800    6.9199 O   0  0  0  0  0  0  0  0  0  0  0  0
   13.5657   -3.4252    8.5379 C   0  0  1  0  0  0  0  0  0  0  0  0
   12.6077   -2.6290    7.8667 O   0  0  0  0  0  0  0  0  0  0  0  0
   13.0725   -4.8611    8.6618 C   0  0  2  0  0  0  0  0  0  0  0  0
   18.2437   -8.4295   10.0265 O   0  0  0  0  0  0  0  0  0  0  0  0
   11.5576   -7.3721   13.0503 N   0  0  0  0  0  0  0  0  0  0  0  0
   10.7653   -6.9621   11.9878 C   0  0  0  0  0  0  0  0  0  0  0  0
   11.3183   -6.2938   10.9019 N   0  0  0  0  0  0  0  0  0  0  0  0
   12.6431   -6.0606   10.8773 C   0  0  0  0  0  0  0  0  0  0  0  0
   13.4539   -6.4823   11.9348 C   0  0  0  0  0  0  0  0  0  0  0  0
   12.9143   -7.1293   13.0313 C   0  0  0  0  0  0  0  0  0  0  0  0
   13.6852   -7.5174   14.0361 N   0  0  0  0  0  0  0  0  0  0  0  0
   14.7160   -6.1405   11.6531 N   0  0  0  0  0  0  0  0  0  0  0  0
   14.7276   -5.5204   10.4525 C   0  0  0  0  0  0  0  0  0  0  0  0
   13.4500   -5.4658    9.9533 N   0  0  0  0  0  0  0  0  0  0  0  0
  2  1  1  6  0  0  0
  2  3  1  0  0  0  0
  2  5  1  0  0  0  0
  3  4  1  0  0  0  0
  3 17  1  0  0  0  0
  5  6  1  0  0  0  0
  7  6  1  6  0  0  0
  7  8  1  0  0  0  0
  7  9  1  0  0  0  0
 10  9  1  1  0  0  0
 10 11  1  0  0  0  0
 10 12  1  0  0  0  0
 11 16  1  0  0  0  0
 12 13  1  6  0  0  0
 12 14  1  0  0  0  0
 14 15  1  6  0  0  0
 14 16  1  0  0  0  0
 16 27  1  1  0  0  0
 18 19  2  0  0  0  0
 18 23  1  0  0  0  0
 19 20  1  0  0  0  0
 20 21  2  0  0  0  0
 21 22  1  0  0  0  0
 21 27  1  0  0  0  0
 22 23  2  0  0  0  0
 22 25  1  0  0  0  0
 23 24  1  0  0  0  0
 25 26  2  0  0  0  0
 26 27  1  0  0  0  0
M  END
>  <CHROM.1>
-38.35527724,179.31121335,61.79921024,-164.35686801,-166.58794998,-32.45270254
-115.55966013,15.21225699,-6.00546218,9.30564867,-0.29950414,-0.34090787
2.15305854

>  <Name>
ligand

>  <RI>
0

>  <Rbt.Current_Directory>
/home/itssahil/PROJECTS/Mol_Feturizer/Test_systems_manuscript/rnas/2ydh

>  <Rbt.Executable>
rbdock ($Id: //depot/dev/client3/rdock/2013.1/src/exe/rbdock.cxx#4 $)

>  <Rbt.Library>
libRbt.so (2013.1, Build901 2013/11/27)

>  <Rbt.Parameter_File>
/export/apps/rDock/src/rDock_2013.1_src/data/scripts/dock_solv.prm

>  <Rbt.Receptor>
prm/pocket_docking_8.prm

>  <SCORE>
-8.05831

>  <SCORE.INTER>
-7.81409

>  <SCORE.INTER.CONST>
1

>  <SCORE.INTER.POLAR>
0

>  <SCORE.INTER.ROT>
7

>  <SCORE.INTER.SOLV>
12.364

>  <SCORE.INTER.VDW>
-17.5974

>  <SCORE.INTER.norm>
-0.289411

>  <SCORE.INTRA>
-0.244223

>  <SCORE.INTRA.DIHEDRAL>
-1.84752

>  <SCORE.INTRA.DIHEDRAL.0>
9.75037

>  <SCORE.INTRA.POLAR>
0

>  <SCORE.INTRA.POLAR.0>
0

>  <SCORE.INTRA.REPUL>
0

>  <SCORE.INTRA.REPUL.0>
0

>  <SCORE.INTRA.SOLV>
-1.25034

>  <SCORE.INTRA.SOLV.lig_0>
-48.4279

>  <SCORE.INTRA.VDW>
1.3047

>  <SCORE.INTRA.VDW.0>
-4.69037

>  <SCORE.INTRA.norm>
-0.0090453

>  <SCORE.RESTR>
0

>  <SCORE.RESTR.CAVITY>
0

>  <SCORE.RESTR.norm>
0

>  <SCORE.SYSTEM>
0

>  <SCORE.SYSTEM.CONST>
0

>  <SCORE.SYSTEM.DIHEDRAL>
0

>  <SCORE.SYSTEM.SOLV>
0

>  <SCORE.SYSTEM.norm>
0

>  <SCORE.heavy>
27

>  <SCORE.norm>
-0.298456

>  <RMSD>
5.743

$$$$
ligand
 OpenBabel02271912153D
libRbt.so/2013.1/901 2013/11/27
 27 29  0  0  0  0  0  0  0  0999 V2000
   14.5156   -3.3490    8.1528 N   0  0  0  0  0  0  0  0  0  0  0  0
   14.3240   -4.1362    6.8957 C   0  0  2  0  0  0  0  0  0  0  0  0
   12.9257   -3.8838    6.2895 C   0  0  0  0  0  0  0  0  0  0  0  0
   12.6934   -2.8718    5.6213 O   0  0  0  0  0  0  0  0  0  0  0  0
   14.5665   -5.6145    7.1812 C   0  0  0  0  0  0  0  0  0  0  0  0
   13.6497   -6.2113    8.2360 C   0  0  0  0  0  0  0  0  0  0  0  0
   14.1539   -7.8720    8.7695 S   0  0  2  0  0  0  0  0  0  0  0  0
   12.6883   -8.3831    9.7111 C   0  0  0  0  0  0  0  0  0  0  0  0
   15.3781   -7.6426   10.0690 C   0  0  0  0  0  0  0  0  0  0  0  0
   16.7623   -7.6382    9.4489 C   0  0  1  0  0  0  0  0  0  0  0  0
   16.9513   -8.7048    8.5320 O   0  0  0  0  0  0  0  0  0  0  0  0
   17.0266   -6.3561    8.6977 C   0  0  1  0  0  0  0  0  0  0  0  0
   17.4924   -5.3557    9.5572 O   0  0  0  0  0  0  0  0  0  0  0  0
   18.0798   -6.7993    7.7285 C   0  0  1  0  0  0  0  0  0  0  0  0
   19.3516   -6.6765    8.3366 O   0  0  0  0  0  0  0  0  0  0  0  0
   17.7554   -8.2636    7.4625 C   0  0  2  0  0  0  0  0  0  0  0  0
   11.9784   -4.6755    6.4486 O   0  0  0  0  0  0  0  0  0  0  0  0
   18.0097   -9.1389    2.2637 N   0  0  0  0  0  0  0  0  0  0  0  0
   19.0619   -9.0382    3.1622 C   0  0  0  0  0  0  0  0  0  0  0  0
   18.8282   -8.7889    4.5093 N   0  0  0  0  0  0  0  0  0  0  0  0
   17.5617   -8.6630    4.9456 C   0  0  0  0  0  0  0  0  0  0  0  0
   16.4927   -8.7776    4.0525 C   0  0  0  0  0  0  0  0  0  0  0  0
   16.7113   -9.0043    2.7062 C   0  0  0  0  0  0  0  0  0  0  0  0
   15.6953   -9.1012    1.8618 N   0  0  0  0  0  0  0  0  0  0  0  0
   15.3567   -8.6270    4.7423 N   0  0  0  0  0  0  0  0  0  0  0  0
   15.6743   -8.4243    6.0401 C   0  0  0  0  0  0  0  0  0  0  0  0
   17.0390   -8.4482    6.1863 N   0  0  0  0  0  0  0  0  0  0  0  0
  2  1  1  1  0  0  0
  2  3  1  0  0  0  0
  2  5  1  0  0  0  0
  3  4  1  0  0  0  0
  3 17  1  0  0  0  0
  5  6  1  0  0  0  0
  7  6  1  1  0  0  0
  7  8  1  0  0  0  0
  7  9  1  0  0  0  0
 10  9  1  6  0  0  0
 10 11  1  0  0  0  0
 10 12  1  0  0  0  0
 11 16  1  0  0  0  0
 12 13  1  1  0  0  0
 12 14  1  0  0  0  0
 14 15  1  1  0  0  0
 14 16  1  0  0  0  0
 16 27  1  6  0  0  0
 18 19  2  0  0  0  0
 18 23  1  0  0  0  0
 19 20  1  0  0  0  0
 20 21  2  0  0  0  0
 21 22  1  0  0  0  0
 21 27  1  0  0  0  0
 22 23  2  0  0  0  0
 22 25  1  0  0  0  0
 23 24  1  0  0  0  0
 25 26  2  0  0  0  0
 26 27  1  0  0  0  0
M  END
>  <CHROM.1>
80.03017253,59.35785915,-169.49183078,-168.44047212,-92.39604473,-46.89469644
-151.69024016,15.82965995,-7.10820531,6.76074543,2.33406537,-0.64078667,1.40115327

>  <Name>
ligand

>  <RI>
0

>  <Rbt.Current_Directory>
/home/itssahil/PROJECTS/Mol_Feturizer/Test_systems_manuscript/rnas/2ydh

>  <Rbt.Executable>
rbdock ($Id: //depot/dev/client3/rdock/2013.1/src/exe/rbdock.cxx#4 $)

>  <Rbt.Library>
libRbt.so (2013.1, Build901 2013/11/27)

>  <Rbt.Parameter_File>
/export/apps/rDock/src/rDock_2013.1_src/data/scripts/dock_solv.prm

>  <Rbt.Receptor>
prm/pocket_docking_7.prm

>  <SCORE>
-8.50622

>  <SCORE.INTER>
-8.87081

>  <SCORE.INTER.CONST>
1

>  <SCORE.INTER.POLAR>
0

>  <SCORE.INTER.ROT>
7

>  <SCORE.INTER.SOLV>
11.8033

>  <SCORE.INTER.VDW>
-18.115

>  <SCORE.INTER.norm>
-0.328548

>  <SCORE.INTRA>
0.364591

>  <SCORE.INTRA.DIHEDRAL>
-3.13995

>  <SCORE.INTRA.DIHEDRAL.0>
9.75037

>  <SCORE.INTRA.POLAR>
0

>  <SCORE.INTRA.POLAR.0>
0

>  <SCORE.INTRA.REPUL>
0

>  <SCORE.INTRA.REPUL.0>
0

>  <SCORE.INTRA.SOLV>
0.511583

>  <SCORE.INTRA.SOLV.lig_0>
-48.4279

>  <SCORE.INTRA.VDW>
1.67877

>  <SCORE.INTRA.VDW.0>
-4.69037

>  <SCORE.INTRA.norm>
0.0135034

>  <SCORE.RESTR>
0

>  <SCORE.RESTR.CAVITY>
0

>  <SCORE.RESTR.norm>
0

>  <SCORE.SYSTEM>
0

>  <SCORE.SYSTEM.CONST>
0

>  <SCORE.SYSTEM.DIHEDRAL>
0

>  <SCORE.SYSTEM.SOLV>
0

>  <SCORE.SYSTEM.norm>
0

>  <SCORE.heavy>
27

>  <SCORE.norm>
-0.315045

>  <RMSD>
5.755

$$$$
ligand
 OpenBabel02271912153D
libRbt.so/2013.1/901 2013/11/27
 27 29  0  0  0  0  0  0  0  0999 V2000
   15.0880   -9.1345    4.7275 N   0  0  0  0  0  0  0  0  0  0  0  0
   15.3822   -7.7115    5.0815 C   0  0  2  0  0  0  0  0  0  0  0  0
   16.6370   -7.6094    5.9768 C   0  0  0  0  0  0  0  0  0  0  0  0
   16.9581   -8.5316    6.7325 O   0  0  0  0  0  0  0  0  0  0  0  0
   14.1559   -7.0889    5.7405 C   0  0  0  0  0  0  0  0  0  0  0  0
   14.3025   -5.6147    6.0787 C   0  0  0  0  0  0  0  0  0  0  0  0
   12.8447   -4.9196    6.9085 S   0  0  2  0  0  0  0  0  0  0  0  0
   12.9412   -3.1896    6.3667 C   0  0  0  0  0  0  0  0  0  0  0  0
   13.2614   -4.7934    8.6550 C   0  0  0  0  0  0  0  0  0  0  0  0
   13.1760   -6.1709    9.2843 C   0  0  1  0  0  0  0  0  0  0  0  0
   14.0245   -7.1136    8.6476 O   0  0  0  0  0  0  0  0  0  0  0  0
   13.5663   -6.1372   10.7418 C   0  0  1  0  0  0  0  0  0  0  0  0
   12.4775   -5.7863   11.5468 O   0  0  0  0  0  0  0  0  0  0  0  0
   13.9928   -7.5567   10.9613 C   0  0  1  0  0  0  0  0  0  0  0  0
   12.8615   -8.3330   11.3073 O   0  0  0  0  0  0  0  0  0  0  0  0
   14.5485   -7.9962    9.6128 C   0  0  2  0  0  0  0  0  0  0  0  0
   17.3707   -6.6039    5.9823 O   0  0  0  0  0  0  0  0  0  0  0  0
   18.9383   -5.2303    8.6441 N   0  0  0  0  0  0  0  0  0  0  0  0
   17.6224   -4.8070    8.5266 C   0  0  0  0  0  0  0  0  0  0  0  0
   16.5682   -5.6679    8.8080 N   0  0  0  0  0  0  0  0  0  0  0  0
   16.8334   -6.9218    9.2175 C   0  0  0  0  0  0  0  0  0  0  0  0
   18.1552   -7.3551    9.3542 C   0  0  0  0  0  0  0  0  0  0  0  0
   19.2135   -6.5161    9.0574 C   0  0  0  0  0  0  0  0  0  0  0  0
   20.4644   -6.9348    9.1781 N   0  0  0  0  0  0  0  0  0  0  0  0
   18.1353   -8.6215    9.7840 N   0  0  0  0  0  0  0  0  0  0  0  0
   16.8455   -8.9994    9.9251 C   0  0  0  0  0  0  0  0  0  0  0  0
   16.0227   -7.9553    9.5825 N   0  0  0  0  0  0  0  0  0  0  0  0
  2  1  1  1  0  0  0
  2  3  1  0  0  0  0
  2  5  1  0  0  0  0
  3  4  1  0  0  0  0
  3 17  1  0  0  0  0
  5  6  1  0  0  0  0
  7  6  1  6  0  0  0
  7  8  1  0  0  0  0
  7  9  1  0  0  0  0
 10  9  1  6  0  0  0
 10 11  1  0  0  0  0
 10 12  1  0  0  0  0
 11 16  1  0  0  0  0
 12 13  1  1  0  0  0
 12 14  1  0  0  0  0
 14 15  1  6  0  0  0
 14 16  1  0  0  0  0
 16 27  1  1  0  0  0
 18 19  2  0  0  0  0
 18 23  1  0  0  0  0
 19 20  1  0  0  0  0
 20 21  2  0  0  0  0
 21 22  1  0  0  0  0
 21 27  1  0  0  0  0
 22 23  2  0  0  0  0
 22 25  1  0  0  0  0
 23 24  1  0  0  0  0
 25 26  2  0  0  0  0
 26 27  1  0  0  0  0
M  END
>  <CHROM.1>
-28.74703075,-176.75610590,-178.19022150,-151.05388910,-76.89179291,57.55212431
28.41562474,15.44465214,-6.69353426,8.30565823,-0.05531485,0.28683521,-1.39290320

>  <Name>
ligand

>  <RI>
0

>  <Rbt.Current_Directory>
/home/itssahil/PROJECTS/Mol_Feturizer/Test_systems_manuscript/rnas/2ydh

>  <Rbt.Executable>
rbdock ($Id: //depot/dev/client3/rdock/2013.1/src/exe/rbdock.cxx#4 $)

>  <Rbt.Library>
libRbt.so (2013.1, Build901 2013/11/27)

>  <Rbt.Parameter_File>
/export/apps/rDock/src/rDock_2013.1_src/data/scripts/dock_solv.prm

>  <Rbt.Receptor>
prm/pocket_docking_6.prm

>  <SCORE>
-13.089

>  <SCORE.INTER>
-8.89551

>  <SCORE.INTER.CONST>
1

>  <SCORE.INTER.POLAR>
0

>  <SCORE.INTER.ROT>
7

>  <SCORE.INTER.SOLV>
9.2543

>  <SCORE.INTER.VDW>
-17.2818

>  <SCORE.INTER.norm>
-0.329463

>  <SCORE.INTRA>
-4.19351

>  <SCORE.INTRA.DIHEDRAL>
-3.47838

>  <SCORE.INTRA.DIHEDRAL.0>
9.75037

>  <SCORE.INTRA.POLAR>
0

>  <SCORE.INTRA.POLAR.0>
0

>  <SCORE.INTRA.REPUL>
0

>  <SCORE.INTRA.REPUL.0>
0

>  <SCORE.INTRA.SOLV>
-1.23195

>  <SCORE.INTRA.SOLV.lig_0>
-48.4279

>  <SCORE.INTRA.VDW>
-1.83834

>  <SCORE.INTRA.VDW.0>
-4.69037

>  <SCORE.INTRA.norm>
-0.155315

>  <SCORE.RESTR>
0

>  <SCORE.RESTR.CAVITY>
0

>  <SCORE.RESTR.norm>
0

>  <SCORE.SYSTEM>
0

>  <SCORE.SYSTEM.CONST>
0

>  <SCORE.SYSTEM.DIHEDRAL>
0

>  <SCORE.SYSTEM.SOLV>
0

>  <SCORE.SYSTEM.norm>
0

>  <SCORE.heavy>
27

>  <SCORE.norm>
-0.484778

>  <RMSD>
5.778

$$$$
ligand
 OpenBabel02271912153D
libRbt.so/2013.1/901 2013/11/27
 27 29  0  0  0  0  0  0  0  0999 V2000
   11.4263   -8.1295   12.8033 N   0  0  0  0  0  0  0  0  0  0  0  0
   11.9768   -9.3632   12.1616 C   0  0  2  0  0  0  0  0  0  0  0  0
   12.1455  -10.4992   13.1949 C   0  0  0  0  0  0  0  0  0  0  0  0
   11.3206  -11.4143   13.2772 O   0  0  0  0  0  0  0  0  0  0  0  0
   13.2883   -9.0277   11.4596 C   0  0  0  0  0  0  0  0  0  0  0  0
   13.9618  -10.2104   10.7838 C   0  0  0  0  0  0  0  0  0  0  0  0
   15.5158   -9.7735    9.9525 S   0  0  2  0  0  0  0  0  0  0  0  0
   16.4261   -9.0043   11.3219 C   0  0  0  0  0  0  0  0  0  0  0  0
   15.1527   -8.3608    8.8979 C   0  0  0  0  0  0  0  0  0  0  0  0
   16.4518   -7.8185    8.3332 C   0  0  1  0  0  0  0  0  0  0  0  0
   17.0530   -8.7057    7.4028 O   0  0  0  0  0  0  0  0  0  0  0  0
   16.2383   -6.5060    7.6194 C   0  0  1  0  0  0  0  0  0  0  0  0
   16.2704   -5.4336    8.5170 O   0  0  0  0  0  0  0  0  0  0  0  0
   17.4084   -6.4905    6.6837 C   0  0  1  0  0  0  0  0  0  0  0  0
   18.5234   -5.9221    7.3440 O   0  0  0  0  0  0  0  0  0  0  0  0
   17.6640   -7.9601    6.3752 C   0  0  2  0  0  0  0  0  0  0  0  0
   13.1053  -10.5420   13.9863 O   0  0  0  0  0  0  0  0  0  0  0  0
   13.5905   -7.8513    3.0206 N   0  0  0  0  0  0  0  0  0  0  0  0
   13.6741   -7.2690    4.2770 C   0  0  0  0  0  0  0  0  0  0  0  0
   14.8215   -7.4017    5.0498 N   0  0  0  0  0  0  0  0  0  0  0  0
   15.8692   -8.0894    4.5603 C   0  0  0  0  0  0  0  0  0  0  0  0
   15.8025   -8.6678    3.2896 C   0  0  0  0  0  0  0  0  0  0  0  0
   14.6596   -8.5618    2.5185 C   0  0  0  0  0  0  0  0  0  0  0  0
   14.5973   -9.1209    1.3193 N   0  0  0  0  0  0  0  0  0  0  0  0
   16.9703   -9.2728    3.0463 N   0  0  0  0  0  0  0  0  0  0  0  0
   17.7711   -9.0925    4.1198 C   0  0  0  0  0  0  0  0  0  0  0  0
   17.1061   -8.3558    5.0682 N   0  0  0  0  0  0  0  0  0  0  0  0
  2  1  1  1  0  0  0
  2  3  1  0  0  0  0
  2  5  1  0  0  0  0
  3  4  1  0  0  0  0
  3 17  1  0  0  0  0
  5  6  1  0  0  0  0
  7  6  1  1  0  0  0
  7  8  1  0  0  0  0
  7  9  1  0  0  0  0
 10  9  1  6  0  0  0
 10 11  1  0  0  0  0
 10 12  1  0  0  0  0
 11 16  1  0  0  0  0
 12 13  1  1  0  0  0
 12 14  1  0  0  0  0
 14 15  1  1  0  0  0
 14 16  1  0  0  0  0
 16 27  1  6  0  0  0
 18 19  2  0  0  0  0
 18 23  1  0  0  0  0
 19 20  1  0  0  0  0
 20 21  2  0  0  0  0
 21 22  1  0  0  0  0
 21 27  1  0  0  0  0
 22 23  2  0  0  0  0
 22 25  1  0  0  0  0
 23 24  1  0  0  0  0
 25 26  2  0  0  0  0
 26 27  1  0  0  0  0
M  END
>  <CHROM.1>
100.89567712,179.06681412,179.74985847,55.08226464,171.68117002,68.71521067
71.85410818,15.15839129,-8.53935765,7.88715259,1.95207527,0.47872734,1.59340642

>  <Name>
ligand

>  <RI>
0

>  <Rbt.Current_Directory>
/home/itssahil/PROJECTS/Mol_Feturizer/Test_systems_manuscript/rnas/2ydh

>  <Rbt.Executable>
rbdock ($Id: //depot/dev/client3/rdock/2013.1/src/exe/rbdock.cxx#4 $)

>  <Rbt.Library>
libRbt.so (2013.1, Build901 2013/11/27)

>  <Rbt.Parameter_File>
/export/apps/rDock/src/rDock_2013.1_src/data/scripts/dock_solv.prm

>  <Rbt.Receptor>
prm/pocket_docking_6.prm

>  <SCORE>
-14.8854

>  <SCORE.INTER>
-13.6362

>  <SCORE.INTER.CONST>
1

>  <SCORE.INTER.POLAR>
0

>  <SCORE.INTER.ROT>
7

>  <SCORE.INTER.SOLV>
16.6803

>  <SCORE.INTER.VDW>
-22.9175

>  <SCORE.INTER.norm>
-0.505043

>  <SCORE.INTRA>
-1.24927

>  <SCORE.INTRA.DIHEDRAL>
-6.46647

>  <SCORE.INTRA.DIHEDRAL.0>
9.75037

>  <SCORE.INTRA.POLAR>
0

>  <SCORE.INTRA.POLAR.0>
0

>  <SCORE.INTRA.REPUL>
0

>  <SCORE.INTRA.REPUL.0>
0

>  <SCORE.INTRA.SOLV>
-1.52984

>  <SCORE.INTRA.SOLV.lig_0>
-48.4279

>  <SCORE.INTRA.VDW>
2.74889

>  <SCORE.INTRA.VDW.0>
-4.69037

>  <SCORE.INTRA.norm>
-0.0462691

>  <SCORE.RESTR>
0

>  <SCORE.RESTR.CAVITY>
0

>  <SCORE.RESTR.norm>
0

>  <SCORE.SYSTEM>
0

>  <SCORE.SYSTEM.CONST>
0

>  <SCORE.SYSTEM.DIHEDRAL>
0

>  <SCORE.SYSTEM.SOLV>
0

>  <SCORE.SYSTEM.norm>
0

>  <SCORE.heavy>
27

>  <SCORE.norm>
-0.551312

>  <RMSD>
5.783

$$$$
ligand
 OpenBabel02271912153D
libRbt.so/2013.1/901 2013/11/27
 27 29  0  0  0  0  0  0  0  0999 V2000
   12.7697   -3.5841    5.5540 N   0  0  0  0  0  0  0  0  0  0  0  0
   13.4678   -3.9200    6.8332 C   0  0  2  0  0  0  0  0  0  0  0  0
   13.9343   -2.6414    7.5642 C   0  0  0  0  0  0  0  0  0  0  0  0
   14.6960   -1.8369    7.0189 O   0  0  0  0  0  0  0  0  0  0  0  0
   14.6255   -4.8699    6.5450 C   0  0  0  0  0  0  0  0  0  0  0  0
   14.2220   -6.1659    5.8618 C   0  0  0  0  0  0  0  0  0  0  0  0
   15.5895   -7.3496    5.7019 S   0  0  2  0  0  0  0  0  0  0  0  0
   14.8450   -8.5768    4.5905 C   0  0  0  0  0  0  0  0  0  0  0  0
   15.6725   -8.2493    7.2587 C   0  0  0  0  0  0  0  0  0  0  0  0
   16.2927   -7.3542    8.3145 C   0  0  1  0  0  0  0  0  0  0  0  0
   15.3726   -6.4062    8.8330 O   0  0  0  0  0  0  0  0  0  0  0  0
   16.8089   -8.1561    9.4843 C   0  0  1  0  0  0  0  0  0  0  0  0
   18.1013   -8.6312    9.2380 O   0  0  0  0  0  0  0  0  0  0  0  0
   16.7865   -7.1278   10.5738 C   0  0  1  0  0  0  0  0  0  0  0  0
   18.0056   -6.4096   10.5595 O   0  0  0  0  0  0  0  0  0  0  0  0
   15.6251   -6.2136   10.2056 C   0  0  2  0  0  0  0  0  0  0  0  0
   13.5734   -2.3683    8.7237 O   0  0  0  0  0  0  0  0  0  0  0  0
   11.1469   -8.9738   10.6366 N   0  0  0  0  0  0  0  0  0  0  0  0
   12.0842   -9.0266    9.6152 C   0  0  0  0  0  0  0  0  0  0  0  0
   13.2144   -8.2182    9.6416 N   0  0  0  0  0  0  0  0  0  0  0  0
   13.4065   -7.3888   10.6835 C   0  0  0  0  0  0  0  0  0  0  0  0
   12.4768   -7.3378   11.7260 C   0  0  0  0  0  0  0  0  0  0  0  0
   11.3374   -8.1208   11.7024 C   0  0  0  0  0  0  0  0  0  0  0  0
   10.4538   -8.0609   12.6874 N   0  0  0  0  0  0  0  0  0  0  0  0
   12.9125   -6.4521   12.6286 N   0  0  0  0  0  0  0  0  0  0  0  0
   14.0866   -5.9459   12.1910 C   0  0  0  0  0  0  0  0  0  0  0  0
   14.4117   -6.5192   10.9869 N   0  0  0  0  0  0  0  0  0  0  0  0
  2  1  1  6  0  0  0
  2  3  1  0  0  0  0
  2  5  1  0  0  0  0
  3  4  1  0  0  0  0
  3 17  1  0  0  0  0
  5  6  1  0  0  0  0
  7  6  1  1  0  0  0
  7  8  1  0  0  0  0
  7  9  1  0  0  0  0
 10  9  1  6  0  0  0
 10 11  1  0  0  0  0
 10 12  1  0  0  0  0
 11 16  1  0  0  0  0
 12 13  1  6  0  0  0
 12 14  1  0  0  0  0
 14 15  1  6  0  0  0
 14 16  1  0  0  0  0
 16 27  1  1  0  0  0
 18 19  2  0  0  0  0
 18 23  1  0  0  0  0
 19 20  1  0  0  0  0
 20 21  2  0  0  0  0
 21 22  1  0  0  0  0
 21 27  1  0  0  0  0
 22 23  2  0  0  0  0
 22 25  1  0  0  0  0
 23 24  1  0  0  0  0
 25 26  2  0  0  0  0
 26 27  1  0  0  0  0
M  END
>  <CHROM.1>
-58.12158935,-57.98608573,-173.53534431,-169.45989287,-75.24709348,78.58662071
28.57695880,14.42116281,-6.51616510,8.86743325,1.09640519,0.72266773,-0.78211282

>  <Name>
ligand

>  <RI>
0

>  <Rbt.Current_Directory>
/home/itssahil/PROJECTS/Mol_Feturizer/Test_systems_manuscript/rnas/2ydh

>  <Rbt.Executable>
rbdock ($Id: //depot/dev/client3/rdock/2013.1/src/exe/rbdock.cxx#4 $)

>  <Rbt.Library>
libRbt.so (2013.1, Build901 2013/11/27)

>  <Rbt.Parameter_File>
/export/apps/rDock/src/rDock_2013.1_src/data/scripts/dock_solv.prm

>  <Rbt.Receptor>
prm/pocket_docking_5.prm

>  <SCORE>
-10.8257

>  <SCORE.INTER>
-9.37853

>  <SCORE.INTER.CONST>
1

>  <SCORE.INTER.POLAR>
0

>  <SCORE.INTER.ROT>
7

>  <SCORE.INTER.SOLV>
17.8833

>  <SCORE.INTER.VDW>
-20.4801

>  <SCORE.INTER.norm>
-0.347353

>  <SCORE.INTRA>
-1.44719

>  <SCORE.INTRA.DIHEDRAL>
-4.34941

>  <SCORE.INTRA.DIHEDRAL.0>
9.75037

>  <SCORE.INTRA.POLAR>
0

>  <SCORE.INTRA.POLAR.0>
0

>  <SCORE.INTRA.REPUL>
0

>  <SCORE.INTRA.REPUL.0>
0

>  <SCORE.INTRA.SOLV>
-0.572761

>  <SCORE.INTRA.SOLV.lig_0>
-48.4279

>  <SCORE.INTRA.VDW>
1.0139

>  <SCORE.INTRA.VDW.0>
-4.69037

>  <SCORE.INTRA.norm>
-0.0535995

>  <SCORE.RESTR>
0

>  <SCORE.RESTR.CAVITY>
0

>  <SCORE.RESTR.norm>
0

>  <SCORE.SYSTEM>
0

>  <SCORE.SYSTEM.CONST>
0

>  <SCORE.SYSTEM.DIHEDRAL>
0

>  <SCORE.SYSTEM.SOLV>
0

>  <SCORE.SYSTEM.norm>
0

>  <SCORE.heavy>
27

>  <SCORE.norm>
-0.400952

>  <RMSD>
5.791

$$$$
ligand
 OpenBabel02271912153D
libRbt.so/2013.1/901 2013/11/27
 27 29  0  0  0  0  0  0  0  0999 V2000
   18.5087   -7.2872    6.2867 N   0  0  0  0  0  0  0  0  0  0  0  0
   18.2005   -6.4166    7.4630 C   0  0  2  0  0  0  0  0  0  0  0  0
   17.2726   -7.1415    8.4632 C   0  0  0  0  0  0  0  0  0  0  0  0
   17.0448   -6.6677    9.5804 O   0  0  0  0  0  0  0  0  0  0  0  0
   17.6026   -5.1005    6.9771 C   0  0  0  0  0  0  0  0  0  0  0  0
   17.4236   -4.0513    8.0616 C   0  0  0  0  0  0  0  0  0  0  0  0
   16.4992   -2.5915    7.5034 S   0  0  2  0  0  0  0  0  0  0  0  0
   16.8355   -1.4385    8.8647 C   0  0  0  0  0  0  0  0  0  0  0  0
   14.7555   -2.9662    7.7461 C   0  0  0  0  0  0  0  0  0  0  0  0
   14.4239   -4.2618    7.0305 C   0  0  1  0  0  0  0  0  0  0  0  0
   14.8095   -5.4079    7.7734 O   0  0  0  0  0  0  0  0  0  0  0  0
   12.9430   -4.3830    6.7658 C   0  0  1  0  0  0  0  0  0  0  0  0
   12.5877   -3.7280    5.5820 O   0  0  0  0  0  0  0  0  0  0  0  0
   12.7887   -5.8691    6.6536 C   0  0  1  0  0  0  0  0  0  0  0  0
   13.0350   -6.2618    5.3167 O   0  0  0  0  0  0  0  0  0  0  0  0
   13.8598   -6.4305    7.5798 C   0  0  2  0  0  0  0  0  0  0  0  0
   16.7227   -8.2255    8.1953 O   0  0  0  0  0  0  0  0  0  0  0  0
   13.7957   -9.9637   11.5004 N   0  0  0  0  0  0  0  0  0  0  0  0
   14.5752   -9.9799   10.3528 C   0  0  0  0  0  0  0  0  0  0  0  0
   14.4634   -8.9739    9.4004 N   0  0  0  0  0  0  0  0  0  0  0  0
   13.5997   -7.9635    9.6081 C   0  0  0  0  0  0  0  0  0  0  0  0
   12.8200   -7.9283   10.7676 C   0  0  0  0  0  0  0  0  0  0  0  0
   12.9053   -8.9333   11.7134 C   0  0  0  0  0  0  0  0  0  0  0  0
   12.1564   -8.9012   12.8055 N   0  0  0  0  0  0  0  0  0  0  0  0
   12.0677   -6.8230   10.7294 N   0  0  0  0  0  0  0  0  0  0  0  0
   12.3495   -6.1596    9.5863 C   0  0  0  0  0  0  0  0  0  0  0  0
   13.3022   -6.8503    8.8794 N   0  0  0  0  0  0  0  0  0  0  0  0
  2  1  1  6  0  0  0
  2  3  1  0  0  0  0
  2  5  1  0  0  0  0
  3  4  1  0  0  0  0
  3 17  1  0  0  0  0
  5  6  1  0  0  0  0
  7  6  1  1  0  0  0
  7  8  1  0  0  0  0
  7  9  1  0  0  0  0
 10  9  1  1  0  0  0
 10 11  1  0  0  0  0
 10 12  1  0  0  0  0
 11 16  1  0  0  0  0
 12 13  1  6  0  0  0
 12 14  1  0  0  0  0
 14 15  1  6  0  0  0
 14 16  1  0  0  0  0
 16 27  1  1  0  0  0
 18 19  2  0  0  0  0
 18 23  1  0  0  0  0
 19 20  1  0  0  0  0
 20 21  2  0  0  0  0
 21 22  1  0  0  0  0
 21 27  1  0  0  0  0
 22 23  2  0  0  0  0
 22 25  1  0  0  0  0
 23 24  1  0  0  0  0
 25 26  2  0  0  0  0
 26 27  1  0  0  0  0
M  END
>  <CHROM.1>
170.18496497,-171.93201068,-171.84957784,-166.75185649,-54.75277265,80.14263839
-102.60602040,14.83593752,-6.08868317,8.45355018,-1.14180435,-0.09905646
2.56203806

>  <Name>
ligand

>  <RI>
0

>  <Rbt.Current_Directory>
/home/itssahil/PROJECTS/Mol_Feturizer/Test_systems_manuscript/rnas/2ydh

>  <Rbt.Executable>
rbdock ($Id: //depot/dev/client3/rdock/2013.1/src/exe/rbdock.cxx#4 $)

>  <Rbt.Library>
libRbt.so (2013.1, Build901 2013/11/27)

>  <Rbt.Parameter_File>
/export/apps/rDock/src/rDock_2013.1_src/data/scripts/dock_solv.prm

>  <Rbt.Receptor>
prm/pocket_docking_6.prm

>  <SCORE>
-15.9941

>  <SCORE.INTER>
-14.4658

>  <SCORE.INTER.CONST>
1

>  <SCORE.INTER.POLAR>
0

>  <SCORE.INTER.ROT>
7

>  <SCORE.INTER.SOLV>
9.21919

>  <SCORE.INTER.VDW>
-20.9836

>  <SCORE.INTER.norm>
-0.53577

>  <SCORE.INTRA>
-1.52833

>  <SCORE.INTRA.DIHEDRAL>
-3.29368

>  <SCORE.INTRA.DIHEDRAL.0>
9.75037

>  <SCORE.INTRA.POLAR>
0

>  <SCORE.INTRA.POLAR.0>
0

>  <SCORE.INTRA.REPUL>
0

>  <SCORE.INTRA.REPUL.0>
0

>  <SCORE.INTRA.SOLV>
-1.14311

>  <SCORE.INTRA.SOLV.lig_0>
-48.4279

>  <SCORE.INTRA.VDW>
0.690066

>  <SCORE.INTRA.VDW.0>
-4.69037

>  <SCORE.INTRA.norm>
-0.0566047

>  <SCORE.RESTR>
0

>  <SCORE.RESTR.CAVITY>
0

>  <SCORE.RESTR.norm>
0

>  <SCORE.SYSTEM>
0

>  <SCORE.SYSTEM.CONST>
0

>  <SCORE.SYSTEM.DIHEDRAL>
0

>  <SCORE.SYSTEM.SOLV>
0

>  <SCORE.SYSTEM.norm>
0

>  <SCORE.heavy>
27

>  <SCORE.norm>
-0.592375

>  <RMSD>
5.793

$$$$
ligand
 OpenBabel02271912153D
libRbt.so/2013.1/901 2013/11/27
 27 29  0  0  0  0  0  0  0  0999 V2000
   15.7267   -3.6161   10.9246 N   0  0  0  0  0  0  0  0  0  0  0  0
   16.7092   -3.8468    9.8209 C   0  0  2  0  0  0  0  0  0  0  0  0
   18.1044   -4.1990   10.3833 C   0  0  0  0  0  0  0  0  0  0  0  0
   18.8307   -5.0221    9.8180 O   0  0  0  0  0  0  0  0  0  0  0  0
   16.7497   -2.6217    8.9136 C   0  0  0  0  0  0  0  0  0  0  0  0
   15.4444   -2.3277    8.1933 C   0  0  0  0  0  0  0  0  0  0  0  0
   14.8052   -3.7460    7.2570 S   0  0  2  0  0  0  0  0  0  0  0  0
   13.2523   -3.0562    6.6181 C   0  0  0  0  0  0  0  0  0  0  0  0
   14.2189   -4.9386    8.4710 C   0  0  0  0  0  0  0  0  0  0  0  0
   14.5114   -6.3397    7.9689 C   0  0  1  0  0  0  0  0  0  0  0  0
   14.9801   -7.1992    8.9963 O   0  0  0  0  0  0  0  0  0  0  0  0
   13.2797   -6.9835    7.3804 C   0  0  1  0  0  0  0  0  0  0  0  0
   13.1136   -6.6207    6.0397 O   0  0  0  0  0  0  0  0  0  0  0  0
   13.6110   -8.4369    7.5321 C   0  0  1  0  0  0  0  0  0  0  0  0
   14.3458   -8.8660    6.4015 O   0  0  0  0  0  0  0  0  0  0  0  0
   14.4761   -8.4977    8.7844 C   0  0  2  0  0  0  0  0  0  0  0  0
   18.5536   -3.6806   11.4220 O   0  0  0  0  0  0  0  0  0  0  0  0
   10.7936   -7.3992   12.4026 N   0  0  0  0  0  0  0  0  0  0  0  0
   11.2309   -6.5933   11.3615 C   0  0  0  0  0  0  0  0  0  0  0  0
   12.2275   -7.0257   10.4948 N   0  0  0  0  0  0  0  0  0  0  0  0
   12.7588   -8.2506   10.6610 C   0  0  0  0  0  0  0  0  0  0  0  0
   12.3158   -9.0777   11.6970 C   0  0  0  0  0  0  0  0  0  0  0  0
   11.3400   -8.6522   12.5796 C   0  0  0  0  0  0  0  0  0  0  0  0
   10.9312   -9.4354   13.5665 N   0  0  0  0  0  0  0  0  0  0  0  0
   12.9914  -10.2299   11.6271 N   0  0  0  0  0  0  0  0  0  0  0  0
   13.8428  -10.1574   10.5802 C   0  0  0  0  0  0  0  0  0  0  0  0
   13.7091   -8.9374    9.9653 N   0  0  0  0  0  0  0  0  0  0  0  0
  2  1  1  1  0  0  0
  2  3  1  0  0  0  0
  2  5  1  0  0  0  0
  3  4  1  0  0  0  0
  3 17  1  0  0  0  0
  5  6  1  0  0  0  0
  7  6  1  1  0  0  0
  7  8  1  0  0  0  0
  7  9  1  0  0  0  0
 10  9  1  1  0  0  0
 10 11  1  0  0  0  0
 10 12  1  0  0  0  0
 11 16  1  0  0  0  0
 12 13  1  6  0  0  0
 12 14  1  0  0  0  0
 14 15  1  6  0  0  0
 14 16  1  0  0  0  0
 16 27  1  1  0  0  0
 18 19  2  0  0  0  0
 18 23  1  0  0  0  0
 19 20  1  0  0  0  0
 20 21  2  0  0  0  0
 21 22  1  0  0  0  0
 21 27  1  0  0  0  0
 22 23  2  0  0  0  0
 22 25  1  0  0  0  0
 23 24  1  0  0  0  0
 25 26  2  0  0  0  0
 26 27  1  0  0  0  0
M  END
>  <CHROM.1>
143.39002401,-63.54890681,-53.75264586,177.64503884,-143.83142976,138.80423473
46.98810731,14.27580710,-6.32202936,9.44724709,-0.56767058,0.80812142,1.85135502

>  <Name>
ligand

>  <RI>
0

>  <Rbt.Current_Directory>
/home/itssahil/PROJECTS/Mol_Feturizer/Test_systems_manuscript/rnas/2ydh

>  <Rbt.Executable>
rbdock ($Id: //depot/dev/client3/rdock/2013.1/src/exe/rbdock.cxx#4 $)

>  <Rbt.Library>
libRbt.so (2013.1, Build901 2013/11/27)

>  <Rbt.Parameter_File>
/export/apps/rDock/src/rDock_2013.1_src/data/scripts/dock_solv.prm

>  <Rbt.Receptor>
prm/pocket_docking_5.prm

>  <SCORE>
-10.8884

>  <SCORE.INTER>
-13.3166

>  <SCORE.INTER.CONST>
1

>  <SCORE.INTER.POLAR>
0

>  <SCORE.INTER.ROT>
7

>  <SCORE.INTER.SOLV>
11.4302

>  <SCORE.INTER.VDW>
-20.9545

>  <SCORE.INTER.norm>
-0.493208

>  <SCORE.INTRA>
2.42822

>  <SCORE.INTRA.DIHEDRAL>
1.31764

>  <SCORE.INTRA.DIHEDRAL.0>
9.75037

>  <SCORE.INTRA.POLAR>
0

>  <SCORE.INTRA.POLAR.0>
0

>  <SCORE.INTRA.REPUL>
0

>  <SCORE.INTRA.REPUL.0>
0

>  <SCORE.INTRA.SOLV>
1.62153

>  <SCORE.INTRA.SOLV.lig_0>
-48.4279

>  <SCORE.INTRA.VDW>
0.958637

>  <SCORE.INTRA.VDW.0>
-4.69037

>  <SCORE.INTRA.norm>
0.0899342

>  <SCORE.RESTR>
0

>  <SCORE.RESTR.CAVITY>
0

>  <SCORE.RESTR.norm>
0

>  <SCORE.SYSTEM>
0

>  <SCORE.SYSTEM.CONST>
0

>  <SCORE.SYSTEM.DIHEDRAL>
0

>  <SCORE.SYSTEM.SOLV>
0

>  <SCORE.SYSTEM.norm>
0

>  <SCORE.heavy>
27

>  <SCORE.norm>
-0.403274

>  <RMSD>
5.801

$$$$
ligand
 OpenBabel02271912153D
libRbt.so/2013.1/901 2013/11/27
 27 29  0  0  0  0  0  0  0  0999 V2000
   15.2579   -9.4892    4.5103 N   0  0  0  0  0  0  0  0  0  0  0  0
   15.1360   -8.0571    4.9235 C   0  0  2  0  0  0  0  0  0  0  0  0
   16.1309   -7.7186    6.0559 C   0  0  0  0  0  0  0  0  0  0  0  0
   16.0920   -8.3126    7.1377 O   0  0  0  0  0  0  0  0  0  0  0  0
   13.6932   -7.7653    5.3221 C   0  0  0  0  0  0  0  0  0  0  0  0
   13.3490   -6.2875    5.4053 C   0  0  0  0  0  0  0  0  0  0  0  0
   14.3132   -5.3948    6.6585 S   0  0  2  0  0  0  0  0  0  0  0  0
   13.1958   -5.5047    8.0850 C   0  0  0  0  0  0  0  0  0  0  0  0
   14.2138   -3.6487    6.2329 C   0  0  0  0  0  0  0  0  0  0  0  0
   15.0494   -2.8518    7.2164 C   0  0  1  0  0  0  0  0  0  0  0  0
   14.3532   -2.5731    8.4213 O   0  0  0  0  0  0  0  0  0  0  0  0
   16.3106   -3.5897    7.5942 C   0  0  1  0  0  0  0  0  0  0  0  0
   17.3274   -3.3590    6.6617 O   0  0  0  0  0  0  0  0  0  0  0  0
   16.6192   -2.9749    8.9253 C   0  0  1  0  0  0  0  0  0  0  0  0
   17.3912   -1.8055    8.7289 O   0  0  0  0  0  0  0  0  0  0  0  0
   15.2546   -2.6219    9.5030 C   0  0  2  0  0  0  0  0  0  0  0  0
   17.0033   -6.8391    5.9347 O   0  0  0  0  0  0  0  0  0  0  0  0
   16.5152   -6.3362   13.0348 N   0  0  0  0  0  0  0  0  0  0  0  0
   17.3753   -5.5724   12.2592 C   0  0  0  0  0  0  0  0  0  0  0  0
   16.8821   -4.6371   11.3573 N   0  0  0  0  0  0  0  0  0  0  0  0
   15.5523   -4.4608   11.2527 C   0  0  0  0  0  0  0  0  0  0  0  0
   14.6763   -5.2136   12.0398 C   0  0  0  0  0  0  0  0  0  0  0  0
   15.1522   -6.1626   12.9257 C   0  0  0  0  0  0  0  0  0  0  0  0
   14.3176   -6.8813   13.6615 N   0  0  0  0  0  0  0  0  0  0  0  0
   13.4268   -4.8339   11.7506 N   0  0  0  0  0  0  0  0  0  0  0  0
   13.4867   -3.8654   10.8101 C   0  0  0  0  0  0  0  0  0  0  0  0
   14.7987   -3.6170   10.4919 N   0  0  0  0  0  0  0  0  0  0  0  0
  2  1  1  1  0  0  0
  2  3  1  0  0  0  0
  2  5  1  0  0  0  0
  3  4  1  0  0  0  0
  3 17  1  0  0  0  0
  5  6  1  0  0  0  0
  7  6  1  6  0  0  0
  7  8  1  0  0  0  0
  7  9  1  0  0  0  0
 10  9  1  6  0  0  0
 10 11  1  0  0  0  0
 10 12  1  0  0  0  0
 11 16  1  0  0  0  0
 12 13  1  6  0  0  0
 12 14  1  0  0  0  0
 14 15  1  6  0  0  0
 14 16  1  0  0  0  0
 16 27  1  1  0  0  0
 18 19  2  0  0  0  0
 18 23  1  0  0  0  0
 19 20  1  0  0  0  0
 20 21  2  0  0  0  0
 21 22  1  0  0  0  0
 21 27  1  0  0  0  0
 22 23  2  0  0  0  0
 22 25  1  0  0  0  0
 23 24  1  0  0  0  0
 25 26  2  0  0  0  0
 26 27  1  0  0  0  0
M  END
>  <CHROM.1>
-59.79549348,-164.49593487,-62.02776252,-93.18411117,-177.76864324,-82.88563072
143.45220745,15.26174820,-5.19887308,8.58780961,2.00440310,-1.43605913,-1.48368643

>  <Name>
ligand

>  <RI>
0

>  <Rbt.Current_Directory>
/home/itssahil/PROJECTS/Mol_Feturizer/Test_systems_manuscript/rnas/2ydh

>  <Rbt.Executable>
rbdock ($Id: //depot/dev/client3/rdock/2013.1/src/exe/rbdock.cxx#4 $)

>  <Rbt.Library>
libRbt.so (2013.1, Build901 2013/11/27)

>  <Rbt.Parameter_File>
/export/apps/rDock/src/rDock_2013.1_src/data/scripts/dock_solv.prm

>  <Rbt.Receptor>
prm/pocket_docking_3.prm

>  <SCORE>
-11.2141

>  <SCORE.INTER>
-11.8822

>  <SCORE.INTER.CONST>
1

>  <SCORE.INTER.POLAR>
0

>  <SCORE.INTER.ROT>
7

>  <SCORE.INTER.SOLV>
16.7088

>  <SCORE.INTER.VDW>
-21.7578

>  <SCORE.INTER.norm>
-0.440083

>  <SCORE.INTRA>
0.658746

>  <SCORE.INTRA.DIHEDRAL>
-2.06113

>  <SCORE.INTRA.DIHEDRAL.0>
9.75037

>  <SCORE.INTRA.POLAR>
0

>  <SCORE.INTRA.POLAR.0>
0

>  <SCORE.INTRA.REPUL>
0

>  <SCORE.INTRA.REPUL.0>
0

>  <SCORE.INTRA.SOLV>
-1.05362

>  <SCORE.INTRA.SOLV.lig_0>
-48.4279

>  <SCORE.INTRA.VDW>
2.21612

>  <SCORE.INTRA.VDW.0>
-4.69037

>  <SCORE.INTRA.norm>
0.024398

>  <SCORE.RESTR>
0.00940973

>  <SCORE.RESTR.CAVITY>
0.00940973

>  <SCORE.RESTR.norm>
0.000348509

>  <SCORE.SYSTEM>
0

>  <SCORE.SYSTEM.CONST>
0

>  <SCORE.SYSTEM.DIHEDRAL>
0

>  <SCORE.SYSTEM.SOLV>
0

>  <SCORE.SYSTEM.norm>
0

>  <SCORE.heavy>
27

>  <SCORE.norm>
-0.415337

>  <RMSD>
5.810

$$$$
ligand
 OpenBabel02271912153D
libRbt.so/2013.1/901 2013/11/27
 27 29  0  0  0  0  0  0  0  0999 V2000
   14.0223   -7.8641   10.4121 N   0  0  0  0  0  0  0  0  0  0  0  0
   13.4281   -6.4924   10.4580 C   0  0  2  0  0  0  0  0  0  0  0  0
   12.5688   -6.3012   11.7275 C   0  0  0  0  0  0  0  0  0  0  0  0
   11.3354   -6.2944   11.6679 O   0  0  0  0  0  0  0  0  0  0  0  0
   12.6300   -6.2425    9.1828 C   0  0  0  0  0  0  0  0  0  0  0  0
   13.4779   -6.0436    7.9375 C   0  0  0  0  0  0  0  0  0  0  0  0
   14.4192   -4.4910    7.9498 S   0  0  2  0  0  0  0  0  0  0  0  0
   13.2786   -3.3980    7.0552 C   0  0  0  0  0  0  0  0  0  0  0  0
   15.7576   -4.6944    6.7635 C   0  0  0  0  0  0  0  0  0  0  0  0
   16.5795   -5.9094    7.1492 C   0  0  1  0  0  0  0  0  0  0  0  0
   15.9966   -7.1244    6.7040 O   0  0  0  0  0  0  0  0  0  0  0  0
   17.9692   -5.8444    6.5639 C   0  0  1  0  0  0  0  0  0  0  0  0
   18.8259   -5.1008    7.3823 O   0  0  0  0  0  0  0  0  0  0  0  0
   18.3401   -7.2958    6.5342 C   0  0  1  0  0  0  0  0  0  0  0  0
   18.9077   -7.6555    7.7795 O   0  0  0  0  0  0  0  0  0  0  0  0
   17.0162   -8.0191    6.3233 C   0  0  2  0  0  0  0  0  0  0  0  0
   13.0726   -6.1416   12.8545 O   0  0  0  0  0  0  0  0  0  0  0  0
   13.8802   -8.1664    2.0804 N   0  0  0  0  0  0  0  0  0  0  0  0
   13.6070   -7.6104    3.3217 C   0  0  0  0  0  0  0  0  0  0  0  0
   14.5408   -7.6663    4.3495 N   0  0  0  0  0  0  0  0  0  0  0  0
   15.7312   -8.2522    4.1264 C   0  0  0  0  0  0  0  0  0  0  0  0
   16.0238   -8.8025    2.8754 C   0  0  0  0  0  0  0  0  0  0  0  0
   15.0964   -8.7729    1.8503 C   0  0  0  0  0  0  0  0  0  0  0  0
   15.3742   -9.3055    0.6697 N   0  0  0  0  0  0  0  0  0  0  0  0
   17.2637   -9.3022    2.9206 N   0  0  0  0  0  0  0  0  0  0  0  0
   17.7627   -9.0825    4.1571 C   0  0  0  0  0  0  0  0  0  0  0  0
   16.8270   -8.4273    4.9185 N   0  0  0  0  0  0  0  0  0  0  0  0
  2  1  1  6  0  0  0
  2  3  1  0  0  0  0
  2  5  1  0  0  0  0
  3  4  1  0  0  0  0
  3 17  1  0  0  0  0
  5  6  1  0  0  0  0
  7  6  1  6  0  0  0
  7  8  1  0  0  0  0
  7  9  1  0  0  0  0
 10  9  1  6  0  0  0
 10 11  1  0  0  0  0
 10 12  1  0  0  0  0
 11 16  1  0  0  0  0
 12 13  1  1  0  0  0
 12 14  1  0  0  0  0
 14 15  1  1  0  0  0
 14 16  1  0  0  0  0
 16 27  1  6  0  0  0
 18 19  2  0  0  0  0
 18 23  1  0  0  0  0
 19 20  1  0  0  0  0
 20 21  2  0  0  0  0
 21 22  1  0  0  0  0
 21 27  1  0  0  0  0
 22 23  2  0  0  0  0
 22 25  1  0  0  0  0
 23 24  1  0  0  0  0
 25 26  2  0  0  0  0
 26 27  1  0  0  0  0
M  END
>  <CHROM.1>
-105.57881179,-72.03016258,-68.89964914,-93.71709510,-56.89262645,81.64029126
-13.28003806,15.27267500,-6.87601058,6.69182323,1.92574495,0.00366782,1.23118319

>  <Name>
ligand

>  <RI>
0

>  <Rbt.Current_Directory>
/home/itssahil/PROJECTS/Mol_Feturizer/Test_systems_manuscript/rnas/2ydh

>  <Rbt.Executable>
rbdock ($Id: //depot/dev/client3/rdock/2013.1/src/exe/rbdock.cxx#4 $)

>  <Rbt.Library>
libRbt.so (2013.1, Build901 2013/11/27)

>  <Rbt.Parameter_File>
/export/apps/rDock/src/rDock_2013.1_src/data/scripts/dock_solv.prm

>  <Rbt.Receptor>
prm/pocket_docking_7.prm

>  <SCORE>
-15.6444

>  <SCORE.INTER>
-16.4338

>  <SCORE.INTER.CONST>
1

>  <SCORE.INTER.POLAR>
0

>  <SCORE.INTER.ROT>
7

>  <SCORE.INTER.SOLV>
13.1163

>  <SCORE.INTER.VDW>
-23.5946

>  <SCORE.INTER.norm>
-0.608659

>  <SCORE.INTRA>
0.789398

>  <SCORE.INTRA.DIHEDRAL>
-2.14531

>  <SCORE.INTRA.DIHEDRAL.0>
9.75037

>  <SCORE.INTRA.POLAR>
0

>  <SCORE.INTRA.POLAR.0>
0

>  <SCORE.INTRA.REPUL>
0

>  <SCORE.INTRA.REPUL.0>
0

>  <SCORE.INTRA.SOLV>
-0.452524

>  <SCORE.INTRA.SOLV.lig_0>
-48.4279

>  <SCORE.INTRA.VDW>
2.08832

>  <SCORE.INTRA.VDW.0>
-4.69037

>  <SCORE.INTRA.norm>
0.029237

>  <SCORE.RESTR>
0

>  <SCORE.RESTR.CAVITY>
0

>  <SCORE.RESTR.norm>
0

>  <SCORE.SYSTEM>
0

>  <SCORE.SYSTEM.CONST>
0

>  <SCORE.SYSTEM.DIHEDRAL>
0

>  <SCORE.SYSTEM.SOLV>
0

>  <SCORE.SYSTEM.norm>
0

>  <SCORE.heavy>
27

>  <SCORE.norm>
-0.579422

>  <RMSD>
5.810

$$$$
ligand
 OpenBabel02271912153D
libRbt.so/2013.1/901 2013/11/27
 27 29  0  0  0  0  0  0  0  0999 V2000
   15.2123   -3.9467   11.9815 N   0  0  0  0  0  0  0  0  0  0  0  0
   13.8319   -4.0608   11.4175 C   0  0  2  0  0  0  0  0  0  0  0  0
   13.2881   -5.4992   11.5655 C   0  0  0  0  0  0  0  0  0  0  0  0
   12.1477   -5.7094   11.9897 O   0  0  0  0  0  0  0  0  0  0  0  0
   13.8377   -3.5970    9.9647 C   0  0  0  0  0  0  0  0  0  0  0  0
   14.7530   -4.3958    9.0519 C   0  0  0  0  0  0  0  0  0  0  0  0
   14.7732   -3.7853    7.3420 S   0  0  2  0  0  0  0  0  0  0  0  0
   13.1774   -4.4092    6.7423 C   0  0  0  0  0  0  0  0  0  0  0  0
   15.9445   -4.8159    6.4442 C   0  0  0  0  0  0  0  0  0  0  0  0
   15.7772   -6.2564    6.8886 C   0  0  1  0  0  0  0  0  0  0  0  0
   15.1244   -7.0544    5.9133 O   0  0  0  0  0  0  0  0  0  0  0  0
   17.1102   -6.9052    7.1716 C   0  0  1  0  0  0  0  0  0  0  0  0
   17.5358   -6.6330    8.4760 O   0  0  0  0  0  0  0  0  0  0  0  0
   16.7750   -8.3530    6.9807 C   0  0  1  0  0  0  0  0  0  0  0  0
   16.2867   -8.8810    8.1993 O   0  0  0  0  0  0  0  0  0  0  0  0
   15.6781   -8.3499    5.9238 C   0  0  2  0  0  0  0  0  0  0  0  0
   13.9668   -6.5008   11.2732 O   0  0  0  0  0  0  0  0  0  0  0  0
   14.8925   -8.4617    0.7056 N   0  0  0  0  0  0  0  0  0  0  0  0
   14.0255   -8.0040    1.6872 C   0  0  0  0  0  0  0  0  0  0  0  0
   14.3777   -8.0556    3.0306 N   0  0  0  0  0  0  0  0  0  0  0  0
   15.5844   -8.5396    3.3768 C   0  0  0  0  0  0  0  0  0  0  0  0
   16.4725   -8.9897    2.3958 C   0  0  0  0  0  0  0  0  0  0  0  0
   16.1269   -8.9640    1.0572 C   0  0  0  0  0  0  0  0  0  0  0  0
   16.9677   -9.4018    0.1320 N   0  0  0  0  0  0  0  0  0  0  0  0
   17.5905   -9.4008    3.0042 N   0  0  0  0  0  0  0  0  0  0  0  0
   17.4374   -9.2220    4.3349 C   0  0  0  0  0  0  0  0  0  0  0  0
   16.1996   -8.6837    4.5849 N   0  0  0  0  0  0  0  0  0  0  0  0
  2  1  1  6  0  0  0
  2  3  1  0  0  0  0
  2  5  1  0  0  0  0
  3  4  1  0  0  0  0
  3 17  1  0  0  0  0
  5  6  1  0  0  0  0
  7  6  1  1  0  0  0
  7  8  1  0  0  0  0
  7  9  1  0  0  0  0
 10  9  1  6  0  0  0
 10 11  1  0  0  0  0
 10 12  1  0  0  0  0
 11 16  1  0  0  0  0
 12 13  1  1  0  0  0
 12 14  1  0  0  0  0
 14 15  1  1  0  0  0
 14 16  1  0  0  0  0
 16 27  1  6  0  0  0
 18 19  2  0  0  0  0
 18 23  1  0  0  0  0
 19 20  1  0  0  0  0
 20 21  2  0  0  0  0
 21 22  1  0  0  0  0
 21 27  1  0  0  0  0
 22 23  2  0  0  0  0
 22 25  1  0  0  0  0
 23 24  1  0  0  0  0
 25 26  2  0  0  0  0
 26 27  1  0  0  0  0
M  END
>  <CHROM.1>
133.50970497,60.13984034,-178.25788870,-75.63259374,40.50725018,105.97839580
-48.09302313,15.31445893,-6.73255537,6.52904136,-1.91472191,0.89844172,-1.74829741

>  <Name>
ligand

>  <RI>
0

>  <Rbt.Current_Directory>
/home/itssahil/PROJECTS/Mol_Feturizer/Test_systems_manuscript/rnas/2ydh

>  <Rbt.Executable>
rbdock ($Id: //depot/dev/client3/rdock/2013.1/src/exe/rbdock.cxx#4 $)

>  <Rbt.Library>
libRbt.so (2013.1, Build901 2013/11/27)

>  <Rbt.Parameter_File>
/export/apps/rDock/src/rDock_2013.1_src/data/scripts/dock_solv.prm

>  <Rbt.Receptor>
prm/pocket_docking_8.prm

>  <SCORE>
-13.5051

>  <SCORE.INTER>
-15.3467

>  <SCORE.INTER.CONST>
1

>  <SCORE.INTER.POLAR>
0

>  <SCORE.INTER.ROT>
7

>  <SCORE.INTER.SOLV>
14.5003

>  <SCORE.INTER.VDW>
-23.3312

>  <SCORE.INTER.norm>
-0.568395

>  <SCORE.INTRA>
1.84153

>  <SCORE.INTRA.DIHEDRAL>
-1.46739

>  <SCORE.INTRA.DIHEDRAL.0>
9.75037

>  <SCORE.INTRA.POLAR>
0

>  <SCORE.INTRA.POLAR.0>
0

>  <SCORE.INTRA.REPUL>
0

>  <SCORE.INTRA.REPUL.0>
0

>  <SCORE.INTRA.SOLV>
-0.630884

>  <SCORE.INTRA.SOLV.lig_0>
-48.4279

>  <SCORE.INTRA.VDW>
2.89066

>  <SCORE.INTRA.VDW.0>
-4.69037

>  <SCORE.INTRA.norm>
0.0682047

>  <SCORE.RESTR>
0

>  <SCORE.RESTR.CAVITY>
0

>  <SCORE.RESTR.norm>
0

>  <SCORE.SYSTEM>
0

>  <SCORE.SYSTEM.CONST>
0

>  <SCORE.SYSTEM.DIHEDRAL>
0

>  <SCORE.SYSTEM.SOLV>
0

>  <SCORE.SYSTEM.norm>
0

>  <SCORE.heavy>
27

>  <SCORE.norm>
-0.50019

>  <RMSD>
5.834

$$$$
ligand
 OpenBabel02271912153D
libRbt.so/2013.1/901 2013/11/27
 27 29  0  0  0  0  0  0  0  0999 V2000
   13.9248   -2.8673    9.1624 N   0  0  0  0  0  0  0  0  0  0  0  0
   14.9312   -2.8266    8.0569 C   0  0  2  0  0  0  0  0  0  0  0  0
   15.9863   -1.7260    8.3060 C   0  0  0  0  0  0  0  0  0  0  0  0
   16.7159   -1.7554    9.3017 O   0  0  0  0  0  0  0  0  0  0  0  0
   14.2135   -2.6414    6.7242 C   0  0  0  0  0  0  0  0  0  0  0  0
   13.4456   -3.8627    6.2469 C   0  0  0  0  0  0  0  0  0  0  0  0
   14.4639   -5.3636    6.1621 S   0  0  2  0  0  0  0  0  0  0  0  0
   13.2524   -6.5577    5.5280 C   0  0  0  0  0  0  0  0  0  0  0  0
   14.6946   -5.9222    7.8576 C   0  0  0  0  0  0  0  0  0  0  0  0
   16.1052   -6.4573    8.0142 C   0  0  1  0  0  0  0  0  0  0  0  0
   16.6298   -6.2368    9.3143 O   0  0  0  0  0  0  0  0  0  0  0  0
   16.1632   -7.9438    7.7594 C   0  0  1  0  0  0  0  0  0  0  0  0
   16.2939   -8.2159    6.3936 O   0  0  0  0  0  0  0  0  0  0  0  0
   17.3925   -8.3224    8.5278 C   0  0  1  0  0  0  0  0  0  0  0  0
   18.5270   -8.1606    7.6978 O   0  0  0  0  0  0  0  0  0  0  0  0
   17.4334   -7.3329    9.6852 C   0  0  2  0  0  0  0  0  0  0  0  0
   16.1446   -0.7675    7.5278 O   0  0  0  0  0  0  0  0  0  0  0  0
   15.1531   -6.6047   14.3893 N   0  0  0  0  0  0  0  0  0  0  0  0
   15.4646   -5.6453   13.4369 C   0  0  0  0  0  0  0  0  0  0  0  0
   16.0823   -5.9992   12.2433 N   0  0  0  0  0  0  0  0  0  0  0  0
   16.3627   -7.2935   12.0055 C   0  0  0  0  0  0  0  0  0  0  0  0
   16.0398   -8.2710   12.9509 C   0  0  0  0  0  0  0  0  0  0  0  0
   15.4445   -7.9308   14.1516 C   0  0  0  0  0  0  0  0  0  0  0  0
   15.1504   -8.8596   15.0491 N   0  0  0  0  0  0  0  0  0  0  0  0
   16.4097   -9.4600   12.4625 N   0  0  0  0  0  0  0  0  0  0  0  0
   16.9519   -9.2644   11.2402 C   0  0  0  0  0  0  0  0  0  0  0  0
   16.9269   -7.9257   10.9375 N   0  0  0  0  0  0  0  0  0  0  0  0
  2  1  1  1  0  0  0
  2  3  1  0  0  0  0
  2  5  1  0  0  0  0
  3  4  1  0  0  0  0
  3 17  1  0  0  0  0
  5  6  1  0  0  0  0
  7  6  1  1  0  0  0
  7  8  1  0  0  0  0
  7  9  1  0  0  0  0
 10  9  1  1  0  0  0
 10 11  1  0  0  0  0
 10 12  1  0  0  0  0
 11 16  1  0  0  0  0
 12 13  1  6  0  0  0
 12 14  1  0  0  0  0
 14 15  1  6  0  0  0
 14 16  1  0  0  0  0
 16 27  1  1  0  0  0
 18 19  2  0  0  0  0
 18 23  1  0  0  0  0
 19 20  1  0  0  0  0
 20 21  2  0  0  0  0
 21 22  1  0  0  0  0
 21 27  1  0  0  0  0
 22 23  2  0  0  0  0
 22 25  1  0  0  0  0
 23 24  1  0  0  0  0
 25 26  2  0  0  0  0
 26 27  1  0  0  0  0
M  END
>  <CHROM.1>
61.19537187,-71.82661730,-54.30266226,-178.49111730,-142.15046576,147.58864219
-35.27247214,15.73265459,-5.99795615,9.40058034,2.41110788,1.34776510,-1.75083008

>  <Name>
ligand

>  <RI>
0

>  <Rbt.Current_Directory>
/home/itssahil/PROJECTS/Mol_Feturizer/Test_systems_manuscript/rnas/2ydh

>  <Rbt.Executable>
rbdock ($Id: //depot/dev/client3/rdock/2013.1/src/exe/rbdock.cxx#4 $)

>  <Rbt.Library>
libRbt.so (2013.1, Build901 2013/11/27)

>  <Rbt.Parameter_File>
/export/apps/rDock/src/rDock_2013.1_src/data/scripts/dock_solv.prm

>  <Rbt.Receptor>
prm/pocket_docking_6.prm

>  <SCORE>
-9.87023

>  <SCORE.INTER>
-13.0416

>  <SCORE.INTER.CONST>
1

>  <SCORE.INTER.POLAR>
0

>  <SCORE.INTER.ROT>
7

>  <SCORE.INTER.SOLV>
12.5954

>  <SCORE.INTER.VDW>
-21.1596

>  <SCORE.INTER.norm>
-0.483024

>  <SCORE.INTRA>
3.17142

>  <SCORE.INTRA.DIHEDRAL>
0.930605

>  <SCORE.INTRA.DIHEDRAL.0>
9.75037

>  <SCORE.INTRA.POLAR>
0

>  <SCORE.INTRA.POLAR.0>
0

>  <SCORE.INTRA.REPUL>
0

>  <SCORE.INTRA.REPUL.0>
0

>  <SCORE.INTRA.SOLV>
1.03718

>  <SCORE.INTRA.SOLV.lig_0>
-48.4279

>  <SCORE.INTRA.VDW>
2.18752

>  <SCORE.INTRA.VDW.0>
-4.69037

>  <SCORE.INTRA.norm>
0.11746

>  <SCORE.RESTR>
0

>  <SCORE.RESTR.CAVITY>
0

>  <SCORE.RESTR.norm>
0

>  <SCORE.SYSTEM>
0

>  <SCORE.SYSTEM.CONST>
0

>  <SCORE.SYSTEM.DIHEDRAL>
0

>  <SCORE.SYSTEM.SOLV>
0

>  <SCORE.SYSTEM.norm>
0

>  <SCORE.heavy>
27

>  <SCORE.norm>
-0.365564

>  <RMSD>
5.870

$$$$
ligand
 OpenBabel02271912153D
libRbt.so/2013.1/901 2013/11/27
 27 29  0  0  0  0  0  0  0  0999 V2000
   18.8881   -6.8726    8.5781 N   0  0  0  0  0  0  0  0  0  0  0  0
   18.2269   -8.1010    8.0390 C   0  0  2  0  0  0  0  0  0  0  0  0
   18.6669   -8.3760    6.5839 C   0  0  0  0  0  0  0  0  0  0  0  0
   19.2118   -9.4394    6.2724 O   0  0  0  0  0  0  0  0  0  0  0  0
   16.7136   -7.9584    8.1628 C   0  0  0  0  0  0  0  0  0  0  0  0
   16.1338   -6.7508    7.4454 C   0  0  0  0  0  0  0  0  0  0  0  0
   14.3200   -6.6849    7.5006 S   0  0  2  0  0  0  0  0  0  0  0  0
   13.8989   -8.0877    6.4280 C   0  0  0  0  0  0  0  0  0  0  0  0
   13.8280   -5.2766    6.4934 C   0  0  0  0  0  0  0  0  0  0  0  0
   13.9233   -4.0141    7.3287 C   0  0  1  0  0  0  0  0  0  0  0  0
   13.0669   -4.0441    8.4599 O   0  0  0  0  0  0  0  0  0  0  0  0
   15.3261   -3.7956    7.8408 C   0  0  1  0  0  0  0  0  0  0  0  0
   16.1117   -3.1343    6.8909 O   0  0  0  0  0  0  0  0  0  0  0  0
   15.0660   -2.9439    9.0458 C   0  0  1  0  0  0  0  0  0  0  0  0
   15.0236   -1.5850    8.6534 O   0  0  0  0  0  0  0  0  0  0  0  0
   13.6990   -3.3984    9.5409 C   0  0  2  0  0  0  0  0  0  0  0  0
   18.5001   -7.5473    5.6702 O   0  0  0  0  0  0  0  0  0  0  0  0
   12.3776   -8.0295   11.7010 N   0  0  0  0  0  0  0  0  0  0  0  0
   12.0061   -7.5322   10.4602 C   0  0  0  0  0  0  0  0  0  0  0  0
   12.4295   -6.2774   10.0387 N   0  0  0  0  0  0  0  0  0  0  0  0
   13.2255   -5.5473   10.8409 C   0  0  0  0  0  0  0  0  0  0  0  0
   13.6188   -6.0439   12.0868 C   0  0  0  0  0  0  0  0  0  0  0  0
   13.1878   -7.2815   12.5279 C   0  0  0  0  0  0  0  0  0  0  0  0
   13.5544   -7.7432   13.7141 N   0  0  0  0  0  0  0  0  0  0  0  0
   14.4094   -5.1339   12.6664 N   0  0  0  0  0  0  0  0  0  0  0  0
   14.5294   -4.0823   11.8263 C   0  0  0  0  0  0  0  0  0  0  0  0
   13.8050   -4.3230   10.6854 N   0  0  0  0  0  0  0  0  0  0  0  0
  2  1  1  6  0  0  0
  2  3  1  0  0  0  0
  2  5  1  0  0  0  0
  3  4  1  0  0  0  0
  3 17  1  0  0  0  0
  5  6  1  0  0  0  0
  7  6  1  6  0  0  0
  7  8  1  0  0  0  0
  7  9  1  0  0  0  0
 10  9  1  1  0  0  0
 10 11  1  0  0  0  0
 10 12  1  0  0  0  0
 11 16  1  0  0  0  0
 12 13  1  6  0  0  0
 12 14  1  0  0  0  0
 14 15  1  6  0  0  0
 14 16  1  0  0  0  0
 16 27  1  1  0  0  0
 18 19  2  0  0  0  0
 18 23  1  0  0  0  0
 19 20  1  0  0  0  0
 20 21  2  0  0  0  0
 21 22  1  0  0  0  0
 21 27  1  0  0  0  0
 22 23  2  0  0  0  0
 22 25  1  0  0  0  0
 23 24  1  0  0  0  0
 25 26  2  0  0  0  0
 26 27  1  0  0  0  0
M  END
>  <CHROM.1>
121.49434572,58.23442529,175.36309477,-69.22536823,-83.12256034,-61.05603557
-10.01838535,14.97735264,-5.94894529,8.92179032,-0.04984750,-0.84762238,2.63939247

>  <Name>
ligand

>  <RI>
0

>  <Rbt.Current_Directory>
/home/itssahil/PROJECTS/Mol_Feturizer/Test_systems_manuscript/rnas/2ydh

>  <Rbt.Executable>
rbdock ($Id: //depot/dev/client3/rdock/2013.1/src/exe/rbdock.cxx#4 $)

>  <Rbt.Library>
libRbt.so (2013.1, Build901 2013/11/27)

>  <Rbt.Parameter_File>
/export/apps/rDock/src/rDock_2013.1_src/data/scripts/dock_solv.prm

>  <Rbt.Receptor>
prm/pocket_docking_6.prm

>  <SCORE>
-12.735

>  <SCORE.INTER>
-10.9552

>  <SCORE.INTER.CONST>
1

>  <SCORE.INTER.POLAR>
0

>  <SCORE.INTER.ROT>
7

>  <SCORE.INTER.SOLV>
7.14827

>  <SCORE.INTER.VDW>
-17.9529

>  <SCORE.INTER.norm>
-0.405746

>  <SCORE.INTRA>
-1.77984

>  <SCORE.INTRA.DIHEDRAL>
-5.91558

>  <SCORE.INTRA.DIHEDRAL.0>
9.75037

>  <SCORE.INTRA.POLAR>
0

>  <SCORE.INTRA.POLAR.0>
0

>  <SCORE.INTRA.REPUL>
0

>  <SCORE.INTRA.REPUL.0>
0

>  <SCORE.INTRA.SOLV>
-0.408313

>  <SCORE.INTRA.SOLV.lig_0>
-48.4279

>  <SCORE.INTRA.VDW>
1.38211

>  <SCORE.INTRA.VDW.0>
-4.69037

>  <SCORE.INTRA.norm>
-0.06592

>  <SCORE.RESTR>
0

>  <SCORE.RESTR.CAVITY>
0

>  <SCORE.RESTR.norm>
0

>  <SCORE.SYSTEM>
0

>  <SCORE.SYSTEM.CONST>
0

>  <SCORE.SYSTEM.DIHEDRAL>
0

>  <SCORE.SYSTEM.SOLV>
0

>  <SCORE.SYSTEM.norm>
0

>  <SCORE.heavy>
27

>  <SCORE.norm>
-0.471666

>  <RMSD>
5.879

$$$$
ligand
 OpenBabel02271912153D
libRbt.so/2013.1/901 2013/11/27
 27 29  0  0  0  0  0  0  0  0999 V2000
   12.7451   -6.1794   11.2127 N   0  0  0  0  0  0  0  0  0  0  0  0
   14.0956   -5.9820   10.6013 C   0  0  2  0  0  0  0  0  0  0  0  0
   14.5020   -4.4916   10.6205 C   0  0  0  0  0  0  0  0  0  0  0  0
   13.7202   -3.6224   11.0180 O   0  0  0  0  0  0  0  0  0  0  0  0
   14.1029   -6.5598    9.1901 C   0  0  0  0  0  0  0  0  0  0  0  0
   13.1699   -5.8583    8.2171 C   0  0  0  0  0  0  0  0  0  0  0  0
   13.8239   -4.2779    7.6075 S   0  0  2  0  0  0  0  0  0  0  0  0
   12.4491   -3.7264    6.5580 C   0  0  0  0  0  0  0  0  0  0  0  0
   15.0894   -4.6820    6.3929 C   0  0  0  0  0  0  0  0  0  0  0  0
   16.2945   -5.2616    7.1087 C   0  0  1  0  0  0  0  0  0  0  0  0
   16.3743   -6.6731    6.9844 O   0  0  0  0  0  0  0  0  0  0  0  0
   17.5840   -4.6955    6.5660 C   0  0  1  0  0  0  0  0  0  0  0  0
   17.8991   -3.4800    7.1823 O   0  0  0  0  0  0  0  0  0  0  0  0
   18.5531   -5.7784    6.9313 C   0  0  1  0  0  0  0  0  0  0  0  0
   19.0327   -5.5492    8.2427 O   0  0  0  0  0  0  0  0  0  0  0  0
   17.7261   -7.0567    6.8822 C   0  0  2  0  0  0  0  0  0  0  0  0
   15.6197   -4.1015   10.2360 O   0  0  0  0  0  0  0  0  0  0  0  0
   21.1250   -9.3482    3.5571 N   0  0  0  0  0  0  0  0  0  0  0  0
   21.4085   -8.6953    4.7479 C   0  0  0  0  0  0  0  0  0  0  0  0
   20.3939   -8.1274    5.5092 N   0  0  0  0  0  0  0  0  0  0  0  0
   19.1195   -8.2314    5.0904 C   0  0  0  0  0  0  0  0  0  0  0  0
   18.8199   -8.9000    3.9001 C   0  0  0  0  0  0  0  0  0  0  0  0
   19.8212   -9.4512    3.1220 C   0  0  0  0  0  0  0  0  0  0  0  0
   19.5332  -10.0744    1.9892 N   0  0  0  0  0  0  0  0  0  0  0  0
   17.4937   -8.8692    3.7284 N   0  0  0  0  0  0  0  0  0  0  0  0
   16.9480   -8.2063    4.7719 C   0  0  0  0  0  0  0  0  0  0  0  0
   17.9418   -7.8069    5.6305 N   0  0  0  0  0  0  0  0  0  0  0  0
  2  1  1  6  0  0  0
  2  3  1  0  0  0  0
  2  5  1  0  0  0  0
  3  4  1  0  0  0  0
  3 17  1  0  0  0  0
  5  6  1  0  0  0  0
  7  6  1  6  0  0  0
  7  8  1  0  0  0  0
  7  9  1  0  0  0  0
 10  9  1  6  0  0  0
 10 11  1  0  0  0  0
 10 12  1  0  0  0  0
 11 16  1  0  0  0  0
 12 13  1  1  0  0  0
 12 14  1  0  0  0  0
 14 15  1  1  0  0  0
 14 16  1  0  0  0  0
 16 27  1  6  0  0  0
 18 19  2  0  0  0  0
 18 23  1  0  0  0  0
 19 20  1  0  0  0  0
 20 21  2  0  0  0  0
 21 22  1  0  0  0  0
 21 27  1  0  0  0  0
 22 23  2  0  0  0  0
 22 25  1  0  0  0  0
 23 24  1  0  0  0  0
 25 26  2  0  0  0  0
 26 27  1  0  0  0  0
M  END
>  <CHROM.1>
-4.66532205,64.48584605,77.46107044,-177.95011730,-70.83038543,103.03480803
172.59923651,16.65683839,-6.31371205,6.91951178,2.27801586,-0.07177176,0.97261098

>  <Name>
ligand

>  <RI>
0

>  <Rbt.Current_Directory>
/home/itssahil/PROJECTS/Mol_Feturizer/Test_systems_manuscript/rnas/2ydh

>  <Rbt.Executable>
rbdock ($Id: //depot/dev/client3/rdock/2013.1/src/exe/rbdock.cxx#4 $)

>  <Rbt.Library>
libRbt.so (2013.1, Build901 2013/11/27)

>  <Rbt.Parameter_File>
/export/apps/rDock/src/rDock_2013.1_src/data/scripts/dock_solv.prm

>  <Rbt.Receptor>
prm/pocket_docking_7.prm

>  <SCORE>
-11.6442

>  <SCORE.INTER>
-11.8825

>  <SCORE.INTER.CONST>
1

>  <SCORE.INTER.POLAR>
0

>  <SCORE.INTER.ROT>
7

>  <SCORE.INTER.SOLV>
11.2187

>  <SCORE.INTER.VDW>
-19.9279

>  <SCORE.INTER.norm>
-0.440093

>  <SCORE.INTRA>
0.238342

>  <SCORE.INTRA.DIHEDRAL>
-1.01013

>  <SCORE.INTRA.DIHEDRAL.0>
9.75037

>  <SCORE.INTRA.POLAR>
0

>  <SCORE.INTRA.POLAR.0>
0

>  <SCORE.INTRA.REPUL>
0

>  <SCORE.INTRA.REPUL.0>
0

>  <SCORE.INTRA.SOLV>
-0.274886

>  <SCORE.INTRA.SOLV.lig_0>
-48.4279

>  <SCORE.INTRA.VDW>
0.880852

>  <SCORE.INTRA.VDW.0>
-4.69037

>  <SCORE.INTRA.norm>
0.00882749

>  <SCORE.RESTR>
0

>  <SCORE.RESTR.CAVITY>
0

>  <SCORE.RESTR.norm>
0

>  <SCORE.SYSTEM>
0

>  <SCORE.SYSTEM.CONST>
0

>  <SCORE.SYSTEM.DIHEDRAL>
0

>  <SCORE.SYSTEM.SOLV>
0

>  <SCORE.SYSTEM.norm>
0

>  <SCORE.heavy>
27

>  <SCORE.norm>
-0.431265

>  <RMSD>
5.890

$$$$
ligand
 OpenBabel02271912153D
libRbt.so/2013.1/901 2013/11/27
 27 29  0  0  0  0  0  0  0  0999 V2000
   19.5415   -6.2289    7.3712 N   0  0  0  0  0  0  0  0  0  0  0  0
   18.6803   -5.1681    7.9793 C   0  0  2  0  0  0  0  0  0  0  0  0
   18.3221   -5.5136    9.4418 C   0  0  0  0  0  0  0  0  0  0  0  0
   17.6540   -6.5153    9.7154 O   0  0  0  0  0  0  0  0  0  0  0  0
   17.4384   -4.9672    7.1174 C   0  0  0  0  0  0  0  0  0  0  0  0
   16.4029   -4.0282    7.7133 C   0  0  0  0  0  0  0  0  0  0  0  0
   14.9259   -3.8354    6.6749 S   0  0  2  0  0  0  0  0  0  0  0  0
   14.0631   -2.5054    7.5594 C   0  0  0  0  0  0  0  0  0  0  0  0
   13.8749   -5.2576    7.0106 C   0  0  0  0  0  0  0  0  0  0  0  0
   14.5887   -6.5173    6.5587 C   0  0  1  0  0  0  0  0  0  0  0  0
   15.5301   -6.9818    7.5138 O   0  0  0  0  0  0  0  0  0  0  0  0
   13.6160   -7.6445    6.3111 C   0  0  1  0  0  0  0  0  0  0  0  0
   13.0832   -7.5753    5.0196 O   0  0  0  0  0  0  0  0  0  0  0  0
   14.5034   -8.8385    6.4895 C   0  0  1  0  0  0  0  0  0  0  0  0
   15.1291   -9.1402    5.2568 O   0  0  0  0  0  0  0  0  0  0  0  0
   15.5362   -8.3907    7.5158 C   0  0  2  0  0  0  0  0  0  0  0  0
   18.6809   -4.8049   10.4002 O   0  0  0  0  0  0  0  0  0  0  0  0
   11.8838   -9.4413   11.1785 N   0  0  0  0  0  0  0  0  0  0  0  0
   11.6888   -8.9244    9.9059 C   0  0  0  0  0  0  0  0  0  0  0  0
   12.7652   -8.6898    9.0586 N   0  0  0  0  0  0  0  0  0  0  0  0
   14.0090   -8.9872    9.4764 C   0  0  0  0  0  0  0  0  0  0  0  0
   14.2167   -9.5225   10.7507 C   0  0  0  0  0  0  0  0  0  0  0  0
   13.1573   -9.7413   11.6120 C   0  0  0  0  0  0  0  0  0  0  0  0
   13.3602  -10.2386   12.8228 N   0  0  0  0  0  0  0  0  0  0  0  0
   15.5283   -9.7356   10.9036 N   0  0  0  0  0  0  0  0  0  0  0  0
   16.1532   -9.3552    9.7674 C   0  0  0  0  0  0  0  0  0  0  0  0
   15.2253   -8.8921    8.8678 N   0  0  0  0  0  0  0  0  0  0  0  0
  2  1  1  6  0  0  0
  2  3  1  0  0  0  0
  2  5  1  0  0  0  0
  3  4  1  0  0  0  0
  3 17  1  0  0  0  0
  5  6  1  0  0  0  0
  7  6  1  1  0  0  0
  7  8  1  0  0  0  0
  7  9  1  0  0  0  0
 10  9  1  1  0  0  0
 10 11  1  0  0  0  0
 10 12  1  0  0  0  0
 11 16  1  0  0  0  0
 12 13  1  6  0  0  0
 12 14  1  0  0  0  0
 14 15  1  6  0  0  0
 14 16  1  0  0  0  0
 16 27  1  1  0  0  0
 18 19  2  0  0  0  0
 18 23  1  0  0  0  0
 19 20  1  0  0  0  0
 20 21  2  0  0  0  0
 21 22  1  0  0  0  0
 21 27  1  0  0  0  0
 22 23  2  0  0  0  0
 22 25  1  0  0  0  0
 23 24  1  0  0  0  0
 25 26  2  0  0  0  0
 26 27  1  0  0  0  0
M  END
>  <CHROM.1>
-63.24897374,173.26269363,-178.97974285,-172.24559859,-64.28329754,81.56040621
78.67559226,15.19138301,-7.08912724,8.37560074,-0.96304626,0.53283319,2.25417126

>  <Name>
ligand

>  <RI>
0

>  <Rbt.Current_Directory>
/home/itssahil/PROJECTS/Mol_Feturizer/Test_systems_manuscript/rnas/2ydh

>  <Rbt.Executable>
rbdock ($Id: //depot/dev/client3/rdock/2013.1/src/exe/rbdock.cxx#4 $)

>  <Rbt.Library>
libRbt.so (2013.1, Build901 2013/11/27)

>  <Rbt.Parameter_File>
/export/apps/rDock/src/rDock_2013.1_src/data/scripts/dock_solv.prm

>  <Rbt.Receptor>
prm/pocket_docking_7.prm

>  <SCORE>
-14.7485

>  <SCORE.INTER>
-13.1339

>  <SCORE.INTER.CONST>
1

>  <SCORE.INTER.POLAR>
0

>  <SCORE.INTER.ROT>
7

>  <SCORE.INTER.SOLV>
13.0297

>  <SCORE.INTER.VDW>
-21.3658

>  <SCORE.INTER.norm>
-0.486439

>  <SCORE.INTRA>
-1.61466

>  <SCORE.INTRA.DIHEDRAL>
-4.38585

>  <SCORE.INTRA.DIHEDRAL.0>
9.75037

>  <SCORE.INTRA.POLAR>
0

>  <SCORE.INTRA.POLAR.0>
0

>  <SCORE.INTRA.REPUL>
0

>  <SCORE.INTRA.REPUL.0>
0

>  <SCORE.INTRA.SOLV>
-1.00538

>  <SCORE.INTRA.SOLV.lig_0>
-48.4279

>  <SCORE.INTRA.VDW>
1.08096

>  <SCORE.INTRA.VDW.0>
-4.69037

>  <SCORE.INTRA.norm>
-0.0598022

>  <SCORE.RESTR>
0

>  <SCORE.RESTR.CAVITY>
0

>  <SCORE.RESTR.norm>
0

>  <SCORE.SYSTEM>
0

>  <SCORE.SYSTEM.CONST>
0

>  <SCORE.SYSTEM.DIHEDRAL>
0

>  <SCORE.SYSTEM.SOLV>
0

>  <SCORE.SYSTEM.norm>
0

>  <SCORE.heavy>
27

>  <SCORE.norm>
-0.546241

>  <RMSD>
5.893

$$$$
ligand
 OpenBabel02271912153D
libRbt.so/2013.1/901 2013/11/27
 27 29  0  0  0  0  0  0  0  0999 V2000
   13.5183   -6.4282    7.9809 N   0  0  0  0  0  0  0  0  0  0  0  0
   12.8736   -6.1361    6.6635 C   0  0  2  0  0  0  0  0  0  0  0  0
   13.5992   -6.8710    5.5145 C   0  0  0  0  0  0  0  0  0  0  0  0
   12.9716   -7.3367    4.5584 O   0  0  0  0  0  0  0  0  0  0  0  0
   12.8317   -4.6277    6.4427 C   0  0  0  0  0  0  0  0  0  0  0  0
   14.1960   -3.9729    6.3051 C   0  0  0  0  0  0  0  0  0  0  0  0
   15.0437   -3.7382    7.8936 S   0  0  2  0  0  0  0  0  0  0  0  0
   14.1137   -2.3324    8.5677 C   0  0  0  0  0  0  0  0  0  0  0  0
   16.6382   -2.9923    7.5177 C   0  0  0  0  0  0  0  0  0  0  0  0
   17.7200   -4.0478    7.6451 C   0  0  1  0  0  0  0  0  0  0  0  0
   18.0467   -4.3319    8.9966 O   0  0  0  0  0  0  0  0  0  0  0  0
   17.2989   -5.3497    7.0081 C   0  0  1  0  0  0  0  0  0  0  0  0
   17.5686   -5.3491    5.6356 O   0  0  0  0  0  0  0  0  0  0  0  0
   18.1592   -6.3273    7.7492 C   0  0  1  0  0  0  0  0  0  0  0  0
   19.4077   -6.4379    7.0925 O   0  0  0  0  0  0  0  0  0  0  0  0
   18.3358   -5.7045    9.1281 C   0  0  2  0  0  0  0  0  0  0  0  0
   14.8335   -7.0310    5.5013 O   0  0  0  0  0  0  0  0  0  0  0  0
   14.5111   -5.0512   12.7063 N   0  0  0  0  0  0  0  0  0  0  0  0
   15.1073   -4.0830   11.9116 C   0  0  0  0  0  0  0  0  0  0  0  0
   16.1201   -4.4164   11.0201 N   0  0  0  0  0  0  0  0  0  0  0  0
   16.5106   -5.6998   10.9171 C   0  0  0  0  0  0  0  0  0  0  0  0
   15.9069   -6.6865   11.7016 C   0  0  0  0  0  0  0  0  0  0  0  0
   14.9130   -6.3660   12.6079 C   0  0  0  0  0  0  0  0  0  0  0  0
   14.3514   -7.3030   13.3570 N   0  0  0  0  0  0  0  0  0  0  0  0
   16.4663   -7.8620   11.3945 N   0  0  0  0  0  0  0  0  0  0  0  0
   17.4000   -7.6490   10.4410 C   0  0  0  0  0  0  0  0  0  0  0  0
   17.4384   -6.3129   10.1284 N   0  0  0  0  0  0  0  0  0  0  0  0
  2  1  1  1  0  0  0
  2  3  1  0  0  0  0
  2  5  1  0  0  0  0
  3  4  1  0  0  0  0
  3 17  1  0  0  0  0
  5  6  1  0  0  0  0
  7  6  1  6  0  0  0
  7  8  1  0  0  0  0
  7  9  1  0  0  0  0
 10  9  1  1  0  0  0
 10 11  1  0  0  0  0
 10 12  1  0  0  0  0
 11 16  1  0  0  0  0
 12 13  1  6  0  0  0
 12 14  1  0  0  0  0
 14 15  1  6  0  0  0
 14 16  1  0  0  0  0
 16 27  1  1  0  0  0
 18 19  2  0  0  0  0
 18 23  1  0  0  0  0
 19 20  1  0  0  0  0
 20 21  2  0  0  0  0
 21 22  1  0  0  0  0
 21 27  1  0  0  0  0
 22 23  2  0  0  0  0
 22 25  1  0  0  0  0
 23 24  1  0  0  0  0
 25 26  2  0  0  0  0
 26 27  1  0  0  0  0
M  END
>  <CHROM.1>
143.43164849,65.12155854,-77.86130674,-75.01175652,-104.29771833,-76.56340417
-4.39548025,15.74749261,-5.47251635,8.61330554,1.78353610,0.00634819,-1.48673219

>  <Name>
ligand

>  <RI>
0

>  <Rbt.Current_Directory>
/home/itssahil/PROJECTS/Mol_Feturizer/Test_systems_manuscript/rnas/2ydh

>  <Rbt.Executable>
rbdock ($Id: //depot/dev/client3/rdock/2013.1/src/exe/rbdock.cxx#4 $)

>  <Rbt.Library>
libRbt.so (2013.1, Build901 2013/11/27)

>  <Rbt.Parameter_File>
/export/apps/rDock/src/rDock_2013.1_src/data/scripts/dock_solv.prm

>  <Rbt.Receptor>
prm/pocket_docking_5.prm

>  <SCORE>
-13.2924

>  <SCORE.INTER>
-14.0579

>  <SCORE.INTER.CONST>
1

>  <SCORE.INTER.POLAR>
0

>  <SCORE.INTER.ROT>
7

>  <SCORE.INTER.SOLV>
9.05484

>  <SCORE.INTER.VDW>
-20.6569

>  <SCORE.INTER.norm>
-0.520662

>  <SCORE.INTRA>
0.76545

>  <SCORE.INTRA.DIHEDRAL>
-1.37439

>  <SCORE.INTRA.DIHEDRAL.0>
9.75037

>  <SCORE.INTRA.POLAR>
0

>  <SCORE.INTRA.POLAR.0>
0

>  <SCORE.INTRA.REPUL>
0

>  <SCORE.INTRA.REPUL.0>
0

>  <SCORE.INTRA.SOLV>
1.58311

>  <SCORE.INTRA.SOLV.lig_0>
-48.4279

>  <SCORE.INTRA.VDW>
0.661091

>  <SCORE.INTRA.VDW.0>
-4.69037

>  <SCORE.INTRA.norm>
0.02835

>  <SCORE.RESTR>
0

>  <SCORE.RESTR.CAVITY>
0

>  <SCORE.RESTR.norm>
0

>  <SCORE.SYSTEM>
0

>  <SCORE.SYSTEM.CONST>
0

>  <SCORE.SYSTEM.DIHEDRAL>
0

>  <SCORE.SYSTEM.SOLV>
0

>  <SCORE.SYSTEM.norm>
0

>  <SCORE.heavy>
27

>  <SCORE.norm>
-0.492312

>  <RMSD>
5.916

$$$$
ligand
 OpenBabel02271912153D
libRbt.so/2013.1/901 2013/11/27
 27 29  0  0  0  0  0  0  0  0999 V2000
   19.3838   -5.6829    8.5850 N   0  0  0  0  0  0  0  0  0  0  0  0
   17.9925   -5.5990    8.0428 C   0  0  2  0  0  0  0  0  0  0  0  0
   18.0008   -5.5261    6.4997 C   0  0  0  0  0  0  0  0  0  0  0  0
   18.0063   -4.4399    5.9124 O   0  0  0  0  0  0  0  0  0  0  0  0
   17.2752   -4.4077    8.6689 C   0  0  0  0  0  0  0  0  0  0  0  0
   15.7674   -4.4101    8.4807 C   0  0  0  0  0  0  0  0  0  0  0  0
   15.2540   -4.0006    6.7878 S   0  0  2  0  0  0  0  0  0  0  0  0
   14.2822   -2.4963    7.0847 C   0  0  0  0  0  0  0  0  0  0  0  0
   13.9815   -5.1910    6.3366 C   0  0  0  0  0  0  0  0  0  0  0  0
   14.6432   -6.5021    5.9575 C   0  0  1  0  0  0  0  0  0  0  0  0
   15.6168   -6.9141    6.9044 O   0  0  0  0  0  0  0  0  0  0  0  0
   13.6334   -7.6183    5.8463 C   0  0  1  0  0  0  0  0  0  0  0  0
   13.0427   -7.6385    4.5785 O   0  0  0  0  0  0  0  0  0  0  0  0
   14.4994   -8.8181    6.0818 C   0  0  1  0  0  0  0  0  0  0  0  0
   15.0595   -9.2350    4.8510 O   0  0  0  0  0  0  0  0  0  0  0  0
   15.5894   -8.3179    7.0210 C   0  0  2  0  0  0  0  0  0  0  0  0
   17.9969   -6.5453    5.7852 O   0  0  0  0  0  0  0  0  0  0  0  0
   12.0599   -9.3371   10.8109 N   0  0  0  0  0  0  0  0  0  0  0  0
   11.8144   -8.9827    9.4923 C   0  0  0  0  0  0  0  0  0  0  0  0
   12.8619   -8.7315    8.6142 N   0  0  0  0  0  0  0  0  0  0  0  0
   14.1293   -8.8534    9.0492 C   0  0  0  0  0  0  0  0  0  0  0  0
   14.3893   -9.2246   10.3713 C   0  0  0  0  0  0  0  0  0  0  0  0
   13.3570   -9.4568   11.2615 C   0  0  0  0  0  0  0  0  0  0  0  0
   13.6086   -9.7978   12.5165 N   0  0  0  0  0  0  0  0  0  0  0  0
   15.7157   -9.2846   10.5332 N   0  0  0  0  0  0  0  0  0  0  0  0
   16.2995   -8.9665    9.3567 C   0  0  0  0  0  0  0  0  0  0  0  0
   15.3301   -8.7003    8.4220 N   0  0  0  0  0  0  0  0  0  0  0  0
  2  1  1  1  0  0  0
  2  3  1  0  0  0  0
  2  5  1  0  0  0  0
  3  4  1  0  0  0  0
  3 17  1  0  0  0  0
  5  6  1  0  0  0  0
  7  6  1  1  0  0  0
  7  8  1  0  0  0  0
  7  9  1  0  0  0  0
 10  9  1  1  0  0  0
 10 11  1  0  0  0  0
 10 12  1  0  0  0  0
 11 16  1  0  0  0  0
 12 13  1  6  0  0  0
 12 14  1  0  0  0  0
 14 15  1  6  0  0  0
 14 16  1  0  0  0  0
 16 27  1  1  0  0  0
 18 19  2  0  0  0  0
 18 23  1  0  0  0  0
 19 20  1  0  0  0  0
 20 21  2  0  0  0  0
 21 22  1  0  0  0  0
 21 27  1  0  0  0  0
 22 23  2  0  0  0  0
 22 25  1  0  0  0  0
 23 24  1  0  0  0  0
 25 26  2  0  0  0  0
 26 27  1  0  0  0  0
M  END
>  <CHROM.1>
-92.28417393,-165.28310173,-73.47653027,-118.90542732,-78.67592145,47.91378219
86.56650614,15.20563089,-7.00088768,7.78011439,-0.91080776,0.67325356,2.04696002

>  <Name>
ligand

>  <RI>
0

>  <Rbt.Current_Directory>
/home/itssahil/PROJECTS/Mol_Feturizer/Test_systems_manuscript/rnas/2ydh

>  <Rbt.Executable>
rbdock ($Id: //depot/dev/client3/rdock/2013.1/src/exe/rbdock.cxx#4 $)

>  <Rbt.Library>
libRbt.so (2013.1, Build901 2013/11/27)

>  <Rbt.Parameter_File>
/export/apps/rDock/src/rDock_2013.1_src/data/scripts/dock_solv.prm

>  <Rbt.Receptor>
prm/pocket_docking_5.prm

>  <SCORE>
-14.2907

>  <SCORE.INTER>
-14.0317

>  <SCORE.INTER.CONST>
1

>  <SCORE.INTER.POLAR>
0

>  <SCORE.INTER.ROT>
7

>  <SCORE.INTER.SOLV>
11.9761

>  <SCORE.INTER.VDW>
-21.6132

>  <SCORE.INTER.norm>
-0.519693

>  <SCORE.INTRA>
-0.25904

>  <SCORE.INTRA.DIHEDRAL>
-0.09851

>  <SCORE.INTRA.DIHEDRAL.0>
9.75037

>  <SCORE.INTRA.POLAR>
0

>  <SCORE.INTRA.POLAR.0>
0

>  <SCORE.INTRA.REPUL>
0

>  <SCORE.INTRA.REPUL.0>
0

>  <SCORE.INTRA.SOLV>
-0.850619

>  <SCORE.INTRA.SOLV.lig_0>
-48.4279

>  <SCORE.INTRA.VDW>
0.215524

>  <SCORE.INTRA.VDW.0>
-4.69037

>  <SCORE.INTRA.norm>
-0.00959409

>  <SCORE.RESTR>
0

>  <SCORE.RESTR.CAVITY>
0

>  <SCORE.RESTR.norm>
0

>  <SCORE.SYSTEM>
0

>  <SCORE.SYSTEM.CONST>
0

>  <SCORE.SYSTEM.DIHEDRAL>
0

>  <SCORE.SYSTEM.SOLV>
0

>  <SCORE.SYSTEM.norm>
0

>  <SCORE.heavy>
27

>  <SCORE.norm>
-0.529287

>  <RMSD>
5.930

$$$$
ligand
 OpenBabel02271912153D
libRbt.so/2013.1/901 2013/11/27
 27 29  0  0  0  0  0  0  0  0999 V2000
   15.7743   -8.4535    3.7741 N   0  0  0  0  0  0  0  0  0  0  0  0
   16.4191   -7.9847    5.0395 C   0  0  2  0  0  0  0  0  0  0  0  0
   17.8446   -8.5623    5.1841 C   0  0  0  0  0  0  0  0  0  0  0  0
   18.5036   -8.3844    6.2130 O   0  0  0  0  0  0  0  0  0  0  0  0
   15.5312   -8.3464    6.2254 C   0  0  0  0  0  0  0  0  0  0  0  0
   14.1993   -7.6158    6.2614 C   0  0  0  0  0  0  0  0  0  0  0  0
   14.2772   -6.0223    7.1285 S   0  0  2  0  0  0  0  0  0  0  0  0
   12.6388   -5.3452    6.7376 C   0  0  0  0  0  0  0  0  0  0  0  0
   15.3652   -4.9650    6.1598 C   0  0  0  0  0  0  0  0  0  0  0  0
   15.6159   -3.6799    6.9254 C   0  0  1  0  0  0  0  0  0  0  0  0
   14.5939   -3.4008    7.8697 O   0  0  0  0  0  0  0  0  0  0  0  0
   16.9184   -3.7356    7.6859 C   0  0  1  0  0  0  0  0  0  0  0  0
   17.9939   -3.3689    6.8701 O   0  0  0  0  0  0  0  0  0  0  0  0
   16.6661   -2.7305    8.7681 C   0  0  1  0  0  0  0  0  0  0  0  0
   17.0229   -1.4440    8.2993 O   0  0  0  0  0  0  0  0  0  0  0  0
   15.1650   -2.8105    9.0145 C   0  0  2  0  0  0  0  0  0  0  0  0
   18.3908   -9.2209    4.2800 O   0  0  0  0  0  0  0  0  0  0  0  0
   16.8785   -5.9054   12.9317 N   0  0  0  0  0  0  0  0  0  0  0  0
   17.6294   -5.3015   11.9337 C   0  0  0  0  0  0  0  0  0  0  0  0
   17.0220   -4.5204   10.9577 N   0  0  0  0  0  0  0  0  0  0  0  0
   15.6899   -4.3356   10.9970 C   0  0  0  0  0  0  0  0  0  0  0  0
   14.9247   -4.9264   12.0065 C   0  0  0  0  0  0  0  0  0  0  0  0
   15.5128   -5.7233   12.9714 C   0  0  0  0  0  0  0  0  0  0  0  0
   14.7819   -6.2900   13.9196 N   0  0  0  0  0  0  0  0  0  0  0  0
   13.6479   -4.5738   11.8207 N   0  0  0  0  0  0  0  0  0  0  0  0
   13.5838   -3.7785   10.7301 C   0  0  0  0  0  0  0  0  0  0  0  0
   14.8428   -3.6154   10.2080 N   0  0  0  0  0  0  0  0  0  0  0  0
  2  1  1  6  0  0  0
  2  3  1  0  0  0  0
  2  5  1  0  0  0  0
  3  4  1  0  0  0  0
  3 17  1  0  0  0  0
  5  6  1  0  0  0  0
  7  6  1  6  0  0  0
  7  8  1  0  0  0  0
  7  9  1  0  0  0  0
 10  9  1  1  0  0  0
 10 11  1  0  0  0  0
 10 12  1  0  0  0  0
 11 16  1  0  0  0  0
 12 13  1  6  0  0  0
 12 14  1  0  0  0  0
 14 15  1  6  0  0  0
 14 16  1  0  0  0  0
 16 27  1  1  0  0  0
 18 19  2  0  0  0  0
 18 23  1  0  0  0  0
 19 20  1  0  0  0  0
 20 21  2  0  0  0  0
 21 22  1  0  0  0  0
 21 27  1  0  0  0  0
 22 23  2  0  0  0  0
 22 25  1  0  0  0  0
 23 24  1  0  0  0  0
 25 26  2  0  0  0  0
 26 27  1  0  0  0  0
M  END
>  <CHROM.1>
-173.95067633,-66.29531747,-88.22500824,171.19738449,-172.68638180,-23.15399531
113.12432465,15.78289010,-5.40978333,8.38374688,-0.74991872,-1.35690855,1.89298884

>  <Name>
ligand

>  <RI>
0

>  <Rbt.Current_Directory>
/home/itssahil/PROJECTS/Mol_Feturizer/Test_systems_manuscript/rnas/2ydh

>  <Rbt.Executable>
rbdock ($Id: //depot/dev/client3/rdock/2013.1/src/exe/rbdock.cxx#4 $)

>  <Rbt.Library>
libRbt.so (2013.1, Build901 2013/11/27)

>  <Rbt.Parameter_File>
/export/apps/rDock/src/rDock_2013.1_src/data/scripts/dock_solv.prm

>  <Rbt.Receptor>
prm/pocket_docking_6.prm

>  <SCORE>
-8.9865

>  <SCORE.INTER>
-11.4411

>  <SCORE.INTER.CONST>
1

>  <SCORE.INTER.POLAR>
0

>  <SCORE.INTER.ROT>
7

>  <SCORE.INTER.SOLV>
17.5954

>  <SCORE.INTER.VDW>
-21.7592

>  <SCORE.INTER.norm>
-0.423744

>  <SCORE.INTRA>
2.4546

>  <SCORE.INTRA.DIHEDRAL>
0.127926

>  <SCORE.INTRA.DIHEDRAL.0>
9.75037

>  <SCORE.INTRA.POLAR>
0

>  <SCORE.INTRA.POLAR.0>
0

>  <SCORE.INTRA.REPUL>
0

>  <SCORE.INTRA.REPUL.0>
0

>  <SCORE.INTRA.SOLV>
-0.140418

>  <SCORE.INTRA.SOLV.lig_0>
-48.4279

>  <SCORE.INTRA.VDW>
2.46085

>  <SCORE.INTRA.VDW.0>
-4.69037

>  <SCORE.INTRA.norm>
0.0909111

>  <SCORE.RESTR>
0

>  <SCORE.RESTR.CAVITY>
0

>  <SCORE.RESTR.norm>
0

>  <SCORE.SYSTEM>
0

>  <SCORE.SYSTEM.CONST>
0

>  <SCORE.SYSTEM.DIHEDRAL>
0

>  <SCORE.SYSTEM.SOLV>
0

>  <SCORE.SYSTEM.norm>
0

>  <SCORE.heavy>
27

>  <SCORE.norm>
-0.332833

>  <RMSD>
5.933

$$$$
ligand
 OpenBabel02271912153D
libRbt.so/2013.1/901 2013/11/27
 27 29  0  0  0  0  0  0  0  0999 V2000
   15.9046   -8.2226    7.1510 N   0  0  0  0  0  0  0  0  0  0  0  0
   15.1411   -8.8247    6.0147 C   0  0  2  0  0  0  0  0  0  0  0  0
   15.9256   -8.6999    4.6897 C   0  0  0  0  0  0  0  0  0  0  0  0
   15.5427   -9.2731    3.6653 O   0  0  0  0  0  0  0  0  0  0  0  0
   13.7639   -8.1754    5.9285 C   0  0  0  0  0  0  0  0  0  0  0  0
   13.7858   -6.6939    5.5911 C   0  0  0  0  0  0  0  0  0  0  0  0
   14.4913   -5.6666    6.9117 S   0  0  2  0  0  0  0  0  0  0  0  0
   13.1366   -5.6933    8.1198 C   0  0  0  0  0  0  0  0  0  0  0  0
   14.4392   -3.9670    6.3213 C   0  0  0  0  0  0  0  0  0  0  0  0
   15.1151   -3.0690    7.3398 C   0  0  1  0  0  0  0  0  0  0  0  0
   14.3498   -2.9184    8.5255 O   0  0  0  0  0  0  0  0  0  0  0  0
   16.4621   -3.6136    7.7483 C   0  0  1  0  0  0  0  0  0  0  0  0
   17.4590   -3.2167    6.8509 O   0  0  0  0  0  0  0  0  0  0  0  0
   16.6348   -2.9810    9.0955 C   0  0  1  0  0  0  0  0  0  0  0  0
   17.2259   -1.7052    8.9370 O   0  0  0  0  0  0  0  0  0  0  0  0
   15.2162   -2.8479    9.6342 C   0  0  2  0  0  0  0  0  0  0  0  0
   16.9698   -8.0291    4.5952 O   0  0  0  0  0  0  0  0  0  0  0  0
   16.6767   -7.3033   12.0580 N   0  0  0  0  0  0  0  0  0  0  0  0
   17.3949   -6.5656   11.1281 C   0  0  0  0  0  0  0  0  0  0  0  0
   16.8608   -5.4119   10.5667 N   0  0  0  0  0  0  0  0  0  0  0  0
   15.6381   -4.9993   10.9477 C   0  0  0  0  0  0  0  0  0  0  0  0
   14.9113   -5.7258   11.8950 C   0  0  0  0  0  0  0  0  0  0  0  0
   15.4214   -6.8869   12.4460 C   0  0  0  0  0  0  0  0  0  0  0  0
   14.7242   -7.5779   13.3353 N   0  0  0  0  0  0  0  0  0  0  0  0
   13.7494   -5.0958   12.1002 N   0  0  0  0  0  0  0  0  0  0  0  0
   13.7214   -3.9955   11.3161 C   0  0  0  0  0  0  0  0  0  0  0  0
   14.8878   -3.9164   10.5967 N   0  0  0  0  0  0  0  0  0  0  0  0
  2  1  1  1  0  0  0
  2  3  1  0  0  0  0
  2  5  1  0  0  0  0
  3  4  1  0  0  0  0
  3 17  1  0  0  0  0
  5  6  1  0  0  0  0
  7  6  1  6  0  0  0
  7  8  1  0  0  0  0
  7  9  1  0  0  0  0
 10  9  1  6  0  0  0
 10 11  1  0  0  0  0
 10 12  1  0  0  0  0
 11 16  1  0  0  0  0
 12 13  1  6  0  0  0
 12 14  1  0  0  0  0
 14 15  1  6  0  0  0
 14 16  1  0  0  0  0
 16 27  1  1  0  0  0
 18 19  2  0  0  0  0
 18 23  1  0  0  0  0
 19 20  1  0  0  0  0
 20 21  2  0  0  0  0
 21 22  1  0  0  0  0
 21 27  1  0  0  0  0
 22 23  2  0  0  0  0
 22 25  1  0  0  0  0
 23 24  1  0  0  0  0
 25 26  2  0  0  0  0
 26 27  1  0  0  0  0
M  END
>  <CHROM.1>
171.30003341,64.52930917,-67.84470151,-74.15965586,-175.67373547,-71.07500151
113.16468599,15.35892671,-5.58451207,8.46669372,1.71648903,-1.47870485,-1.88754382

>  <Name>
ligand

>  <RI>
0

>  <Rbt.Current_Directory>
/home/itssahil/PROJECTS/Mol_Feturizer/Test_systems_manuscript/rnas/2ydh

>  <Rbt.Executable>
rbdock ($Id: //depot/dev/client3/rdock/2013.1/src/exe/rbdock.cxx#4 $)

>  <Rbt.Library>
libRbt.so (2013.1, Build901 2013/11/27)

>  <Rbt.Parameter_File>
/export/apps/rDock/src/rDock_2013.1_src/data/scripts/dock_solv.prm

>  <Rbt.Receptor>
prm/pocket_docking_4.prm

>  <SCORE>
-13.0112

>  <SCORE.INTER>
-12.9508

>  <SCORE.INTER.CONST>
1

>  <SCORE.INTER.POLAR>
0

>  <SCORE.INTER.ROT>
7

>  <SCORE.INTER.SOLV>
9.37962

>  <SCORE.INTER.VDW>
-20.0271

>  <SCORE.INTER.norm>
-0.479661

>  <SCORE.INTRA>
-0.0603931

>  <SCORE.INTRA.DIHEDRAL>
-5.43565

>  <SCORE.INTRA.DIHEDRAL.0>
9.75037

>  <SCORE.INTRA.POLAR>
0

>  <SCORE.INTRA.POLAR.0>
0

>  <SCORE.INTRA.REPUL>
0

>  <SCORE.INTRA.REPUL.0>
0

>  <SCORE.INTRA.SOLV>
1.44254

>  <SCORE.INTRA.SOLV.lig_0>
-48.4279

>  <SCORE.INTRA.VDW>
1.93616

>  <SCORE.INTRA.VDW.0>
-4.69037

>  <SCORE.INTRA.norm>
-0.00223678

>  <SCORE.RESTR>
0

>  <SCORE.RESTR.CAVITY>
0

>  <SCORE.RESTR.norm>
0

>  <SCORE.SYSTEM>
0

>  <SCORE.SYSTEM.CONST>
0

>  <SCORE.SYSTEM.DIHEDRAL>
0

>  <SCORE.SYSTEM.SOLV>
0

>  <SCORE.SYSTEM.norm>
0

>  <SCORE.heavy>
27

>  <SCORE.norm>
-0.481898

>  <RMSD>
5.984

$$$$
ligand
 OpenBabel02271912153D
libRbt.so/2013.1/901 2013/11/27
 27 29  0  0  0  0  0  0  0  0999 V2000
   14.4786   -8.4417   12.0073 N   0  0  0  0  0  0  0  0  0  0  0  0
   13.1421   -9.1119   12.0421 C   0  0  2  0  0  0  0  0  0  0  0  0
   13.1284  -10.2721   13.0622 C   0  0  0  0  0  0  0  0  0  0  0  0
   14.1714  -10.6690   13.5907 O   0  0  0  0  0  0  0  0  0  0  0  0
   12.7721   -9.5788   10.6383 C   0  0  0  0  0  0  0  0  0  0  0  0
   12.3620   -8.4637    9.6910 C   0  0  0  0  0  0  0  0  0  0  0  0
   13.7678   -7.5014    9.0626 S   0  0  2  0  0  0  0  0  0  0  0  0
   12.9141   -6.3349    7.9645 C   0  0  0  0  0  0  0  0  0  0  0  0
   14.6312   -8.5614    7.8918 C   0  0  0  0  0  0  0  0  0  0  0  0
   16.0181   -7.9988    7.6452 C   0  0  1  0  0  0  0  0  0  0  0  0
   16.8308   -8.8720    6.8763 O   0  0  0  0  0  0  0  0  0  0  0  0
   15.9573   -6.6844    6.9060 C   0  0  1  0  0  0  0  0  0  0  0  0
   15.7656   -5.6177    7.7903 O   0  0  0  0  0  0  0  0  0  0  0  0
   17.3119   -6.6477    6.2668 C   0  0  1  0  0  0  0  0  0  0  0  0
   18.2356   -6.0695    7.1694 O   0  0  0  0  0  0  0  0  0  0  0  0
   17.6526   -8.1119    6.0208 C   0  0  2  0  0  0  0  0  0  0  0  0
   12.0801  -10.8572   13.3907 O   0  0  0  0  0  0  0  0  0  0  0  0
   14.2910   -8.4761    1.9679 N   0  0  0  0  0  0  0  0  0  0  0  0
   14.0417   -7.9771    3.2382 C   0  0  0  0  0  0  0  0  0  0  0  0
   15.0379   -7.9629    4.2071 N   0  0  0  0  0  0  0  0  0  0  0  0
   16.2638   -8.4230    3.8980 C   0  0  0  0  0  0  0  0  0  0  0  0
   16.5312   -8.9141    2.6170 C   0  0  0  0  0  0  0  0  0  0  0  0
   15.5440   -8.9540    1.6496 C   0  0  0  0  0  0  0  0  0  0  0  0
   15.7994   -9.4304    0.4404 N   0  0  0  0  0  0  0  0  0  0  0  0
   17.8144   -9.2894    2.5750 N   0  0  0  0  0  0  0  0  0  0  0  0
   18.3646   -9.0485    3.7855 C   0  0  0  0  0  0  0  0  0  0  0  0
   17.4181   -8.5060    4.6187 N   0  0  0  0  0  0  0  0  0  0  0  0
  2  1  1  6  0  0  0
  2  3  1  0  0  0  0
  2  5  1  0  0  0  0
  3  4  1  0  0  0  0
  3 17  1  0  0  0  0
  5  6  1  0  0  0  0
  7  6  1  6  0  0  0
  7  8  1  0  0  0  0
  7  9  1  0  0  0  0
 10  9  1  6  0  0  0
 10 11  1  0  0  0  0
 10 12  1  0  0  0  0
 11 16  1  0  0  0  0
 12 13  1  1  0  0  0
 12 14  1  0  0  0  0
 14 15  1  1  0  0  0
 14 16  1  0  0  0  0
 16 27  1  6  0  0  0
 18 19  2  0  0  0  0
 18 23  1  0  0  0  0
 19 20  1  0  0  0  0
 20 21  2  0  0  0  0
 21 22  1  0  0  0  0
 21 27  1  0  0  0  0
 22 23  2  0  0  0  0
 22 25  1  0  0  0  0
 23 24  1  0  0  0  0
 25 26  2  0  0  0  0
 26 27  1  0  0  0  0
M  END
>  <CHROM.1>
-10.03082908,-73.75534255,76.46497019,178.47115320,-163.27359913,171.91473650
61.54635284,15.17808326,-8.34504837,7.15803052,-1.95570957,-0.50624161,-1.66689564

>  <Name>
ligand

>  <RI>
0

>  <Rbt.Current_Directory>
/home/itssahil/PROJECTS/Mol_Feturizer/Test_systems_manuscript/rnas/2ydh

>  <Rbt.Executable>
rbdock ($Id: //depot/dev/client3/rdock/2013.1/src/exe/rbdock.cxx#4 $)

>  <Rbt.Library>
libRbt.so (2013.1, Build901 2013/11/27)

>  <Rbt.Parameter_File>
/export/apps/rDock/src/rDock_2013.1_src/data/scripts/dock_solv.prm

>  <Rbt.Receptor>
prm/pocket_docking_7.prm

>  <SCORE>
-11.966

>  <SCORE.INTER>
-12.612

>  <SCORE.INTER.CONST>
1

>  <SCORE.INTER.POLAR>
0

>  <SCORE.INTER.ROT>
7

>  <SCORE.INTER.SOLV>
11.4688

>  <SCORE.INTER.VDW>
-20.4976

>  <SCORE.INTER.norm>
-0.46711

>  <SCORE.INTRA>
0.645942

>  <SCORE.INTRA.DIHEDRAL>
-3.16767

>  <SCORE.INTRA.DIHEDRAL.0>
9.75037

>  <SCORE.INTRA.POLAR>
0

>  <SCORE.INTRA.POLAR.0>
0

>  <SCORE.INTRA.REPUL>
0

>  <SCORE.INTRA.REPUL.0>
0

>  <SCORE.INTRA.SOLV>
0.989509

>  <SCORE.INTRA.SOLV.lig_0>
-48.4279

>  <SCORE.INTRA.VDW>
1.73502

>  <SCORE.INTRA.VDW.0>
-4.69037

>  <SCORE.INTRA.norm>
0.0239238

>  <SCORE.RESTR>
0

>  <SCORE.RESTR.CAVITY>
0

>  <SCORE.RESTR.norm>
0

>  <SCORE.SYSTEM>
0

>  <SCORE.SYSTEM.CONST>
0

>  <SCORE.SYSTEM.DIHEDRAL>
0

>  <SCORE.SYSTEM.SOLV>
0

>  <SCORE.SYSTEM.norm>
0

>  <SCORE.heavy>
27

>  <SCORE.norm>
-0.443186

>  <RMSD>
5.985

$$$$
ligand
 OpenBabel02271912153D
libRbt.so/2013.1/901 2013/11/27
 27 29  0  0  0  0  0  0  0  0999 V2000
   14.3314   -8.6556   10.0467 N   0  0  0  0  0  0  0  0  0  0  0  0
   13.5310   -7.4750    9.5972 C   0  0  2  0  0  0  0  0  0  0  0  0
   12.1627   -7.4261   10.3128 C   0  0  0  0  0  0  0  0  0  0  0  0
   11.6569   -6.3511   10.6493 O   0  0  0  0  0  0  0  0  0  0  0  0
   13.3831   -7.5105    8.0798 C   0  0  0  0  0  0  0  0  0  0  0  0
   12.7965   -6.2463    7.4741 C   0  0  0  0  0  0  0  0  0  0  0  0
   13.7933   -4.7641    7.8000 S   0  0  2  0  0  0  0  0  0  0  0  0
   12.6997   -3.4715    7.1451 C   0  0  0  0  0  0  0  0  0  0  0  0
   15.1323   -4.7729    6.5971 C   0  0  0  0  0  0  0  0  0  0  0  0
   16.1610   -5.8082    7.0100 C   0  0  1  0  0  0  0  0  0  0  0  0
   15.8015   -7.1219    6.6110 O   0  0  0  0  0  0  0  0  0  0  0  0
   17.5123   -5.5157    6.4049 C   0  0  1  0  0  0  0  0  0  0  0  0
   18.2283   -4.6043    7.1881 O   0  0  0  0  0  0  0  0  0  0  0  0
   18.1366   -6.8778    6.4160 C   0  0  1  0  0  0  0  0  0  0  0  0
   18.7684   -7.0887    7.6645 O   0  0  0  0  0  0  0  0  0  0  0  0
   16.9618   -7.8324    6.2453 C   0  0  2  0  0  0  0  0  0  0  0  0
   11.5169   -8.4548   10.5851 O   0  0  0  0  0  0  0  0  0  0  0  0
   13.9789   -8.3268    1.9191 N   0  0  0  0  0  0  0  0  0  0  0  0
   13.6393   -7.7269    3.1230 C   0  0  0  0  0  0  0  0  0  0  0  0
   14.5399   -7.6903    4.1808 N   0  0  0  0  0  0  0  0  0  0  0  0
   15.7628   -8.2288    4.0234 C   0  0  0  0  0  0  0  0  0  0  0  0
   16.1219   -8.8225    2.8101 C   0  0  0  0  0  0  0  0  0  0  0  0
   15.2286   -8.8850    1.7565 C   0  0  0  0  0  0  0  0  0  0  0  0
   15.5699   -9.4584    0.6122 N   0  0  0  0  0  0  0  0  0  0  0  0
   17.3812   -9.2601    2.9180 N   0  0  0  0  0  0  0  0  0  0  0  0
   17.8281   -8.9594    4.1573 C   0  0  0  0  0  0  0  0  0  0  0  0
   16.8385   -8.3144    4.8567 N   0  0  0  0  0  0  0  0  0  0  0  0
  2  1  1  1  0  0  0
  2  3  1  0  0  0  0
  2  5  1  0  0  0  0
  3  4  1  0  0  0  0
  3 17  1  0  0  0  0
  5  6  1  0  0  0  0
  7  6  1  6  0  0  0
  7  8  1  0  0  0  0
  7  9  1  0  0  0  0
 10  9  1  6  0  0  0
 10 11  1  0  0  0  0
 10 12  1  0  0  0  0
 11 16  1  0  0  0  0
 12 13  1  1  0  0  0
 12 14  1  0  0  0  0
 14 15  1  1  0  0  0
 14 16  1  0  0  0  0
 16 27  1  6  0  0  0
 18 19  2  0  0  0  0
 18 23  1  0  0  0  0
 19 20  1  0  0  0  0
 20 21  2  0  0  0  0
 21 22  1  0  0  0  0
 21 27  1  0  0  0  0
 22 23  2  0  0  0  0
 22 25  1  0  0  0  0
 23 24  1  0  0  0  0
 25 26  2  0  0  0  0
 26 27  1  0  0  0  0
M  END
>  <CHROM.1>
143.08659616,-170.04311208,60.23051019,-172.74095391,-75.38401278,82.03309496
-5.24254760,15.08075929,-7.08134315,6.33725840,2.03845491,0.24345295,1.14340075

>  <Name>
ligand

>  <RI>
0

>  <Rbt.Current_Directory>
/home/itssahil/PROJECTS/Mol_Feturizer/Test_systems_manuscript/rnas/2ydh

>  <Rbt.Executable>
rbdock ($Id: //depot/dev/client3/rdock/2013.1/src/exe/rbdock.cxx#4 $)

>  <Rbt.Library>
libRbt.so (2013.1, Build901 2013/11/27)

>  <Rbt.Parameter_File>
/export/apps/rDock/src/rDock_2013.1_src/data/scripts/dock_solv.prm

>  <Rbt.Receptor>
prm/pocket_docking_6.prm

>  <SCORE>
-19.0109

>  <SCORE.INTER>
-17.5186

>  <SCORE.INTER.CONST>
1

>  <SCORE.INTER.POLAR>
0

>  <SCORE.INTER.ROT>
7

>  <SCORE.INTER.SOLV>
14.1123

>  <SCORE.INTER.VDW>
-24.6498

>  <SCORE.INTER.norm>
-0.648838

>  <SCORE.INTRA>
-1.49228

>  <SCORE.INTRA.DIHEDRAL>
-4.01554

>  <SCORE.INTRA.DIHEDRAL.0>
9.75037

>  <SCORE.INTRA.POLAR>
0

>  <SCORE.INTRA.POLAR.0>
0

>  <SCORE.INTRA.REPUL>
0

>  <SCORE.INTRA.REPUL.0>
0

>  <SCORE.INTRA.SOLV>
-0.889837

>  <SCORE.INTRA.SOLV.lig_0>
-48.4279

>  <SCORE.INTRA.VDW>
0.960411

>  <SCORE.INTRA.VDW.0>
-4.69037

>  <SCORE.INTRA.norm>
-0.0552696

>  <SCORE.RESTR>
0

>  <SCORE.RESTR.CAVITY>
0

>  <SCORE.RESTR.norm>
0

>  <SCORE.SYSTEM>
0

>  <SCORE.SYSTEM.CONST>
0

>  <SCORE.SYSTEM.DIHEDRAL>
0

>  <SCORE.SYSTEM.SOLV>
0

>  <SCORE.SYSTEM.norm>
0

>  <SCORE.heavy>
27

>  <SCORE.norm>
-0.704107

>  <RMSD>
5.987

$$$$
ligand
 OpenBabel02271912153D
libRbt.so/2013.1/901 2013/11/27
 27 29  0  0  0  0  0  0  0  0999 V2000
   15.9702   -3.0475    8.4979 N   0  0  0  0  0  0  0  0  0  0  0  0
   15.2084   -3.3802    9.7412 C   0  0  2  0  0  0  0  0  0  0  0  0
   15.8692   -4.5516   10.5013 C   0  0  0  0  0  0  0  0  0  0  0  0
   16.4301   -5.4696    9.8953 O   0  0  0  0  0  0  0  0  0  0  0  0
   13.7562   -3.6768    9.3821 C   0  0  0  0  0  0  0  0  0  0  0  0
   13.5680   -4.8520    8.4374 C   0  0  0  0  0  0  0  0  0  0  0  0
   14.0619   -4.4865    6.7288 S   0  0  2  0  0  0  0  0  0  0  0  0
   12.8795   -3.1744    6.3094 C   0  0  0  0  0  0  0  0  0  0  0  0
   13.4773   -5.8594    5.7221 C   0  0  0  0  0  0  0  0  0  0  0  0
   14.3664   -7.0640    5.9647 C   0  0  1  0  0  0  0  0  0  0  0  0
   14.0695   -8.1440    5.0931 O   0  0  0  0  0  0  0  0  0  0  0  0
   15.8235   -6.7234    5.7675 C   0  0  1  0  0  0  0  0  0  0  0  0
   16.3752   -6.1783    6.9316 O   0  0  0  0  0  0  0  0  0  0  0  0
   16.3967   -8.0713    5.4520 C   0  0  1  0  0  0  0  0  0  0  0  0
   16.7381   -8.7249    6.6597 O   0  0  0  0  0  0  0  0  0  0  0  0
   15.2636   -8.8080    4.7493 C   0  0  2  0  0  0  0  0  0  0  0  0
   15.8627   -4.6269   11.7437 O   0  0  0  0  0  0  0  0  0  0  0  0
   18.4987   -9.3076    0.6089 N   0  0  0  0  0  0  0  0  0  0  0  0
   18.8200   -9.3962    1.9555 C   0  0  0  0  0  0  0  0  0  0  0  0
   17.8477   -9.2253    2.9337 N   0  0  0  0  0  0  0  0  0  0  0  0
   16.5758   -8.9897    2.5637 C   0  0  0  0  0  0  0  0  0  0  0  0
   16.2370   -8.9133    1.2098 C   0  0  0  0  0  0  0  0  0  0  0  0
   17.1978   -9.0601    0.2264 C   0  0  0  0  0  0  0  0  0  0  0  0
   16.8737   -8.9760   -1.0552 N   0  0  0  0  0  0  0  0  0  0  0  0
   14.9215   -8.6873    1.1225 N   0  0  0  0  0  0  0  0  0  0  0  0
   14.4202   -8.6217    2.3757 C   0  0  0  0  0  0  0  0  0  0  0  0
   15.4318   -8.8119    3.2838 N   0  0  0  0  0  0  0  0  0  0  0  0
  2  1  1  6  0  0  0
  2  3  1  0  0  0  0
  2  5  1  0  0  0  0
  3  4  1  0  0  0  0
  3 17  1  0  0  0  0
  5  6  1  0  0  0  0
  7  6  1  1  0  0  0
  7  8  1  0  0  0  0
  7  9  1  0  0  0  0
 10  9  1  6  0  0  0
 10 11  1  0  0  0  0
 10 12  1  0  0  0  0
 11 16  1  0  0  0  0
 12 13  1  1  0  0  0
 12 14  1  0  0  0  0
 14 15  1  1  0  0  0
 14 16  1  0  0  0  0
 16 27  1  6  0  0  0
 18 19  2  0  0  0  0
 18 23  1  0  0  0  0
 19 20  1  0  0  0  0
 20 21  2  0  0  0  0
 21 22  1  0  0  0  0
 21 27  1  0  0  0  0
 22 23  2  0  0  0  0
 22 25  1  0  0  0  0
 23 24  1  0  0  0  0
 25 26  2  0  0  0  0
 26 27  1  0  0  0  0
M  END
>  <CHROM.1>
-34.31594582,60.72973192,-73.26638803,-63.10513945,-74.40693606,-173.11818479
159.43743670,15.56554444,-6.74984826,5.48220586,-1.81149446,0.58581807,-1.98798237

>  <Name>
ligand

>  <RI>
0

>  <Rbt.Current_Directory>
/home/itssahil/PROJECTS/Mol_Feturizer/Test_systems_manuscript/rnas/2ydh

>  <Rbt.Executable>
rbdock ($Id: //depot/dev/client3/rdock/2013.1/src/exe/rbdock.cxx#4 $)

>  <Rbt.Library>
libRbt.so (2013.1, Build901 2013/11/27)

>  <Rbt.Parameter_File>
/export/apps/rDock/src/rDock_2013.1_src/data/scripts/dock_solv.prm

>  <Rbt.Receptor>
prm/pocket_docking_8.prm

>  <SCORE>
-17.6961

>  <SCORE.INTER>
-18.5492

>  <SCORE.INTER.CONST>
1

>  <SCORE.INTER.POLAR>
0

>  <SCORE.INTER.ROT>
7

>  <SCORE.INTER.SOLV>
8.65504

>  <SCORE.INTER.VDW>
-23.5178

>  <SCORE.INTER.norm>
-0.687007

>  <SCORE.INTRA>
0.853088

>  <SCORE.INTRA.DIHEDRAL>
-5.73836

>  <SCORE.INTRA.DIHEDRAL.0>
9.75037

>  <SCORE.INTRA.POLAR>
0

>  <SCORE.INTRA.POLAR.0>
0

>  <SCORE.INTRA.REPUL>
0

>  <SCORE.INTRA.REPUL.0>
0

>  <SCORE.INTRA.SOLV>
2.17141

>  <SCORE.INTRA.SOLV.lig_0>
-48.4279

>  <SCORE.INTRA.VDW>
2.63656

>  <SCORE.INTRA.VDW.0>
-4.69037

>  <SCORE.INTRA.norm>
0.0315959

>  <SCORE.RESTR>
0

>  <SCORE.RESTR.CAVITY>
0

>  <SCORE.RESTR.norm>
0

>  <SCORE.SYSTEM>
0

>  <SCORE.SYSTEM.CONST>
0

>  <SCORE.SYSTEM.DIHEDRAL>
0

>  <SCORE.SYSTEM.SOLV>
0

>  <SCORE.SYSTEM.norm>
0

>  <SCORE.heavy>
27

>  <SCORE.norm>
-0.655411

>  <RMSD>
5.991

$$$$
ligand
 OpenBabel02271912153D
libRbt.so/2013.1/901 2013/11/27
 27 29  0  0  0  0  0  0  0  0999 V2000
   13.7324   -9.4759   13.7068 N   0  0  0  0  0  0  0  0  0  0  0  0
   15.1682   -9.7114   13.3609 C   0  0  2  0  0  0  0  0  0  0  0  0
   16.0834   -9.4471   14.5771 C   0  0  0  0  0  0  0  0  0  0  0  0
   17.2995   -9.6528   14.5169 O   0  0  0  0  0  0  0  0  0  0  0  0
   15.5483   -8.8516   12.1602 C   0  0  0  0  0  0  0  0  0  0  0  0
   16.9386   -9.1192   11.6084 C   0  0  0  0  0  0  0  0  0  0  0  0
   17.4206   -7.9706   10.2873 S   0  0  2  0  0  0  0  0  0  0  0  0
   19.1875   -8.3574   10.1321 C   0  0  0  0  0  0  0  0  0  0  0  0
   17.4554   -6.3287   11.0240 C   0  0  0  0  0  0  0  0  0  0  0  0
   17.6911   -5.3020    9.9326 C   0  0  1  0  0  0  0  0  0  0  0  0
   18.9452   -5.4694    9.2897 O   0  0  0  0  0  0  0  0  0  0  0  0
   16.6304   -5.3811    8.8619 C   0  0  1  0  0  0  0  0  0  0  0  0
   15.5019   -4.6336    9.2148 O   0  0  0  0  0  0  0  0  0  0  0  0
   17.3539   -4.7876    7.6918 C   0  0  1  0  0  0  0  0  0  0  0  0
   17.1944   -3.3817    7.7118 O   0  0  0  0  0  0  0  0  0  0  0  0
   18.8126   -5.1616    7.9212 C   0  0  2  0  0  0  0  0  0  0  0  0
   15.6432   -9.0253   15.6623 O   0  0  0  0  0  0  0  0  0  0  0  0
   17.4589   -8.9049    4.4551 N   0  0  0  0  0  0  0  0  0  0  0  0
   16.6512   -7.9171    4.9996 C   0  0  0  0  0  0  0  0  0  0  0  0
   17.1591   -7.0067    5.9187 N   0  0  0  0  0  0  0  0  0  0  0  0
   18.4567   -7.0772    6.2672 C   0  0  0  0  0  0  0  0  0  0  0  0
   19.2840   -8.0586    5.7138 C   0  0  0  0  0  0  0  0  0  0  0  0
   18.7871   -8.9840    4.8146 C   0  0  0  0  0  0  0  0  0  0  0  0
   19.5725   -9.9190    4.3012 N   0  0  0  0  0  0  0  0  0  0  0  0
   20.5137   -7.8965    6.2146 N   0  0  0  0  0  0  0  0  0  0  0  0
   20.4892   -6.8445    7.0624 C   0  0  0  0  0  0  0  0  0  0  0  0
   19.2213   -6.3199    7.1043 N   0  0  0  0  0  0  0  0  0  0  0  0
  2  1  1  1  0  0  0
  2  3  1  0  0  0  0
  2  5  1  0  0  0  0
  3  4  1  0  0  0  0
  3 17  1  0  0  0  0
  5  6  1  0  0  0  0
  7  6  1  1  0  0  0
  7  8  1  0  0  0  0
  7  9  1  0  0  0  0
 10  9  1  1  0  0  0
 10 11  1  0  0  0  0
 10 12  1  0  0  0  0
 11 16  1  0  0  0  0
 12 13  1  1  0  0  0
 12 14  1  0  0  0  0
 14 15  1  1  0  0  0
 14 16  1  0  0  0  0
 16 27  1  6  0  0  0
 18 19  2  0  0  0  0
 18 23  1  0  0  0  0
 19 20  1  0  0  0  0
 20 21  2  0  0  0  0
 21 22  1  0  0  0  0
 21 27  1  0  0  0  0
 22 23  2  0  0  0  0
 22 25  1  0  0  0  0
 23 24  1  0  0  0  0
 25 26  2  0  0  0  0
 26 27  1  0  0  0  0
M  END
>  <CHROM.1>
176.19859477,-173.23930948,-174.34220332,168.91432636,-173.33983415,-62.66905577
115.42911339,17.52713964,-7.44361361,9.22231100,-2.66981495,1.19875503,-0.28453248

>  <Name>
ligand

>  <RI>
0

>  <Rbt.Current_Directory>
/home/itssahil/PROJECTS/Mol_Feturizer/Test_systems_manuscript/rnas/2ydh

>  <Rbt.Executable>
rbdock ($Id: //depot/dev/client3/rdock/2013.1/src/exe/rbdock.cxx#4 $)

>  <Rbt.Library>
libRbt.so (2013.1, Build901 2013/11/27)

>  <Rbt.Parameter_File>
/export/apps/rDock/src/rDock_2013.1_src/data/scripts/dock_solv.prm

>  <Rbt.Receptor>
prm/pocket_docking_6.prm

>  <SCORE>
-9.04544

>  <SCORE.INTER>
-7.55149

>  <SCORE.INTER.CONST>
1

>  <SCORE.INTER.POLAR>
0

>  <SCORE.INTER.ROT>
7

>  <SCORE.INTER.SOLV>
9.72371

>  <SCORE.INTER.VDW>
-16.5422

>  <SCORE.INTER.norm>
-0.279685

>  <SCORE.INTRA>
-1.49395

>  <SCORE.INTRA.DIHEDRAL>
-5.79533

>  <SCORE.INTRA.DIHEDRAL.0>
9.75037

>  <SCORE.INTRA.POLAR>
0

>  <SCORE.INTRA.POLAR.0>
0

>  <SCORE.INTRA.REPUL>
0

>  <SCORE.INTRA.REPUL.0>
0

>  <SCORE.INTRA.SOLV>
-1.25393

>  <SCORE.INTRA.SOLV.lig_0>
-48.4279

>  <SCORE.INTRA.VDW>
2.03068

>  <SCORE.INTRA.VDW.0>
-4.69037

>  <SCORE.INTRA.norm>
-0.0553315

>  <SCORE.RESTR>
0

>  <SCORE.RESTR.CAVITY>
0

>  <SCORE.RESTR.norm>
0

>  <SCORE.SYSTEM>
0

>  <SCORE.SYSTEM.CONST>
0

>  <SCORE.SYSTEM.DIHEDRAL>
0

>  <SCORE.SYSTEM.SOLV>
0

>  <SCORE.SYSTEM.norm>
0

>  <SCORE.heavy>
27

>  <SCORE.norm>
-0.335016

>  <RMSD>
6.018

$$$$
ligand
 OpenBabel02271912153D
libRbt.so/2013.1/901 2013/11/27
 27 29  0  0  0  0  0  0  0  0999 V2000
   15.4491   -1.4506    8.9901 N   0  0  0  0  0  0  0  0  0  0  0  0
   15.5183   -2.7024    8.1748 C   0  0  2  0  0  0  0  0  0  0  0  0
   16.8707   -2.8105    7.4359 C   0  0  0  0  0  0  0  0  0  0  0  0
   17.6152   -1.8320    7.3217 O   0  0  0  0  0  0  0  0  0  0  0  0
   14.3351   -2.7479    7.2138 C   0  0  0  0  0  0  0  0  0  0  0  0
   13.6152   -4.0852    7.1634 C   0  0  0  0  0  0  0  0  0  0  0  0
   14.6171   -5.4134    6.4358 S   0  0  2  0  0  0  0  0  0  0  0  0
   13.3417   -6.3477    5.5436 C   0  0  0  0  0  0  0  0  0  0  0  0
   15.0363   -6.5337    7.7808 C   0  0  0  0  0  0  0  0  0  0  0  0
   16.1885   -5.9459    8.5729 C   0  0  1  0  0  0  0  0  0  0  0  0
   15.7496   -5.1331    9.6503 O   0  0  0  0  0  0  0  0  0  0  0  0
   17.0625   -7.0268    9.1609 C   0  0  1  0  0  0  0  0  0  0  0  0
   18.0194   -7.4590    8.2366 O   0  0  0  0  0  0  0  0  0  0  0  0
   17.6841   -6.3017   10.3154 C   0  0  1  0  0  0  0  0  0  0  0  0
   18.8501   -5.6344    9.8711 O   0  0  0  0  0  0  0  0  0  0  0  0
   16.6242   -5.2947   10.7430 C   0  0  2  0  0  0  0  0  0  0  0  0
   17.2658   -3.8735    6.9229 O   0  0  0  0  0  0  0  0  0  0  0  0
   15.5850   -9.1720   14.1702 N   0  0  0  0  0  0  0  0  0  0  0  0
   16.4715   -9.1941   13.1033 C   0  0  0  0  0  0  0  0  0  0  0  0
   16.6221   -8.0862   12.2779 N   0  0  0  0  0  0  0  0  0  0  0  0
   15.9099   -6.9735   12.5328 C   0  0  0  0  0  0  0  0  0  0  0  0
   15.0249   -6.9340   13.6139 C   0  0  0  0  0  0  0  0  0  0  0  0
   14.8493   -8.0359   14.4305 C   0  0  0  0  0  0  0  0  0  0  0  0
   14.0012   -7.9972   15.4473 N   0  0  0  0  0  0  0  0  0  0  0  0
   14.4636   -5.7204   13.6475 N   0  0  0  0  0  0  0  0  0  0  0  0
   14.9674   -4.9935   12.6259 C   0  0  0  0  0  0  0  0  0  0  0  0
   15.8708   -5.7536   11.9254 N   0  0  0  0  0  0  0  0  0  0  0  0
  2  1  1  6  0  0  0
  2  3  1  0  0  0  0
  2  5  1  0  0  0  0
  3  4  1  0  0  0  0
  3 17  1  0  0  0  0
  5  6  1  0  0  0  0
  7  6  1  1  0  0  0
  7  8  1  0  0  0  0
  7  9  1  0  0  0  0
 10  9  1  1  0  0  0
 10 11  1  0  0  0  0
 10 12  1  0  0  0  0
 11 16  1  0  0  0  0
 12 13  1  6  0  0  0
 12 14  1  0  0  0  0
 14 15  1  6  0  0  0
 14 16  1  0  0  0  0
 16 27  1  1  0  0  0
 18 19  2  0  0  0  0
 18 23  1  0  0  0  0
 19 20  1  0  0  0  0
 20 21  2  0  0  0  0
 21 22  1  0  0  0  0
 21 27  1  0  0  0  0
 22 23  2  0  0  0  0
 22 25  1  0  0  0  0
 23 24  1  0  0  0  0
 25 26  2  0  0  0  0
 26 27  1  0  0  0  0
M  END
>  <CHROM.1>
-15.21852805,-133.88643184,-67.64352031,-143.83578165,-79.42805108,90.90440918
110.21294252,15.81147741,-5.62776656,9.83829979,1.37634862,1.48349083,-0.85168421

>  <Name>
ligand

>  <RI>
0

>  <Rbt.Current_Directory>
/home/itssahil/PROJECTS/Mol_Feturizer/Test_systems_manuscript/rnas/2ydh

>  <Rbt.Executable>
rbdock ($Id: //depot/dev/client3/rdock/2013.1/src/exe/rbdock.cxx#4 $)

>  <Rbt.Library>
libRbt.so (2013.1, Build901 2013/11/27)

>  <Rbt.Parameter_File>
/export/apps/rDock/src/rDock_2013.1_src/data/scripts/dock_solv.prm

>  <Rbt.Receptor>
prm/pocket_docking_7.prm

>  <SCORE>
-7.9306

>  <SCORE.INTER>
-10.5789

>  <SCORE.INTER.CONST>
1

>  <SCORE.INTER.POLAR>
0

>  <SCORE.INTER.ROT>
7

>  <SCORE.INTER.SOLV>
11.5088

>  <SCORE.INTER.VDW>
-19.1556

>  <SCORE.INTER.norm>
-0.391813

>  <SCORE.INTRA>
2.63318

>  <SCORE.INTRA.DIHEDRAL>
5.36296

>  <SCORE.INTRA.DIHEDRAL.0>
9.75037

>  <SCORE.INTRA.POLAR>
0

>  <SCORE.INTRA.POLAR.0>
0

>  <SCORE.INTRA.REPUL>
0

>  <SCORE.INTRA.REPUL.0>
0

>  <SCORE.INTRA.SOLV>
-0.272034

>  <SCORE.INTRA.SOLV.lig_0>
-48.4279

>  <SCORE.INTRA.VDW>
0.087722

>  <SCORE.INTRA.VDW.0>
-4.69037

>  <SCORE.INTRA.norm>
0.0975254

>  <SCORE.RESTR>
0.0151649

>  <SCORE.RESTR.CAVITY>
0.0151649

>  <SCORE.RESTR.norm>
0.000561663

>  <SCORE.SYSTEM>
0

>  <SCORE.SYSTEM.CONST>
0

>  <SCORE.SYSTEM.DIHEDRAL>
0

>  <SCORE.SYSTEM.SOLV>
0

>  <SCORE.SYSTEM.norm>
0

>  <SCORE.heavy>
27

>  <SCORE.norm>
-0.293726

>  <RMSD>
6.024

$$$$
ligand
 OpenBabel02271912153D
libRbt.so/2013.1/901 2013/11/27
 27 29  0  0  0  0  0  0  0  0999 V2000
   14.6569   -6.6951   14.5005 N   0  0  0  0  0  0  0  0  0  0  0  0
   14.8529   -5.9108   13.2424 C   0  0  2  0  0  0  0  0  0  0  0  0
   13.6573   -6.0938   12.2813 C   0  0  0  0  0  0  0  0  0  0  0  0
   13.0257   -7.1541   12.2437 O   0  0  0  0  0  0  0  0  0  0  0  0
   16.1746   -6.3115   12.5956 C   0  0  0  0  0  0  0  0  0  0  0  0
   16.4362   -5.6665   11.2448 C   0  0  0  0  0  0  0  0  0  0  0  0
   18.1197   -5.9510   10.6268 S   0  0  2  0  0  0  0  0  0  0  0  0
   18.9742   -4.4947   11.2934 C   0  0  0  0  0  0  0  0  0  0  0  0
   18.0844   -5.5953    8.8627 C   0  0  0  0  0  0  0  0  0  0  0  0
   17.2201   -6.6295    8.1670 C   0  0  1  0  0  0  0  0  0  0  0  0
   17.4433   -7.9430    8.6560 O   0  0  0  0  0  0  0  0  0  0  0  0
   15.7513   -6.3333    8.3476 C   0  0  1  0  0  0  0  0  0  0  0  0
   15.2995   -5.4222    7.3871 O   0  0  0  0  0  0  0  0  0  0  0  0
   15.1547   -7.6943    8.1553 C   0  0  1  0  0  0  0  0  0  0  0  0
   14.9175   -7.9066    6.7766 O   0  0  0  0  0  0  0  0  0  0  0  0
   16.2251   -8.6506    8.6653 C   0  0  2  0  0  0  0  0  0  0  0  0
   13.2829   -5.1949   11.5060 O   0  0  0  0  0  0  0  0  0  0  0  0
   12.6179  -10.1414   12.2185 N   0  0  0  0  0  0  0  0  0  0  0  0
   12.4052   -9.7318   10.9102 C   0  0  0  0  0  0  0  0  0  0  0  0
   13.4687   -9.3544   10.0990 N   0  0  0  0  0  0  0  0  0  0  0  0
   14.7209   -9.4068   10.5882 C   0  0  0  0  0  0  0  0  0  0  0  0
   14.9492   -9.8323   11.8999 C   0  0  0  0  0  0  0  0  0  0  0  0
   13.8989  -10.1903   12.7249 C   0  0  0  0  0  0  0  0  0  0  0  0
   14.1194  -10.5824   13.9708 N   0  0  0  0  0  0  0  0  0  0  0  0
   16.2677   -9.8032   12.1230 N   0  0  0  0  0  0  0  0  0  0  0  0
   16.8775   -9.3765   10.9951 C   0  0  0  0  0  0  0  0  0  0  0  0
   15.9334   -9.1300   10.0295 N   0  0  0  0  0  0  0  0  0  0  0  0
  2  1  1  1  0  0  0
  2  3  1  0  0  0  0
  2  5  1  0  0  0  0
  3  4  1  0  0  0  0
  3 17  1  0  0  0  0
  5  6  1  0  0  0  0
  7  6  1  1  0  0  0
  7  8  1  0  0  0  0
  7  9  1  0  0  0  0
 10  9  1  1  0  0  0
 10 11  1  0  0  0  0
 10 12  1  0  0  0  0
 11 16  1  0  0  0  0
 12 13  1  6  0  0  0
 12 14  1  0  0  0  0
 14 15  1  6  0  0  0
 14 16  1  0  0  0  0
 16 27  1  1  0  0  0
 18 19  2  0  0  0  0
 18 23  1  0  0  0  0
 19 20  1  0  0  0  0
 20 21  2  0  0  0  0
 21 22  1  0  0  0  0
 21 27  1  0  0  0  0
 22 23  2  0  0  0  0
 22 25  1  0  0  0  0
 23 24  1  0  0  0  0
 25 26  2  0  0  0  0
 26 27  1  0  0  0  0
M  END
>  <CHROM.1>
-31.97893428,175.15712156,170.80296256,-91.37523109,-66.73493505,-42.01848332
153.96826547,15.49909901,-7.52543589,10.69721313,-2.74547055,-0.86644602
-1.91733216

>  <Name>
ligand

>  <RI>
0

>  <Rbt.Current_Directory>
/home/itssahil/PROJECTS/Mol_Feturizer/Test_systems_manuscript/rnas/2ydh

>  <Rbt.Executable>
rbdock ($Id: //depot/dev/client3/rdock/2013.1/src/exe/rbdock.cxx#4 $)

>  <Rbt.Library>
libRbt.so (2013.1, Build901 2013/11/27)

>  <Rbt.Parameter_File>
/export/apps/rDock/src/rDock_2013.1_src/data/scripts/dock_solv.prm

>  <Rbt.Receptor>
prm/pocket_docking_7.prm

>  <SCORE>
-9.25694

>  <SCORE.INTER>
-6.29328

>  <SCORE.INTER.CONST>
1

>  <SCORE.INTER.POLAR>
0

>  <SCORE.INTER.ROT>
7

>  <SCORE.INTER.SOLV>
14.244

>  <SCORE.INTER.VDW>
-17.2102

>  <SCORE.INTER.norm>
-0.233085

>  <SCORE.INTRA>
-2.96366

>  <SCORE.INTRA.DIHEDRAL>
-3.62977

>  <SCORE.INTRA.DIHEDRAL.0>
9.75037

>  <SCORE.INTRA.POLAR>
0

>  <SCORE.INTRA.POLAR.0>
0

>  <SCORE.INTRA.REPUL>
0

>  <SCORE.INTRA.REPUL.0>
0

>  <SCORE.INTRA.SOLV>
-0.416232

>  <SCORE.INTRA.SOLV.lig_0>
-48.4279

>  <SCORE.INTRA.VDW>
-0.940662

>  <SCORE.INTRA.VDW.0>
-4.69037

>  <SCORE.INTRA.norm>
-0.109765

>  <SCORE.RESTR>
0

>  <SCORE.RESTR.CAVITY>
0

>  <SCORE.RESTR.norm>
0

>  <SCORE.SYSTEM>
0

>  <SCORE.SYSTEM.CONST>
0

>  <SCORE.SYSTEM.DIHEDRAL>
0

>  <SCORE.SYSTEM.SOLV>
0

>  <SCORE.SYSTEM.norm>
0

>  <SCORE.heavy>
27

>  <SCORE.norm>
-0.34285

>  <RMSD>
6.028

$$$$
ligand
 OpenBabel02271912153D
libRbt.so/2013.1/901 2013/11/27
 27 29  0  0  0  0  0  0  0  0999 V2000
   15.5404   -4.3082    6.4100 N   0  0  0  0  0  0  0  0  0  0  0  0
   14.0493   -4.3438    6.2995 C   0  0  2  0  0  0  0  0  0  0  0  0
   13.3835   -3.8291    7.5950 C   0  0  0  0  0  0  0  0  0  0  0  0
   13.8973   -4.0302    8.6996 O   0  0  0  0  0  0  0  0  0  0  0  0
   13.6005   -5.7582    5.9475 C   0  0  0  0  0  0  0  0  0  0  0  0
   14.4229   -6.8598    6.5949 C   0  0  0  0  0  0  0  0  0  0  0  0
   15.9231   -7.2791    5.6619 S   0  0  2  0  0  0  0  0  0  0  0  0
   15.2657   -8.5120    4.5028 C   0  0  0  0  0  0  0  0  0  0  0  0
   16.9390   -8.2882    6.7525 C   0  0  0  0  0  0  0  0  0  0  0  0
   17.7932   -7.3783    7.6146 C   0  0  1  0  0  0  0  0  0  0  0  0
   17.0433   -6.7283    8.6291 O   0  0  0  0  0  0  0  0  0  0  0  0
   18.8967   -8.1450    8.3018 C   0  0  1  0  0  0  0  0  0  0  0  0
   20.0129   -8.2762    7.4691 O   0  0  0  0  0  0  0  0  0  0  0  0
   19.1750   -7.2610    9.4792 C   0  0  1  0  0  0  0  0  0  0  0  0
   20.1225   -6.2779    9.1078 O   0  0  0  0  0  0  0  0  0  0  0  0
   17.8313   -6.6150    9.7915 C   0  0  2  0  0  0  0  0  0  0  0  0
   12.3092   -3.2004    7.5867 O   0  0  0  0  0  0  0  0  0  0  0  0
   14.8549   -6.1351   14.1239 N   0  0  0  0  0  0  0  0  0  0  0  0
   15.2896   -5.1283   13.2742 C   0  0  0  0  0  0  0  0  0  0  0  0
   16.0865   -5.4186   12.1732 N   0  0  0  0  0  0  0  0  0  0  0  0
   16.4222   -6.6971   11.9222 C   0  0  0  0  0  0  0  0  0  0  0  0
   15.9777   -7.7218   12.7624 C   0  0  0  0  0  0  0  0  0  0  0  0
   15.2021   -7.4452   13.8732 C   0  0  0  0  0  0  0  0  0  0  0  0
   14.7924   -8.4186   14.6727 N   0  0  0  0  0  0  0  0  0  0  0  0
   16.4378   -8.8823   12.2822 N   0  0  0  0  0  0  0  0  0  0  0  0
   17.1547   -8.6231   11.1664 C   0  0  0  0  0  0  0  0  0  0  0  0
   17.1522   -7.2719   10.9244 N   0  0  0  0  0  0  0  0  0  0  0  0
  2  1  1  1  0  0  0
  2  3  1  0  0  0  0
  2  5  1  0  0  0  0
  3  4  1  0  0  0  0
  3 17  1  0  0  0  0
  5  6  1  0  0  0  0
  7  6  1  1  0  0  0
  7  8  1  0  0  0  0
  7  9  1  0  0  0  0
 10  9  1  1  0  0  0
 10 11  1  0  0  0  0
 10 12  1  0  0  0  0
 11 16  1  0  0  0  0
 12 13  1  6  0  0  0
 12 14  1  0  0  0  0
 14 15  1  6  0  0  0
 14 16  1  0  0  0  0
 16 27  1  1  0  0  0
 18 19  2  0  0  0  0
 18 23  1  0  0  0  0
 19 20  1  0  0  0  0
 20 21  2  0  0  0  0
 21 22  1  0  0  0  0
 21 27  1  0  0  0  0
 22 23  2  0  0  0  0
 22 25  1  0  0  0  0
 23 24  1  0  0  0  0
 25 26  2  0  0  0  0
 26 27  1  0  0  0  0
M  END
>  <CHROM.1>
-33.92079930,36.28791691,-84.88948594,-86.87591909,-86.33070355,73.58158067
-99.92030460,16.13348684,-6.63520743,9.12052469,1.71919081,0.59028694,-1.50441208

>  <Name>
ligand

>  <RI>
0

>  <Rbt.Current_Directory>
/home/itssahil/PROJECTS/Mol_Feturizer/Test_systems_manuscript/rnas/2ydh

>  <Rbt.Executable>
rbdock ($Id: //depot/dev/client3/rdock/2013.1/src/exe/rbdock.cxx#4 $)

>  <Rbt.Library>
libRbt.so (2013.1, Build901 2013/11/27)

>  <Rbt.Parameter_File>
/export/apps/rDock/src/rDock_2013.1_src/data/scripts/dock_solv.prm

>  <Rbt.Receptor>
prm/pocket_docking_6.prm

>  <SCORE>
-8.02024

>  <SCORE.INTER>
-10.8691

>  <SCORE.INTER.CONST>
1

>  <SCORE.INTER.POLAR>
0

>  <SCORE.INTER.ROT>
7

>  <SCORE.INTER.SOLV>
9.19273

>  <SCORE.INTER.VDW>
-18.577

>  <SCORE.INTER.norm>
-0.40256

>  <SCORE.INTRA>
2.84888

>  <SCORE.INTRA.DIHEDRAL>
0.0523109

>  <SCORE.INTRA.DIHEDRAL.0>
9.75037

>  <SCORE.INTRA.POLAR>
0

>  <SCORE.INTRA.POLAR.0>
0

>  <SCORE.INTRA.REPUL>
0

>  <SCORE.INTRA.REPUL.0>
0

>  <SCORE.INTRA.SOLV>
1.75252

>  <SCORE.INTRA.SOLV.lig_0>
-48.4279

>  <SCORE.INTRA.VDW>
1.94646

>  <SCORE.INTRA.VDW.0>
-4.69037

>  <SCORE.INTRA.norm>
0.105514

>  <SCORE.RESTR>
0

>  <SCORE.RESTR.CAVITY>
0

>  <SCORE.RESTR.norm>
0

>  <SCORE.SYSTEM>
0

>  <SCORE.SYSTEM.CONST>
0

>  <SCORE.SYSTEM.DIHEDRAL>
0

>  <SCORE.SYSTEM.SOLV>
0

>  <SCORE.SYSTEM.norm>
0

>  <SCORE.heavy>
27

>  <SCORE.norm>
-0.297046

>  <RMSD>
6.044

$$$$
ligand
 OpenBabel02271912153D
libRbt.so/2013.1/901 2013/11/27
 27 29  0  0  0  0  0  0  0  0999 V2000
   21.5999   -8.5538    6.9182 N   0  0  0  0  0  0  0  0  0  0  0  0
   20.2351   -8.1010    6.5073 C   0  0  2  0  0  0  0  0  0  0  0  0
   19.5970   -7.2044    7.5916 C   0  0  0  0  0  0  0  0  0  0  0  0
   19.6588   -5.9734    7.5189 O   0  0  0  0  0  0  0  0  0  0  0  0
   19.3718   -9.3170    6.1884 C   0  0  0  0  0  0  0  0  0  0  0  0
   18.1539   -9.0177    5.3304 C   0  0  0  0  0  0  0  0  0  0  0  0
   16.9325   -7.9612    6.1603 S   0  0  2  0  0  0  0  0  0  0  0  0
   15.4275   -8.4038    5.2466 C   0  0  0  0  0  0  0  0  0  0  0  0
   17.2397   -6.2808    5.5933 C   0  0  0  0  0  0  0  0  0  0  0  0
   16.3356   -5.3294    6.3538 C   0  0  1  0  0  0  0  0  0  0  0  0
   15.0032   -5.8078    6.4536 O   0  0  0  0  0  0  0  0  0  0  0  0
   16.8315   -5.1029    7.7611 C   0  0  1  0  0  0  0  0  0  0  0  0
   17.7976   -4.0920    7.7980 O   0  0  0  0  0  0  0  0  0  0  0  0
   15.5662   -4.6961    8.4530 C   0  0  1  0  0  0  0  0  0  0  0  0
   15.3907   -3.2988    8.3159 O   0  0  0  0  0  0  0  0  0  0  0  0
   14.4705   -5.4466    7.7069 C   0  0  2  0  0  0  0  0  0  0  0  0
   19.0033   -7.6747    8.5794 O   0  0  0  0  0  0  0  0  0  0  0  0
   15.8011   -9.7555   10.4495 N   0  0  0  0  0  0  0  0  0  0  0  0
   16.6454   -8.7973    9.9075 C   0  0  0  0  0  0  0  0  0  0  0  0
   16.1357   -7.7192    9.1937 N   0  0  0  0  0  0  0  0  0  0  0  0
   14.8040   -7.5981    9.0454 C   0  0  0  0  0  0  0  0  0  0  0  0
   13.9425   -8.5490    9.5998 C   0  0  0  0  0  0  0  0  0  0  0  0
   14.4366   -9.6379   10.2941 C   0  0  0  0  0  0  0  0  0  0  0  0
   13.6167  -10.5422   10.8084 N   0  0  0  0  0  0  0  0  0  0  0  0
   12.6862   -8.1856    9.3194 N   0  0  0  0  0  0  0  0  0  0  0  0
   12.7275   -7.0364    8.6095 C   0  0  0  0  0  0  0  0  0  0  0  0
   14.0340   -6.6538    8.4336 N   0  0  0  0  0  0  0  0  0  0  0  0
  2  1  1  1  0  0  0
  2  3  1  0  0  0  0
  2  5  1  0  0  0  0
  3  4  1  0  0  0  0
  3 17  1  0  0  0  0
  5  6  1  0  0  0  0
  7  6  1  6  0  0  0
  7  8  1  0  0  0  0
  7  9  1  0  0  0  0
 10  9  1  1  0  0  0
 10 11  1  0  0  0  0
 10 12  1  0  0  0  0
 11 16  1  0  0  0  0
 12 13  1  6  0  0  0
 12 14  1  0  0  0  0
 14 15  1  6  0  0  0
 14 16  1  0  0  0  0
 16 27  1  1  0  0  0
 18 19  2  0  0  0  0
 18 23  1  0  0  0  0
 19 20  1  0  0  0  0
 20 21  2  0  0  0  0
 21 22  1  0  0  0  0
 21 27  1  0  0  0  0
 22 23  2  0  0  0  0
 22 25  1  0  0  0  0
 23 24  1  0  0  0  0
 25 26  2  0  0  0  0
 26 27  1  0  0  0  0
M  END
>  <CHROM.1>
96.22145721,-160.36789726,-65.78046668,-156.42820123,-174.61705365,-44.56604513
74.00169927,16.49855738,-7.26541045,7.80579868,-0.22646849,-0.41366050,2.80248232

>  <Name>
ligand

>  <RI>
0

>  <Rbt.Current_Directory>
/home/itssahil/PROJECTS/Mol_Feturizer/Test_systems_manuscript/rnas/2ydh

>  <Rbt.Executable>
rbdock ($Id: //depot/dev/client3/rdock/2013.1/src/exe/rbdock.cxx#4 $)

>  <Rbt.Library>
libRbt.so (2013.1, Build901 2013/11/27)

>  <Rbt.Parameter_File>
/export/apps/rDock/src/rDock_2013.1_src/data/scripts/dock_solv.prm

>  <Rbt.Receptor>
prm/pocket_docking_8.prm

>  <SCORE>
-8.17325

>  <SCORE.INTER>
-5.92804

>  <SCORE.INTER.CONST>
1

>  <SCORE.INTER.POLAR>
0

>  <SCORE.INTER.ROT>
7

>  <SCORE.INTER.SOLV>
12.7645

>  <SCORE.INTER.VDW>
-16.4735

>  <SCORE.INTER.norm>
-0.219557

>  <SCORE.INTRA>
-2.2452

>  <SCORE.INTRA.DIHEDRAL>
-1.66593

>  <SCORE.INTRA.DIHEDRAL.0>
9.75037

>  <SCORE.INTRA.POLAR>
0

>  <SCORE.INTRA.POLAR.0>
0

>  <SCORE.INTRA.REPUL>
0

>  <SCORE.INTRA.REPUL.0>
0

>  <SCORE.INTRA.SOLV>
-0.848301

>  <SCORE.INTRA.SOLV.lig_0>
-48.4279

>  <SCORE.INTRA.VDW>
-0.98809

>  <SCORE.INTRA.VDW.0>
-4.69037

>  <SCORE.INTRA.norm>
-0.0831557

>  <SCORE.RESTR>
0

>  <SCORE.RESTR.CAVITY>
0

>  <SCORE.RESTR.norm>
0

>  <SCORE.SYSTEM>
0

>  <SCORE.SYSTEM.CONST>
0

>  <SCORE.SYSTEM.DIHEDRAL>
0

>  <SCORE.SYSTEM.SOLV>
0

>  <SCORE.SYSTEM.norm>
0

>  <SCORE.heavy>
27

>  <SCORE.norm>
-0.302713

>  <RMSD>
6.066

$$$$
ligand
 OpenBabel02271912153D
libRbt.so/2013.1/901 2013/11/27
 27 29  0  0  0  0  0  0  0  0999 V2000
   14.6165   -4.8365    6.0571 N   0  0  0  0  0  0  0  0  0  0  0  0
   14.3671   -5.0348    7.5183 C   0  0  2  0  0  0  0  0  0  0  0  0
   12.9823   -5.6741    7.7641 C   0  0  0  0  0  0  0  0  0  0  0  0
   12.6271   -6.0101    8.8979 O   0  0  0  0  0  0  0  0  0  0  0  0
   14.5202   -3.7025    8.2443 C   0  0  0  0  0  0  0  0  0  0  0  0
   14.4528   -3.7991    9.7593 C   0  0  0  0  0  0  0  0  0  0  0  0
   15.4916   -5.1228   10.4417 S   0  0  2  0  0  0  0  0  0  0  0  0
   15.3199   -4.8031   12.2205 C   0  0  0  0  0  0  0  0  0  0  0  0
   17.1991   -4.6438   10.1338 C   0  0  0  0  0  0  0  0  0  0  0  0
   18.0946   -5.8522   10.3302 C   0  0  1  0  0  0  0  0  0  0  0  0
   17.5571   -7.0286    9.7460 O   0  0  0  0  0  0  0  0  0  0  0  0
   19.4565   -5.6356    9.7170 C   0  0  1  0  0  0  0  0  0  0  0  0
   20.3048   -4.9596   10.6003 O   0  0  0  0  0  0  0  0  0  0  0  0
   19.8983   -7.0483    9.4843 C   0  0  1  0  0  0  0  0  0  0  0  0
   20.5291   -7.5360   10.6533 O   0  0  0  0  0  0  0  0  0  0  0  0
   18.6054   -7.8090    9.2196 C   0  0  2  0  0  0  0  0  0  0  0  0
   12.1725   -5.8828    6.8422 O   0  0  0  0  0  0  0  0  0  0  0  0
   15.1986   -8.7514    5.2998 N   0  0  0  0  0  0  0  0  0  0  0  0
   14.9189   -8.5814    6.6480 C   0  0  0  0  0  0  0  0  0  0  0  0
   15.9382   -8.3522    7.5646 N   0  0  0  0  0  0  0  0  0  0  0  0
   17.2094   -8.2764    7.1305 C   0  0  0  0  0  0  0  0  0  0  0  0
   17.5020   -8.4308    5.7725 C   0  0  0  0  0  0  0  0  0  0  0  0
   16.5004   -8.6805    4.8525 C   0  0  0  0  0  0  0  0  0  0  0  0
   16.7839   -8.8370    3.5681 N   0  0  0  0  0  0  0  0  0  0  0  0
   18.8235   -8.2974    5.6141 N   0  0  0  0  0  0  0  0  0  0  0  0
   19.3724   -8.0614    6.8262 C   0  0  0  0  0  0  0  0  0  0  0  0
   18.3848   -8.0400    7.7795 N   0  0  0  0  0  0  0  0  0  0  0  0
  2  1  1  6  0  0  0
  2  3  1  0  0  0  0
  2  5  1  0  0  0  0
  3  4  1  0  0  0  0
  3 17  1  0  0  0  0
  5  6  1  0  0  0  0
  7  6  1  6  0  0  0
  7  8  1  0  0  0  0
  7  9  1  0  0  0  0
 10  9  1  6  0  0  0
 10 11  1  0  0  0  0
 10 12  1  0  0  0  0
 11 16  1  0  0  0  0
 12 13  1  1  0  0  0
 12 14  1  0  0  0  0
 14 15  1  1  0  0  0
 14 16  1  0  0  0  0
 16 27  1  6  0  0  0
 18 19  2  0  0  0  0
 18 23  1  0  0  0  0
 19 20  1  0  0  0  0
 20 21  2  0  0  0  0
 21 22  1  0  0  0  0
 21 27  1  0  0  0  0
 22 23  2  0  0  0  0
 22 25  1  0  0  0  0
 23 24  1  0  0  0  0
 25 26  2  0  0  0  0
 26 27  1  0  0  0  0
M  END
>  <CHROM.1>
174.60521653,-173.13181359,47.49719293,173.37044818,-164.76867200,43.40010655
-38.25824258,16.55555339,-6.53451846,8.28519053,2.75334193,0.32842847,-2.16167623

>  <Name>
ligand

>  <RI>
0

>  <Rbt.Current_Directory>
/home/itssahil/PROJECTS/Mol_Feturizer/Test_systems_manuscript/rnas/2ydh

>  <Rbt.Executable>
rbdock ($Id: //depot/dev/client3/rdock/2013.1/src/exe/rbdock.cxx#4 $)

>  <Rbt.Library>
libRbt.so (2013.1, Build901 2013/11/27)

>  <Rbt.Parameter_File>
/export/apps/rDock/src/rDock_2013.1_src/data/scripts/dock_solv.prm

>  <Rbt.Receptor>
prm/pocket_docking_6.prm

>  <SCORE>
-8.84248

>  <SCORE.INTER>
-7.68031

>  <SCORE.INTER.CONST>
1

>  <SCORE.INTER.POLAR>
0

>  <SCORE.INTER.ROT>
7

>  <SCORE.INTER.SOLV>
16.8155

>  <SCORE.INTER.VDW>
-18.9921

>  <SCORE.INTER.norm>
-0.284456

>  <SCORE.INTRA>
-1.16217

>  <SCORE.INTRA.DIHEDRAL>
-3.67902

>  <SCORE.INTRA.DIHEDRAL.0>
9.75037

>  <SCORE.INTRA.POLAR>
0

>  <SCORE.INTRA.POLAR.0>
0

>  <SCORE.INTRA.REPUL>
0

>  <SCORE.INTRA.REPUL.0>
0

>  <SCORE.INTRA.SOLV>
-1.11362

>  <SCORE.INTRA.SOLV.lig_0>
-48.4279

>  <SCORE.INTRA.VDW>
1.23415

>  <SCORE.INTRA.VDW.0>
-4.69037

>  <SCORE.INTRA.norm>
-0.0430432

>  <SCORE.RESTR>
0

>  <SCORE.RESTR.CAVITY>
0

>  <SCORE.RESTR.norm>
0

>  <SCORE.SYSTEM>
0

>  <SCORE.SYSTEM.CONST>
0

>  <SCORE.SYSTEM.DIHEDRAL>
0

>  <SCORE.SYSTEM.SOLV>
0

>  <SCORE.SYSTEM.norm>
0

>  <SCORE.heavy>
27

>  <SCORE.norm>
-0.327499

>  <RMSD>
6.067

$$$$
ligand
 OpenBabel02271912153D
libRbt.so/2013.1/901 2013/11/27
 27 29  0  0  0  0  0  0  0  0999 V2000
   19.0225   -8.6797    7.4524 N   0  0  0  0  0  0  0  0  0  0  0  0
   17.9481   -8.3704    6.4592 C   0  0  2  0  0  0  0  0  0  0  0  0
   18.4483   -8.5868    5.0137 C   0  0  0  0  0  0  0  0  0  0  0  0
   17.7319   -9.1260    4.1647 O   0  0  0  0  0  0  0  0  0  0  0  0
   17.4433   -6.9491    6.6842 C   0  0  0  0  0  0  0  0  0  0  0  0
   16.2634   -6.5539    5.8119 C   0  0  0  0  0  0  0  0  0  0  0  0
   14.7599   -7.5104    6.1608 S   0  0  2  0  0  0  0  0  0  0  0  0
   14.9408   -8.8690    4.9704 C   0  0  0  0  0  0  0  0  0  0  0  0
   13.3868   -6.5774    5.4652 C   0  0  0  0  0  0  0  0  0  0  0  0
   12.9177   -5.5553    6.4830 C   0  0  1  0  0  0  0  0  0  0  0  0
   12.5600   -6.1463    7.7227 O   0  0  0  0  0  0  0  0  0  0  0  0
   13.9892   -4.5326    6.7726 C   0  0  1  0  0  0  0  0  0  0  0  0
   13.9630   -3.4961    5.8337 O   0  0  0  0  0  0  0  0  0  0  0  0
   13.5834   -4.0651    8.1370 C   0  0  1  0  0  0  0  0  0  0  0  0
   12.6474   -3.0118    8.0075 O   0  0  0  0  0  0  0  0  0  0  0  0
   12.9291   -5.2842    8.7742 C   0  0  2  0  0  0  0  0  0  0  0  0
   19.5841   -8.2373    4.6431 O   0  0  0  0  0  0  0  0  0  0  0  0
   13.7342   -7.3818   13.5502 N   0  0  0  0  0  0  0  0  0  0  0  0
   12.5848   -6.7690   13.0726 C   0  0  0  0  0  0  0  0  0  0  0  0
   12.5358   -6.2501   11.7843 N   0  0  0  0  0  0  0  0  0  0  0  0
   13.6141   -6.3630   10.9875 C   0  0  0  0  0  0  0  0  0  0  0  0
   14.7726   -6.9919   11.4522 C   0  0  0  0  0  0  0  0  0  0  0  0
   14.8427   -7.4937   12.7388 C   0  0  0  0  0  0  0  0  0  0  0  0
   15.9466   -8.0791   13.1783 N   0  0  0  0  0  0  0  0  0  0  0  0
   15.6761   -6.9804   10.4660 N   0  0  0  0  0  0  0  0  0  0  0  0
   15.1245   -6.3681    9.3950 C   0  0  0  0  0  0  0  0  0  0  0  0
   13.8426   -5.9821    9.6985 N   0  0  0  0  0  0  0  0  0  0  0  0
  2  1  1  1  0  0  0
  2  3  1  0  0  0  0
  2  5  1  0  0  0  0
  3  4  1  0  0  0  0
  3 17  1  0  0  0  0
  5  6  1  0  0  0  0
  7  6  1  6  0  0  0
  7  8  1  0  0  0  0
  7  9  1  0  0  0  0
 10  9  1  6  0  0  0
 10 11  1  0  0  0  0
 10 12  1  0  0  0  0
 11 16  1  0  0  0  0
 12 13  1  6  0  0  0
 12 14  1  0  0  0  0
 14 15  1  6  0  0  0
 14 16  1  0  0  0  0
 16 27  1  1  0  0  0
 18 19  2  0  0  0  0
 18 23  1  0  0  0  0
 19 20  1  0  0  0  0
 20 21  2  0  0  0  0
 21 22  1  0  0  0  0
 21 27  1  0  0  0  0
 22 23  2  0  0  0  0
 22 25  1  0  0  0  0
 23 24  1  0  0  0  0
 25 26  2  0  0  0  0
 26 27  1  0  0  0  0
M  END
>  <CHROM.1>
138.38375824,-175.02041200,65.04284728,-91.96387461,-86.03311327,-56.16780952
-112.28002926,15.00133556,-6.70294447,8.10969262,-0.90556241,-0.66217687
1.77460498

>  <Name>
ligand

>  <RI>
0

>  <Rbt.Current_Directory>
/home/itssahil/PROJECTS/Mol_Feturizer/Test_systems_manuscript/rnas/2ydh

>  <Rbt.Executable>
rbdock ($Id: //depot/dev/client3/rdock/2013.1/src/exe/rbdock.cxx#4 $)

>  <Rbt.Library>
libRbt.so (2013.1, Build901 2013/11/27)

>  <Rbt.Parameter_File>
/export/apps/rDock/src/rDock_2013.1_src/data/scripts/dock_solv.prm

>  <Rbt.Receptor>
prm/pocket_docking_5.prm

>  <SCORE>
-10.9475

>  <SCORE.INTER>
-9.62709

>  <SCORE.INTER.CONST>
1

>  <SCORE.INTER.POLAR>
0

>  <SCORE.INTER.ROT>
7

>  <SCORE.INTER.SOLV>
11.7019

>  <SCORE.INTER.VDW>
-18.5854

>  <SCORE.INTER.norm>
-0.356559

>  <SCORE.INTRA>
-1.32037

>  <SCORE.INTRA.DIHEDRAL>
-3.83788

>  <SCORE.INTRA.DIHEDRAL.0>
9.75037

>  <SCORE.INTRA.POLAR>
0

>  <SCORE.INTRA.POLAR.0>
0

>  <SCORE.INTRA.REPUL>
0

>  <SCORE.INTRA.REPUL.0>
0

>  <SCORE.INTRA.SOLV>
-1.12644

>  <SCORE.INTRA.SOLV.lig_0>
-48.4279

>  <SCORE.INTRA.VDW>
1.16179

>  <SCORE.INTRA.VDW.0>
-4.69037

>  <SCORE.INTRA.norm>
-0.0489026

>  <SCORE.RESTR>
0

>  <SCORE.RESTR.CAVITY>
0

>  <SCORE.RESTR.norm>
0

>  <SCORE.SYSTEM>
0

>  <SCORE.SYSTEM.CONST>
0

>  <SCORE.SYSTEM.DIHEDRAL>
0

>  <SCORE.SYSTEM.SOLV>
0

>  <SCORE.SYSTEM.norm>
0

>  <SCORE.heavy>
27

>  <SCORE.norm>
-0.405461

>  <RMSD>
6.139

$$$$
ligand
 OpenBabel02271912153D
libRbt.so/2013.1/901 2013/11/27
 27 29  0  0  0  0  0  0  0  0999 V2000
   14.8681   -7.7463    6.1190 N   0  0  0  0  0  0  0  0  0  0  0  0
   13.7291   -7.5230    5.1759 C   0  0  2  0  0  0  0  0  0  0  0  0
   14.1365   -7.8563    3.7235 C   0  0  0  0  0  0  0  0  0  0  0  0
   13.5663   -7.3283    2.7639 O   0  0  0  0  0  0  0  0  0  0  0  0
   13.2283   -6.0894    5.3159 C   0  0  0  0  0  0  0  0  0  0  0  0
   12.6619   -5.7506    6.6847 C   0  0  0  0  0  0  0  0  0  0  0  0
   13.9238   -5.1986    7.8678 S   0  0  2  0  0  0  0  0  0  0  0  0
   13.5069   -6.2226    9.3077 C   0  0  0  0  0  0  0  0  0  0  0  0
   13.4294   -3.5565    8.4147 C   0  0  0  0  0  0  0  0  0  0  0  0
   14.6698   -2.7603    8.7726 C   0  0  1  0  0  0  0  0  0  0  0  0
   15.5387   -3.4686    9.6430 O   0  0  0  0  0  0  0  0  0  0  0  0
   15.4694   -2.4019    7.5437 C   0  0  1  0  0  0  0  0  0  0  0  0
   14.9836   -1.2322    6.9503 O   0  0  0  0  0  0  0  0  0  0  0  0
   16.8341   -2.2087    8.1313 C   0  0  1  0  0  0  0  0  0  0  0  0
   16.9632   -0.8715    8.5756 O   0  0  0  0  0  0  0  0  0  0  0  0
   16.8753   -3.1691    9.3130 C   0  0  2  0  0  0  0  0  0  0  0  0
   15.0429   -8.6663    3.4557 O   0  0  0  0  0  0  0  0  0  0  0  0
   17.9846   -6.9272    5.7768 N   0  0  0  0  0  0  0  0  0  0  0  0
   17.1580   -5.8248    5.6161 C   0  0  0  0  0  0  0  0  0  0  0  0
   16.9562   -4.9266    6.6573 N   0  0  0  0  0  0  0  0  0  0  0  0
   17.5883   -5.1236    7.8286 C   0  0  0  0  0  0  0  0  0  0  0  0
   18.4355   -6.2223    7.9975 C   0  0  0  0  0  0  0  0  0  0  0  0
   18.6288   -7.1355    6.9774 C   0  0  0  0  0  0  0  0  0  0  0  0
   19.4242   -8.1812    7.1460 N   0  0  0  0  0  0  0  0  0  0  0  0
   18.9396   -6.1722    9.2355 N   0  0  0  0  0  0  0  0  0  0  0  0
   18.4406   -5.0773    9.8506 C   0  0  0  0  0  0  0  0  0  0  0  0
   17.6032   -4.4111    8.9908 N   0  0  0  0  0  0  0  0  0  0  0  0
  2  1  1  1  0  0  0
  2  3  1  0  0  0  0
  2  5  1  0  0  0  0
  3  4  1  0  0  0  0
  3 17  1  0  0  0  0
  5  6  1  0  0  0  0
  7  6  1  6  0  0  0
  7  8  1  0  0  0  0
  7  9  1  0  0  0  0
 10  9  1  6  0  0  0
 10 11  1  0  0  0  0
 10 12  1  0  0  0  0
 11 16  1  0  0  0  0
 12 13  1  1  0  0  0
 12 14  1  0  0  0  0
 14 15  1  1  0  0  0
 14 16  1  0  0  0  0
 16 27  1  6  0  0  0
 18 19  2  0  0  0  0
 18 23  1  0  0  0  0
 19 20  1  0  0  0  0
 20 21  2  0  0  0  0
 21 22  1  0  0  0  0
 21 27  1  0  0  0  0
 22 23  2  0  0  0  0
 22 25  1  0  0  0  0
 23 24  1  0  0  0  0
 25 26  2  0  0  0  0
 26 27  1  0  0  0  0
M  END
>  <CHROM.1>
-154.27237536,-63.06391138,86.79689496,-131.73917922,-150.51679588,-49.92929296
79.60495426,15.78955247,-5.22845261,7.19128309,-1.89446678,-0.34989704,0.62754215

>  <Name>
ligand

>  <RI>
0

>  <Rbt.Current_Directory>
/home/itssahil/PROJECTS/Mol_Feturizer/Test_systems_manuscript/rnas/2ydh

>  <Rbt.Executable>
rbdock ($Id: //depot/dev/client3/rdock/2013.1/src/exe/rbdock.cxx#4 $)

>  <Rbt.Library>
libRbt.so (2013.1, Build901 2013/11/27)

>  <Rbt.Parameter_File>
/export/apps/rDock/src/rDock_2013.1_src/data/scripts/dock_solv.prm

>  <Rbt.Receptor>
prm/pocket_docking_6.prm

>  <SCORE>
-15.7834

>  <SCORE.INTER>
-18.2257

>  <SCORE.INTER.CONST>
1

>  <SCORE.INTER.POLAR>
0

>  <SCORE.INTER.ROT>
7

>  <SCORE.INTER.SOLV>
11.8553

>  <SCORE.INTER.VDW>
-24.3689

>  <SCORE.INTER.norm>
-0.675026

>  <SCORE.INTRA>
2.44227

>  <SCORE.INTRA.DIHEDRAL>
3.36472

>  <SCORE.INTRA.DIHEDRAL.0>
9.75037

>  <SCORE.INTRA.POLAR>
0

>  <SCORE.INTRA.POLAR.0>
0

>  <SCORE.INTRA.REPUL>
0

>  <SCORE.INTRA.REPUL.0>
0

>  <SCORE.INTRA.SOLV>
2.36484

>  <SCORE.INTRA.SOLV.lig_0>
-48.4279

>  <SCORE.INTRA.VDW>
-0.42251

>  <SCORE.INTRA.VDW.0>
-4.69037

>  <SCORE.INTRA.norm>
0.0904544

>  <SCORE.RESTR>
0

>  <SCORE.RESTR.CAVITY>
0

>  <SCORE.RESTR.norm>
0

>  <SCORE.SYSTEM>
0

>  <SCORE.SYSTEM.CONST>
0

>  <SCORE.SYSTEM.DIHEDRAL>
0

>  <SCORE.SYSTEM.SOLV>
0

>  <SCORE.SYSTEM.norm>
0

>  <SCORE.heavy>
27

>  <SCORE.norm>
-0.584571

>  <RMSD>
6.165

$$$$
ligand
 OpenBabel02271912153D
libRbt.so/2013.1/901 2013/11/27
 27 29  0  0  0  0  0  0  0  0999 V2000
   14.5719   -8.4726    6.4028 N   0  0  0  0  0  0  0  0  0  0  0  0
   15.6502   -7.6612    7.0474 C   0  0  2  0  0  0  0  0  0  0  0  0
   16.4704   -8.5150    8.0397 C   0  0  0  0  0  0  0  0  0  0  0  0
   17.7016   -8.4329    8.0857 O   0  0  0  0  0  0  0  0  0  0  0  0
   15.0328   -6.4385    7.7177 C   0  0  0  0  0  0  0  0  0  0  0  0
   14.4453   -5.4209    6.7541 C   0  0  0  0  0  0  0  0  0  0  0  0
   13.9121   -3.8869    7.5662 S   0  0  2  0  0  0  0  0  0  0  0  0
   12.8371   -3.1826    6.2840 C   0  0  0  0  0  0  0  0  0  0  0  0
   15.3244   -2.7715    7.5313 C   0  0  0  0  0  0  0  0  0  0  0  0
   16.1315   -2.9559    8.8022 C   0  0  1  0  0  0  0  0  0  0  0  0
   15.3374   -2.8405    9.9728 O   0  0  0  0  0  0  0  0  0  0  0  0
   16.7901   -4.3132    8.8458 C   0  0  1  0  0  0  0  0  0  0  0  0
   18.0111   -4.3026    8.1634 O   0  0  0  0  0  0  0  0  0  0  0  0
   16.9728   -4.5001   10.3212 C   0  0  1  0  0  0  0  0  0  0  0  0
   18.2013   -3.9183   10.7143 O   0  0  0  0  0  0  0  0  0  0  0  0
   15.8036   -3.7483   10.9442 C   0  0  2  0  0  0  0  0  0  0  0  0
   15.9363   -9.3193    8.8254 O   0  0  0  0  0  0  0  0  0  0  0  0
   13.9287   -7.2304   14.4396 N   0  0  0  0  0  0  0  0  0  0  0  0
   15.1357   -6.5478   14.4820 C   0  0  0  0  0  0  0  0  0  0  0  0
   15.4931   -5.6671   13.4680 N   0  0  0  0  0  0  0  0  0  0  0  0
   14.6452   -5.4635   12.4434 C   0  0  0  0  0  0  0  0  0  0  0  0
   13.4196   -6.1339   12.3974 C   0  0  0  0  0  0  0  0  0  0  0  0
   13.0603   -7.0289   13.3883 C   0  0  0  0  0  0  0  0  0  0  0  0
   11.9025   -7.6701   13.3346 N   0  0  0  0  0  0  0  0  0  0  0  0
   12.7729   -5.7429   11.2938 N   0  0  0  0  0  0  0  0  0  0  0  0
   13.5487   -4.8467   10.6449 C   0  0  0  0  0  0  0  0  0  0  0  0
   14.7134   -4.6569   11.3464 N   0  0  0  0  0  0  0  0  0  0  0  0
  2  1  1  1  0  0  0
  2  3  1  0  0  0  0
  2  5  1  0  0  0  0
  3  4  1  0  0  0  0
  3 17  1  0  0  0  0
  5  6  1  0  0  0  0
  7  6  1  6  0  0  0
  7  8  1  0  0  0  0
  7  9  1  0  0  0  0
 10  9  1  6  0  0  0
 10 11  1  0  0  0  0
 10 12  1  0  0  0  0
 11 16  1  0  0  0  0
 12 13  1  6  0  0  0
 12 14  1  0  0  0  0
 14 15  1  1  0  0  0
 14 16  1  0  0  0  0
 16 27  1  6  0  0  0
 18 19  2  0  0  0  0
 18 23  1  0  0  0  0
 19 20  1  0  0  0  0
 20 21  2  0  0  0  0
 21 22  1  0  0  0  0
 21 27  1  0  0  0  0
 22 23  2  0  0  0  0
 22 25  1  0  0  0  0
 23 24  1  0  0  0  0
 25 26  2  0  0  0  0
 26 27  1  0  0  0  0
M  END
>  <CHROM.1>
137.09322945,-67.62928655,-172.62068871,-163.02239131,-91.45640310,-52.66135889
-163.86980470,15.09762228,-5.52223149,9.78090788,-0.21753822,-1.32704377
-3.13048820

>  <Name>
ligand

>  <RI>
0

>  <Rbt.Current_Directory>
/home/itssahil/PROJECTS/Mol_Feturizer/Test_systems_manuscript/rnas/2ydh

>  <Rbt.Executable>
rbdock ($Id: //depot/dev/client3/rdock/2013.1/src/exe/rbdock.cxx#4 $)

>  <Rbt.Library>
libRbt.so (2013.1, Build901 2013/11/27)

>  <Rbt.Parameter_File>
/export/apps/rDock/src/rDock_2013.1_src/data/scripts/dock_solv.prm

>  <Rbt.Receptor>
prm/pocket_docking_6.prm

>  <SCORE>
-11.5124

>  <SCORE.INTER>
-10.7443

>  <SCORE.INTER.CONST>
1

>  <SCORE.INTER.POLAR>
0

>  <SCORE.INTER.ROT>
7

>  <SCORE.INTER.SOLV>
11.6797

>  <SCORE.INTER.VDW>
-19.3228

>  <SCORE.INTER.norm>
-0.397937

>  <SCORE.INTRA>
-0.768077

>  <SCORE.INTRA.DIHEDRAL>
-3.02493

>  <SCORE.INTRA.DIHEDRAL.0>
9.75037

>  <SCORE.INTRA.POLAR>
0

>  <SCORE.INTRA.POLAR.0>
0

>  <SCORE.INTRA.REPUL>
0

>  <SCORE.INTRA.REPUL.0>
0

>  <SCORE.INTRA.SOLV>
-0.337781

>  <SCORE.INTRA.SOLV.lig_0>
-48.4279

>  <SCORE.INTRA.VDW>
0.91328

>  <SCORE.INTRA.VDW.0>
-4.69037

>  <SCORE.INTRA.norm>
-0.0284473

>  <SCORE.RESTR>
0

>  <SCORE.RESTR.CAVITY>
0

>  <SCORE.RESTR.norm>
0

>  <SCORE.SYSTEM>
0

>  <SCORE.SYSTEM.CONST>
0

>  <SCORE.SYSTEM.DIHEDRAL>
0

>  <SCORE.SYSTEM.SOLV>
0

>  <SCORE.SYSTEM.norm>
0

>  <SCORE.heavy>
27

>  <SCORE.norm>
-0.426385

>  <RMSD>
6.168

$$$$
ligand
 OpenBabel02271912153D
libRbt.so/2013.1/901 2013/11/27
 27 29  0  0  0  0  0  0  0  0999 V2000
   18.3114   -7.1350    6.5773 N   0  0  0  0  0  0  0  0  0  0  0  0
   18.6018   -5.7752    7.1279 C   0  0  2  0  0  0  0  0  0  0  0  0
   19.0104   -5.8536    8.6157 C   0  0  0  0  0  0  0  0  0  0  0  0
   20.0718   -5.3629    9.0124 O   0  0  0  0  0  0  0  0  0  0  0  0
   17.3921   -4.8719    6.9128 C   0  0  0  0  0  0  0  0  0  0  0  0
   17.5274   -3.4834    7.5152 C   0  0  0  0  0  0  0  0  0  0  0  0
   15.9788   -2.5357    7.4908 S   0  0  2  0  0  0  0  0  0  0  0  0
   16.4112   -1.1547    8.5870 C   0  0  0  0  0  0  0  0  0  0  0  0
   14.7988   -3.4573    8.4899 C   0  0  0  0  0  0  0  0  0  0  0  0
   14.4420   -4.7446    7.7714 C   0  0  1  0  0  0  0  0  0  0  0  0
   14.6303   -5.8921    8.5851 O   0  0  0  0  0  0  0  0  0  0  0  0
   12.9993   -4.7479    7.3281 C   0  0  1  0  0  0  0  0  0  0  0  0
   12.8504   -4.1078    6.0933 O   0  0  0  0  0  0  0  0  0  0  0  0
   12.7273   -6.2184    7.2350 C   0  0  1  0  0  0  0  0  0  0  0  0
   13.0980   -6.6786    5.9493 O   0  0  0  0  0  0  0  0  0  0  0  0
   13.6235   -6.8358    8.3009 C   0  0  2  0  0  0  0  0  0  0  0  0
   18.3010   -6.4126    9.4722 O   0  0  0  0  0  0  0  0  0  0  0  0
   12.4073  -10.3966   12.0023 N   0  0  0  0  0  0  0  0  0  0  0  0
   13.2540  -10.5548   10.9148 C   0  0  0  0  0  0  0  0  0  0  0  0
   13.4607   -9.5162   10.0147 N   0  0  0  0  0  0  0  0  0  0  0  0
   12.8435   -8.3378   10.2160 C   0  0  0  0  0  0  0  0  0  0  0  0
   12.0000   -8.1615   11.3165 C   0  0  0  0  0  0  0  0  0  0  0  0
   11.7686   -9.1927   12.2081 C   0  0  0  0  0  0  0  0  0  0  0  0
   10.9597   -9.0242   13.2435 N   0  0  0  0  0  0  0  0  0  0  0  0
   11.5335   -6.9083   11.2862 N   0  0  0  0  0  0  0  0  0  0  0  0
   12.0570   -6.2887   10.2055 C   0  0  0  0  0  0  0  0  0  0  0  0
   12.8768   -7.1593    9.5313 N   0  0  0  0  0  0  0  0  0  0  0  0
  2  1  1  1  0  0  0
  2  3  1  0  0  0  0
  2  5  1  0  0  0  0
  3  4  1  0  0  0  0
  3 17  1  0  0  0  0
  5  6  1  0  0  0  0
  7  6  1  1  0  0  0
  7  8  1  0  0  0  0
  7  9  1  0  0  0  0
 10  9  1  1  0  0  0
 10 11  1  0  0  0  0
 10 12  1  0  0  0  0
 11 16  1  0  0  0  0
 12 13  1  6  0  0  0
 12 14  1  0  0  0  0
 14 15  1  6  0  0  0
 14 16  1  0  0  0  0
 16 27  1  1  0  0  0
 18 19  2  0  0  0  0
 18 23  1  0  0  0  0
 19 20  1  0  0  0  0
 20 21  2  0  0  0  0
 21 22  1  0  0  0  0
 21 27  1  0  0  0  0
 22 23  2  0  0  0  0
 22 25  1  0  0  0  0
 23 24  1  0  0  0  0
 25 26  2  0  0  0  0
 26 27  1  0  0  0  0
M  END
>  <CHROM.1>
125.21664407,176.07085709,-170.20468301,167.83525374,-68.73858953,126.57190674
-112.65221990,14.72538565,-6.07574875,8.83295115,-0.85332786,-0.06477211
2.55300407

>  <Name>
ligand

>  <RI>
0

>  <Rbt.Current_Directory>
/home/itssahil/PROJECTS/Mol_Feturizer/Test_systems_manuscript/rnas/2ydh

>  <Rbt.Executable>
rbdock ($Id: //depot/dev/client3/rdock/2013.1/src/exe/rbdock.cxx#4 $)

>  <Rbt.Library>
libRbt.so (2013.1, Build901 2013/11/27)

>  <Rbt.Parameter_File>
/export/apps/rDock/src/rDock_2013.1_src/data/scripts/dock_solv.prm

>  <Rbt.Receptor>
prm/pocket_docking_6.prm

>  <SCORE>
-15.0157

>  <SCORE.INTER>
-15.5558

>  <SCORE.INTER.CONST>
1

>  <SCORE.INTER.POLAR>
0

>  <SCORE.INTER.ROT>
7

>  <SCORE.INTER.SOLV>
11.3812

>  <SCORE.INTER.VDW>
-22.4309

>  <SCORE.INTER.norm>
-0.57614

>  <SCORE.INTRA>
0.540087

>  <SCORE.INTRA.DIHEDRAL>
-1.09181

>  <SCORE.INTRA.DIHEDRAL.0>
9.75037

>  <SCORE.INTRA.POLAR>
0

>  <SCORE.INTRA.POLAR.0>
0

>  <SCORE.INTRA.REPUL>
0

>  <SCORE.INTRA.REPUL.0>
0

>  <SCORE.INTRA.SOLV>
-1.36876

>  <SCORE.INTRA.SOLV.lig_0>
-48.4279

>  <SCORE.INTRA.VDW>
1.77037

>  <SCORE.INTRA.VDW.0>
-4.69037

>  <SCORE.INTRA.norm>
0.0200032

>  <SCORE.RESTR>
0

>  <SCORE.RESTR.CAVITY>
0

>  <SCORE.RESTR.norm>
0

>  <SCORE.SYSTEM>
0

>  <SCORE.SYSTEM.CONST>
0

>  <SCORE.SYSTEM.DIHEDRAL>
0

>  <SCORE.SYSTEM.SOLV>
0

>  <SCORE.SYSTEM.norm>
0

>  <SCORE.heavy>
27

>  <SCORE.norm>
-0.556137

>  <RMSD>
6.171

$$$$
ligand
 OpenBabel02271912153D
libRbt.so/2013.1/901 2013/11/27
 27 29  0  0  0  0  0  0  0  0999 V2000
   21.7683   -7.9733    5.8135 N   0  0  0  0  0  0  0  0  0  0  0  0
   20.4833   -8.2163    6.5391 C   0  0  2  0  0  0  0  0  0  0  0  0
   19.3781   -8.6895    5.5690 C   0  0  0  0  0  0  0  0  0  0  0  0
   18.5601   -9.5511    5.9055 O   0  0  0  0  0  0  0  0  0  0  0  0
   20.0809   -6.9540    7.2943 C   0  0  0  0  0  0  0  0  0  0  0  0
   18.9969   -7.1631    8.3386 C   0  0  0  0  0  0  0  0  0  0  0  0
   17.4905   -6.2032    8.0124 S   0  0  2  0  0  0  0  0  0  0  0  0
   16.7383   -7.1947    6.6909 C   0  0  0  0  0  0  0  0  0  0  0  0
   18.0079   -4.7233    7.1281 C   0  0  0  0  0  0  0  0  0  0  0  0
   16.8108   -3.8086    6.9521 C   0  0  1  0  0  0  0  0  0  0  0  0
   15.6147   -4.5235    6.6828 O   0  0  0  0  0  0  0  0  0  0  0  0
   16.5626   -2.9799    8.1888 C   0  0  1  0  0  0  0  0  0  0  0  0
   17.3494   -1.8234    8.1862 O   0  0  0  0  0  0  0  0  0  0  0  0
   15.1046   -2.6677    8.0414 C   0  0  1  0  0  0  0  0  0  0  0  0
   14.9570   -1.4986    7.2580 O   0  0  0  0  0  0  0  0  0  0  0  0
   14.5324   -3.8751    7.3099 C   0  0  2  0  0  0  0  0  0  0  0  0
   19.2650   -8.2346    4.4159 O   0  0  0  0  0  0  0  0  0  0  0  0
   13.6257   -5.4101   12.2778 N   0  0  0  0  0  0  0  0  0  0  0  0
   14.4191   -4.3582   11.8435 C   0  0  0  0  0  0  0  0  0  0  0  0
   14.5682   -4.0895   10.4881 N   0  0  0  0  0  0  0  0  0  0  0  0
   13.9170   -4.8512    9.5903 C   0  0  0  0  0  0  0  0  0  0  0  0
   13.1027   -5.9043   10.0164 C   0  0  0  0  0  0  0  0  0  0  0  0
   12.9621   -6.1963   11.3606 C   0  0  0  0  0  0  0  0  0  0  0  0
   12.1979   -7.2022   11.7589 N   0  0  0  0  0  0  0  0  0  0  0  0
   12.5699   -6.4820    8.9341 N   0  0  0  0  0  0  0  0  0  0  0  0
   13.0189   -5.8264    7.8411 C   0  0  0  0  0  0  0  0  0  0  0  0
   13.8530   -4.8075    8.2291 N   0  0  0  0  0  0  0  0  0  0  0  0
  2  1  1  6  0  0  0
  2  3  1  0  0  0  0
  2  5  1  0  0  0  0
  3  4  1  0  0  0  0
  3 17  1  0  0  0  0
  5  6  1  0  0  0  0
  7  6  1  6  0  0  0
  7  8  1  0  0  0  0
  7  9  1  0  0  0  0
 10  9  1  1  0  0  0
 10 11  1  0  0  0  0
 10 12  1  0  0  0  0
 11 16  1  0  0  0  0
 12 13  1  6  0  0  0
 12 14  1  0  0  0  0
 14 15  1  6  0  0  0
 14 16  1  0  0  0  0
 16 27  1  1  0  0  0
 18 19  2  0  0  0  0
 18 23  1  0  0  0  0
 19 20  1  0  0  0  0
 20 21  2  0  0  0  0
 21 22  1  0  0  0  0
 21 27  1  0  0  0  0
 22 23  2  0  0  0  0
 22 25  1  0  0  0  0
 23 24  1  0  0  0  0
 25 26  2  0  0  0  0
 26 27  1  0  0  0  0
M  END
>  <CHROM.1>
141.92278808,-165.47470885,-118.87032001,76.99954942,-174.19620989,-37.98775621
104.31722962,16.28007513,-5.62532282,8.09141598,0.29371466,-0.63201316,2.95650737

>  <Name>
ligand

>  <RI>
0

>  <Rbt.Current_Directory>
/home/itssahil/PROJECTS/Mol_Feturizer/Test_systems_manuscript/rnas/2ydh

>  <Rbt.Executable>
rbdock ($Id: //depot/dev/client3/rdock/2013.1/src/exe/rbdock.cxx#4 $)

>  <Rbt.Library>
libRbt.so (2013.1, Build901 2013/11/27)

>  <Rbt.Parameter_File>
/export/apps/rDock/src/rDock_2013.1_src/data/scripts/dock_solv.prm

>  <Rbt.Receptor>
prm/pocket_docking_8.prm

>  <SCORE>
-7.59234

>  <SCORE.INTER>
-10.8331

>  <SCORE.INTER.CONST>
1

>  <SCORE.INTER.POLAR>
0

>  <SCORE.INTER.ROT>
7

>  <SCORE.INTER.SOLV>
10.566

>  <SCORE.INTER.VDW>
-19.0107

>  <SCORE.INTER.norm>
-0.401225

>  <SCORE.INTRA>
3.24075

>  <SCORE.INTRA.DIHEDRAL>
3.16807

>  <SCORE.INTRA.DIHEDRAL.0>
9.75037

>  <SCORE.INTRA.POLAR>
0

>  <SCORE.INTRA.POLAR.0>
0

>  <SCORE.INTRA.REPUL>
0

>  <SCORE.INTRA.REPUL.0>
0

>  <SCORE.INTRA.SOLV>
-1.26282

>  <SCORE.INTRA.SOLV.lig_0>
-48.4279

>  <SCORE.INTRA.VDW>
2.28813

>  <SCORE.INTRA.VDW.0>
-4.69037

>  <SCORE.INTRA.norm>
0.120028

>  <SCORE.RESTR>
0

>  <SCORE.RESTR.CAVITY>
0

>  <SCORE.RESTR.norm>
0

>  <SCORE.SYSTEM>
0

>  <SCORE.SYSTEM.CONST>
0

>  <SCORE.SYSTEM.DIHEDRAL>
0

>  <SCORE.SYSTEM.SOLV>
0

>  <SCORE.SYSTEM.norm>
0

>  <SCORE.heavy>
27

>  <SCORE.norm>
-0.281198

>  <RMSD>
6.174

$$$$
ligand
 OpenBabel02271912153D
libRbt.so/2013.1/901 2013/11/27
 27 29  0  0  0  0  0  0  0  0999 V2000
   14.5134   -6.0530   10.9894 N   0  0  0  0  0  0  0  0  0  0  0  0
   13.1838   -5.5723   10.5018 C   0  0  2  0  0  0  0  0  0  0  0  0
   12.0903   -6.6403   10.7256 C   0  0  0  0  0  0  0  0  0  0  0  0
   12.1899   -7.7682   10.2329 O   0  0  0  0  0  0  0  0  0  0  0  0
   13.2974   -5.1670    9.0360 C   0  0  0  0  0  0  0  0  0  0  0  0
   14.1892   -3.9629    8.7825 C   0  0  0  0  0  0  0  0  0  0  0  0
   14.5304   -3.6797    7.0217 S   0  0  2  0  0  0  0  0  0  0  0  0
   12.8646   -3.2905    6.4138 C   0  0  0  0  0  0  0  0  0  0  0  0
   14.8317   -5.2973    6.2920 C   0  0  0  0  0  0  0  0  0  0  0  0
   16.0791   -5.8955    6.9139 C   0  0  1  0  0  0  0  0  0  0  0  0
   16.2057   -7.2844    6.6512 O   0  0  0  0  0  0  0  0  0  0  0  0
   17.3295   -5.2303    6.3923 C   0  0  1  0  0  0  0  0  0  0  0  0
   17.6202   -4.0680    7.1142 O   0  0  0  0  0  0  0  0  0  0  0  0
   18.3480   -6.3046    6.6233 C   0  0  1  0  0  0  0  0  0  0  0  0
   18.8607   -6.1835    7.9366 O   0  0  0  0  0  0  0  0  0  0  0  0
   17.5665   -7.6036    6.4740 C   0  0  2  0  0  0  0  0  0  0  0  0
   11.0682   -6.4155   11.3996 O   0  0  0  0  0  0  0  0  0  0  0  0
   20.9399   -9.2753    2.7748 N   0  0  0  0  0  0  0  0  0  0  0  0
   21.2385   -8.7017    4.0022 C   0  0  0  0  0  0  0  0  0  0  0  0
   20.2273   -8.2983    4.8660 N   0  0  0  0  0  0  0  0  0  0  0  0
   18.9434   -8.4861    4.5101 C   0  0  0  0  0  0  0  0  0  0  0  0
   18.6302   -9.0768    3.2827 C   0  0  0  0  0  0  0  0  0  0  0  0
   19.6257   -9.4634    2.4043 C   0  0  0  0  0  0  0  0  0  0  0  0
   19.3236  -10.0128    1.2375 N   0  0  0  0  0  0  0  0  0  0  0  0
   17.2984   -9.1566    3.1874 N   0  0  0  0  0  0  0  0  0  0  0  0
   16.7626   -8.6387    4.3147 C   0  0  0  0  0  0  0  0  0  0  0  0
   17.7689   -8.2215    5.1499 N   0  0  0  0  0  0  0  0  0  0  0  0
  2  1  1  6  0  0  0
  2  3  1  0  0  0  0
  2  5  1  0  0  0  0
  3  4  1  0  0  0  0
  3 17  1  0  0  0  0
  5  6  1  0  0  0  0
  7  6  1  1  0  0  0
  7  8  1  0  0  0  0
  7  9  1  0  0  0  0
 10  9  1  6  0  0  0
 10 11  1  0  0  0  0
 10 12  1  0  0  0  0
 11 16  1  0  0  0  0
 12 13  1  1  0  0  0
 12 14  1  0  0  0  0
 14 15  1  1  0  0  0
 14 16  1  0  0  0  0
 16 27  1  6  0  0  0
 18 19  2  0  0  0  0
 18 23  1  0  0  0  0
 19 20  1  0  0  0  0
 20 21  2  0  0  0  0
 21 22  1  0  0  0  0
 21 27  1  0  0  0  0
 22 23  2  0  0  0  0
 22 25  1  0  0  0  0
 23 24  1  0  0  0  0
 25 26  2  0  0  0  0
 26 27  1  0  0  0  0
M  END
>  <CHROM.1>
-58.18935925,-65.89436857,170.16812113,64.66219410,-64.00512399,165.28494781
169.03805160,16.32407333,-6.66796747,6.60853240,2.73573703,0.74592439,0.04557461

>  <Name>
ligand

>  <RI>
0

>  <Rbt.Current_Directory>
/home/itssahil/PROJECTS/Mol_Feturizer/Test_systems_manuscript/rnas/2ydh

>  <Rbt.Executable>
rbdock ($Id: //depot/dev/client3/rdock/2013.1/src/exe/rbdock.cxx#4 $)

>  <Rbt.Library>
libRbt.so (2013.1, Build901 2013/11/27)

>  <Rbt.Parameter_File>
/export/apps/rDock/src/rDock_2013.1_src/data/scripts/dock_solv.prm

>  <Rbt.Receptor>
prm/pocket_docking_8.prm

>  <SCORE>
-16.1816

>  <SCORE.INTER>
-16.065

>  <SCORE.INTER.CONST>
1

>  <SCORE.INTER.POLAR>
0

>  <SCORE.INTER.ROT>
7

>  <SCORE.INTER.SOLV>
8.3991

>  <SCORE.INTER.VDW>
-21.7764

>  <SCORE.INTER.norm>
-0.595001

>  <SCORE.INTRA>
-0.116553

>  <SCORE.INTRA.DIHEDRAL>
-5.04803

>  <SCORE.INTRA.DIHEDRAL.0>
9.75037

>  <SCORE.INTRA.POLAR>
0

>  <SCORE.INTRA.POLAR.0>
0

>  <SCORE.INTRA.REPUL>
0

>  <SCORE.INTRA.REPUL.0>
0

>  <SCORE.INTRA.SOLV>
-0.469594

>  <SCORE.INTRA.SOLV.lig_0>
-48.4279

>  <SCORE.INTRA.VDW>
2.64226

>  <SCORE.INTRA.VDW.0>
-4.69037

>  <SCORE.INTRA.norm>
-0.00431679

>  <SCORE.RESTR>
0

>  <SCORE.RESTR.CAVITY>
0

>  <SCORE.RESTR.norm>
0

>  <SCORE.SYSTEM>
0

>  <SCORE.SYSTEM.CONST>
0

>  <SCORE.SYSTEM.DIHEDRAL>
0

>  <SCORE.SYSTEM.SOLV>
0

>  <SCORE.SYSTEM.norm>
0

>  <SCORE.heavy>
27

>  <SCORE.norm>
-0.599318

>  <RMSD>
6.176

$$$$
ligand
 OpenBabel02271912153D
libRbt.so/2013.1/901 2013/11/27
 27 29  0  0  0  0  0  0  0  0999 V2000
   13.4140   -8.0877    5.0822 N   0  0  0  0  0  0  0  0  0  0  0  0
   14.5965   -7.2270    5.3947 C   0  0  2  0  0  0  0  0  0  0  0  0
   15.7025   -8.0387    6.1049 C   0  0  0  0  0  0  0  0  0  0  0  0
   16.8256   -8.1589    5.6059 O   0  0  0  0  0  0  0  0  0  0  0  0
   14.1462   -6.0270    6.2210 C   0  0  0  0  0  0  0  0  0  0  0  0
   15.2597   -5.0593    6.5854 C   0  0  0  0  0  0  0  0  0  0  0  0
   14.7311   -3.7552    7.7330 S   0  0  2  0  0  0  0  0  0  0  0  0
   13.5725   -2.8320    6.6837 C   0  0  0  0  0  0  0  0  0  0  0  0
   16.1108   -2.6079    7.8746 C   0  0  0  0  0  0  0  0  0  0  0  0
   17.0678   -3.1143    8.9368 C   0  0  1  0  0  0  0  0  0  0  0  0
   16.5566   -2.9536   10.2510 O   0  0  0  0  0  0  0  0  0  0  0  0
   17.3682   -4.5821    8.7548 C   0  0  1  0  0  0  0  0  0  0  0  0
   18.4067   -4.7735    7.8374 O   0  0  0  0  0  0  0  0  0  0  0  0
   17.7682   -4.9714   10.1453 C   0  0  1  0  0  0  0  0  0  0  0  0
   19.1529   -4.7338   10.3137 O   0  0  0  0  0  0  0  0  0  0  0  0
   16.9558   -4.0478   11.0438 C   0  0  2  0  0  0  0  0  0  0  0  0
   15.5145   -8.6068    7.1963 O   0  0  0  0  0  0  0  0  0  0  0  0
   12.8025   -7.2047   10.2426 N   0  0  0  0  0  0  0  0  0  0  0  0
   13.7593   -6.8066    9.3203 C   0  0  0  0  0  0  0  0  0  0  0  0
   14.7926   -5.9529    9.6877 N   0  0  0  0  0  0  0  0  0  0  0  0
   14.8718   -5.5249   10.9608 C   0  0  0  0  0  0  0  0  0  0  0  0
   13.9224   -5.9313   11.9027 C   0  0  0  0  0  0  0  0  0  0  0  0
   12.8771   -6.7632   11.5461 C   0  0  0  0  0  0  0  0  0  0  0  0
   11.9736   -7.1368   12.4398 N   0  0  0  0  0  0  0  0  0  0  0  0
   14.2402   -5.3786   13.0785 N   0  0  0  0  0  0  0  0  0  0  0  0
   15.3593   -4.6403   12.9094 C   0  0  0  0  0  0  0  0  0  0  0  0
   15.7689   -4.7229   11.6018 N   0  0  0  0  0  0  0  0  0  0  0  0
  2  1  1  1  0  0  0
  2  3  1  0  0  0  0
  2  5  1  0  0  0  0
  3  4  1  0  0  0  0
  3 17  1  0  0  0  0
  5  6  1  0  0  0  0
  7  6  1  6  0  0  0
  7  8  1  0  0  0  0
  7  9  1  0  0  0  0
 10  9  1  6  0  0  0
 10 11  1  0  0  0  0
 10 12  1  0  0  0  0
 11 16  1  0  0  0  0
 12 13  1  6  0  0  0
 12 14  1  0  0  0  0
 14 15  1  6  0  0  0
 14 16  1  0  0  0  0
 16 27  1  6  0  0  0
 18 19  2  0  0  0  0
 18 23  1  0  0  0  0
 19 20  1  0  0  0  0
 20 21  2  0  0  0  0
 21 22  1  0  0  0  0
 21 27  1  0  0  0  0
 22 23  2  0  0  0  0
 22 25  1  0  0  0  0
 23 24  1  0  0  0  0
 25 26  2  0  0  0  0
 26 27  1  0  0  0  0
M  END
>  <CHROM.1>
119.45411926,-179.05478757,-173.01236898,-66.77193989,-85.34485288,-72.94612331
73.81807773,15.34369457,-5.44676616,8.96078931,1.59284032,-0.71423724,-1.87228807

>  <Name>
ligand

>  <RI>
0

>  <Rbt.Current_Directory>
/home/itssahil/PROJECTS/Mol_Feturizer/Test_systems_manuscript/rnas/2ydh

>  <Rbt.Executable>
rbdock ($Id: //depot/dev/client3/rdock/2013.1/src/exe/rbdock.cxx#4 $)

>  <Rbt.Library>
libRbt.so (2013.1, Build901 2013/11/27)

>  <Rbt.Parameter_File>
/export/apps/rDock/src/rDock_2013.1_src/data/scripts/dock_solv.prm

>  <Rbt.Receptor>
prm/pocket_docking_6.prm

>  <SCORE>
-12.7687

>  <SCORE.INTER>
-10.7111

>  <SCORE.INTER.CONST>
1

>  <SCORE.INTER.POLAR>
0

>  <SCORE.INTER.ROT>
7

>  <SCORE.INTER.SOLV>
13.8016

>  <SCORE.INTER.VDW>
-20.0079

>  <SCORE.INTER.norm>
-0.396707

>  <SCORE.INTRA>
-2.05757

>  <SCORE.INTRA.DIHEDRAL>
-5.06773

>  <SCORE.INTRA.DIHEDRAL.0>
9.75037

>  <SCORE.INTRA.POLAR>
0

>  <SCORE.INTRA.POLAR.0>
0

>  <SCORE.INTRA.REPUL>
0

>  <SCORE.INTRA.REPUL.0>
0

>  <SCORE.INTRA.SOLV>
-1.08254

>  <SCORE.INTRA.SOLV.lig_0>
-48.4279

>  <SCORE.INTRA.VDW>
1.01756

>  <SCORE.INTRA.VDW.0>
-4.69037

>  <SCORE.INTRA.norm>
-0.0762064

>  <SCORE.RESTR>
0

>  <SCORE.RESTR.CAVITY>
0

>  <SCORE.RESTR.norm>
0

>  <SCORE.SYSTEM>
0

>  <SCORE.SYSTEM.CONST>
0

>  <SCORE.SYSTEM.DIHEDRAL>
0

>  <SCORE.SYSTEM.SOLV>
0

>  <SCORE.SYSTEM.norm>
0

>  <SCORE.heavy>
27

>  <SCORE.norm>
-0.472914

>  <RMSD>
6.192

$$$$
ligand
 OpenBabel02271912153D
libRbt.so/2013.1/901 2013/11/27
 27 29  0  0  0  0  0  0  0  0999 V2000
   13.6246   -8.9080    6.3896 N   0  0  0  0  0  0  0  0  0  0  0  0
   14.3283   -7.6761    6.8628 C   0  0  2  0  0  0  0  0  0  0  0  0
   13.8879   -7.2999    8.2950 C   0  0  0  0  0  0  0  0  0  0  0  0
   12.6937   -7.1740    8.5828 O   0  0  0  0  0  0  0  0  0  0  0  0
   14.0866   -6.5418    5.8725 C   0  0  0  0  0  0  0  0  0  0  0  0
   14.8143   -5.2498    6.2044 C   0  0  0  0  0  0  0  0  0  0  0  0
   13.9671   -4.2507    7.4618 S   0  0  2  0  0  0  0  0  0  0  0  0
   12.5674   -3.6120    6.4981 C   0  0  0  0  0  0  0  0  0  0  0  0
   14.9674   -2.7736    7.7015 C   0  0  0  0  0  0  0  0  0  0  0  0
   15.7877   -2.9322    8.9674 C   0  0  1  0  0  0  0  0  0  0  0  0
   14.9895   -2.9025   10.1405 O   0  0  0  0  0  0  0  0  0  0  0  0
   16.5407   -4.2402    8.9771 C   0  0  1  0  0  0  0  0  0  0  0  0
   17.7568   -4.1263    8.2952 O   0  0  0  0  0  0  0  0  0  0  0  0
   16.7386   -4.4506   10.4473 C   0  0  1  0  0  0  0  0  0  0  0  0
   17.9236   -3.7934   10.8549 O   0  0  0  0  0  0  0  0  0  0  0  0
   15.5203   -3.7991   11.0888 C   0  0  2  0  0  0  0  0  0  0  0  0
   14.7055   -7.1033    9.2128 O   0  0  0  0  0  0  0  0  0  0  0  0
   13.8350   -7.3960   14.5646 N   0  0  0  0  0  0  0  0  0  0  0  0
   14.9790   -6.6144   14.6357 C   0  0  0  0  0  0  0  0  0  0  0  0
   15.2930   -5.7156   13.6233 N   0  0  0  0  0  0  0  0  0  0  0  0
   14.4631   -5.5924   12.5714 C   0  0  0  0  0  0  0  0  0  0  0  0
   13.2997   -6.3633   12.4960 C   0  0  0  0  0  0  0  0  0  0  0  0
   12.9858   -7.2768   13.4854 C   0  0  0  0  0  0  0  0  0  0  0  0
   11.8877   -8.0130   13.4040 N   0  0  0  0  0  0  0  0  0  0  0  0
   12.6571   -6.0372   11.3691 N   0  0  0  0  0  0  0  0  0  0  0  0
   13.3752   -5.0848   10.7340 C   0  0  0  0  0  0  0  0  0  0  0  0
   14.4977   -4.7923   11.4681 N   0  0  0  0  0  0  0  0  0  0  0  0
  2  1  1  6  0  0  0
  2  3  1  0  0  0  0
  2  5  1  0  0  0  0
  3  4  1  0  0  0  0
  3 17  1  0  0  0  0
  5  6  1  0  0  0  0
  7  6  1  6  0  0  0
  7  8  1  0  0  0  0
  7  9  1  0  0  0  0
 10  9  1  6  0  0  0
 10 11  1  0  0  0  0
 10 12  1  0  0  0  0
 11 16  1  0  0  0  0
 12 13  1  6  0  0  0
 12 14  1  0  0  0  0
 14 15  1  1  0  0  0
 14 16  1  0  0  0  0
 16 27  1  6  0  0  0
 18 19  2  0  0  0  0
 18 23  1  0  0  0  0
 19 20  1  0  0  0  0
 20 21  2  0  0  0  0
 21 22  1  0  0  0  0
 21 27  1  0  0  0  0
 22 23  2  0  0  0  0
 22 25  1  0  0  0  0
 23 24  1  0  0  0  0
 25 26  2  0  0  0  0
 26 27  1  0  0  0  0
M  END
>  <CHROM.1>
-52.78605443,-176.87707896,-81.01351973,-73.28582997,-101.15361438,-69.18179586
-161.08460202,14.52714332,-5.45303140,9.81210849,1.41818833,-0.88261851,-1.45939596

>  <Name>
ligand

>  <RI>
0

>  <Rbt.Current_Directory>
/home/itssahil/PROJECTS/Mol_Feturizer/Test_systems_manuscript/rnas/2ydh

>  <Rbt.Executable>
rbdock ($Id: //depot/dev/client3/rdock/2013.1/src/exe/rbdock.cxx#4 $)

>  <Rbt.Library>
libRbt.so (2013.1, Build901 2013/11/27)

>  <Rbt.Parameter_File>
/export/apps/rDock/src/rDock_2013.1_src/data/scripts/dock_solv.prm

>  <Rbt.Receptor>
prm/pocket_docking_4.prm

>  <SCORE>
-13.7244

>  <SCORE.INTER>
-11.7412

>  <SCORE.INTER.CONST>
1

>  <SCORE.INTER.POLAR>
0

>  <SCORE.INTER.ROT>
7

>  <SCORE.INTER.SOLV>
13.667

>  <SCORE.INTER.VDW>
-20.6498

>  <SCORE.INTER.norm>
-0.434857

>  <SCORE.INTRA>
-1.98323

>  <SCORE.INTRA.DIHEDRAL>
-2.13065

>  <SCORE.INTRA.DIHEDRAL.0>
9.75037

>  <SCORE.INTRA.POLAR>
0

>  <SCORE.INTRA.POLAR.0>
0

>  <SCORE.INTRA.REPUL>
0

>  <SCORE.INTRA.REPUL.0>
0

>  <SCORE.INTRA.SOLV>
-1.07833

>  <SCORE.INTRA.SOLV.lig_0>
-48.4279

>  <SCORE.INTRA.VDW>
-0.378738

>  <SCORE.INTRA.VDW.0>
-4.69037

>  <SCORE.INTRA.norm>
-0.0734529

>  <SCORE.RESTR>
0

>  <SCORE.RESTR.CAVITY>
0

>  <SCORE.RESTR.norm>
0

>  <SCORE.SYSTEM>
0

>  <SCORE.SYSTEM.CONST>
0

>  <SCORE.SYSTEM.DIHEDRAL>
0

>  <SCORE.SYSTEM.SOLV>
0

>  <SCORE.SYSTEM.norm>
0

>  <SCORE.heavy>
27

>  <SCORE.norm>
-0.50831

>  <RMSD>
6.197

$$$$
ligand
 OpenBabel02271912153D
libRbt.so/2013.1/901 2013/11/27
 27 29  0  0  0  0  0  0  0  0999 V2000
   16.8057   -7.3403    6.4103 N   0  0  0  0  0  0  0  0  0  0  0  0
   15.5629   -7.8264    7.0855 C   0  0  2  0  0  0  0  0  0  0  0  0
   14.6698   -8.6170    6.1037 C   0  0  0  0  0  0  0  0  0  0  0  0
   15.0409   -8.8485    4.9490 O   0  0  0  0  0  0  0  0  0  0  0  0
   14.8262   -6.6434    7.7047 C   0  0  0  0  0  0  0  0  0  0  0  0
   14.3172   -5.6226    6.7007 C   0  0  0  0  0  0  0  0  0  0  0  0
   13.7994   -4.0593    7.4654 S   0  0  2  0  0  0  0  0  0  0  0  0
   12.7534   -3.3711    6.1510 C   0  0  0  0  0  0  0  0  0  0  0  0
   15.2307   -2.9687    7.4207 C   0  0  0  0  0  0  0  0  0  0  0  0
   16.0280   -3.1468    8.6987 C   0  0  1  0  0  0  0  0  0  0  0  0
   15.2156   -3.0818    9.8605 O   0  0  0  0  0  0  0  0  0  0  0  0
   16.7353   -4.4798    8.7269 C   0  0  1  0  0  0  0  0  0  0  0  0
   17.9636   -4.4123    8.0610 O   0  0  0  0  0  0  0  0  0  0  0  0
   16.9061   -4.6868   10.2010 C   0  0  1  0  0  0  0  0  0  0  0  0
   18.1075   -4.0679   10.6206 O   0  0  0  0  0  0  0  0  0  0  0  0
   15.7025   -3.9895   10.8217 C   0  0  2  0  0  0  0  0  0  0  0  0
   13.5467   -9.0472    6.4245 O   0  0  0  0  0  0  0  0  0  0  0  0
   14.3223   -8.9760   11.8651 N   0  0  0  0  0  0  0  0  0  0  0  0
   15.5789   -8.4931   11.5301 C   0  0  0  0  0  0  0  0  0  0  0  0
   15.7779   -7.1427   11.2690 N   0  0  0  0  0  0  0  0  0  0  0  0
   14.7382   -6.2939   11.3620 C   0  0  0  0  0  0  0  0  0  0  0  0
   13.4705   -6.7662   11.7135 C   0  0  0  0  0  0  0  0  0  0  0  0
   13.2536   -8.1102   11.9552 C   0  0  0  0  0  0  0  0  0  0  0  0
   12.0480   -8.5546   12.2773 N   0  0  0  0  0  0  0  0  0  0  0  0
   12.6329   -5.7239   11.7466 N   0  0  0  0  0  0  0  0  0  0  0  0
   13.3310   -4.6108   11.4306 C   0  0  0  0  0  0  0  0  0  0  0  0
   14.6413   -4.9444   11.1932 N   0  0  0  0  0  0  0  0  0  0  0  0
  2  1  1  6  0  0  0
  2  3  1  0  0  0  0
  2  5  1  0  0  0  0
  3  4  1  0  0  0  0
  3 17  1  0  0  0  0
  5  6  1  0  0  0  0
  7  6  1  6  0  0  0
  7  8  1  0  0  0  0
  7  9  1  0  0  0  0
 10  9  1  6  0  0  0
 10 11  1  0  0  0  0
 10 12  1  0  0  0  0
 11 16  1  0  0  0  0
 12 13  1  6  0  0  0
 12 14  1  0  0  0  0
 14 15  1  1  0  0  0
 14 16  1  0  0  0  0
 16 27  1  6  0  0  0
 18 19  2  0  0  0  0
 18 23  1  0  0  0  0
 19 20  1  0  0  0  0
 20 21  2  0  0  0  0
 21 22  1  0  0  0  0
 21 27  1  0  0  0  0
 22 23  2  0  0  0  0
 22 25  1  0  0  0  0
 23 24  1  0  0  0  0
 25 26  2  0  0  0  0
 26 27  1  0  0  0  0
M  END
>  <CHROM.1>
4.13262852,64.00185525,-166.49419324,-160.86932091,-90.70469386,-49.00693570
136.58248079,14.90219806,-5.87377430,9.08448908,0.97791095,-1.20836411,-1.87160677

>  <Name>
ligand

>  <RI>
0

>  <Rbt.Current_Directory>
/home/itssahil/PROJECTS/Mol_Feturizer/Test_systems_manuscript/rnas/2ydh

>  <Rbt.Executable>
rbdock ($Id: //depot/dev/client3/rdock/2013.1/src/exe/rbdock.cxx#4 $)

>  <Rbt.Library>
libRbt.so (2013.1, Build901 2013/11/27)

>  <Rbt.Parameter_File>
/export/apps/rDock/src/rDock_2013.1_src/data/scripts/dock_solv.prm

>  <Rbt.Receptor>
prm/pocket_docking_3.prm

>  <SCORE>
-9.42805

>  <SCORE.INTER>
-9.48665

>  <SCORE.INTER.CONST>
1

>  <SCORE.INTER.POLAR>
0

>  <SCORE.INTER.ROT>
7

>  <SCORE.INTER.SOLV>
6.28882

>  <SCORE.INTER.VDW>
-16.6874

>  <SCORE.INTER.norm>
-0.351358

>  <SCORE.INTRA>
0.0511309

>  <SCORE.INTRA.DIHEDRAL>
-2.34591

>  <SCORE.INTRA.DIHEDRAL.0>
9.75037

>  <SCORE.INTRA.POLAR>
0

>  <SCORE.INTRA.POLAR.0>
0

>  <SCORE.INTRA.REPUL>
0

>  <SCORE.INTRA.REPUL.0>
0

>  <SCORE.INTRA.SOLV>
0.916592

>  <SCORE.INTRA.SOLV.lig_0>
-48.4279

>  <SCORE.INTRA.VDW>
0.76579

>  <SCORE.INTRA.VDW.0>
-4.69037

>  <SCORE.INTRA.norm>
0.00189374

>  <SCORE.RESTR>
0.0074775

>  <SCORE.RESTR.CAVITY>
0.0074775

>  <SCORE.RESTR.norm>
0.000276945

>  <SCORE.SYSTEM>
0

>  <SCORE.SYSTEM.CONST>
0

>  <SCORE.SYSTEM.DIHEDRAL>
0

>  <SCORE.SYSTEM.SOLV>
0

>  <SCORE.SYSTEM.norm>
0

>  <SCORE.heavy>
27

>  <SCORE.norm>
-0.349187

>  <RMSD>
6.209

$$$$
ligand
 OpenBabel02271912153D
libRbt.so/2013.1/901 2013/11/27
 27 29  0  0  0  0  0  0  0  0999 V2000
   14.7472   -8.8190    9.4381 N   0  0  0  0  0  0  0  0  0  0  0  0
   14.2085   -8.0834    8.2527 C   0  0  2  0  0  0  0  0  0  0  0  0
   14.8656   -8.5790    6.9453 C   0  0  0  0  0  0  0  0  0  0  0  0
   16.0915   -8.5561    6.7991 O   0  0  0  0  0  0  0  0  0  0  0  0
   14.3984   -6.5841    8.4569 C   0  0  0  0  0  0  0  0  0  0  0  0
   13.7733   -5.7169    7.3770 C   0  0  0  0  0  0  0  0  0  0  0  0
   13.7630   -3.9491    7.7916 S   0  0  2  0  0  0  0  0  0  0  0  0
   12.8532   -3.2752    6.3726 C   0  0  0  0  0  0  0  0  0  0  0  0
   15.4318   -3.3438    7.4940 C   0  0  0  0  0  0  0  0  0  0  0  0
   16.2067   -3.3694    8.7976 C   0  0  1  0  0  0  0  0  0  0  0  0
   15.3882   -3.0901    9.9229 O   0  0  0  0  0  0  0  0  0  0  0  0
   16.8422   -4.7175    9.0358 C   0  0  1  0  0  0  0  0  0  0  0  0
   18.0784   -4.8129    8.3882 O   0  0  0  0  0  0  0  0  0  0  0  0
   16.9882   -4.7104   10.5269 C   0  0  1  0  0  0  0  0  0  0  0  0
   18.2167   -4.0979   10.8702 O   0  0  0  0  0  0  0  0  0  0  0  0
   15.8175   -3.8678   11.0165 C   0  0  2  0  0  0  0  0  0  0  0  0
   14.1988   -9.0137    5.9884 O   0  0  0  0  0  0  0  0  0  0  0  0
   14.0679   -7.3927   14.5340 N   0  0  0  0  0  0  0  0  0  0  0  0
   15.3306   -6.8235   14.4555 C   0  0  0  0  0  0  0  0  0  0  0  0
   15.6416   -5.9132   13.4524 N   0  0  0  0  0  0  0  0  0  0  0  0
   14.6960   -5.5688   12.5594 C   0  0  0  0  0  0  0  0  0  0  0  0
   13.4157   -6.1240   12.6374 C   0  0  0  0  0  0  0  0  0  0  0  0
   13.0986   -7.0469   13.6171 C   0  0  0  0  0  0  0  0  0  0  0  0
   11.8871   -7.5785   13.6803 N   0  0  0  0  0  0  0  0  0  0  0  0
   12.6770   -5.6059   11.6501 N   0  0  0  0  0  0  0  0  0  0  0  0
   13.4481   -4.7410   10.9548 C   0  0  0  0  0  0  0  0  0  0  0  0
   14.7039   -4.7011   11.5078 N   0  0  0  0  0  0  0  0  0  0  0  0
  2  1  1  1  0  0  0
  2  3  1  0  0  0  0
  2  5  1  0  0  0  0
  3  4  1  0  0  0  0
  3 17  1  0  0  0  0
  5  6  1  0  0  0  0
  7  6  1  6  0  0  0
  7  8  1  0  0  0  0
  7  9  1  0  0  0  0
 10  9  1  6  0  0  0
 10 11  1  0  0  0  0
 10 12  1  0  0  0  0
 11 16  1  0  0  0  0
 12 13  1  6  0  0  0
 12 14  1  0  0  0  0
 14 15  1  6  0  0  0
 14 16  1  0  0  0  0
 16 27  1  6  0  0  0
 18 19  2  0  0  0  0
 18 23  1  0  0  0  0
 19 20  1  0  0  0  0
 20 21  2  0  0  0  0
 21 22  1  0  0  0  0
 21 27  1  0  0  0  0
 22 23  2  0  0  0  0
 22 25  1  0  0  0  0
 23 24  1  0  0  0  0
 25 26  2  0  0  0  0
 26 27  1  0  0  0  0
M  END
>  <CHROM.1>
-56.53527977,-174.56823084,169.97475521,-175.85886232,-95.33264882,-33.91375106
-178.58931689,14.83674728,-5.68187089,9.88638215,1.26894409,-1.11700148,-1.72888523

>  <Name>
ligand

>  <RI>
0

>  <Rbt.Current_Directory>
/home/itssahil/PROJECTS/Mol_Feturizer/Test_systems_manuscript/rnas/2ydh

>  <Rbt.Executable>
rbdock ($Id: //depot/dev/client3/rdock/2013.1/src/exe/rbdock.cxx#4 $)

>  <Rbt.Library>
libRbt.so (2013.1, Build901 2013/11/27)

>  <Rbt.Parameter_File>
/export/apps/rDock/src/rDock_2013.1_src/data/scripts/dock_solv.prm

>  <Rbt.Receptor>
prm/pocket_docking_4.prm

>  <SCORE>
-12.8058

>  <SCORE.INTER>
-11.7778

>  <SCORE.INTER.CONST>
1

>  <SCORE.INTER.POLAR>
0

>  <SCORE.INTER.ROT>
7

>  <SCORE.INTER.SOLV>
10.5808

>  <SCORE.INTER.VDW>
-19.6455

>  <SCORE.INTER.norm>
-0.436216

>  <SCORE.INTRA>
-1.02801

>  <SCORE.INTRA.DIHEDRAL>
-1.81719

>  <SCORE.INTRA.DIHEDRAL.0>
9.75037

>  <SCORE.INTRA.POLAR>
0

>  <SCORE.INTRA.POLAR.0>
0

>  <SCORE.INTRA.REPUL>
0

>  <SCORE.INTRA.REPUL.0>
0

>  <SCORE.INTRA.SOLV>
-1.15907

>  <SCORE.INTRA.SOLV.lig_0>
-48.4279

>  <SCORE.INTRA.VDW>
0.460121

>  <SCORE.INTRA.VDW.0>
-4.69037

>  <SCORE.INTRA.norm>
-0.0380744

>  <SCORE.RESTR>
0

>  <SCORE.RESTR.CAVITY>
0

>  <SCORE.RESTR.norm>
0

>  <SCORE.SYSTEM>
0

>  <SCORE.SYSTEM.CONST>
0

>  <SCORE.SYSTEM.DIHEDRAL>
0

>  <SCORE.SYSTEM.SOLV>
0

>  <SCORE.SYSTEM.norm>
0

>  <SCORE.heavy>
27

>  <SCORE.norm>
-0.47429

>  <RMSD>
6.215

$$$$
ligand
 OpenBabel02271912153D
libRbt.so/2013.1/901 2013/11/27
 27 29  0  0  0  0  0  0  0  0999 V2000
   12.4434   -4.1553    6.5603 N   0  0  0  0  0  0  0  0  0  0  0  0
   12.6999   -5.6287    6.5565 C   0  0  2  0  0  0  0  0  0  0  0  0
   12.7462   -6.1886    7.9956 C   0  0  0  0  0  0  0  0  0  0  0  0
   12.9824   -5.4531    8.9589 O   0  0  0  0  0  0  0  0  0  0  0  0
   13.9847   -5.9179    5.7876 C   0  0  0  0  0  0  0  0  0  0  0  0
   14.2165   -7.3874    5.4777 C   0  0  0  0  0  0  0  0  0  0  0  0
   15.9214   -7.7548    4.9725 S   0  0  2  0  0  0  0  0  0  0  0  0
   15.6492   -9.1746    3.8745 C   0  0  0  0  0  0  0  0  0  0  0  0
   16.7218   -8.5209    6.3911 C   0  0  0  0  0  0  0  0  0  0  0  0
   16.7049   -7.5470    7.5538 C   0  0  1  0  0  0  0  0  0  0  0  0
   15.4106   -7.3918    8.1149 O   0  0  0  0  0  0  0  0  0  0  0  0
   17.6188   -7.9996    8.6664 C   0  0  1  0  0  0  0  0  0  0  0  0
   18.9347   -7.5842    8.4376 O   0  0  0  0  0  0  0  0  0  0  0  0
   17.0074   -7.3052    9.8450 C   0  0  1  0  0  0  0  0  0  0  0  0
   17.5571   -6.0060    9.9549 O   0  0  0  0  0  0  0  0  0  0  0  0
   15.5234   -7.2293    9.5099 C   0  0  2  0  0  0  0  0  0  0  0  0
   12.5555   -7.3925    8.2479 O   0  0  0  0  0  0  0  0  0  0  0  0
   11.1763   -8.5451   12.1987 N   0  0  0  0  0  0  0  0  0  0  0  0
   11.5147   -7.3023   11.6835 C   0  0  0  0  0  0  0  0  0  0  0  0
   12.7132   -7.1133   11.0058 N   0  0  0  0  0  0  0  0  0  0  0  0
   13.5440   -8.1575   10.8336 C   0  0  0  0  0  0  0  0  0  0  0  0
   13.2070   -9.4180   11.3350 C   0  0  0  0  0  0  0  0  0  0  0  0
   12.0279   -9.6156   12.0296 C   0  0  0  0  0  0  0  0  0  0  0  0
   11.7180  -10.8096   12.5123 N   0  0  0  0  0  0  0  0  0  0  0  0
   14.1892  -10.2683   11.0165 N   0  0  0  0  0  0  0  0  0  0  0  0
   15.1318   -9.5864   10.3291 C   0  0  0  0  0  0  0  0  0  0  0  0
   14.7463   -8.2751   10.2015 N   0  0  0  0  0  0  0  0  0  0  0  0
  2  1  1  1  0  0  0
  2  3  1  0  0  0  0
  2  5  1  0  0  0  0
  3  4  1  0  0  0  0
  3 17  1  0  0  0  0
  5  6  1  0  0  0  0
  7  6  1  1  0  0  0
  7  8  1  0  0  0  0
  7  9  1  0  0  0  0
 10  9  1  6  0  0  0
 10 11  1  0  0  0  0
 10 12  1  0  0  0  0
 11 16  1  0  0  0  0
 12 13  1  6  0  0  0
 12 14  1  0  0  0  0
 14 15  1  6  0  0  0
 14 16  1  0  0  0  0
 16 27  1  1  0  0  0
 18 19  2  0  0  0  0
 18 23  1  0  0  0  0
 19 20  1  0  0  0  0
 20 21  2  0  0  0  0
 21 22  1  0  0  0  0
 21 27  1  0  0  0  0
 22 23  2  0  0  0  0
 22 25  1  0  0  0  0
 23 24  1  0  0  0  0
 25 26  2  0  0  0  0
 26 27  1  0  0  0  0
M  END
>  <CHROM.1>
-21.77898378,-168.67691462,-164.58749925,-150.22615875,-60.49603396,72.30166529
-104.70865489,14.51894834,-7.66258885,8.64245803,1.01353318,0.27198531,-1.15074848

>  <Name>
ligand

>  <RI>
0

>  <Rbt.Current_Directory>
/home/itssahil/PROJECTS/Mol_Feturizer/Test_systems_manuscript/rnas/2ydh

>  <Rbt.Executable>
rbdock ($Id: //depot/dev/client3/rdock/2013.1/src/exe/rbdock.cxx#4 $)

>  <Rbt.Library>
libRbt.so (2013.1, Build901 2013/11/27)

>  <Rbt.Parameter_File>
/export/apps/rDock/src/rDock_2013.1_src/data/scripts/dock_solv.prm

>  <Rbt.Receptor>
prm/pocket_docking_4.prm

>  <SCORE>
-9.14937

>  <SCORE.INTER>
-7.70594

>  <SCORE.INTER.CONST>
1

>  <SCORE.INTER.POLAR>
0

>  <SCORE.INTER.ROT>
7

>  <SCORE.INTER.SOLV>
15.9592

>  <SCORE.INTER.VDW>
-18.7237

>  <SCORE.INTER.norm>
-0.285405

>  <SCORE.INTRA>
-1.44343

>  <SCORE.INTRA.DIHEDRAL>
-1.72914

>  <SCORE.INTRA.DIHEDRAL.0>
9.75037

>  <SCORE.INTRA.POLAR>
0

>  <SCORE.INTRA.POLAR.0>
0

>  <SCORE.INTRA.REPUL>
0

>  <SCORE.INTRA.REPUL.0>
0

>  <SCORE.INTRA.SOLV>
-1.11599

>  <SCORE.INTRA.SOLV.lig_0>
-48.4279

>  <SCORE.INTRA.VDW>
-0.0208668

>  <SCORE.INTRA.VDW.0>
-4.69037

>  <SCORE.INTRA.norm>
-0.0534603

>  <SCORE.RESTR>
0

>  <SCORE.RESTR.CAVITY>
0

>  <SCORE.RESTR.norm>
0

>  <SCORE.SYSTEM>
0

>  <SCORE.SYSTEM.CONST>
0

>  <SCORE.SYSTEM.DIHEDRAL>
0

>  <SCORE.SYSTEM.SOLV>
0

>  <SCORE.SYSTEM.norm>
0

>  <SCORE.heavy>
27

>  <SCORE.norm>
-0.338865

>  <RMSD>
6.217

$$$$
ligand
 OpenBabel02271912153D
libRbt.so/2013.1/901 2013/11/27
 27 29  0  0  0  0  0  0  0  0999 V2000
   14.7317   -8.4202    5.2803 N   0  0  0  0  0  0  0  0  0  0  0  0
   15.8954   -7.4812    5.2527 C   0  0  2  0  0  0  0  0  0  0  0  0
   17.2238   -8.2355    5.4832 C   0  0  0  0  0  0  0  0  0  0  0  0
   17.4693   -8.7792    6.5644 O   0  0  0  0  0  0  0  0  0  0  0  0
   15.6790   -6.3749    6.2798 C   0  0  0  0  0  0  0  0  0  0  0  0
   14.4392   -5.5288    6.0427 C   0  0  0  0  0  0  0  0  0  0  0  0
   14.1511   -4.2960    7.3443 S   0  0  2  0  0  0  0  0  0  0  0  0
   12.8455   -3.2947    6.5774 C   0  0  0  0  0  0  0  0  0  0  0  0
   15.5589   -3.1749    7.3082 C   0  0  0  0  0  0  0  0  0  0  0  0
   16.3705   -3.3595    8.5763 C   0  0  1  0  0  0  0  0  0  0  0  0
   15.5864   -3.2142    9.7502 O   0  0  0  0  0  0  0  0  0  0  0  0
   17.0028   -4.7288    8.6327 C   0  0  1  0  0  0  0  0  0  0  0  0
   18.2193   -4.7505    7.9426 O   0  0  0  0  0  0  0  0  0  0  0  0
   17.1913   -4.9011   10.1091 C   0  0  1  0  0  0  0  0  0  0  0  0
   18.4334   -4.3387   10.4872 O   0  0  0  0  0  0  0  0  0  0  0  0
   16.0411   -4.1189   10.7299 C   0  0  2  0  0  0  0  0  0  0  0  0
   18.0999   -8.3248    4.6035 O   0  0  0  0  0  0  0  0  0  0  0  0
   12.7828   -8.0989    9.5458 N   0  0  0  0  0  0  0  0  0  0  0  0
   13.7801   -7.5507    8.7524 C   0  0  0  0  0  0  0  0  0  0  0  0
   14.5496   -6.4866    9.2076 N   0  0  0  0  0  0  0  0  0  0  0  0
   14.3327   -5.9979   10.4422 C   0  0  0  0  0  0  0  0  0  0  0  0
   13.3410   -6.5518   11.2566 C   0  0  0  0  0  0  0  0  0  0  0  0
   12.5537   -7.5966   10.8088 C   0  0  0  0  0  0  0  0  0  0  0  0
   11.6078   -8.1110   11.5802 N   0  0  0  0  0  0  0  0  0  0  0  0
   13.3459   -5.8959   12.4223 N   0  0  0  0  0  0  0  0  0  0  0  0
   14.3092   -4.9496   12.3704 C   0  0  0  0  0  0  0  0  0  0  0  0
   14.9359   -5.0010   11.1501 N   0  0  0  0  0  0  0  0  0  0  0  0
  2  1  1  1  0  0  0
  2  3  1  0  0  0  0
  2  5  1  0  0  0  0
  3  4  1  0  0  0  0
  3 17  1  0  0  0  0
  5  6  1  0  0  0  0
  7  6  1  6  0  0  0
  7  8  1  0  0  0  0
  7  9  1  0  0  0  0
 10  9  1  6  0  0  0
 10 11  1  0  0  0  0
 10 12  1  0  0  0  0
 11 16  1  0  0  0  0
 12 13  1  6  0  0  0
 12 14  1  0  0  0  0
 14 15  1  1  0  0  0
 14 16  1  0  0  0  0
 16 27  1  6  0  0  0
 18 19  2  0  0  0  0
 18 23  1  0  0  0  0
 19 20  1  0  0  0  0
 20 21  2  0  0  0  0
 21 22  1  0  0  0  0
 21 27  1  0  0  0  0
 22 23  2  0  0  0  0
 22 25  1  0  0  0  0
 23 24  1  0  0  0  0
 25 26  2  0  0  0  0
 26 27  1  0  0  0  0
M  END
>  <CHROM.1>
-66.09289254,-60.67421127,176.09355701,169.16172452,-111.96927422,-54.26906560
70.54343636,15.22083983,-5.81213937,8.56102750,0.93591176,-0.73295683,-2.28839220

>  <Name>
ligand

>  <RI>
0

>  <Rbt.Current_Directory>
/home/itssahil/PROJECTS/Mol_Feturizer/Test_systems_manuscript/rnas/2ydh

>  <Rbt.Executable>
rbdock ($Id: //depot/dev/client3/rdock/2013.1/src/exe/rbdock.cxx#4 $)

>  <Rbt.Library>
libRbt.so (2013.1, Build901 2013/11/27)

>  <Rbt.Parameter_File>
/export/apps/rDock/src/rDock_2013.1_src/data/scripts/dock_solv.prm

>  <Rbt.Receptor>
prm/pocket_docking_4.prm

>  <SCORE>
-12.0277

>  <SCORE.INTER>
-10.4044

>  <SCORE.INTER.CONST>
1

>  <SCORE.INTER.POLAR>
0

>  <SCORE.INTER.ROT>
7

>  <SCORE.INTER.SOLV>
10.2418

>  <SCORE.INTER.VDW>
-18.6169

>  <SCORE.INTER.norm>
-0.38535

>  <SCORE.INTRA>
-1.62331

>  <SCORE.INTRA.DIHEDRAL>
-2.75877

>  <SCORE.INTRA.DIHEDRAL.0>
9.75037

>  <SCORE.INTRA.POLAR>
0

>  <SCORE.INTRA.POLAR.0>
0

>  <SCORE.INTRA.REPUL>
0

>  <SCORE.INTRA.REPUL.0>
0

>  <SCORE.INTRA.SOLV>
-0.149215

>  <SCORE.INTRA.SOLV.lig_0>
-48.4279

>  <SCORE.INTRA.VDW>
-0.169317

>  <SCORE.INTRA.VDW.0>
-4.69037

>  <SCORE.INTRA.norm>
-0.0601226

>  <SCORE.RESTR>
0

>  <SCORE.RESTR.CAVITY>
0

>  <SCORE.RESTR.norm>
0

>  <SCORE.SYSTEM>
0

>  <SCORE.SYSTEM.CONST>
0

>  <SCORE.SYSTEM.DIHEDRAL>
0

>  <SCORE.SYSTEM.SOLV>
0

>  <SCORE.SYSTEM.norm>
0

>  <SCORE.heavy>
27

>  <SCORE.norm>
-0.445472

>  <RMSD>
6.219

$$$$
ligand
 OpenBabel02271912153D
libRbt.so/2013.1/901 2013/11/27
 27 29  0  0  0  0  0  0  0  0999 V2000
   18.5072   -7.8202    5.8641 N   0  0  0  0  0  0  0  0  0  0  0  0
   17.7057   -7.1305    6.9218 C   0  0  2  0  0  0  0  0  0  0  0  0
   17.3782   -5.6774    6.5120 C   0  0  0  0  0  0  0  0  0  0  0  0
   18.2712   -4.8346    6.3822 O   0  0  0  0  0  0  0  0  0  0  0  0
   18.4536   -7.1968    8.2491 C   0  0  0  0  0  0  0  0  0  0  0  0
   17.7163   -6.5688    9.4200 C   0  0  0  0  0  0  0  0  0  0  0  0
   17.9225   -4.7673    9.5160 S   0  0  2  0  0  0  0  0  0  0  0  0
   18.9485   -4.6243   11.0067 C   0  0  0  0  0  0  0  0  0  0  0  0
   16.3468   -4.1008   10.0751 C   0  0  0  0  0  0  0  0  0  0  0  0
   15.2862   -4.3984    9.0324 C   0  0  1  0  0  0  0  0  0  0  0  0
   14.9610   -5.7782    8.9653 O   0  0  0  0  0  0  0  0  0  0  0  0
   14.0047   -3.6549    9.3205 C   0  0  1  0  0  0  0  0  0  0  0  0
   14.0461   -2.3584    8.7969 O   0  0  0  0  0  0  0  0  0  0  0  0
   13.0039   -4.5154    8.6114 C   0  0  1  0  0  0  0  0  0  0  0  0
   12.9110   -4.1030    7.2611 O   0  0  0  0  0  0  0  0  0  0  0  0
   13.5846   -5.9208    8.7007 C   0  0  2  0  0  0  0  0  0  0  0  0
   16.2137   -5.2915    6.3015 O   0  0  0  0  0  0  0  0  0  0  0  0
   13.5059  -10.3709   11.5378 N   0  0  0  0  0  0  0  0  0  0  0  0
   14.3934  -10.0189   10.5312 C   0  0  0  0  0  0  0  0  0  0  0  0
   14.2708   -8.8059    9.8642 N   0  0  0  0  0  0  0  0  0  0  0  0
   13.2879   -7.9572   10.2162 C   0  0  0  0  0  0  0  0  0  0  0  0
   12.3970   -8.2941   11.2391 C   0  0  0  0  0  0  0  0  0  0  0  0
   12.4940   -9.5066   11.8967 C   0  0  0  0  0  0  0  0  0  0  0  0
   11.6406   -9.8260   12.8580 N   0  0  0  0  0  0  0  0  0  0  0  0
   11.5388   -7.2799   11.3939 N   0  0  0  0  0  0  0  0  0  0  0  0
   11.8612   -6.3145   10.5049 C   0  0  0  0  0  0  0  0  0  0  0  0
   12.9478   -6.7153    9.7681 N   0  0  0  0  0  0  0  0  0  0  0  0
  2  1  1  6  0  0  0
  2  3  1  0  0  0  0
  2  5  1  0  0  0  0
  3  4  1  0  0  0  0
  3 17  1  0  0  0  0
  5  6  1  0  0  0  0
  7  6  1  1  0  0  0
  7  8  1  0  0  0  0
  7  9  1  0  0  0  0
 10  9  1  1  0  0  0
 10 11  1  0  0  0  0
 10 12  1  0  0  0  0
 11 16  1  0  0  0  0
 12 13  1  6  0  0  0
 12 14  1  0  0  0  0
 14 15  1  6  0  0  0
 14 16  1  0  0  0  0
 16 27  1  1  0  0  0
 18 19  2  0  0  0  0
 18 23  1  0  0  0  0
 19 20  1  0  0  0  0
 20 21  2  0  0  0  0
 21 22  1  0  0  0  0
 21 27  1  0  0  0  0
 22 23  2  0  0  0  0
 22 25  1  0  0  0  0
 23 24  1  0  0  0  0
 25 26  2  0  0  0  0
 26 27  1  0  0  0  0
M  END
>  <CHROM.1>
-65.36556232,-178.00297137,-82.74710076,-110.60370096,-63.59204814,69.96270441
-54.84418896,15.14825959,-6.27579111,9.24074287,-0.67742045,-0.36721192,2.76912628

>  <Name>
ligand

>  <RI>
0

>  <Rbt.Current_Directory>
/home/itssahil/PROJECTS/Mol_Feturizer/Test_systems_manuscript/rnas/2ydh

>  <Rbt.Executable>
rbdock ($Id: //depot/dev/client3/rdock/2013.1/src/exe/rbdock.cxx#4 $)

>  <Rbt.Library>
libRbt.so (2013.1, Build901 2013/11/27)

>  <Rbt.Parameter_File>
/export/apps/rDock/src/rDock_2013.1_src/data/scripts/dock_solv.prm

>  <Rbt.Receptor>
prm/pocket_docking_8.prm

>  <SCORE>
-8.72192

>  <SCORE.INTER>
-8.4063

>  <SCORE.INTER.CONST>
1

>  <SCORE.INTER.POLAR>
0

>  <SCORE.INTER.ROT>
7

>  <SCORE.INTER.SOLV>
11.2542

>  <SCORE.INTER.VDW>
-17.6223

>  <SCORE.INTER.norm>
-0.311345

>  <SCORE.INTRA>
-0.315617

>  <SCORE.INTRA.DIHEDRAL>
-0.871647

>  <SCORE.INTRA.DIHEDRAL.0>
9.75037

>  <SCORE.INTRA.POLAR>
0

>  <SCORE.INTRA.POLAR.0>
0

>  <SCORE.INTRA.REPUL>
0

>  <SCORE.INTRA.REPUL.0>
0

>  <SCORE.INTRA.SOLV>
-1.09583

>  <SCORE.INTRA.SOLV.lig_0>
-48.4279

>  <SCORE.INTRA.VDW>
0.66812

>  <SCORE.INTRA.VDW.0>
-4.69037

>  <SCORE.INTRA.norm>
-0.0116895

>  <SCORE.RESTR>
0

>  <SCORE.RESTR.CAVITY>
0

>  <SCORE.RESTR.norm>
0

>  <SCORE.SYSTEM>
0

>  <SCORE.SYSTEM.CONST>
0

>  <SCORE.SYSTEM.DIHEDRAL>
0

>  <SCORE.SYSTEM.SOLV>
0

>  <SCORE.SYSTEM.norm>
0

>  <SCORE.heavy>
27

>  <SCORE.norm>
-0.323034

>  <RMSD>
6.234

$$$$
ligand
 OpenBabel02271912153D
libRbt.so/2013.1/901 2013/11/27
 27 29  0  0  0  0  0  0  0  0999 V2000
   15.7203   -8.2909    4.1037 N   0  0  0  0  0  0  0  0  0  0  0  0
   15.2858   -7.7151    5.4137 C   0  0  2  0  0  0  0  0  0  0  0  0
   15.8512   -8.5338    6.5956 C   0  0  0  0  0  0  0  0  0  0  0  0
   15.1090   -8.9777    7.4769 O   0  0  0  0  0  0  0  0  0  0  0  0
   13.7635   -7.6314    5.4510 C   0  0  0  0  0  0  0  0  0  0  0  0
   13.2042   -6.2330    5.2493 C   0  0  0  0  0  0  0  0  0  0  0  0
   13.4359   -5.1519    6.6896 S   0  0  2  0  0  0  0  0  0  0  0  0
   12.8059   -3.5797    6.0360 C   0  0  0  0  0  0  0  0  0  0  0  0
   15.2030   -4.8313    6.8101 C   0  0  0  0  0  0  0  0  0  0  0  0
   15.4250   -3.6042    7.6736 C   0  0  1  0  0  0  0  0  0  0  0  0
   14.6390   -3.6207    8.8551 O   0  0  0  0  0  0  0  0  0  0  0  0
   16.8671   -3.4845    8.1025 C   0  0  1  0  0  0  0  0  0  0  0  0
   17.6315   -2.8399    7.1245 O   0  0  0  0  0  0  0  0  0  0  0  0
   16.7328   -2.6585    9.3454 C   0  0  1  0  0  0  0  0  0  0  0  0
   16.7485   -1.2875    8.9956 O   0  0  0  0  0  0  0  0  0  0  0  0
   15.3738   -3.0484    9.9123 C   0  0  2  0  0  0  0  0  0  0  0  0
   17.0661   -8.7764    6.7163 O   0  0  0  0  0  0  0  0  0  0  0  0
   13.0422   -6.6285   13.0115 N   0  0  0  0  0  0  0  0  0  0  0  0
   12.4722   -5.8939   11.9819 C   0  0  0  0  0  0  0  0  0  0  0  0
   13.2233   -4.9719   11.2627 N   0  0  0  0  0  0  0  0  0  0  0  0
   14.5249   -4.8071   11.5609 C   0  0  0  0  0  0  0  0  0  0  0  0
   15.1142   -5.5525   12.5860 C   0  0  0  0  0  0  0  0  0  0  0  0
   14.3738   -6.4577   13.3237 C   0  0  0  0  0  0  0  0  0  0  0  0
   14.9342   -7.1538   14.3015 N   0  0  0  0  0  0  0  0  0  0  0  0
   16.4042   -5.2073   12.6623 N   0  0  0  0  0  0  0  0  0  0  0  0
   16.6477   -4.2719   11.7179 C   0  0  0  0  0  0  0  0  0  0  0  0
   15.4936   -4.0141   11.0209 N   0  0  0  0  0  0  0  0  0  0  0  0
  2  1  1  6  0  0  0
  2  3  1  0  0  0  0
  2  5  1  0  0  0  0
  3  4  1  0  0  0  0
  3 17  1  0  0  0  0
  5  6  1  0  0  0  0
  7  6  1  6  0  0  0
  7  8  1  0  0  0  0
  7  9  1  0  0  0  0
 10  9  1  1  0  0  0
 10 11  1  0  0  0  0
 10 12  1  0  0  0  0
 11 16  1  0  0  0  0
 12 13  1  6  0  0  0
 12 14  1  0  0  0  0
 14 15  1  6  0  0  0
 14 16  1  0  0  0  0
 16 27  1  1  0  0  0
 18 19  2  0  0  0  0
 18 23  1  0  0  0  0
 19 20  1  0  0  0  0
 20 21  2  0  0  0  0
 21 22  1  0  0  0  0
 21 27  1  0  0  0  0
 22 23  2  0  0  0  0
 22 25  1  0  0  0  0
 23 24  1  0  0  0  0
 25 26  2  0  0  0  0
 26 27  1  0  0  0  0
M  END
>  <CHROM.1>
-126.53528100,-103.96052863,-73.35738846,175.00368954,161.44256661,45.21895673
-45.04439647,15.02179791,-5.35602363,8.83141699,1.56446651,-1.29358583,-1.82154851

>  <Name>
ligand

>  <RI>
0

>  <Rbt.Current_Directory>
/home/itssahil/PROJECTS/Mol_Feturizer/Test_systems_manuscript/rnas/2ydh

>  <Rbt.Executable>
rbdock ($Id: //depot/dev/client3/rdock/2013.1/src/exe/rbdock.cxx#4 $)

>  <Rbt.Library>
libRbt.so (2013.1, Build901 2013/11/27)

>  <Rbt.Parameter_File>
/export/apps/rDock/src/rDock_2013.1_src/data/scripts/dock_solv.prm

>  <Rbt.Receptor>
prm/pocket_docking_3.prm

>  <SCORE>
-13.1393

>  <SCORE.INTER>
-15.772

>  <SCORE.INTER.CONST>
1

>  <SCORE.INTER.POLAR>
0

>  <SCORE.INTER.ROT>
7

>  <SCORE.INTER.SOLV>
15.6359

>  <SCORE.INTER.VDW>
-23.9933

>  <SCORE.INTER.norm>
-0.584149

>  <SCORE.INTRA>
2.61168

>  <SCORE.INTRA.DIHEDRAL>
-0.107665

>  <SCORE.INTRA.DIHEDRAL.0>
9.75037

>  <SCORE.INTRA.POLAR>
0

>  <SCORE.INTRA.POLAR.0>
0

>  <SCORE.INTRA.REPUL>
0

>  <SCORE.INTRA.REPUL.0>
0

>  <SCORE.INTRA.SOLV>
-0.85579

>  <SCORE.INTRA.SOLV.lig_0>
-48.4279

>  <SCORE.INTRA.VDW>
3.09341

>  <SCORE.INTRA.VDW.0>
-4.69037

>  <SCORE.INTRA.norm>
0.0967289

>  <SCORE.RESTR>
0.0210598

>  <SCORE.RESTR.CAVITY>
0.0210598

>  <SCORE.RESTR.norm>
0.000779991

>  <SCORE.SYSTEM>
0

>  <SCORE.SYSTEM.CONST>
0

>  <SCORE.SYSTEM.DIHEDRAL>
0

>  <SCORE.SYSTEM.SOLV>
0

>  <SCORE.SYSTEM.norm>
0

>  <SCORE.heavy>
27

>  <SCORE.norm>
-0.48664

>  <RMSD>
6.262

$$$$
ligand
 OpenBabel02271912153D
libRbt.so/2013.1/901 2013/11/27
 27 29  0  0  0  0  0  0  0  0999 V2000
   21.7935   -7.8500    8.1807 N   0  0  0  0  0  0  0  0  0  0  0  0
   21.4490   -6.6342    8.9805 C   0  0  2  0  0  0  0  0  0  0  0  0
   22.0253   -6.7281   10.4108 C   0  0  0  0  0  0  0  0  0  0  0  0
   21.6821   -7.6322   11.1787 O   0  0  0  0  0  0  0  0  0  0  0  0
   19.9363   -6.4410    8.9838 C   0  0  0  0  0  0  0  0  0  0  0  0
   19.3248   -6.2315    7.6085 C   0  0  0  0  0  0  0  0  0  0  0  0
   17.5246   -5.9987    7.6506 S   0  0  2  0  0  0  0  0  0  0  0  0
   17.1944   -5.6070    5.9090 C   0  0  0  0  0  0  0  0  0  0  0  0
   17.2317   -4.4164    8.4571 C   0  0  0  0  0  0  0  0  0  0  0  0
   15.7905   -4.0035    8.2268 C   0  0  1  0  0  0  0  0  0  0  0  0
   14.8874   -5.0921    8.3422 O   0  0  0  0  0  0  0  0  0  0  0  0
   15.3508   -2.9560    9.2204 C   0  0  1  0  0  0  0  0  0  0  0  0
   15.7064   -1.6733    8.7904 O   0  0  0  0  0  0  0  0  0  0  0  0
   13.8661   -3.1579    9.2176 C   0  0  1  0  0  0  0  0  0  0  0  0
   13.2939   -2.3812    8.1824 O   0  0  0  0  0  0  0  0  0  0  0  0
   13.6882   -4.6432    8.9300 C   0  0  2  0  0  0  0  0  0  0  0  0
   22.8476   -5.9047   10.8525 O   0  0  0  0  0  0  0  0  0  0  0  0
   15.0095   -5.7664   13.9151 N   0  0  0  0  0  0  0  0  0  0  0  0
   15.6238   -4.8693   13.0533 C   0  0  0  0  0  0  0  0  0  0  0  0
   15.1602   -4.6963   11.7546 N   0  0  0  0  0  0  0  0  0  0  0  0
   14.0895   -5.3970   11.3388 C   0  0  0  0  0  0  0  0  0  0  0  0
   13.4529   -6.2925   12.2027 C   0  0  0  0  0  0  0  0  0  0  0  0
   13.9162   -6.4904   13.4904 C   0  0  0  0  0  0  0  0  0  0  0  0
   13.3162   -7.3484   14.3019 N   0  0  0  0  0  0  0  0  0  0  0  0
   12.4216   -6.8388   11.5492 N   0  0  0  0  0  0  0  0  0  0  0  0
   12.3856   -6.3153   10.3039 C   0  0  0  0  0  0  0  0  0  0  0  0
   13.4108   -5.4144   10.1565 N   0  0  0  0  0  0  0  0  0  0  0  0
  2  1  1  6  0  0  0
  2  3  1  0  0  0  0
  2  5  1  0  0  0  0
  3  4  1  0  0  0  0
  3 17  1  0  0  0  0
  5  6  1  0  0  0  0
  7  6  1  6  0  0  0
  7  8  1  0  0  0  0
  7  9  1  0  0  0  0
 10  9  1  1  0  0  0
 10 11  1  0  0  0  0
 10 12  1  0  0  0  0
 11 16  1  0  0  0  0
 12 13  1  6  0  0  0
 12 14  1  0  0  0  0
 14 15  1  6  0  0  0
 14 16  1  0  0  0  0
 16 27  1  1  0  0  0
 18 19  2  0  0  0  0
 18 23  1  0  0  0  0
 19 20  1  0  0  0  0
 20 21  2  0  0  0  0
 21 22  1  0  0  0  0
 21 27  1  0  0  0  0
 22 23  2  0  0  0  0
 22 25  1  0  0  0  0
 23 24  1  0  0  0  0
 25 26  2  0  0  0  0
 26 27  1  0  0  0  0
M  END
>  <CHROM.1>
-61.22896273,-60.91255143,-179.77787471,174.12711979,166.35118730,40.96245197
68.59641781,16.51213194,-5.43670616,9.86792922,-0.12565265,-0.28300874,2.02010311

>  <Name>
ligand

>  <RI>
0

>  <Rbt.Current_Directory>
/home/itssahil/PROJECTS/Mol_Feturizer/Test_systems_manuscript/rnas/2ydh

>  <Rbt.Executable>
rbdock ($Id: //depot/dev/client3/rdock/2013.1/src/exe/rbdock.cxx#4 $)

>  <Rbt.Library>
libRbt.so (2013.1, Build901 2013/11/27)

>  <Rbt.Parameter_File>
/export/apps/rDock/src/rDock_2013.1_src/data/scripts/dock_solv.prm

>  <Rbt.Receptor>
prm/pocket_docking_8.prm

>  <SCORE>
-13.5637

>  <SCORE.INTER>
-12.6484

>  <SCORE.INTER.CONST>
1

>  <SCORE.INTER.POLAR>
0

>  <SCORE.INTER.ROT>
7

>  <SCORE.INTER.SOLV>
11.6106

>  <SCORE.INTER.VDW>
-20.5691

>  <SCORE.INTER.norm>
-0.468458

>  <SCORE.INTRA>
-0.915301

>  <SCORE.INTRA.DIHEDRAL>
-5.40933

>  <SCORE.INTRA.DIHEDRAL.0>
9.75037

>  <SCORE.INTRA.POLAR>
0

>  <SCORE.INTRA.POLAR.0>
0

>  <SCORE.INTRA.REPUL>
0

>  <SCORE.INTRA.REPUL.0>
0

>  <SCORE.INTRA.SOLV>
-0.76123

>  <SCORE.INTRA.SOLV.lig_0>
-48.4279

>  <SCORE.INTRA.VDW>
2.16998

>  <SCORE.INTRA.VDW.0>
-4.69037

>  <SCORE.INTRA.norm>
-0.0339

>  <SCORE.RESTR>
0

>  <SCORE.RESTR.CAVITY>
0

>  <SCORE.RESTR.norm>
0

>  <SCORE.SYSTEM>
0

>  <SCORE.SYSTEM.CONST>
0

>  <SCORE.SYSTEM.DIHEDRAL>
0

>  <SCORE.SYSTEM.SOLV>
0

>  <SCORE.SYSTEM.norm>
0

>  <SCORE.heavy>
27

>  <SCORE.norm>
-0.502358

>  <RMSD>
6.262

$$$$
ligand
 OpenBabel02271912153D
libRbt.so/2013.1/901 2013/11/27
 27 29  0  0  0  0  0  0  0  0999 V2000
   14.4392   -9.2214    5.9137 N   0  0  0  0  0  0  0  0  0  0  0  0
   13.7280   -7.9729    5.4989 C   0  0  2  0  0  0  0  0  0  0  0  0
   13.9097   -7.7055    3.9882 C   0  0  0  0  0  0  0  0  0  0  0  0
   13.2167   -6.8693    3.4006 O   0  0  0  0  0  0  0  0  0  0  0  0
   14.2150   -6.8051    6.3502 C   0  0  0  0  0  0  0  0  0  0  0  0
   13.3405   -5.5645    6.2775 C   0  0  0  0  0  0  0  0  0  0  0  0
   13.7693   -4.3096    7.5179 S   0  0  2  0  0  0  0  0  0  0  0  0
   12.3646   -3.1725    7.3467 C   0  0  0  0  0  0  0  0  0  0  0  0
   15.1230   -3.3467    6.8250 C   0  0  0  0  0  0  0  0  0  0  0  0
   16.4193   -3.7651    7.4921 C   0  0  1  0  0  0  0  0  0  0  0  0
   16.3452   -3.7098    8.9083 O   0  0  0  0  0  0  0  0  0  0  0  0
   16.7989   -5.1785    7.1233 C   0  0  1  0  0  0  0  0  0  0  0  0
   17.5003   -5.2122    5.9135 O   0  0  0  0  0  0  0  0  0  0  0  0
   17.6647   -5.5594    8.2853 C   0  0  1  0  0  0  0  0  0  0  0  0
   18.9963   -5.1592    8.0229 O   0  0  0  0  0  0  0  0  0  0  0  0
   17.0923   -4.7711    9.4563 C   0  0  2  0  0  0  0  0  0  0  0  0
   14.7483   -8.3161    3.3003 O   0  0  0  0  0  0  0  0  0  0  0  0
   14.7587   -9.4313   10.2901 N   0  0  0  0  0  0  0  0  0  0  0  0
   15.5789   -9.0674    9.2320 C   0  0  0  0  0  0  0  0  0  0  0  0
   16.1090   -7.7854    9.1485 N   0  0  0  0  0  0  0  0  0  0  0  0
   15.8350   -6.8951   10.1192 C   0  0  0  0  0  0  0  0  0  0  0  0
   15.0223   -7.2546   11.1981 C   0  0  0  0  0  0  0  0  0  0  0  0
   14.4708   -8.5198   11.2831 C   0  0  0  0  0  0  0  0  0  0  0  0
   13.6923   -8.8523   12.3019 N   0  0  0  0  0  0  0  0  0  0  0  0
   14.9246   -6.1998   12.0147 N   0  0  0  0  0  0  0  0  0  0  0  0
   15.6508   -5.1892   11.4880 C   0  0  0  0  0  0  0  0  0  0  0  0
   16.2274   -5.6039   10.3133 N   0  0  0  0  0  0  0  0  0  0  0  0
  2  1  1  1  0  0  0
  2  3  1  0  0  0  0
  2  5  1  0  0  0  0
  3  4  1  0  0  0  0
  3 17  1  0  0  0  0
  5  6  1  0  0  0  0
  7  6  1  6  0  0  0
  7  8  1  0  0  0  0
  7  9  1  0  0  0  0
 10  9  1  6  0  0  0
 10 11  1  0  0  0  0
 10 12  1  0  0  0  0
 11 16  1  0  0  0  0
 12 13  1  6  0  0  0
 12 14  1  0  0  0  0
 14 15  1  6  0  0  0
 14 16  1  0  0  0  0
 16 27  1  6  0  0  0
 18 19  2  0  0  0  0
 18 23  1  0  0  0  0
 19 20  1  0  0  0  0
 20 21  2  0  0  0  0
 21 22  1  0  0  0  0
 21 27  1  0  0  0  0
 22 23  2  0  0  0  0
 22 25  1  0  0  0  0
 23 24  1  0  0  0  0
 25 26  2  0  0  0  0
 26 27  1  0  0  0  0
M  END
>  <CHROM.1>
166.97053826,-165.43160387,169.56415039,-169.64373722,-103.97763925,-52.82958182
113.51721904,15.19535668,-6.21197996,7.98819006,2.06018699,-1.11945087,-1.08147568

>  <Name>
ligand

>  <RI>
0

>  <Rbt.Current_Directory>
/home/itssahil/PROJECTS/Mol_Feturizer/Test_systems_manuscript/rnas/2ydh

>  <Rbt.Executable>
rbdock ($Id: //depot/dev/client3/rdock/2013.1/src/exe/rbdock.cxx#4 $)

>  <Rbt.Library>
libRbt.so (2013.1, Build901 2013/11/27)

>  <Rbt.Parameter_File>
/export/apps/rDock/src/rDock_2013.1_src/data/scripts/dock_solv.prm

>  <Rbt.Receptor>
prm/pocket_docking_3.prm

>  <SCORE>
-10.9476

>  <SCORE.INTER>
-10.3995

>  <SCORE.INTER.CONST>
1

>  <SCORE.INTER.POLAR>
0

>  <SCORE.INTER.ROT>
7

>  <SCORE.INTER.SOLV>
11.5515

>  <SCORE.INTER.VDW>
-19.0502

>  <SCORE.INTER.norm>
-0.385166

>  <SCORE.INTRA>
-0.548108

>  <SCORE.INTRA.DIHEDRAL>
-1.54435

>  <SCORE.INTRA.DIHEDRAL.0>
9.75037

>  <SCORE.INTRA.POLAR>
0

>  <SCORE.INTRA.POLAR.0>
0

>  <SCORE.INTRA.REPUL>
0

>  <SCORE.INTRA.REPUL.0>
0

>  <SCORE.INTRA.SOLV>
-0.739077

>  <SCORE.INTRA.SOLV.lig_0>
-48.4279

>  <SCORE.INTRA.VDW>
0.593607

>  <SCORE.INTRA.VDW.0>
-4.69037

>  <SCORE.INTRA.norm>
-0.0203003

>  <SCORE.RESTR>
0

>  <SCORE.RESTR.CAVITY>
0

>  <SCORE.RESTR.norm>
0

>  <SCORE.SYSTEM>
0

>  <SCORE.SYSTEM.CONST>
0

>  <SCORE.SYSTEM.DIHEDRAL>
0

>  <SCORE.SYSTEM.SOLV>
0

>  <SCORE.SYSTEM.norm>
0

>  <SCORE.heavy>
27

>  <SCORE.norm>
-0.405466

>  <RMSD>
6.270

$$$$
ligand
 OpenBabel02271912153D
libRbt.so/2013.1/901 2013/11/27
 27 29  0  0  0  0  0  0  0  0999 V2000
   15.3410   -6.9966    8.9856 N   0  0  0  0  0  0  0  0  0  0  0  0
   14.1054   -6.9279    9.8255 C   0  0  2  0  0  0  0  0  0  0  0  0
   13.0457   -7.9414    9.3393 C   0  0  0  0  0  0  0  0  0  0  0  0
   12.2083   -8.4106   10.1159 O   0  0  0  0  0  0  0  0  0  0  0  0
   13.5728   -5.4989    9.8282 C   0  0  0  0  0  0  0  0  0  0  0  0
   12.9533   -5.0548    8.5136 C   0  0  0  0  0  0  0  0  0  0  0  0
   14.1821   -4.6841    7.2293 S   0  0  2  0  0  0  0  0  0  0  0  0
   13.5794   -3.0763    6.6400 C   0  0  0  0  0  0  0  0  0  0  0  0
   13.8086   -5.7621    5.8370 C   0  0  0  0  0  0  0  0  0  0  0  0
   14.6473   -7.0211    5.9478 C   0  0  1  0  0  0  0  0  0  0  0  0
   14.1983   -8.0520    5.0818 O   0  0  0  0  0  0  0  0  0  0  0  0
   16.0927   -6.7535    5.6058 C   0  0  1  0  0  0  0  0  0  0  0  0
   16.7944   -6.2804    6.7196 O   0  0  0  0  0  0  0  0  0  0  0  0
   16.5507   -8.1186    5.1916 C   0  0  1  0  0  0  0  0  0  0  0  0
   16.9790   -8.8318    6.3362 O   0  0  0  0  0  0  0  0  0  0  0  0
   15.3093   -8.7674    4.5930 C   0  0  2  0  0  0  0  0  0  0  0  0
   12.9904   -8.3317    8.1586 O   0  0  0  0  0  0  0  0  0  0  0  0
   18.0918   -9.1241    0.1221 N   0  0  0  0  0  0  0  0  0  0  0  0
   18.5540   -9.2477    1.4243 C   0  0  0  0  0  0  0  0  0  0  0  0
   17.6895   -9.1123    2.5039 N   0  0  0  0  0  0  0  0  0  0  0  0
   16.3843   -8.8770    2.2769 C   0  0  0  0  0  0  0  0  0  0  0  0
   15.9041   -8.7656    0.9691 C   0  0  0  0  0  0  0  0  0  0  0  0
   16.7565   -8.8768   -0.1140 C   0  0  0  0  0  0  0  0  0  0  0  0
   16.2985   -8.7596   -1.3513 N   0  0  0  0  0  0  0  0  0  0  0  0
   14.5856   -8.5481    1.0273 N   0  0  0  0  0  0  0  0  0  0  0  0
   14.2190   -8.5218    2.3277 C   0  0  0  0  0  0  0  0  0  0  0  0
   15.3219   -8.7289    3.1184 N   0  0  0  0  0  0  0  0  0  0  0  0
  2  1  1  6  0  0  0
  2  3  1  0  0  0  0
  2  5  1  0  0  0  0
  3  4  1  0  0  0  0
  3 17  1  0  0  0  0
  5  6  1  0  0  0  0
  7  6  1  1  0  0  0
  7  8  1  0  0  0  0
  7  9  1  0  0  0  0
 10  9  1  6  0  0  0
 10 11  1  0  0  0  0
 10 12  1  0  0  0  0
 11 16  1  0  0  0  0
 12 13  1  1  0  0  0
 12 14  1  0  0  0  0
 14 15  1  1  0  0  0
 14 16  1  0  0  0  0
 16 27  1  6  0  0  0
 18 19  2  0  0  0  0
 18 23  1  0  0  0  0
 19 20  1  0  0  0  0
 20 21  2  0  0  0  0
 21 22  1  0  0  0  0
 21 27  1  0  0  0  0
 22 23  2  0  0  0  0
 22 25  1  0  0  0  0
 23 24  1  0  0  0  0
 25 26  2  0  0  0  0
 26 27  1  0  0  0  0
M  END
>  <CHROM.1>
152.74551061,71.41653775,-75.42075241,-131.79861940,-93.81896715,166.12437426
155.82131447,15.10495878,-7.42516744,5.26594746,-2.62713822,1.16146829,-0.88410817

>  <Name>
ligand

>  <RI>
0

>  <Rbt.Current_Directory>
/home/itssahil/PROJECTS/Mol_Feturizer/Test_systems_manuscript/rnas/2ydh

>  <Rbt.Executable>
rbdock ($Id: //depot/dev/client3/rdock/2013.1/src/exe/rbdock.cxx#4 $)

>  <Rbt.Library>
libRbt.so (2013.1, Build901 2013/11/27)

>  <Rbt.Parameter_File>
/export/apps/rDock/src/rDock_2013.1_src/data/scripts/dock_solv.prm

>  <Rbt.Receptor>
prm/pocket_docking_8.prm

>  <SCORE>
-13.3734

>  <SCORE.INTER>
-16.9368

>  <SCORE.INTER.CONST>
1

>  <SCORE.INTER.POLAR>
0

>  <SCORE.INTER.ROT>
7

>  <SCORE.INTER.SOLV>
6.75885

>  <SCORE.INTER.VDW>
-21.8108

>  <SCORE.INTER.norm>
-0.62729

>  <SCORE.INTRA>
3.56341

>  <SCORE.INTRA.DIHEDRAL>
1.51215

>  <SCORE.INTRA.DIHEDRAL.0>
9.75037

>  <SCORE.INTRA.POLAR>
0

>  <SCORE.INTRA.POLAR.0>
0

>  <SCORE.INTRA.REPUL>
0

>  <SCORE.INTRA.REPUL.0>
0

>  <SCORE.INTRA.SOLV>
4.57261

>  <SCORE.INTRA.SOLV.lig_0>
-48.4279

>  <SCORE.INTRA.VDW>
0.521033

>  <SCORE.INTRA.VDW.0>
-4.69037

>  <SCORE.INTRA.norm>
0.131978

>  <SCORE.RESTR>
0

>  <SCORE.RESTR.CAVITY>
0

>  <SCORE.RESTR.norm>
0

>  <SCORE.SYSTEM>
0

>  <SCORE.SYSTEM.CONST>
0

>  <SCORE.SYSTEM.DIHEDRAL>
0

>  <SCORE.SYSTEM.SOLV>
0

>  <SCORE.SYSTEM.norm>
0

>  <SCORE.heavy>
27

>  <SCORE.norm>
-0.495312

>  <RMSD>
6.271

$$$$
ligand
 OpenBabel02271912153D
libRbt.so/2013.1/901 2013/11/27
 27 29  0  0  0  0  0  0  0  0999 V2000
   16.9122   -6.2841    5.5122 N   0  0  0  0  0  0  0  0  0  0  0  0
   16.1124   -6.9438    6.5900 C   0  0  2  0  0  0  0  0  0  0  0  0
   16.7609   -8.2761    7.0270 C   0  0  0  0  0  0  0  0  0  0  0  0
   17.4913   -8.9116    6.2607 O   0  0  0  0  0  0  0  0  0  0  0  0
   14.6770   -7.1350    6.1116 C   0  0  0  0  0  0  0  0  0  0  0  0
   13.9152   -5.8421    5.8719 C   0  0  0  0  0  0  0  0  0  0  0  0
   13.8101   -4.7865    7.3456 S   0  0  2  0  0  0  0  0  0  0  0  0
   12.5446   -3.5965    6.8184 C   0  0  0  0  0  0  0  0  0  0  0  0
   15.2992   -3.7754    7.3582 C   0  0  0  0  0  0  0  0  0  0  0  0
   15.9487   -3.8690    8.7257 C   0  0  1  0  0  0  0  0  0  0  0  0
   15.0217   -4.2046    9.7466 O   0  0  0  0  0  0  0  0  0  0  0  0
   17.0340   -4.9175    8.7508 C   0  0  1  0  0  0  0  0  0  0  0  0
   18.2490   -4.3956    8.2945 O   0  0  0  0  0  0  0  0  0  0  0  0
   17.0797   -5.2534   10.2103 C   0  0  1  0  0  0  0  0  0  0  0  0
   17.9609   -4.3605   10.8648 O   0  0  0  0  0  0  0  0  0  0  0  0
   15.6503   -5.0398   10.6913 C   0  0  2  0  0  0  0  0  0  0  0  0
   16.5756   -8.7680    8.1554 O   0  0  0  0  0  0  0  0  0  0  0  0
   11.0777   -7.4942   11.6534 N   0  0  0  0  0  0  0  0  0  0  0  0
   11.3261   -6.1293   11.6474 C   0  0  0  0  0  0  0  0  0  0  0  0
   12.5995   -5.6372   11.3872 N   0  0  0  0  0  0  0  0  0  0  0  0
   13.5969   -6.4998   11.1197 C   0  0  0  0  0  0  0  0  0  0  0  0
   13.3554   -7.8765   11.1080 C   0  0  0  0  0  0  0  0  0  0  0  0
   12.0984   -8.3810   11.3860 C   0  0  0  0  0  0  0  0  0  0  0  0
   11.8771   -9.6870   11.3844 N   0  0  0  0  0  0  0  0  0  0  0  0
   14.5008   -8.4969   10.8041 N   0  0  0  0  0  0  0  0  0  0  0  0
   15.4545   -7.5572   10.6212 C   0  0  0  0  0  0  0  0  0  0  0  0
   14.9107   -6.3107   10.8084 N   0  0  0  0  0  0  0  0  0  0  0  0
  2  1  1  6  0  0  0
  2  3  1  0  0  0  0
  2  5  1  0  0  0  0
  3  4  1  0  0  0  0
  3 17  1  0  0  0  0
  5  6  1  0  0  0  0
  7  6  1  6  0  0  0
  7  8  1  0  0  0  0
  7  9  1  0  0  0  0
 10  9  1  6  0  0  0
 10 11  1  0  0  0  0
 10 12  1  0  0  0  0
 11 16  1  0  0  0  0
 12 13  1  1  0  0  0
 12 14  1  0  0  0  0
 14 15  1  1  0  0  0
 14 16  1  0  0  0  0
 16 27  1  6  0  0  0
 18 19  2  0  0  0  0
 18 23  1  0  0  0  0
 19 20  1  0  0  0  0
 20 21  2  0  0  0  0
 21 22  1  0  0  0  0
 21 27  1  0  0  0  0
 22 23  2  0  0  0  0
 22 25  1  0  0  0  0
 23 24  1  0  0  0  0
 25 26  2  0  0  0  0
 26 27  1  0  0  0  0
M  END
>  <CHROM.1>
-25.25962480,-65.28959699,-58.46747096,-167.04987289,-129.64751361,-24.72606505
-56.59960703,14.89824854,-6.20868054,8.98009758,-0.16692228,-0.82886584,-2.98705894

>  <Name>
ligand

>  <RI>
0

>  <Rbt.Current_Directory>
/home/itssahil/PROJECTS/Mol_Feturizer/Test_systems_manuscript/rnas/2ydh

>  <Rbt.Executable>
rbdock ($Id: //depot/dev/client3/rdock/2013.1/src/exe/rbdock.cxx#4 $)

>  <Rbt.Library>
libRbt.so (2013.1, Build901 2013/11/27)

>  <Rbt.Parameter_File>
/export/apps/rDock/src/rDock_2013.1_src/data/scripts/dock_solv.prm

>  <Rbt.Receptor>
prm/pocket_docking_4.prm

>  <SCORE>
-3.60739

>  <SCORE.INTER>
-6.41778

>  <SCORE.INTER.CONST>
1

>  <SCORE.INTER.POLAR>
0

>  <SCORE.INTER.ROT>
7

>  <SCORE.INTER.SOLV>
12.6956

>  <SCORE.INTER.VDW>
-16.777

>  <SCORE.INTER.norm>
-0.237696

>  <SCORE.INTRA>
2.81039

>  <SCORE.INTRA.DIHEDRAL>
2.26902

>  <SCORE.INTRA.DIHEDRAL.0>
9.75037

>  <SCORE.INTRA.POLAR>
0

>  <SCORE.INTRA.POLAR.0>
0

>  <SCORE.INTRA.REPUL>
0

>  <SCORE.INTRA.REPUL.0>
0

>  <SCORE.INTRA.SOLV>
2.52835

>  <SCORE.INTRA.SOLV.lig_0>
-48.4279

>  <SCORE.INTRA.VDW>
0.411706

>  <SCORE.INTRA.VDW.0>
-4.69037

>  <SCORE.INTRA.norm>
0.104088

>  <SCORE.RESTR>
0

>  <SCORE.RESTR.CAVITY>
0

>  <SCORE.RESTR.norm>
0

>  <SCORE.SYSTEM>
0

>  <SCORE.SYSTEM.CONST>
0

>  <SCORE.SYSTEM.DIHEDRAL>
0

>  <SCORE.SYSTEM.SOLV>
0

>  <SCORE.SYSTEM.norm>
0

>  <SCORE.heavy>
27

>  <SCORE.norm>
-0.133607

>  <RMSD>
6.287

$$$$
ligand
 OpenBabel02271912153D
libRbt.so/2013.1/901 2013/11/27
 27 29  0  0  0  0  0  0  0  0999 V2000
   15.6318   -6.3201    5.6969 N   0  0  0  0  0  0  0  0  0  0  0  0
   14.2135   -6.5021    6.1348 C   0  0  2  0  0  0  0  0  0  0  0  0
   13.5872   -7.7554    5.4841 C   0  0  0  0  0  0  0  0  0  0  0  0
   13.5655   -8.8385    6.0767 O   0  0  0  0  0  0  0  0  0  0  0  0
   13.4202   -5.2375    5.8230 C   0  0  0  0  0  0  0  0  0  0  0  0
   14.1013   -3.9463    6.2448 C   0  0  0  0  0  0  0  0  0  0  0  0
   14.7868   -4.0114    7.9249 S   0  0  2  0  0  0  0  0  0  0  0  0
   13.6245   -2.9301    8.8056 C   0  0  0  0  0  0  0  0  0  0  0  0
   16.2875   -3.0176    7.9044 C   0  0  0  0  0  0  0  0  0  0  0  0
   17.1140   -3.3450    9.1333 C   0  0  1  0  0  0  0  0  0  0  0  0
   16.3911   -3.1599   10.3405 O   0  0  0  0  0  0  0  0  0  0  0  0
   17.5864   -4.7783    9.1152 C   0  0  1  0  0  0  0  0  0  0  0  0
   18.7689   -4.9095    8.3795 O   0  0  0  0  0  0  0  0  0  0  0  0
   17.8027   -5.0313   10.5761 C   0  0  1  0  0  0  0  0  0  0  0  0
   19.1131   -4.6295   10.9278 O   0  0  0  0  0  0  0  0  0  0  0  0
   16.7711   -4.1498   11.2682 C   0  0  2  0  0  0  0  0  0  0  0  0
   13.0866   -7.7341    4.3446 O   0  0  0  0  0  0  0  0  0  0  0  0
   13.0363   -7.6780   10.0591 N   0  0  0  0  0  0  0  0  0  0  0  0
   14.0625   -7.2136    9.2492 C   0  0  0  0  0  0  0  0  0  0  0  0
   14.9649   -6.2647    9.7148 N   0  0  0  0  0  0  0  0  0  0  0  0
   14.8484   -5.8077   10.9749 C   0  0  0  0  0  0  0  0  0  0  0  0
   13.8278   -6.2793   11.8053 C   0  0  0  0  0  0  0  0  0  0  0  0
   12.9102   -7.2074   11.3485 C   0  0  0  0  0  0  0  0  0  0  0  0
   11.9382   -7.6432   12.1357 N   0  0  0  0  0  0  0  0  0  0  0  0
   13.9484   -5.6788   12.9944 N   0  0  0  0  0  0  0  0  0  0  0  0
   15.0122   -4.8472   12.9416 C   0  0  0  0  0  0  0  0  0  0  0  0
   15.5866   -4.9174   11.6968 N   0  0  0  0  0  0  0  0  0  0  0  0
  2  1  1  6  0  0  0
  2  3  1  0  0  0  0
  2  5  1  0  0  0  0
  3  4  1  0  0  0  0
  3 17  1  0  0  0  0
  5  6  1  0  0  0  0
  7  6  1  6  0  0  0
  7  8  1  0  0  0  0
  7  9  1  0  0  0  0
 10  9  1  6  0  0  0
 10 11  1  0  0  0  0
 10 12  1  0  0  0  0
 11 16  1  0  0  0  0
 12 13  1  6  0  0  0
 12 14  1  0  0  0  0
 14 15  1  1  0  0  0
 14 16  1  0  0  0  0
 16 27  1  6  0  0  0
 18 19  2  0  0  0  0
 18 23  1  0  0  0  0
 19 20  1  0  0  0  0
 20 21  2  0  0  0  0
 21 22  1  0  0  0  0
 21 27  1  0  0  0  0
 22 23  2  0  0  0  0
 22 25  1  0  0  0  0
 23 24  1  0  0  0  0
 25 26  2  0  0  0  0
 26 27  1  0  0  0  0
M  END
>  <CHROM.1>
95.60708253,-47.01864478,-46.10638520,-108.09686929,-163.82564202,-56.06928193
70.41777452,15.06007943,-5.45917324,9.02836285,-2.10945114,0.67889895,1.55263148

>  <Name>
ligand

>  <RI>
0

>  <Rbt.Current_Directory>
/home/itssahil/PROJECTS/Mol_Feturizer/Test_systems_manuscript/rnas/2ydh

>  <Rbt.Executable>
rbdock ($Id: //depot/dev/client3/rdock/2013.1/src/exe/rbdock.cxx#4 $)

>  <Rbt.Library>
libRbt.so (2013.1, Build901 2013/11/27)

>  <Rbt.Parameter_File>
/export/apps/rDock/src/rDock_2013.1_src/data/scripts/dock_solv.prm

>  <Rbt.Receptor>
prm/pocket_docking_4.prm

>  <SCORE>
-11.1808

>  <SCORE.INTER>
-11.6577

>  <SCORE.INTER.CONST>
1

>  <SCORE.INTER.POLAR>
0

>  <SCORE.INTER.ROT>
7

>  <SCORE.INTER.SOLV>
11.9173

>  <SCORE.INTER.VDW>
-20.0109

>  <SCORE.INTER.norm>
-0.431768

>  <SCORE.INTRA>
0.476891

>  <SCORE.INTRA.DIHEDRAL>
-0.400309

>  <SCORE.INTRA.DIHEDRAL.0>
9.75037

>  <SCORE.INTRA.POLAR>
0

>  <SCORE.INTRA.POLAR.0>
0

>  <SCORE.INTRA.REPUL>
0

>  <SCORE.INTRA.REPUL.0>
0

>  <SCORE.INTRA.SOLV>
1.35883

>  <SCORE.INTRA.SOLV.lig_0>
-48.4279

>  <SCORE.INTRA.VDW>
-0.00236943

>  <SCORE.INTRA.VDW.0>
-4.69037

>  <SCORE.INTRA.norm>
0.0176626

>  <SCORE.RESTR>
0

>  <SCORE.RESTR.CAVITY>
0

>  <SCORE.RESTR.norm>
0

>  <SCORE.SYSTEM>
0

>  <SCORE.SYSTEM.CONST>
0

>  <SCORE.SYSTEM.DIHEDRAL>
0

>  <SCORE.SYSTEM.SOLV>
0

>  <SCORE.SYSTEM.norm>
0

>  <SCORE.heavy>
27

>  <SCORE.norm>
-0.414105

>  <RMSD>
6.300

$$$$
ligand
 OpenBabel02271912153D
libRbt.so/2013.1/901 2013/11/27
 27 29  0  0  0  0  0  0  0  0999 V2000
   19.1830   -7.9354    5.4679 N   0  0  0  0  0  0  0  0  0  0  0  0
   18.1031   -8.9191    5.1472 C   0  0  2  0  0  0  0  0  0  0  0  0
   18.2680   -9.4788    3.7168 C   0  0  0  0  0  0  0  0  0  0  0  0
   17.5606   -9.0755    2.7885 O   0  0  0  0  0  0  0  0  0  0  0  0
   16.7419   -8.2628    5.3524 C   0  0  0  0  0  0  0  0  0  0  0  0
   16.4298   -7.8963    6.7937 C   0  0  0  0  0  0  0  0  0  0  0  0
   14.7072   -7.3815    7.0472 S   0  0  2  0  0  0  0  0  0  0  0  0
   13.8260   -8.7221    6.1976 C   0  0  0  0  0  0  0  0  0  0  0  0
   14.4232   -5.9849    5.9477 C   0  0  0  0  0  0  0  0  0  0  0  0
   14.1806   -4.7410    6.7811 C   0  0  1  0  0  0  0  0  0  0  0  0
   13.0886   -4.8895    7.6753 O   0  0  0  0  0  0  0  0  0  0  0  0
   15.3897   -4.3893    7.6130 C   0  0  1  0  0  0  0  0  0  0  0  0
   16.3020   -3.6253    6.8777 O   0  0  0  0  0  0  0  0  0  0  0  0
   14.7606   -3.6006    8.7208 C   0  0  1  0  0  0  0  0  0  0  0  0
   14.6659   -2.2441    8.3291 O   0  0  0  0  0  0  0  0  0  0  0  0
   13.3726   -4.2087    8.8756 C   0  0  2  0  0  0  0  0  0  0  0  0
   19.1068  -10.3550    3.4375 O   0  0  0  0  0  0  0  0  0  0  0  0
   15.0354   -5.5242   13.7092 N   0  0  0  0  0  0  0  0  0  0  0  0
   15.4147   -4.4284   12.9477 C   0  0  0  0  0  0  0  0  0  0  0  0
   14.8915   -4.2281   11.6758 N   0  0  0  0  0  0  0  0  0  0  0  0
   13.9913   -5.1016   11.1890 C   0  0  0  0  0  0  0  0  0  0  0  0
   13.5900   -6.2011   11.9529 C   0  0  0  0  0  0  0  0  0  0  0  0
   14.1182   -6.4244   13.2112 C   0  0  0  0  0  0  0  0  0  0  0  0
   13.7428   -7.4739   13.9269 N   0  0  0  0  0  0  0  0  0  0  0  0
   12.6882   -6.8914   11.2463 N   0  0  0  0  0  0  0  0  0  0  0  0
   12.5061   -6.2620   10.0645 C   0  0  0  0  0  0  0  0  0  0  0  0
   13.3034   -5.1458   10.0128 N   0  0  0  0  0  0  0  0  0  0  0  0
  2  1  1  6  0  0  0
  2  3  1  0  0  0  0
  2  5  1  0  0  0  0
  3  4  1  0  0  0  0
  3 17  1  0  0  0  0
  5  6  1  0  0  0  0
  7  6  1  6  0  0  0
  7  8  1  0  0  0  0
  7  9  1  0  0  0  0
 10  9  1  1  0  0  0
 10 11  1  0  0  0  0
 10 12  1  0  0  0  0
 11 16  1  0  0  0  0
 12 13  1  6  0  0  0
 12 14  1  0  0  0  0
 14 15  1  6  0  0  0
 14 16  1  0  0  0  0
 16 27  1  1  0  0  0
 18 19  2  0  0  0  0
 18 23  1  0  0  0  0
 19 20  1  0  0  0  0
 20 21  2  0  0  0  0
 21 22  1  0  0  0  0
 21 27  1  0  0  0  0
 22 23  2  0  0  0  0
 22 25  1  0  0  0  0
 23 24  1  0  0  0  0
 25 26  2  0  0  0  0
 26 27  1  0  0  0  0
M  END
>  <CHROM.1>
-102.59211196,-65.81226401,-170.21805374,48.68407774,-113.97723523,-57.45987898
150.43118672,15.17903346,-6.33819169,8.20952875,-0.41243476,-1.11203659,2.24436088

>  <Name>
ligand

>  <RI>
0

>  <Rbt.Current_Directory>
/home/itssahil/PROJECTS/Mol_Feturizer/Test_systems_manuscript/rnas/2ydh

>  <Rbt.Executable>
rbdock ($Id: //depot/dev/client3/rdock/2013.1/src/exe/rbdock.cxx#4 $)

>  <Rbt.Library>
libRbt.so (2013.1, Build901 2013/11/27)

>  <Rbt.Parameter_File>
/export/apps/rDock/src/rDock_2013.1_src/data/scripts/dock_solv.prm

>  <Rbt.Receptor>
prm/pocket_docking_5.prm

>  <SCORE>
-11.9237

>  <SCORE.INTER>
-13.7346

>  <SCORE.INTER.CONST>
1

>  <SCORE.INTER.POLAR>
0

>  <SCORE.INTER.ROT>
7

>  <SCORE.INTER.SOLV>
10.0725

>  <SCORE.INTER.VDW>
-20.7806

>  <SCORE.INTER.norm>
-0.508689

>  <SCORE.INTRA>
1.80409

>  <SCORE.INTRA.DIHEDRAL>
-2.21979

>  <SCORE.INTRA.DIHEDRAL.0>
9.75037

>  <SCORE.INTRA.POLAR>
0

>  <SCORE.INTRA.POLAR.0>
0

>  <SCORE.INTRA.REPUL>
0

>  <SCORE.INTRA.REPUL.0>
0

>  <SCORE.INTRA.SOLV>
-0.665352

>  <SCORE.INTRA.SOLV.lig_0>
-48.4279

>  <SCORE.INTRA.VDW>
3.24666

>  <SCORE.INTRA.VDW.0>
-4.69037

>  <SCORE.INTRA.norm>
0.0668182

>  <SCORE.RESTR>
0.00679162

>  <SCORE.RESTR.CAVITY>
0.00679162

>  <SCORE.RESTR.norm>
0.000251542

>  <SCORE.SYSTEM>
0

>  <SCORE.SYSTEM.CONST>
0

>  <SCORE.SYSTEM.DIHEDRAL>
0

>  <SCORE.SYSTEM.SOLV>
0

>  <SCORE.SYSTEM.norm>
0

>  <SCORE.heavy>
27

>  <SCORE.norm>
-0.441619

>  <RMSD>
6.313

$$$$
ligand
 OpenBabel02271912153D
libRbt.so/2013.1/901 2013/11/27
 27 29  0  0  0  0  0  0  0  0999 V2000
   16.1003   -6.1284    5.7831 N   0  0  0  0  0  0  0  0  0  0  0  0
   14.9347   -6.9442    6.2441 C   0  0  2  0  0  0  0  0  0  0  0  0
   15.1363   -8.4393    5.9116 C   0  0  0  0  0  0  0  0  0  0  0  0
   16.2029   -8.8507    5.4450 O   0  0  0  0  0  0  0  0  0  0  0  0
   13.6531   -6.3887    5.6320 C   0  0  0  0  0  0  0  0  0  0  0  0
   13.4970   -4.8823    5.7558 C   0  0  0  0  0  0  0  0  0  0  0  0
   13.8831   -4.2539    7.4151 S   0  0  2  0  0  0  0  0  0  0  0  0
   12.5546   -3.0359    7.6320 C   0  0  0  0  0  0  0  0  0  0  0  0
   15.3348   -3.2042    7.2400 C   0  0  0  0  0  0  0  0  0  0  0  0
   16.1342   -3.2472    8.5283 C   0  0  1  0  0  0  0  0  0  0  0  0
   15.3299   -3.0215    9.6756 O   0  0  0  0  0  0  0  0  0  0  0  0
   16.8078   -4.5847    8.7157 C   0  0  1  0  0  0  0  0  0  0  0  0
   18.0338   -4.6297    8.0437 O   0  0  0  0  0  0  0  0  0  0  0  0
   16.9813   -4.6166   10.2036 C   0  0  1  0  0  0  0  0  0  0  0  0
   18.2001   -3.9827   10.5426 O   0  0  0  0  0  0  0  0  0  0  0  0
   15.7989   -3.8188   10.7383 C   0  0  2  0  0  0  0  0  0  0  0  0
   14.2430   -9.2874    6.0908 O   0  0  0  0  0  0  0  0  0  0  0  0
   14.1962   -7.4672   14.1994 N   0  0  0  0  0  0  0  0  0  0  0  0
   15.4409   -6.8601   14.1179 C   0  0  0  0  0  0  0  0  0  0  0  0
   15.7129   -5.9200   13.1311 N   0  0  0  0  0  0  0  0  0  0  0  0
   14.7464   -5.5841   12.2574 C   0  0  0  0  0  0  0  0  0  0  0  0
   13.4836   -6.1776   12.3389 C   0  0  0  0  0  0  0  0  0  0  0  0
   13.2057   -7.1300   13.3021 C   0  0  0  0  0  0  0  0  0  0  0  0
   12.0108   -7.6976   13.3684 N   0  0  0  0  0  0  0  0  0  0  0  0
   12.7178   -5.6601   11.3721 N   0  0  0  0  0  0  0  0  0  0  0  0
   13.4549   -4.7586   10.6865 C   0  0  0  0  0  0  0  0  0  0  0  0
   14.7160   -4.6943   11.2249 N   0  0  0  0  0  0  0  0  0  0  0  0
  2  1  1  6  0  0  0
  2  3  1  0  0  0  0
  2  5  1  0  0  0  0
  3  4  1  0  0  0  0
  3 17  1  0  0  0  0
  5  6  1  0  0  0  0
  7  6  1  6  0  0  0
  7  8  1  0  0  0  0
  7  9  1  0  0  0  0
 10  9  1  6  0  0  0
 10 11  1  0  0  0  0
 10 12  1  0  0  0  0
 11 16  1  0  0  0  0
 12 13  1  6  0  0  0
 12 14  1  0  0  0  0
 14 15  1  6  0  0  0
 14 16  1  0  0  0  0
 16 27  1  6  0  0  0
 18 19  2  0  0  0  0
 18 23  1  0  0  0  0
 19 20  1  0  0  0  0
 20 21  2  0  0  0  0
 21 22  1  0  0  0  0
 21 27  1  0  0  0  0
 22 23  2  0  0  0  0
 22 25  1  0  0  0  0
 23 24  1  0  0  0  0
 25 26  2  0  0  0  0
 26 27  1  0  0  0  0
M  END
>  <CHROM.1>
6.45157604,-48.06600317,-45.71390688,-138.56678116,-150.10213797,-49.42635122
-178.02648007,14.89711992,-5.52704621,9.27478268,1.35158119,-1.07465133,-1.76429652

>  <Name>
ligand

>  <RI>
0

>  <Rbt.Current_Directory>
/home/itssahil/PROJECTS/Mol_Feturizer/Test_systems_manuscript/rnas/2ydh

>  <Rbt.Executable>
rbdock ($Id: //depot/dev/client3/rdock/2013.1/src/exe/rbdock.cxx#4 $)

>  <Rbt.Library>
libRbt.so (2013.1, Build901 2013/11/27)

>  <Rbt.Parameter_File>
/export/apps/rDock/src/rDock_2013.1_src/data/scripts/dock_solv.prm

>  <Rbt.Receptor>
prm/pocket_docking_3.prm

>  <SCORE>
-9.18396

>  <SCORE.INTER>
-13.557

>  <SCORE.INTER.CONST>
1

>  <SCORE.INTER.POLAR>
0

>  <SCORE.INTER.ROT>
7

>  <SCORE.INTER.SOLV>
11.1323

>  <SCORE.INTER.VDW>
-21.0155

>  <SCORE.INTER.norm>
-0.502112

>  <SCORE.INTRA>
3.86137

>  <SCORE.INTRA.DIHEDRAL>
2.05649

>  <SCORE.INTRA.DIHEDRAL.0>
9.75037

>  <SCORE.INTRA.POLAR>
0

>  <SCORE.INTRA.POLAR.0>
0

>  <SCORE.INTRA.REPUL>
0

>  <SCORE.INTRA.REPUL.0>
0

>  <SCORE.INTRA.SOLV>
3.30841

>  <SCORE.INTRA.SOLV.lig_0>
-48.4279

>  <SCORE.INTRA.VDW>
1.17892

>  <SCORE.INTRA.VDW.0>
-4.69037

>  <SCORE.INTRA.norm>
0.143014

>  <SCORE.RESTR>
0.511696

>  <SCORE.RESTR.CAVITY>
0.511696

>  <SCORE.RESTR.norm>
0.0189517

>  <SCORE.SYSTEM>
0

>  <SCORE.SYSTEM.CONST>
0

>  <SCORE.SYSTEM.DIHEDRAL>
0

>  <SCORE.SYSTEM.SOLV>
0

>  <SCORE.SYSTEM.norm>
0

>  <SCORE.heavy>
27

>  <SCORE.norm>
-0.340147

>  <RMSD>
6.321

$$$$
ligand
 OpenBabel02271912153D
libRbt.so/2013.1/901 2013/11/27
 27 29  0  0  0  0  0  0  0  0999 V2000
   13.6569   -7.4752    5.9008 N   0  0  0  0  0  0  0  0  0  0  0  0
   14.9236   -6.6892    5.7810 C   0  0  2  0  0  0  0  0  0  0  0  0
   16.1185   -7.4662    6.3770 C   0  0  0  0  0  0  0  0  0  0  0  0
   17.2709   -7.2655    5.9817 O   0  0  0  0  0  0  0  0  0  0  0  0
   14.7395   -5.3268    6.4411 C   0  0  0  0  0  0  0  0  0  0  0  0
   14.4316   -5.3836    7.9281 C   0  0  0  0  0  0  0  0  0  0  0  0
   14.3479   -3.7457    8.7074 S   0  0  2  0  0  0  0  0  0  0  0  0
   13.0438   -2.9659    7.7141 C   0  0  0  0  0  0  0  0  0  0  0  0
   15.8159   -2.8501    8.1757 C   0  0  0  0  0  0  0  0  0  0  0  0
   17.0034   -3.3159    8.9964 C   0  0  1  0  0  0  0  0  0  0  0  0
   16.8122   -3.1215   10.3891 O   0  0  0  0  0  0  0  0  0  0  0  0
   17.2765   -4.7855    8.7876 C   0  0  1  0  0  0  0  0  0  0  0  0
   18.0738   -4.9939    7.6573 O   0  0  0  0  0  0  0  0  0  0  0  0
   17.9977   -5.1298   10.0550 C   0  0  1  0  0  0  0  0  0  0  0  0
   19.3793   -4.8741    9.8872 O   0  0  0  0  0  0  0  0  0  0  0  0
   17.4039   -4.1879   11.0945 C   0  0  2  0  0  0  0  0  0  0  0  0
   15.9769   -8.3238    7.2680 O   0  0  0  0  0  0  0  0  0  0  0  0
   15.4850   -8.6908   13.0696 N   0  0  0  0  0  0  0  0  0  0  0  0
   16.5821   -8.5261   12.2366 C   0  0  0  0  0  0  0  0  0  0  0  0
   16.9541   -7.2645   11.7878 N   0  0  0  0  0  0  0  0  0  0  0  0
   16.2483   -6.1899   12.1847 C   0  0  0  0  0  0  0  0  0  0  0  0
   15.1502   -6.3416   13.0360 C   0  0  0  0  0  0  0  0  0  0  0  0
   14.7561   -7.5928   13.4731 C   0  0  0  0  0  0  0  0  0  0  0  0
   13.7080   -7.7325   14.2711 N   0  0  0  0  0  0  0  0  0  0  0  0
   14.6441   -5.1282   13.2820 N   0  0  0  0  0  0  0  0  0  0  0  0
   15.3882   -4.2174   12.6166 C   0  0  0  0  0  0  0  0  0  0  0  0
   16.3921   -4.8576   11.9334 N   0  0  0  0  0  0  0  0  0  0  0  0
  2  1  1  1  0  0  0
  2  3  1  0  0  0  0
  2  5  1  0  0  0  0
  3  4  1  0  0  0  0
  3 17  1  0  0  0  0
  5  6  1  0  0  0  0
  7  6  1  6  0  0  0
  7  8  1  0  0  0  0
  7  9  1  0  0  0  0
 10  9  1  6  0  0  0
 10 11  1  0  0  0  0
 10 12  1  0  0  0  0
 11 16  1  0  0  0  0
 12 13  1  6  0  0  0
 12 14  1  0  0  0  0
 14 15  1  6  0  0  0
 14 16  1  0  0  0  0
 16 27  1  6  0  0  0
 18 19  2  0  0  0  0
 18 23  1  0  0  0  0
 19 20  1  0  0  0  0
 20 21  2  0  0  0  0
 21 22  1  0  0  0  0
 21 27  1  0  0  0  0
 22 23  2  0  0  0  0
 22 25  1  0  0  0  0
 23 24  1  0  0  0  0
 25 26  2  0  0  0  0
 26 27  1  0  0  0  0
M  END
>  <CHROM.1>
153.61915539,61.64894761,175.46667246,57.90869293,-78.96203171,-58.46642392
141.43909802,15.86452803,-5.60184468,9.67322642,1.59574874,-1.39435026,-1.38056695

>  <Name>
ligand

>  <RI>
0

>  <Rbt.Current_Directory>
/home/itssahil/PROJECTS/Mol_Feturizer/Test_systems_manuscript/rnas/2ydh

>  <Rbt.Executable>
rbdock ($Id: //depot/dev/client3/rdock/2013.1/src/exe/rbdock.cxx#4 $)

>  <Rbt.Library>
libRbt.so (2013.1, Build901 2013/11/27)

>  <Rbt.Parameter_File>
/export/apps/rDock/src/rDock_2013.1_src/data/scripts/dock_solv.prm

>  <Rbt.Receptor>
prm/pocket_docking_4.prm

>  <SCORE>
-12.0813

>  <SCORE.INTER>
-10.9774

>  <SCORE.INTER.CONST>
1

>  <SCORE.INTER.POLAR>
0

>  <SCORE.INTER.ROT>
7

>  <SCORE.INTER.SOLV>
9.69229

>  <SCORE.INTER.VDW>
-18.8157

>  <SCORE.INTER.norm>
-0.40657

>  <SCORE.INTRA>
-1.10392

>  <SCORE.INTRA.DIHEDRAL>
-6.15831

>  <SCORE.INTRA.DIHEDRAL.0>
9.75037

>  <SCORE.INTRA.POLAR>
0

>  <SCORE.INTRA.POLAR.0>
0

>  <SCORE.INTRA.REPUL>
0

>  <SCORE.INTRA.REPUL.0>
0

>  <SCORE.INTRA.SOLV>
-0.113576

>  <SCORE.INTRA.SOLV.lig_0>
-48.4279

>  <SCORE.INTRA.VDW>
2.03203

>  <SCORE.INTRA.VDW.0>
-4.69037

>  <SCORE.INTRA.norm>
-0.0408858

>  <SCORE.RESTR>
0

>  <SCORE.RESTR.CAVITY>
0

>  <SCORE.RESTR.norm>
0

>  <SCORE.SYSTEM>
0

>  <SCORE.SYSTEM.CONST>
0

>  <SCORE.SYSTEM.DIHEDRAL>
0

>  <SCORE.SYSTEM.SOLV>
0

>  <SCORE.SYSTEM.norm>
0

>  <SCORE.heavy>
27

>  <SCORE.norm>
-0.447456

>  <RMSD>
6.323

$$$$
ligand
 OpenBabel02271912153D
libRbt.so/2013.1/901 2013/11/27
 27 29  0  0  0  0  0  0  0  0999 V2000
   14.2949   -8.1577    4.0564 N   0  0  0  0  0  0  0  0  0  0  0  0
   14.9150   -7.6849    5.3326 C   0  0  2  0  0  0  0  0  0  0  0  0
   14.4071   -6.2751    5.7085 C   0  0  0  0  0  0  0  0  0  0  0  0
   15.1826   -5.4059    6.1181 O   0  0  0  0  0  0  0  0  0  0  0  0
   16.4340   -7.7318    5.2062 C   0  0  0  0  0  0  0  0  0  0  0  0
   17.1510   -8.2865    6.4258 C   0  0  0  0  0  0  0  0  0  0  0  0
   16.9023   -7.2874    7.9215 S   0  0  2  0  0  0  0  0  0  0  0  0
   18.1557   -8.0070    9.0199 C   0  0  0  0  0  0  0  0  0  0  0  0
   15.3687   -7.8598    8.6702 C   0  0  0  0  0  0  0  0  0  0  0  0
   14.3922   -6.7015    8.7438 C   0  0  1  0  0  0  0  0  0  0  0  0
   13.1112   -7.0984    9.2082 O   0  0  0  0  0  0  0  0  0  0  0  0
   14.8859   -5.6214    9.6751 C   0  0  1  0  0  0  0  0  0  0  0  0
   15.7551   -4.7462    9.0154 O   0  0  0  0  0  0  0  0  0  0  0  0
   13.5989   -4.9547   10.0549 C   0  0  1  0  0  0  0  0  0  0  0  0
   13.2932   -3.9570    9.0992 O   0  0  0  0  0  0  0  0  0  0  0  0
   12.5662   -6.0734   10.0065 C   0  0  2  0  0  0  0  0  0  0  0  0
   13.2073   -5.9551    5.6225 O   0  0  0  0  0  0  0  0  0  0  0  0
   14.1227   -6.8460   14.9904 N   0  0  0  0  0  0  0  0  0  0  0  0
   14.8287   -6.2372   13.9630 C   0  0  0  0  0  0  0  0  0  0  0  0
   14.2805   -6.1225   12.6910 N   0  0  0  0  0  0  0  0  0  0  0  0
   13.0408   -6.5932   12.4634 C   0  0  0  0  0  0  0  0  0  0  0  0
   12.3138   -7.1949   13.4943 C   0  0  0  0  0  0  0  0  0  0  0  0
   12.8549   -7.3349   14.7591 C   0  0  0  0  0  0  0  0  0  0  0  0
   12.1661   -7.9157   15.7301 N   0  0  0  0  0  0  0  0  0  0  0  0
   11.1219   -7.5562   13.0066 N   0  0  0  0  0  0  0  0  0  0  0  0
   11.0728   -7.1996   11.7041 C   0  0  0  0  0  0  0  0  0  0  0  0
   12.2537   -6.5959   11.3501 N   0  0  0  0  0  0  0  0  0  0  0  0
  2  1  1  6  0  0  0
  2  3  1  0  0  0  0
  2  5  1  0  0  0  0
  3  4  1  0  0  0  0
  3 17  1  0  0  0  0
  5  6  1  0  0  0  0
  7  6  1  6  0  0  0
  7  8  1  0  0  0  0
  7  9  1  0  0  0  0
 10  9  1  1  0  0  0
 10 11  1  0  0  0  0
 10 12  1  0  0  0  0
 11 16  1  0  0  0  0
 12 13  1  6  0  0  0
 12 14  1  0  0  0  0
 14 15  1  6  0  0  0
 14 16  1  0  0  0  0
 16 27  1  1  0  0  0
 18 19  2  0  0  0  0
 18 23  1  0  0  0  0
 19 20  1  0  0  0  0
 20 21  2  0  0  0  0
 21 22  1  0  0  0  0
 21 27  1  0  0  0  0
 22 23  2  0  0  0  0
 22 25  1  0  0  0  0
 23 24  1  0  0  0  0
 25 26  2  0  0  0  0
 26 27  1  0  0  0  0
M  END
>  <CHROM.1>
-136.57077424,-136.95665639,-62.51182817,-167.97297518,-120.17757540,174.47593153
92.29280522,14.30738034,-6.71937304,9.58483819,1.20393588,0.27279156,-1.48589543

>  <Name>
ligand

>  <RI>
0

>  <Rbt.Current_Directory>
/home/itssahil/PROJECTS/Mol_Feturizer/Test_systems_manuscript/rnas/2ydh

>  <Rbt.Executable>
rbdock ($Id: //depot/dev/client3/rdock/2013.1/src/exe/rbdock.cxx#4 $)

>  <Rbt.Library>
libRbt.so (2013.1, Build901 2013/11/27)

>  <Rbt.Parameter_File>
/export/apps/rDock/src/rDock_2013.1_src/data/scripts/dock_solv.prm

>  <Rbt.Receptor>
prm/pocket_docking_7.prm

>  <SCORE>
-6.14717

>  <SCORE.INTER>
-7.79346

>  <SCORE.INTER.CONST>
1

>  <SCORE.INTER.POLAR>
0

>  <SCORE.INTER.ROT>
7

>  <SCORE.INTER.SOLV>
10.6516

>  <SCORE.INTER.VDW>
-17.0128

>  <SCORE.INTER.norm>
-0.288647

>  <SCORE.INTRA>
1.64629

>  <SCORE.INTRA.DIHEDRAL>
3.37995

>  <SCORE.INTRA.DIHEDRAL.0>
9.75037

>  <SCORE.INTRA.POLAR>
0

>  <SCORE.INTRA.POLAR.0>
0

>  <SCORE.INTRA.REPUL>
0

>  <SCORE.INTRA.REPUL.0>
0

>  <SCORE.INTRA.SOLV>
-0.814982

>  <SCORE.INTRA.SOLV.lig_0>
-48.4279

>  <SCORE.INTRA.VDW>
0.363808

>  <SCORE.INTRA.VDW.0>
-4.69037

>  <SCORE.INTRA.norm>
0.0609737

>  <SCORE.RESTR>
0

>  <SCORE.RESTR.CAVITY>
0

>  <SCORE.RESTR.norm>
0

>  <SCORE.SYSTEM>
0

>  <SCORE.SYSTEM.CONST>
0

>  <SCORE.SYSTEM.DIHEDRAL>
0

>  <SCORE.SYSTEM.SOLV>
0

>  <SCORE.SYSTEM.norm>
0

>  <SCORE.heavy>
27

>  <SCORE.norm>
-0.227673

>  <RMSD>
6.330

$$$$
ligand
 OpenBabel02271912153D
libRbt.so/2013.1/901 2013/11/27
 27 29  0  0  0  0  0  0  0  0999 V2000
   13.5270   -3.1054    8.9730 N   0  0  0  0  0  0  0  0  0  0  0  0
   14.6119   -3.1811    7.9463 C   0  0  2  0  0  0  0  0  0  0  0  0
   15.6848   -2.0967    8.1905 C   0  0  0  0  0  0  0  0  0  0  0  0
   16.7417   -2.0900    7.5520 O   0  0  0  0  0  0  0  0  0  0  0  0
   13.9999   -3.0782    6.5532 C   0  0  0  0  0  0  0  0  0  0  0  0
   13.2453   -4.3180    6.1033 C   0  0  0  0  0  0  0  0  0  0  0  0
   14.2151   -5.8452    6.2588 S   0  0  2  0  0  0  0  0  0  0  0  0
   13.2474   -6.9674    5.2101 C   0  0  0  0  0  0  0  0  0  0  0  0
   13.8904   -6.4923    7.9067 C   0  0  0  0  0  0  0  0  0  0  0  0
   15.1847   -7.0224    8.4935 C   0  0  1  0  0  0  0  0  0  0  0  0
   15.1957   -6.9826    9.9121 O   0  0  0  0  0  0  0  0  0  0  0  0
   15.4281   -8.4559    8.0888 C   0  0  1  0  0  0  0  0  0  0  0  0
   16.0548   -8.5271    6.8402 O   0  0  0  0  0  0  0  0  0  0  0  0
   16.3250   -8.9218    9.1949 C   0  0  1  0  0  0  0  0  0  0  0  0
   17.6675   -8.6249    8.8602 O   0  0  0  0  0  0  0  0  0  0  0  0
   15.8851   -8.1081   10.4051 C   0  0  2  0  0  0  0  0  0  0  0  0
   15.5388   -1.1941    9.0350 O   0  0  0  0  0  0  0  0  0  0  0  0
   10.9771   -9.4066   11.8487 N   0  0  0  0  0  0  0  0  0  0  0  0
   11.3657   -8.5475   10.8311 C   0  0  0  0  0  0  0  0  0  0  0  0
   12.7101   -8.2968   10.5837 N   0  0  0  0  0  0  0  0  0  0  0  0
   13.6433   -8.9126   11.3319 C   0  0  0  0  0  0  0  0  0  0  0  0
   13.2644   -9.7920   12.3501 C   0  0  0  0  0  0  0  0  0  0  0  0
   11.9304  -10.0344   12.6213 C   0  0  0  0  0  0  0  0  0  0  0  0
   11.5761  -10.8603   13.5944 N   0  0  0  0  0  0  0  0  0  0  0  0
   14.3753  -10.2707   12.9210 N   0  0  0  0  0  0  0  0  0  0  0  0
   15.4410   -9.7245   12.2946 C   0  0  0  0  0  0  0  0  0  0  0  0
   15.0060   -8.8822   11.3018 N   0  0  0  0  0  0  0  0  0  0  0  0
  2  1  1  1  0  0  0
  2  3  1  0  0  0  0
  2  5  1  0  0  0  0
  3  4  1  0  0  0  0
  3 17  1  0  0  0  0
  5  6  1  0  0  0  0
  7  6  1  1  0  0  0
  7  8  1  0  0  0  0
  7  9  1  0  0  0  0
 10  9  1  1  0  0  0
 10 11  1  0  0  0  0
 10 12  1  0  0  0  0
 11 16  1  0  0  0  0
 12 13  1  6  0  0  0
 12 14  1  0  0  0  0
 14 15  1  6  0  0  0
 14 16  1  0  0  0  0
 16 27  1  1  0  0  0
 18 19  2  0  0  0  0
 18 23  1  0  0  0  0
 19 20  1  0  0  0  0
 20 21  2  0  0  0  0
 21 22  1  0  0  0  0
 21 27  1  0  0  0  0
 22 23  2  0  0  0  0
 22 25  1  0  0  0  0
 23 24  1  0  0  0  0
 25 26  2  0  0  0  0
 26 27  1  0  0  0  0
M  END
>  <CHROM.1>
171.29379886,-72.81091765,-52.09841651,-163.81223850,-139.59503574,153.10849861
23.75223676,14.37325743,-6.89585803,9.21901894,1.27503834,0.79668751,-0.43498046

>  <Name>
ligand

>  <RI>
0

>  <Rbt.Current_Directory>
/home/itssahil/PROJECTS/Mol_Feturizer/Test_systems_manuscript/rnas/2ydh

>  <Rbt.Executable>
rbdock ($Id: //depot/dev/client3/rdock/2013.1/src/exe/rbdock.cxx#4 $)

>  <Rbt.Library>
libRbt.so (2013.1, Build901 2013/11/27)

>  <Rbt.Parameter_File>
/export/apps/rDock/src/rDock_2013.1_src/data/scripts/dock_solv.prm

>  <Rbt.Receptor>
prm/pocket_docking_8.prm

>  <SCORE>
-10.8613

>  <SCORE.INTER>
-13.0928

>  <SCORE.INTER.CONST>
1

>  <SCORE.INTER.POLAR>
0

>  <SCORE.INTER.ROT>
7

>  <SCORE.INTER.SOLV>
13.9812

>  <SCORE.INTER.VDW>
-21.6556

>  <SCORE.INTER.norm>
-0.484919

>  <SCORE.INTRA>
2.23153

>  <SCORE.INTRA.DIHEDRAL>
1.82962

>  <SCORE.INTRA.DIHEDRAL.0>
9.75037

>  <SCORE.INTRA.POLAR>
0

>  <SCORE.INTRA.POLAR.0>
0

>  <SCORE.INTRA.REPUL>
0

>  <SCORE.INTRA.REPUL.0>
0

>  <SCORE.INTRA.SOLV>
1.00022

>  <SCORE.INTRA.SOLV.lig_0>
-48.4279

>  <SCORE.INTRA.VDW>
0.816609

>  <SCORE.INTRA.VDW.0>
-4.69037

>  <SCORE.INTRA.norm>
0.0826492

>  <SCORE.RESTR>
0

>  <SCORE.RESTR.CAVITY>
0

>  <SCORE.RESTR.norm>
0

>  <SCORE.SYSTEM>
0

>  <SCORE.SYSTEM.CONST>
0

>  <SCORE.SYSTEM.DIHEDRAL>
0

>  <SCORE.SYSTEM.SOLV>
0

>  <SCORE.SYSTEM.norm>
0

>  <SCORE.heavy>
27

>  <SCORE.norm>
-0.40227

>  <RMSD>
6.339

$$$$
ligand
 OpenBabel02271912153D
libRbt.so/2013.1/901 2013/11/27
 27 29  0  0  0  0  0  0  0  0999 V2000
   12.2404   -5.4362    6.5648 N   0  0  0  0  0  0  0  0  0  0  0  0
   13.4165   -5.4972    5.6430 C   0  0  2  0  0  0  0  0  0  0  0  0
   13.4807   -6.8573    4.9131 C   0  0  0  0  0  0  0  0  0  0  0  0
   13.3912   -6.9261    3.6835 O   0  0  0  0  0  0  0  0  0  0  0  0
   14.6916   -5.2074    6.4277 C   0  0  0  0  0  0  0  0  0  0  0  0
   14.7469   -3.8226    7.0509 C   0  0  0  0  0  0  0  0  0  0  0  0
   16.1626   -3.5918    8.1643 S   0  0  2  0  0  0  0  0  0  0  0  0
   15.9878   -1.8314    8.5717 C   0  0  0  0  0  0  0  0  0  0  0  0
   17.6346   -3.5966    7.1284 C   0  0  0  0  0  0  0  0  0  0  0  0
   18.3912   -4.8924    7.3504 C   0  0  1  0  0  0  0  0  0  0  0  0
   18.7734   -5.0741    8.7051 O   0  0  0  0  0  0  0  0  0  0  0  0
   17.5605   -6.0905    6.9600 C   0  0  1  0  0  0  0  0  0  0  0  0
   17.6675   -6.3526    5.5902 O   0  0  0  0  0  0  0  0  0  0  0  0
   18.1943   -7.1659    7.7888 C   0  0  1  0  0  0  0  0  0  0  0  0
   19.2841   -7.7197    7.0762 O   0  0  0  0  0  0  0  0  0  0  0  0
   18.6859   -6.4410    9.0351 C   0  0  2  0  0  0  0  0  0  0  0  0
   13.6183   -7.9339    5.5225 O   0  0  0  0  0  0  0  0  0  0  0  0
   15.2854   -9.5562   11.6025 N   0  0  0  0  0  0  0  0  0  0  0  0
   15.9907   -9.8404   10.4421 C   0  0  0  0  0  0  0  0  0  0  0  0
   16.8444   -8.9001    9.8778 N   0  0  0  0  0  0  0  0  0  0  0  0
   16.9994   -7.7066   10.4794 C   0  0  0  0  0  0  0  0  0  0  0  0
   16.3058   -7.4143   11.6571 C   0  0  0  0  0  0  0  0  0  0  0  0
   15.4370   -8.3322   12.2179 C   0  0  0  0  0  0  0  0  0  0  0  0
   14.7736   -8.0464   13.3282 N   0  0  0  0  0  0  0  0  0  0  0  0
   16.6492   -6.1817   12.0468 N   0  0  0  0  0  0  0  0  0  0  0  0
   17.5378   -5.6892   11.1558 C   0  0  0  0  0  0  0  0  0  0  0  0
   17.7712   -6.6239   10.1779 N   0  0  0  0  0  0  0  0  0  0  0  0
  2  1  1  1  0  0  0
  2  3  1  0  0  0  0
  2  5  1  0  0  0  0
  3  4  1  0  0  0  0
  3 17  1  0  0  0  0
  5  6  1  0  0  0  0
  7  6  1  6  0  0  0
  7  8  1  0  0  0  0
  7  9  1  0  0  0  0
 10  9  1  1  0  0  0
 10 11  1  0  0  0  0
 10 12  1  0  0  0  0
 11 16  1  0  0  0  0
 12 13  1  6  0  0  0
 12 14  1  0  0  0  0
 14 15  1  6  0  0  0
 14 16  1  0  0  0  0
 16 27  1  1  0  0  0
 18 19  2  0  0  0  0
 18 23  1  0  0  0  0
 19 20  1  0  0  0  0
 20 21  2  0  0  0  0
 21 22  1  0  0  0  0
 21 27  1  0  0  0  0
 22 23  2  0  0  0  0
 22 25  1  0  0  0  0
 23 24  1  0  0  0  0
 25 26  2  0  0  0  0
 26 27  1  0  0  0  0
M  END
>  <CHROM.1>
117.84837970,-62.27423359,171.96045819,174.83784434,-107.82164464,-58.69226371
151.22777483,16.20498580,-6.23222355,8.37542993,1.95287018,-0.67094820,-0.92297504

>  <Name>
ligand

>  <RI>
0

>  <Rbt.Current_Directory>
/home/itssahil/PROJECTS/Mol_Feturizer/Test_systems_manuscript/rnas/2ydh

>  <Rbt.Executable>
rbdock ($Id: //depot/dev/client3/rdock/2013.1/src/exe/rbdock.cxx#4 $)

>  <Rbt.Library>
libRbt.so (2013.1, Build901 2013/11/27)

>  <Rbt.Parameter_File>
/export/apps/rDock/src/rDock_2013.1_src/data/scripts/dock_solv.prm

>  <Rbt.Receptor>
prm/pocket_docking_5.prm

>  <SCORE>
-12.8726

>  <SCORE.INTER>
-12.8078

>  <SCORE.INTER.CONST>
1

>  <SCORE.INTER.POLAR>
0

>  <SCORE.INTER.ROT>
7

>  <SCORE.INTER.SOLV>
12.2168

>  <SCORE.INTER.VDW>
-20.8775

>  <SCORE.INTER.norm>
-0.474362

>  <SCORE.INTRA>
-0.0648405

>  <SCORE.INTRA.DIHEDRAL>
-3.07261

>  <SCORE.INTRA.DIHEDRAL.0>
9.75037

>  <SCORE.INTRA.POLAR>
0

>  <SCORE.INTRA.POLAR.0>
0

>  <SCORE.INTRA.REPUL>
0

>  <SCORE.INTRA.REPUL.0>
0

>  <SCORE.INTRA.SOLV>
-0.359733

>  <SCORE.INTRA.SOLV.lig_0>
-48.4279

>  <SCORE.INTRA.VDW>
1.65133

>  <SCORE.INTRA.VDW.0>
-4.69037

>  <SCORE.INTRA.norm>
-0.0024015

>  <SCORE.RESTR>
0

>  <SCORE.RESTR.CAVITY>
0

>  <SCORE.RESTR.norm>
0

>  <SCORE.SYSTEM>
0

>  <SCORE.SYSTEM.CONST>
0

>  <SCORE.SYSTEM.DIHEDRAL>
0

>  <SCORE.SYSTEM.SOLV>
0

>  <SCORE.SYSTEM.norm>
0

>  <SCORE.heavy>
27

>  <SCORE.norm>
-0.476763

>  <RMSD>
6.344

$$$$
ligand
 OpenBabel02271912153D
libRbt.so/2013.1/901 2013/11/27
 27 29  0  0  0  0  0  0  0  0999 V2000
   13.9991   -7.6406    8.0418 N   0  0  0  0  0  0  0  0  0  0  0  0
   13.9022   -7.8237    6.5607 C   0  0  2  0  0  0  0  0  0  0  0  0
   15.1672   -8.5122    6.0017 C   0  0  0  0  0  0  0  0  0  0  0  0
   15.1038   -9.2706    5.0294 O   0  0  0  0  0  0  0  0  0  0  0  0
   13.6442   -6.4743    5.8987 C   0  0  0  0  0  0  0  0  0  0  0  0
   14.6857   -5.4117    6.2073 C   0  0  0  0  0  0  0  0  0  0  0  0
   14.0985   -4.1465    7.3698 S   0  0  2  0  0  0  0  0  0  0  0  0
   12.8377   -3.3190    6.3591 C   0  0  0  0  0  0  0  0  0  0  0  0
   15.3906   -2.8967    7.4619 C   0  0  0  0  0  0  0  0  0  0  0  0
   16.1752   -3.0905    8.7454 C   0  0  1  0  0  0  0  0  0  0  0  0
   15.3667   -2.9526    9.9036 O   0  0  0  0  0  0  0  0  0  0  0  0
   16.8054   -4.4605    8.8057 C   0  0  1  0  0  0  0  0  0  0  0  0
   18.0362   -4.4783    8.1412 O   0  0  0  0  0  0  0  0  0  0  0  0
   16.9628   -4.6430   10.2845 C   0  0  1  0  0  0  0  0  0  0  0  0
   18.1970   -4.0841   10.6925 O   0  0  0  0  0  0  0  0  0  0  0  0
   15.8002   -3.8643   10.8864 C   0  0  2  0  0  0  0  0  0  0  0  0
   16.2941   -8.3412    6.5020 O   0  0  0  0  0  0  0  0  0  0  0  0
   13.7700   -7.2285   14.4105 N   0  0  0  0  0  0  0  0  0  0  0  0
   14.9839   -6.5597   14.4736 C   0  0  0  0  0  0  0  0  0  0  0  0
   15.3848   -5.7110   13.4487 N   0  0  0  0  0  0  0  0  0  0  0  0
   14.5725   -5.5246   12.3924 C   0  0  0  0  0  0  0  0  0  0  0  0
   13.3404   -6.1810   12.3248 C   0  0  0  0  0  0  0  0  0  0  0  0
   12.9382   -7.0447   13.3269 C   0  0  0  0  0  0  0  0  0  0  0  0
   11.7744   -7.6730   13.2531 N   0  0  0  0  0  0  0  0  0  0  0  0
   12.7342   -5.8119   11.1911 N   0  0  0  0  0  0  0  0  0  0  0  0
   13.5418   -4.9429   10.5440 C   0  0  0  0  0  0  0  0  0  0  0  0
   14.6860   -4.7485   11.2772 N   0  0  0  0  0  0  0  0  0  0  0  0
  2  1  1  1  0  0  0
  2  3  1  0  0  0  0
  2  5  1  0  0  0  0
  3  4  1  0  0  0  0
  3 17  1  0  0  0  0
  5  6  1  0  0  0  0
  7  6  1  6  0  0  0
  7  8  1  0  0  0  0
  7  9  1  0  0  0  0
 10  9  1  6  0  0  0
 10 11  1  0  0  0  0
 10 12  1  0  0  0  0
 11 16  1  0  0  0  0
 12 13  1  6  0  0  0
 12 14  1  0  0  0  0
 14 15  1  1  0  0  0
 14 16  1  0  0  0  0
 16 27  1  6  0  0  0
 18 19  2  0  0  0  0
 18 23  1  0  0  0  0
 19 20  1  0  0  0  0
 20 21  2  0  0  0  0
 21 22  1  0  0  0  0
 21 27  1  0  0  0  0
 22 23  2  0  0  0  0
 22 25  1  0  0  0  0
 23 24  1  0  0  0  0
 25 26  2  0  0  0  0
 26 27  1  0  0  0  0
M  END
>  <CHROM.1>
147.33061371,56.86527092,-105.92044548,-67.60712841,-102.27894227,-60.89235069
-162.23690109,14.83704068,-5.57512721,9.40862634,1.34275336,-1.02363071,-1.78941766

>  <Name>
ligand

>  <RI>
0

>  <Rbt.Current_Directory>
/home/itssahil/PROJECTS/Mol_Feturizer/Test_systems_manuscript/rnas/2ydh

>  <Rbt.Executable>
rbdock ($Id: //depot/dev/client3/rdock/2013.1/src/exe/rbdock.cxx#4 $)

>  <Rbt.Library>
libRbt.so (2013.1, Build901 2013/11/27)

>  <Rbt.Parameter_File>
/export/apps/rDock/src/rDock_2013.1_src/data/scripts/dock_solv.prm

>  <Rbt.Receptor>
prm/pocket_docking_4.prm

>  <SCORE>
-13.2176

>  <SCORE.INTER>
-15.2621

>  <SCORE.INTER.CONST>
1

>  <SCORE.INTER.POLAR>
0

>  <SCORE.INTER.ROT>
7

>  <SCORE.INTER.SOLV>
9.68116

>  <SCORE.INTER.VDW>
-21.6684

>  <SCORE.INTER.norm>
-0.565262

>  <SCORE.INTRA>
2.04443

>  <SCORE.INTRA.DIHEDRAL>
0.897942

>  <SCORE.INTRA.DIHEDRAL.0>
9.75037

>  <SCORE.INTRA.POLAR>
0

>  <SCORE.INTRA.POLAR.0>
0

>  <SCORE.INTRA.REPUL>
0

>  <SCORE.INTRA.REPUL.0>
0

>  <SCORE.INTRA.SOLV>
0.725802

>  <SCORE.INTRA.SOLV.lig_0>
-48.4279

>  <SCORE.INTRA.VDW>
1.23255

>  <SCORE.INTRA.VDW.0>
-4.69037

>  <SCORE.INTRA.norm>
0.0757195

>  <SCORE.RESTR>
0

>  <SCORE.RESTR.CAVITY>
0

>  <SCORE.RESTR.norm>
0

>  <SCORE.SYSTEM>
0

>  <SCORE.SYSTEM.CONST>
0

>  <SCORE.SYSTEM.DIHEDRAL>
0

>  <SCORE.SYSTEM.SOLV>
0

>  <SCORE.SYSTEM.norm>
0

>  <SCORE.heavy>
27

>  <SCORE.norm>
-0.489542

>  <RMSD>
6.348

$$$$
ligand
 OpenBabel02271912153D
libRbt.so/2013.1/901 2013/11/27
 27 29  0  0  0  0  0  0  0  0999 V2000
   19.2917   -5.4459    8.2257 N   0  0  0  0  0  0  0  0  0  0  0  0
   18.2255   -4.8431    9.0839 C   0  0  2  0  0  0  0  0  0  0  0  0
   18.3135   -5.3714   10.5330 C   0  0  0  0  0  0  0  0  0  0  0  0
   18.1069   -4.6276   11.4967 O   0  0  0  0  0  0  0  0  0  0  0  0
   16.8603   -5.1096    8.4588 C   0  0  0  0  0  0  0  0  0  0  0  0
   16.6210   -4.3948    7.1394 C   0  0  0  0  0  0  0  0  0  0  0  0
   15.0747   -4.8878    6.3253 S   0  0  2  0  0  0  0  0  0  0  0  0
   13.8671   -4.4732    7.6158 C   0  0  0  0  0  0  0  0  0  0  0  0
   15.0404   -6.6874    6.3384 C   0  0  0  0  0  0  0  0  0  0  0  0
   16.0034   -7.2079    5.2885 C   0  0  1  0  0  0  0  0  0  0  0  0
   17.3584   -6.9326    5.6087 O   0  0  0  0  0  0  0  0  0  0  0  0
   15.8827   -8.7030    5.1213 C   0  0  1  0  0  0  0  0  0  0  0  0
   14.8553   -9.0286    4.2296 O   0  0  0  0  0  0  0  0  0  0  0  0
   17.2337   -9.0437    4.5702 C   0  0  1  0  0  0  0  0  0  0  0  0
   17.2082   -8.9086    3.1619 O   0  0  0  0  0  0  0  0  0  0  0  0
   18.1649   -8.0086    5.1881 C   0  0  2  0  0  0  0  0  0  0  0  0
   18.5985   -6.5546   10.7939 O   0  0  0  0  0  0  0  0  0  0  0  0
   21.6703  -11.5148    6.9985 N   0  0  0  0  0  0  0  0  0  0  0  0
   21.2289  -11.3486    5.6939 C   0  0  0  0  0  0  0  0  0  0  0  0
   20.2830  -10.3804    5.3787 N   0  0  0  0  0  0  0  0  0  0  0  0
   19.8062   -9.5839    6.3526 C   0  0  0  0  0  0  0  0  0  0  0  0
   20.2546   -9.7317    7.6682 C   0  0  0  0  0  0  0  0  0  0  0  0
   21.1794  -10.7046    7.9998 C   0  0  0  0  0  0  0  0  0  0  0  0
   21.5931  -10.8480    9.2500 N   0  0  0  0  0  0  0  0  0  0  0  0
   19.6380   -8.8156    8.4230 N   0  0  0  0  0  0  0  0  0  0  0  0
   18.8186   -8.0942    7.6265 C   0  0  0  0  0  0  0  0  0  0  0  0
   18.9133   -8.5538    6.3364 N   0  0  0  0  0  0  0  0  0  0  0  0
  2  1  1  6  0  0  0
  2  3  1  0  0  0  0
  2  5  1  0  0  0  0
  3  4  1  0  0  0  0
  3 17  1  0  0  0  0
  5  6  1  0  0  0  0
  7  6  1  1  0  0  0
  7  8  1  0  0  0  0
  7  9  1  0  0  0  0
 10  9  1  1  0  0  0
 10 11  1  0  0  0  0
 10 12  1  0  0  0  0
 11 16  1  0  0  0  0
 12 13  1  6  0  0  0
 12 14  1  0  0  0  0
 14 15  1  6  0  0  0
 14 16  1  0  0  0  0
 16 27  1  1  0  0  0
 18 19  2  0  0  0  0
 18 23  1  0  0  0  0
 19 20  1  0  0  0  0
 20 21  2  0  0  0  0
 21 22  1  0  0  0  0
 21 27  1  0  0  0  0
 22 23  2  0  0  0  0
 22 25  1  0  0  0  0
 23 24  1  0  0  0  0
 25 26  2  0  0  0  0
 26 27  1  0  0  0  0
M  END
>  <CHROM.1>
141.37136217,-67.07183938,173.04172362,57.97120192,-75.30631419,67.41117561
-179.34910794,17.93263965,-7.57451903,7.03511036,-2.55792395,0.65993574,-2.26248089

>  <Name>
ligand

>  <RI>
0

>  <Rbt.Current_Directory>
/home/itssahil/PROJECTS/Mol_Feturizer/Test_systems_manuscript/rnas/2ydh

>  <Rbt.Executable>
rbdock ($Id: //depot/dev/client3/rdock/2013.1/src/exe/rbdock.cxx#4 $)

>  <Rbt.Library>
libRbt.so (2013.1, Build901 2013/11/27)

>  <Rbt.Parameter_File>
/export/apps/rDock/src/rDock_2013.1_src/data/scripts/dock_solv.prm

>  <Rbt.Receptor>
prm/pocket_docking_8.prm

>  <SCORE>
-11.4397

>  <SCORE.INTER>
-10.7906

>  <SCORE.INTER.CONST>
1

>  <SCORE.INTER.POLAR>
0

>  <SCORE.INTER.ROT>
7

>  <SCORE.INTER.SOLV>
11.1545

>  <SCORE.INTER.VDW>
-19.1786

>  <SCORE.INTER.norm>
-0.399652

>  <SCORE.INTRA>
-0.649093

>  <SCORE.INTRA.DIHEDRAL>
-5.88396

>  <SCORE.INTRA.DIHEDRAL.0>
9.75037

>  <SCORE.INTRA.POLAR>
0

>  <SCORE.INTRA.POLAR.0>
0

>  <SCORE.INTRA.REPUL>
0

>  <SCORE.INTRA.REPUL.0>
0

>  <SCORE.INTRA.SOLV>
1.29597

>  <SCORE.INTRA.SOLV.lig_0>
-48.4279

>  <SCORE.INTRA.VDW>
1.6449

>  <SCORE.INTRA.VDW.0>
-4.69037

>  <SCORE.INTRA.norm>
-0.0240405

>  <SCORE.RESTR>
0

>  <SCORE.RESTR.CAVITY>
0

>  <SCORE.RESTR.norm>
0

>  <SCORE.SYSTEM>
0

>  <SCORE.SYSTEM.CONST>
0

>  <SCORE.SYSTEM.DIHEDRAL>
0

>  <SCORE.SYSTEM.SOLV>
0

>  <SCORE.SYSTEM.norm>
0

>  <SCORE.heavy>
27

>  <SCORE.norm>
-0.423692

>  <RMSD>
6.355

$$$$
ligand
 OpenBabel02271912153D
libRbt.so/2013.1/901 2013/11/27
 27 29  0  0  0  0  0  0  0  0999 V2000
   19.9392   -8.5805    5.1078 N   0  0  0  0  0  0  0  0  0  0  0  0
   18.4897   -8.9402    5.1869 C   0  0  2  0  0  0  0  0  0  0  0  0
   17.9085   -9.2174    3.7826 C   0  0  0  0  0  0  0  0  0  0  0  0
   18.6103   -9.1208    2.7713 O   0  0  0  0  0  0  0  0  0  0  0  0
   17.7315   -7.8338    5.9127 C   0  0  0  0  0  0  0  0  0  0  0  0
   16.2843   -8.1678    6.2338 C   0  0  0  0  0  0  0  0  0  0  0  0
   15.4533   -6.8885    7.2187 S   0  0  2  0  0  0  0  0  0  0  0  0
   13.8154   -7.6408    7.4357 C   0  0  0  0  0  0  0  0  0  0  0  0
   15.0992   -5.5272    6.0956 C   0  0  0  0  0  0  0  0  0  0  0  0
   14.5442   -4.3614    6.8914 C   0  0  1  0  0  0  0  0  0  0  0  0
   13.3739   -4.7056    7.6167 O   0  0  0  0  0  0  0  0  0  0  0  0
   15.5503   -3.8472    7.8921 C   0  0  1  0  0  0  0  0  0  0  0  0
   16.4238   -2.9283    7.3012 O   0  0  0  0  0  0  0  0  0  0  0  0
   14.6515   -3.1994    8.9008 C   0  0  1  0  0  0  0  0  0  0  0  0
   14.3977   -1.8643    8.5067 O   0  0  0  0  0  0  0  0  0  0  0  0
   13.3711   -4.0229    8.8491 C   0  0  2  0  0  0  0  0  0  0  0  0
   16.7197   -9.5417    3.6065 O   0  0  0  0  0  0  0  0  0  0  0  0
   14.9854   -5.4697   13.6616 N   0  0  0  0  0  0  0  0  0  0  0  0
   15.3710   -4.3528   12.9346 C   0  0  0  0  0  0  0  0  0  0  0  0
   14.8608   -4.1180   11.6634 N   0  0  0  0  0  0  0  0  0  0  0  0
   13.9670   -4.9787   11.1433 C   0  0  0  0  0  0  0  0  0  0  0  0
   13.5593   -6.0994   11.8723 C   0  0  0  0  0  0  0  0  0  0  0  0
   14.0747   -6.3568   13.1293 C   0  0  0  0  0  0  0  0  0  0  0  0
   13.6934   -7.4261   13.8118 N   0  0  0  0  0  0  0  0  0  0  0  0
   12.6659   -6.7709   11.1375 N   0  0  0  0  0  0  0  0  0  0  0  0
   12.4951   -6.1093    9.9716 C   0  0  0  0  0  0  0  0  0  0  0  0
   13.2914   -4.9911    9.9591 N   0  0  0  0  0  0  0  0  0  0  0  0
  2  1  1  6  0  0  0
  2  3  1  0  0  0  0
  2  5  1  0  0  0  0
  3  4  1  0  0  0  0
  3 17  1  0  0  0  0
  5  6  1  0  0  0  0
  7  6  1  6  0  0  0
  7  8  1  0  0  0  0
  7  9  1  0  0  0  0
 10  9  1  1  0  0  0
 10 11  1  0  0  0  0
 10 12  1  0  0  0  0
 11 16  1  0  0  0  0
 12 13  1  6  0  0  0
 12 14  1  0  0  0  0
 14 15  1  6  0  0  0
 14 16  1  0  0  0  0
 16 27  1  1  0  0  0
 18 19  2  0  0  0  0
 18 23  1  0  0  0  0
 19 20  1  0  0  0  0
 20 21  2  0  0  0  0
 21 22  1  0  0  0  0
 21 27  1  0  0  0  0
 22 23  2  0  0  0  0
 22 25  1  0  0  0  0
 23 24  1  0  0  0  0
 25 26  2  0  0  0  0
 26 27  1  0  0  0  0
M  END
>  <CHROM.1>
-0.66226891,-171.69574023,175.14911333,-178.45546538,-173.70282572,-57.81661894
138.48142206,15.27754327,-6.08279761,8.29182918,-0.21514145,-1.11440047,2.45140736

>  <Name>
ligand

>  <RI>
0

>  <Rbt.Current_Directory>
/home/itssahil/PROJECTS/Mol_Feturizer/Test_systems_manuscript/rnas/2ydh

>  <Rbt.Executable>
rbdock ($Id: //depot/dev/client3/rdock/2013.1/src/exe/rbdock.cxx#4 $)

>  <Rbt.Library>
libRbt.so (2013.1, Build901 2013/11/27)

>  <Rbt.Parameter_File>
/export/apps/rDock/src/rDock_2013.1_src/data/scripts/dock_solv.prm

>  <Rbt.Receptor>
prm/pocket_docking_7.prm

>  <SCORE>
-15.3701

>  <SCORE.INTER>
-14.1957

>  <SCORE.INTER.CONST>
1

>  <SCORE.INTER.POLAR>
0

>  <SCORE.INTER.ROT>
7

>  <SCORE.INTER.SOLV>
9.99459

>  <SCORE.INTER.VDW>
-21.062

>  <SCORE.INTER.norm>
-0.525765

>  <SCORE.INTRA>
-1.17441

>  <SCORE.INTRA.DIHEDRAL>
-5.60569

>  <SCORE.INTRA.DIHEDRAL.0>
9.75037

>  <SCORE.INTRA.POLAR>
0

>  <SCORE.INTRA.POLAR.0>
0

>  <SCORE.INTRA.REPUL>
0

>  <SCORE.INTRA.REPUL.0>
0

>  <SCORE.INTRA.SOLV>
-1.2659

>  <SCORE.INTRA.SOLV.lig_0>
-48.4279

>  <SCORE.INTRA.VDW>
2.26139

>  <SCORE.INTRA.VDW.0>
-4.69037

>  <SCORE.INTRA.norm>
-0.0434966

>  <SCORE.RESTR>
0

>  <SCORE.RESTR.CAVITY>
0

>  <SCORE.RESTR.norm>
0

>  <SCORE.SYSTEM>
0

>  <SCORE.SYSTEM.CONST>
0

>  <SCORE.SYSTEM.DIHEDRAL>
0

>  <SCORE.SYSTEM.SOLV>
0

>  <SCORE.SYSTEM.norm>
0

>  <SCORE.heavy>
27

>  <SCORE.norm>
-0.569262

>  <RMSD>
6.375

$$$$
ligand
 OpenBabel02271912153D
libRbt.so/2013.1/901 2013/11/27
 27 29  0  0  0  0  0  0  0  0999 V2000
   19.7486   -8.5997    4.7961 N   0  0  0  0  0  0  0  0  0  0  0  0
   18.3174   -8.9807    5.0038 C   0  0  2  0  0  0  0  0  0  0  0  0
   17.6152   -9.2591    3.6562 C   0  0  0  0  0  0  0  0  0  0  0  0
   18.2209   -9.1470    2.5861 O   0  0  0  0  0  0  0  0  0  0  0  0
   17.6128   -7.8892    5.8024 C   0  0  0  0  0  0  0  0  0  0  0  0
   16.1887   -8.2271    6.2110 C   0  0  0  0  0  0  0  0  0  0  0  0
   15.3964   -6.9251    7.1978 S   0  0  2  0  0  0  0  0  0  0  0  0
   13.7546   -7.6537    7.4615 C   0  0  0  0  0  0  0  0  0  0  0  0
   15.0338   -5.5736    6.0656 C   0  0  0  0  0  0  0  0  0  0  0  0
   14.5418   -4.3801    6.8618 C   0  0  1  0  0  0  0  0  0  0  0  0
   13.3650   -4.6670    7.6014 O   0  0  0  0  0  0  0  0  0  0  0  0
   15.5814   -3.9085    7.8490 C   0  0  1  0  0  0  0  0  0  0  0  0
   16.4897   -3.0333    7.2443 O   0  0  0  0  0  0  0  0  0  0  0  0
   14.7247   -3.2157    8.8644 C   0  0  1  0  0  0  0  0  0  0  0  0
   14.5281   -1.8720    8.4667 O   0  0  0  0  0  0  0  0  0  0  0  0
   13.4073   -3.9797    8.8305 C   0  0  2  0  0  0  0  0  0  0  0  0
   16.4200   -9.5997    3.5864 O   0  0  0  0  0  0  0  0  0  0  0  0
   14.9594   -5.4419   13.6587 N   0  0  0  0  0  0  0  0  0  0  0  0
   15.3795   -4.3408   12.9268 C   0  0  0  0  0  0  0  0  0  0  0  0
   14.8816   -4.0995   11.6519 N   0  0  0  0  0  0  0  0  0  0  0  0
   13.9661   -4.9378   11.1330 C   0  0  0  0  0  0  0  0  0  0  0  0
   13.5237   -6.0421   11.8669 C   0  0  0  0  0  0  0  0  0  0  0  0
   14.0262   -6.3063   13.1277 C   0  0  0  0  0  0  0  0  0  0  0  0
   13.6120   -7.3602   13.8149 N   0  0  0  0  0  0  0  0  0  0  0  0
   12.6149   -6.6927   11.1321 N   0  0  0  0  0  0  0  0  0  0  0  0
   12.4679   -6.0336    9.9616 C   0  0  0  0  0  0  0  0  0  0  0  0
   13.2955   -4.9385    9.9460 N   0  0  0  0  0  0  0  0  0  0  0  0
  2  1  1  6  0  0  0
  2  3  1  0  0  0  0
  2  5  1  0  0  0  0
  3  4  1  0  0  0  0
  3 17  1  0  0  0  0
  5  6  1  0  0  0  0
  7  6  1  6  0  0  0
  7  8  1  0  0  0  0
  7  9  1  0  0  0  0
 10  9  1  1  0  0  0
 10 11  1  0  0  0  0
 10 12  1  0  0  0  0
 11 16  1  0  0  0  0
 12 13  1  6  0  0  0
 12 14  1  0  0  0  0
 14 15  1  6  0  0  0
 14 16  1  0  0  0  0
 16 27  1  1  0  0  0
 18 19  2  0  0  0  0
 18 23  1  0  0  0  0
 19 20  1  0  0  0  0
 20 21  2  0  0  0  0
 21 22  1  0  0  0  0
 21 27  1  0  0  0  0
 22 23  2  0  0  0  0
 22 25  1  0  0  0  0
 23 24  1  0  0  0  0
 25 26  2  0  0  0  0
 26 27  1  0  0  0  0
M  END
>  <CHROM.1>
-0.67194508,-173.65392771,178.43996897,179.06758971,-172.41387488,-59.92555911
139.83167404,15.21492694,-6.08767914,8.24465043,-0.10888785,-1.15343415,2.57451729

>  <Name>
ligand

>  <RI>
0

>  <Rbt.Current_Directory>
/home/itssahil/PROJECTS/Mol_Feturizer/Test_systems_manuscript/rnas/2ydh

>  <Rbt.Executable>
rbdock ($Id: //depot/dev/client3/rdock/2013.1/src/exe/rbdock.cxx#4 $)

>  <Rbt.Library>
libRbt.so (2013.1, Build901 2013/11/27)

>  <Rbt.Parameter_File>
/export/apps/rDock/src/rDock_2013.1_src/data/scripts/dock_solv.prm

>  <Rbt.Receptor>
prm/pocket_docking_7.prm

>  <SCORE>
-15.3006

>  <SCORE.INTER>
-14.0195

>  <SCORE.INTER.CONST>
1

>  <SCORE.INTER.POLAR>
0

>  <SCORE.INTER.ROT>
7

>  <SCORE.INTER.SOLV>
10.7636

>  <SCORE.INTER.VDW>
-21.2009

>  <SCORE.INTER.norm>
-0.51924

>  <SCORE.INTRA>
-1.28115

>  <SCORE.INTRA.DIHEDRAL>
-5.81423

>  <SCORE.INTRA.DIHEDRAL.0>
9.75037

>  <SCORE.INTRA.POLAR>
0

>  <SCORE.INTRA.POLAR.0>
0

>  <SCORE.INTRA.REPUL>
0

>  <SCORE.INTRA.REPUL.0>
0

>  <SCORE.INTRA.SOLV>
-1.26555

>  <SCORE.INTRA.SOLV.lig_0>
-48.4279

>  <SCORE.INTRA.VDW>
2.25874

>  <SCORE.INTRA.VDW.0>
-4.69037

>  <SCORE.INTRA.norm>
-0.04745

>  <SCORE.RESTR>
0

>  <SCORE.RESTR.CAVITY>
0

>  <SCORE.RESTR.norm>
0

>  <SCORE.SYSTEM>
0

>  <SCORE.SYSTEM.CONST>
0

>  <SCORE.SYSTEM.DIHEDRAL>
0

>  <SCORE.SYSTEM.SOLV>
0

>  <SCORE.SYSTEM.norm>
0

>  <SCORE.heavy>
27

>  <SCORE.norm>
-0.56669

>  <RMSD>
6.375

$$$$
ligand
 OpenBabel02271912153D
libRbt.so/2013.1/901 2013/11/27
 27 29  0  0  0  0  0  0  0  0999 V2000
   13.8221   -7.4821    6.1147 N   0  0  0  0  0  0  0  0  0  0  0  0
   14.9986   -6.5926    5.8673 C   0  0  2  0  0  0  0  0  0  0  0  0
   16.3147   -7.2805    6.2931 C   0  0  0  0  0  0  0  0  0  0  0  0
   16.3191   -8.1829    7.1359 O   0  0  0  0  0  0  0  0  0  0  0  0
   14.7890   -5.2631    6.5843 C   0  0  0  0  0  0  0  0  0  0  0  0
   14.5734   -5.3829    8.0838 C   0  0  0  0  0  0  0  0  0  0  0  0
   14.4984   -3.7778    8.9293 S   0  0  2  0  0  0  0  0  0  0  0  0
   13.1950   -2.9530    7.9720 C   0  0  0  0  0  0  0  0  0  0  0  0
   15.9688   -2.8673    8.4306 C   0  0  0  0  0  0  0  0  0  0  0  0
   17.1561   -3.3697    9.2296 C   0  0  1  0  0  0  0  0  0  0  0  0
   16.9492   -3.2739   10.6304 O   0  0  0  0  0  0  0  0  0  0  0  0
   17.4546   -4.8172    8.9239 C   0  0  1  0  0  0  0  0  0  0  0  0
   18.2653   -4.9357    7.7902 O   0  0  0  0  0  0  0  0  0  0  0  0
   18.1697   -5.2362   10.1721 C   0  0  1  0  0  0  0  0  0  0  0  0
   19.5484   -4.9485   10.0361 O   0  0  0  0  0  0  0  0  0  0  0  0
   17.5515   -4.3768   11.2674 C   0  0  2  0  0  0  0  0  0  0  0  0
   17.4186   -6.9580    5.8169 O   0  0  0  0  0  0  0  0  0  0  0  0
   15.6009   -9.0368   12.7964 N   0  0  0  0  0  0  0  0  0  0  0  0
   16.6879   -8.7999   11.9677 C   0  0  0  0  0  0  0  0  0  0  0  0
   17.0703   -7.5030   11.6459 N   0  0  0  0  0  0  0  0  0  0  0  0
   16.3850   -6.4670   12.1629 C   0  0  0  0  0  0  0  0  0  0  0  0
   15.2973   -6.6930   13.0111 C   0  0  0  0  0  0  0  0  0  0  0  0
   14.8927   -7.9779   13.3227 C   0  0  0  0  0  0  0  0  0  0  0  0
   13.8546   -8.1870   14.1184 N   0  0  0  0  0  0  0  0  0  0  0  0
   14.8112   -5.5056   13.3892 N   0  0  0  0  0  0  0  0  0  0  0  0
   15.5579   -4.5397   12.8099 C   0  0  0  0  0  0  0  0  0  0  0  0
   16.5430   -5.1177   12.0484 N   0  0  0  0  0  0  0  0  0  0  0  0
  2  1  1  1  0  0  0
  2  3  1  0  0  0  0
  2  5  1  0  0  0  0
  3  4  1  0  0  0  0
  3 17  1  0  0  0  0
  5  6  1  0  0  0  0
  7  6  1  6  0  0  0
  7  8  1  0  0  0  0
  7  9  1  0  0  0  0
 10  9  1  6  0  0  0
 10 11  1  0  0  0  0
 10 12  1  0  0  0  0
 11 16  1  0  0  0  0
 12 13  1  6  0  0  0
 12 14  1  0  0  0  0
 14 15  1  6  0  0  0
 14 16  1  0  0  0  0
 16 27  1  6  0  0  0
 18 19  2  0  0  0  0
 18 23  1  0  0  0  0
 19 20  1  0  0  0  0
 20 21  2  0  0  0  0
 21 22  1  0  0  0  0
 21 27  1  0  0  0  0
 22 23  2  0  0  0  0
 22 25  1  0  0  0  0
 23 24  1  0  0  0  0
 25 26  2  0  0  0  0
 26 27  1  0  0  0  0
M  END
>  <CHROM.1>
-23.86525267,57.61720311,174.05705072,54.20304121,-79.02514146,-56.38316670
138.47842601,16.01812543,-5.70452226,9.73972158,1.52955850,-1.35737819,-1.37309370

>  <Name>
ligand

>  <RI>
0

>  <Rbt.Current_Directory>
/home/itssahil/PROJECTS/Mol_Feturizer/Test_systems_manuscript/rnas/2ydh

>  <Rbt.Executable>
rbdock ($Id: //depot/dev/client3/rdock/2013.1/src/exe/rbdock.cxx#4 $)

>  <Rbt.Library>
libRbt.so (2013.1, Build901 2013/11/27)

>  <Rbt.Parameter_File>
/export/apps/rDock/src/rDock_2013.1_src/data/scripts/dock_solv.prm

>  <Rbt.Receptor>
prm/pocket_docking_4.prm

>  <SCORE>
-12.3455

>  <SCORE.INTER>
-11.261

>  <SCORE.INTER.CONST>
1

>  <SCORE.INTER.POLAR>
0

>  <SCORE.INTER.ROT>
7

>  <SCORE.INTER.SOLV>
8.71766

>  <SCORE.INTER.VDW>
-18.6799

>  <SCORE.INTER.norm>
-0.417075

>  <SCORE.INTRA>
-1.08443

>  <SCORE.INTRA.DIHEDRAL>
-6.13071

>  <SCORE.INTRA.DIHEDRAL.0>
9.75037

>  <SCORE.INTRA.POLAR>
0

>  <SCORE.INTRA.POLAR.0>
0

>  <SCORE.INTRA.REPUL>
0

>  <SCORE.INTRA.REPUL.0>
0

>  <SCORE.INTRA.SOLV>
-0.107165

>  <SCORE.INTRA.SOLV.lig_0>
-48.4279

>  <SCORE.INTRA.VDW>
2.0345

>  <SCORE.INTRA.VDW.0>
-4.69037

>  <SCORE.INTRA.norm>
-0.0401643

>  <SCORE.RESTR>
0

>  <SCORE.RESTR.CAVITY>
0

>  <SCORE.RESTR.norm>
0

>  <SCORE.SYSTEM>
0

>  <SCORE.SYSTEM.CONST>
0

>  <SCORE.SYSTEM.DIHEDRAL>
0

>  <SCORE.SYSTEM.SOLV>
0

>  <SCORE.SYSTEM.norm>
0

>  <SCORE.heavy>
27

>  <SCORE.norm>
-0.457239

>  <RMSD>
6.410

$$$$
ligand
 OpenBabel02271912153D
libRbt.so/2013.1/901 2013/11/27
 27 29  0  0  0  0  0  0  0  0999 V2000
   13.9735   -7.5190    6.1511 N   0  0  0  0  0  0  0  0  0  0  0  0
   15.0853   -6.5596    5.8683 C   0  0  2  0  0  0  0  0  0  0  0  0
   16.4507   -7.1541    6.2795 C   0  0  0  0  0  0  0  0  0  0  0  0
   16.5311   -8.0217    7.1544 O   0  0  0  0  0  0  0  0  0  0  0  0
   14.8027   -5.2350    6.5691 C   0  0  0  0  0  0  0  0  0  0  0  0
   14.5754   -5.3506    8.0672 C   0  0  0  0  0  0  0  0  0  0  0  0
   14.4836   -3.7429    8.9061 S   0  0  2  0  0  0  0  0  0  0  0  0
   13.1958   -2.9230    7.9238 C   0  0  0  0  0  0  0  0  0  0  0  0
   15.9612   -2.8319    8.4297 C   0  0  0  0  0  0  0  0  0  0  0  0
   17.1302   -3.3130    9.2678 C   0  0  1  0  0  0  0  0  0  0  0  0
   16.8785   -3.2134   10.6610 O   0  0  0  0  0  0  0  0  0  0  0  0
   17.4590   -4.7574    8.9792 C   0  0  1  0  0  0  0  0  0  0  0  0
   18.3063   -4.8695    7.8719 O   0  0  0  0  0  0  0  0  0  0  0  0
   18.1410   -5.1598   10.2513 C   0  0  1  0  0  0  0  0  0  0  0  0
   19.5190   -4.8526   10.1565 O   0  0  0  0  0  0  0  0  0  0  0  0
   17.4766   -4.3043   11.3222 C   0  0  2  0  0  0  0  0  0  0  0  0
   17.5202   -6.7875    5.7589 O   0  0  0  0  0  0  0  0  0  0  0  0
   15.5137   -8.9855   12.7686 N   0  0  0  0  0  0  0  0  0  0  0  0
   16.6167   -8.7368   11.9648 C   0  0  0  0  0  0  0  0  0  0  0  0
   17.0004   -7.4357   11.6627 N   0  0  0  0  0  0  0  0  0  0  0  0
   16.3003   -6.4070   12.1746 C   0  0  0  0  0  0  0  0  0  0  0  0
   15.1962   -6.6448   12.9980 C   0  0  0  0  0  0  0  0  0  0  0  0
   14.7905   -7.9341   13.2896 C   0  0  0  0  0  0  0  0  0  0  0  0
   13.7369   -8.1544   14.0617 N   0  0  0  0  0  0  0  0  0  0  0  0
   14.6975   -5.4629   13.3765 N   0  0  0  0  0  0  0  0  0  0  0  0
   15.4521   -4.4889   12.8215 C   0  0  0  0  0  0  0  0  0  0  0  0
   16.4551   -5.0561   12.0755 N   0  0  0  0  0  0  0  0  0  0  0  0
  2  1  1  1  0  0  0
  2  3  1  0  0  0  0
  2  5  1  0  0  0  0
  3  4  1  0  0  0  0
  3 17  1  0  0  0  0
  5  6  1  0  0  0  0
  7  6  1  6  0  0  0
  7  8  1  0  0  0  0
  7  9  1  0  0  0  0
 10  9  1  6  0  0  0
 10 11  1  0  0  0  0
 10 12  1  0  0  0  0
 11 16  1  0  0  0  0
 12 13  1  6  0  0  0
 12 14  1  0  0  0  0
 14 15  1  6  0  0  0
 14 16  1  0  0  0  0
 16 27  1  6  0  0  0
 18 19  2  0  0  0  0
 18 23  1  0  0  0  0
 19 20  1  0  0  0  0
 20 21  2  0  0  0  0
 21 22  1  0  0  0  0
 21 27  1  0  0  0  0
 22 23  2  0  0  0  0
 22 25  1  0  0  0  0
 23 24  1  0  0  0  0
 25 26  2  0  0  0  0
 26 27  1  0  0  0  0
M  END
>  <CHROM.1>
-25.31816561,55.63869378,171.57655131,53.63213590,-80.01454415,-55.47505591
137.30830208,16.00459291,-5.64446392,9.74851259,1.36237936,-1.36488759,-1.53721920

>  <Name>
ligand

>  <RI>
0

>  <Rbt.Current_Directory>
/home/itssahil/PROJECTS/Mol_Feturizer/Test_systems_manuscript/rnas/2ydh

>  <Rbt.Executable>
rbdock ($Id: //depot/dev/client3/rdock/2013.1/src/exe/rbdock.cxx#4 $)

>  <Rbt.Library>
libRbt.so (2013.1, Build901 2013/11/27)

>  <Rbt.Parameter_File>
/export/apps/rDock/src/rDock_2013.1_src/data/scripts/dock_solv.prm

>  <Rbt.Receptor>
prm/pocket_docking_7.prm

>  <SCORE>
-12.3993

>  <SCORE.INTER>
-11.3641

>  <SCORE.INTER.CONST>
1

>  <SCORE.INTER.POLAR>
0

>  <SCORE.INTER.ROT>
7

>  <SCORE.INTER.SOLV>
8.77105

>  <SCORE.INTER.VDW>
-18.7664

>  <SCORE.INTER.norm>
-0.420893

>  <SCORE.INTRA>
-1.03522

>  <SCORE.INTRA.DIHEDRAL>
-5.85165

>  <SCORE.INTRA.DIHEDRAL.0>
9.75037

>  <SCORE.INTRA.POLAR>
0

>  <SCORE.INTRA.POLAR.0>
0

>  <SCORE.INTRA.REPUL>
0

>  <SCORE.INTRA.REPUL.0>
0

>  <SCORE.INTRA.SOLV>
-0.088692

>  <SCORE.INTRA.SOLV.lig_0>
-48.4279

>  <SCORE.INTRA.VDW>
1.93495

>  <SCORE.INTRA.VDW.0>
-4.69037

>  <SCORE.INTRA.norm>
-0.0383413

>  <SCORE.RESTR>
0

>  <SCORE.RESTR.CAVITY>
0

>  <SCORE.RESTR.norm>
0

>  <SCORE.SYSTEM>
0

>  <SCORE.SYSTEM.CONST>
0

>  <SCORE.SYSTEM.DIHEDRAL>
0

>  <SCORE.SYSTEM.SOLV>
0

>  <SCORE.SYSTEM.norm>
0

>  <SCORE.heavy>
27

>  <SCORE.norm>
-0.459234

>  <RMSD>
6.412

$$$$
ligand
 OpenBabel02271912153D
libRbt.so/2013.1/901 2013/11/27
 27 29  0  0  0  0  0  0  0  0999 V2000
   14.5219   -6.0565    6.0504 N   0  0  0  0  0  0  0  0  0  0  0  0
   15.3456   -7.2625    5.7283 C   0  0  2  0  0  0  0  0  0  0  0  0
   14.5376   -8.5614    5.9448 C   0  0  0  0  0  0  0  0  0  0  0  0
   14.6490   -9.5181    5.1722 O   0  0  0  0  0  0  0  0  0  0  0  0
   16.6253   -7.2388    6.5574 C   0  0  0  0  0  0  0  0  0  0  0  0
   17.5307   -6.0492    6.2849 C   0  0  0  0  0  0  0  0  0  0  0  0
   19.0793   -6.0932    7.2321 S   0  0  2  0  0  0  0  0  0  0  0  0
   19.7108   -7.7313    6.7701 C   0  0  0  0  0  0  0  0  0  0  0  0
   18.6188   -6.3367    8.9550 C   0  0  0  0  0  0  0  0  0  0  0  0
   18.0936   -5.0290    9.5159 C   0  0  1  0  0  0  0  0  0  0  0  0
   16.7199   -4.8242    9.2241 O   0  0  0  0  0  0  0  0  0  0  0  0
   18.2406   -4.9735   11.0170 C   0  0  1  0  0  0  0  0  0  0  0  0
   19.5157   -4.5291   11.3820 O   0  0  0  0  0  0  0  0  0  0  0  0
   17.1760   -3.9823   11.3766 C   0  0  1  0  0  0  0  0  0  0  0  0
   17.7134   -2.6756   11.3001 O   0  0  0  0  0  0  0  0  0  0  0  0
   16.1024   -4.1801   10.3144 C   0  0  2  0  0  0  0  0  0  0  0  0
   13.7428   -8.7006    6.8926 O   0  0  0  0  0  0  0  0  0  0  0  0
   14.0907   -8.9828   11.1778 N   0  0  0  0  0  0  0  0  0  0  0  0
   15.3276   -8.6628   10.6372 C   0  0  0  0  0  0  0  0  0  0  0  0
   15.7074   -7.3378   10.4599 N   0  0  0  0  0  0  0  0  0  0  0  0
   14.8679   -6.3561   10.8366 C   0  0  0  0  0  0  0  0  0  0  0  0
   13.6253   -6.6660   11.3964 C   0  0  0  0  0  0  0  0  0  0  0  0
   13.2256   -7.9797   11.5590 C   0  0  0  0  0  0  0  0  0  0  0  0
   12.0425   -8.2683   12.0799 N   0  0  0  0  0  0  0  0  0  0  0  0
   13.0039   -5.5186   11.6903 N   0  0  0  0  0  0  0  0  0  0  0  0
   13.8146   -4.4968   11.3372 C   0  0  0  0  0  0  0  0  0  0  0  0
   14.9787   -4.9975   10.8095 N   0  0  0  0  0  0  0  0  0  0  0  0
  2  1  1  1  0  0  0
  2  3  1  0  0  0  0
  2  5  1  0  0  0  0
  3  4  1  0  0  0  0
  3 17  1  0  0  0  0
  5  6  1  0  0  0  0
  7  6  1  6  0  0  0
  7  8  1  0  0  0  0
  7  9  1  0  0  0  0
 10  9  1  1  0  0  0
 10 11  1  0  0  0  0
 10 12  1  0  0  0  0
 11 16  1  0  0  0  0
 12 13  1  6  0  0  0
 12 14  1  0  0  0  0
 14 15  1  6  0  0  0
 14 16  1  0  0  0  0
 16 27  1  1  0  0  0
 18 19  2  0  0  0  0
 18 23  1  0  0  0  0
 19 20  1  0  0  0  0
 20 21  2  0  0  0  0
 21 22  1  0  0  0  0
 21 27  1  0  0  0  0
 22 23  2  0  0  0  0
 22 25  1  0  0  0  0
 23 24  1  0  0  0  0
 25 26  2  0  0  0  0
 26 27  1  0  0  0  0
M  END
>  <CHROM.1>
141.28677268,-62.03346939,-177.32818945,54.27195222,-76.21856990,83.83870226
33.33977776,16.08429767,-6.38241091,9.17217445,1.19370990,-0.48989463,-2.07787139

>  <Name>
ligand

>  <RI>
0

>  <Rbt.Current_Directory>
/home/itssahil/PROJECTS/Mol_Feturizer/Test_systems_manuscript/rnas/2ydh

>  <Rbt.Executable>
rbdock ($Id: //depot/dev/client3/rdock/2013.1/src/exe/rbdock.cxx#4 $)

>  <Rbt.Library>
libRbt.so (2013.1, Build901 2013/11/27)

>  <Rbt.Parameter_File>
/export/apps/rDock/src/rDock_2013.1_src/data/scripts/dock_solv.prm

>  <Rbt.Receptor>
prm/pocket_docking_5.prm

>  <SCORE>
-8.72928

>  <SCORE.INTER>
-7.54689

>  <SCORE.INTER.CONST>
1

>  <SCORE.INTER.POLAR>
0

>  <SCORE.INTER.ROT>
7

>  <SCORE.INTER.SOLV>
11.095

>  <SCORE.INTER.VDW>
-16.9963

>  <SCORE.INTER.norm>
-0.279515

>  <SCORE.INTRA>
-1.18238

>  <SCORE.INTRA.DIHEDRAL>
-4.63225

>  <SCORE.INTRA.DIHEDRAL.0>
9.75037

>  <SCORE.INTRA.POLAR>
0

>  <SCORE.INTRA.POLAR.0>
0

>  <SCORE.INTRA.REPUL>
0

>  <SCORE.INTRA.REPUL.0>
0

>  <SCORE.INTRA.SOLV>
-0.554437

>  <SCORE.INTRA.SOLV.lig_0>
-48.4279

>  <SCORE.INTRA.VDW>
1.41096

>  <SCORE.INTRA.VDW.0>
-4.69037

>  <SCORE.INTRA.norm>
-0.0437919

>  <SCORE.RESTR>
0

>  <SCORE.RESTR.CAVITY>
0

>  <SCORE.RESTR.norm>
0

>  <SCORE.SYSTEM>
0

>  <SCORE.SYSTEM.CONST>
0

>  <SCORE.SYSTEM.DIHEDRAL>
0

>  <SCORE.SYSTEM.SOLV>
0

>  <SCORE.SYSTEM.norm>
0

>  <SCORE.heavy>
27

>  <SCORE.norm>
-0.323306

>  <RMSD>
6.439

$$$$
ligand
 OpenBabel02271912153D
libRbt.so/2013.1/901 2013/11/27
 27 29  0  0  0  0  0  0  0  0999 V2000
   14.9532   -8.1666    7.5537 N   0  0  0  0  0  0  0  0  0  0  0  0
   14.0236   -7.7501    6.4587 C   0  0  2  0  0  0  0  0  0  0  0  0
   14.7814   -7.5707    5.1245 C   0  0  0  0  0  0  0  0  0  0  0  0
   15.9841   -7.2917    5.1065 O   0  0  0  0  0  0  0  0  0  0  0  0
   13.2867   -6.4812    6.8743 C   0  0  0  0  0  0  0  0  0  0  0  0
   14.1797   -5.3920    7.4445 C   0  0  0  0  0  0  0  0  0  0  0  0
   13.2693   -3.8983    7.9315 S   0  0  2  0  0  0  0  0  0  0  0  0
   12.7082   -3.3021    6.3113 C   0  0  0  0  0  0  0  0  0  0  0  0
   14.5052   -2.6691    8.3804 C   0  0  0  0  0  0  0  0  0  0  0  0
   15.1062   -3.0397    9.7228 C   0  0  1  0  0  0  0  0  0  0  0  0
   14.1247   -3.4395   10.6668 O   0  0  0  0  0  0  0  0  0  0  0  0
   16.0864   -4.1800    9.5930 C   0  0  1  0  0  0  0  0  0  0  0  0
   17.3570   -3.7141    9.2394 O   0  0  0  0  0  0  0  0  0  0  0  0
   16.0611   -4.7442   10.9808 C   0  0  1  0  0  0  0  0  0  0  0  0
   17.0051   -4.0558   11.7791 O   0  0  0  0  0  0  0  0  0  0  0  0
   14.6460   -4.4703   11.4735 C   0  0  2  0  0  0  0  0  0  0  0  0
   14.2213   -7.6919    4.0195 O   0  0  0  0  0  0  0  0  0  0  0  0
   14.2866   -9.6919   10.7918 N   0  0  0  0  0  0  0  0  0  0  0  0
   15.4349   -8.9137   10.8154 C   0  0  0  0  0  0  0  0  0  0  0  0
   15.3603   -7.5373   10.9925 N   0  0  0  0  0  0  0  0  0  0  0  0
   14.1572   -6.9593   11.1615 C   0  0  0  0  0  0  0  0  0  0  0  0
   12.9943   -7.7348   11.1548 C   0  0  0  0  0  0  0  0  0  0  0  0
   13.0519   -9.1023   10.9584 C   0  0  0  0  0  0  0  0  0  0  0  0
   11.9462   -9.8315   10.9420 N   0  0  0  0  0  0  0  0  0  0  0  0
   11.9513   -6.9219   11.3555 N   0  0  0  0  0  0  0  0  0  0  0  0
   12.4184   -5.6611   11.4913 C   0  0  0  0  0  0  0  0  0  0  0  0
   13.7865   -5.6654   11.3785 N   0  0  0  0  0  0  0  0  0  0  0  0
  2  1  1  1  0  0  0
  2  3  1  0  0  0  0
  2  5  1  0  0  0  0
  3  4  1  0  0  0  0
  3 17  1  0  0  0  0
  5  6  1  0  0  0  0
  7  6  1  6  0  0  0
  7  8  1  0  0  0  0
  7  9  1  0  0  0  0
 10  9  1  6  0  0  0
 10 11  1  0  0  0  0
 10 12  1  0  0  0  0
 11 16  1  0  0  0  0
 12 13  1  1  0  0  0
 12 14  1  0  0  0  0
 14 15  1  1  0  0  0
 14 16  1  0  0  0  0
 16 27  1  6  0  0  0
 18 19  2  0  0  0  0
 18 23  1  0  0  0  0
 19 20  1  0  0  0  0
 20 21  2  0  0  0  0
 21 22  1  0  0  0  0
 21 27  1  0  0  0  0
 22 23  2  0  0  0  0
 22 25  1  0  0  0  0
 23 24  1  0  0  0  0
 25 26  2  0  0  0  0
 26 27  1  0  0  0  0
M  END
>  <CHROM.1>
-26.05285199,47.63124582,-179.88013091,-66.85803887,-73.66060586,-44.16483858
131.92508369,14.34570737,-5.97906215,9.11991443,1.54395986,-1.31571301,-1.63308215

>  <Name>
ligand

>  <RI>
0

>  <Rbt.Current_Directory>
/home/itssahil/PROJECTS/Mol_Feturizer/Test_systems_manuscript/rnas/2ydh

>  <Rbt.Executable>
rbdock ($Id: //depot/dev/client3/rdock/2013.1/src/exe/rbdock.cxx#4 $)

>  <Rbt.Library>
libRbt.so (2013.1, Build901 2013/11/27)

>  <Rbt.Parameter_File>
/export/apps/rDock/src/rDock_2013.1_src/data/scripts/dock_solv.prm

>  <Rbt.Receptor>
prm/pocket_docking_2.prm

>  <SCORE>
-8.25996

>  <SCORE.INTER>
-8.82583

>  <SCORE.INTER.CONST>
1

>  <SCORE.INTER.POLAR>
0

>  <SCORE.INTER.ROT>
7

>  <SCORE.INTER.SOLV>
13.7939

>  <SCORE.INTER.VDW>
-18.7485

>  <SCORE.INTER.norm>
-0.326883

>  <SCORE.INTRA>
-1.15123

>  <SCORE.INTRA.DIHEDRAL>
-5.161

>  <SCORE.INTRA.DIHEDRAL.0>
9.75037

>  <SCORE.INTRA.POLAR>
0

>  <SCORE.INTRA.POLAR.0>
0

>  <SCORE.INTRA.REPUL>
0

>  <SCORE.INTRA.REPUL.0>
0

>  <SCORE.INTRA.SOLV>
0.482414

>  <SCORE.INTRA.SOLV.lig_0>
-48.4279

>  <SCORE.INTRA.VDW>
1.18807

>  <SCORE.INTRA.VDW.0>
-4.69037

>  <SCORE.INTRA.norm>
-0.042638

>  <SCORE.RESTR>
1.71709

>  <SCORE.RESTR.CAVITY>
1.71709

>  <SCORE.RESTR.norm>
0.0635961

>  <SCORE.SYSTEM>
0

>  <SCORE.SYSTEM.CONST>
0

>  <SCORE.SYSTEM.DIHEDRAL>
0

>  <SCORE.SYSTEM.SOLV>
0

>  <SCORE.SYSTEM.norm>
0

>  <SCORE.heavy>
27

>  <SCORE.norm>
-0.305924

>  <RMSD>
6.444

$$$$
ligand
 OpenBabel02271912153D
libRbt.so/2013.1/901 2013/11/27
 27 29  0  0  0  0  0  0  0  0999 V2000
   18.7651   -6.1567    8.2577 N   0  0  0  0  0  0  0  0  0  0  0  0
   17.7579   -6.1839    7.1525 C   0  0  2  0  0  0  0  0  0  0  0  0
   18.0397   -7.3443    6.1722 C   0  0  0  0  0  0  0  0  0  0  0  0
   19.1291   -7.9254    6.1680 O   0  0  0  0  0  0  0  0  0  0  0  0
   17.7402   -4.8310    6.4490 C   0  0  0  0  0  0  0  0  0  0  0  0
   17.1322   -3.7036    7.2666 C   0  0  0  0  0  0  0  0  0  0  0  0
   15.3235   -3.6143    7.1335 S   0  0  2  0  0  0  0  0  0  0  0  0
   14.9964   -2.0636    8.0190 C   0  0  0  0  0  0  0  0  0  0  0  0
   14.6652   -4.8455    8.2696 C   0  0  0  0  0  0  0  0  0  0  0  0
   14.8120   -6.2209    7.6473 C   0  0  1  0  0  0  0  0  0  0  0  0
   15.1778   -7.2112    8.5958 O   0  0  0  0  0  0  0  0  0  0  0  0
   13.5243   -6.6767    7.0054 C   0  0  1  0  0  0  0  0  0  0  0  0
   13.4096   -6.1836    5.7014 O   0  0  0  0  0  0  0  0  0  0  0  0
   13.6984   -8.1647    7.0299 C   0  0  1  0  0  0  0  0  0  0  0  0
   14.3937   -8.5700    5.8660 O   0  0  0  0  0  0  0  0  0  0  0  0
   14.5410   -8.4254    8.2718 C   0  0  2  0  0  0  0  0  0  0  0  0
   17.1948   -7.7390    5.3477 O   0  0  0  0  0  0  0  0  0  0  0  0
   14.3605  -10.2331   13.2275 N   0  0  0  0  0  0  0  0  0  0  0  0
   15.4828   -9.8961   12.4848 C   0  0  0  0  0  0  0  0  0  0  0  0
   15.3629   -9.4443   11.1760 N   0  0  0  0  0  0  0  0  0  0  0  0
   14.1385   -9.3161   10.6333 C   0  0  0  0  0  0  0  0  0  0  0  0
   12.9994   -9.6379   11.3767 C   0  0  0  0  0  0  0  0  0  0  0  0
   13.1049  -10.1088   12.6725 C   0  0  0  0  0  0  0  0  0  0  0  0
   12.0231  -10.4229   13.3693 N   0  0  0  0  0  0  0  0  0  0  0  0
   11.9258   -9.4085   10.6127 N   0  0  0  0  0  0  0  0  0  0  0  0
   12.3502   -8.9503    9.4144 C   0  0  0  0  0  0  0  0  0  0  0  0
   13.7212   -8.8816    9.4102 N   0  0  0  0  0  0  0  0  0  0  0  0
  2  1  1  1  0  0  0
  2  3  1  0  0  0  0
  2  5  1  0  0  0  0
  3  4  1  0  0  0  0
  3 17  1  0  0  0  0
  5  6  1  0  0  0  0
  7  6  1  1  0  0  0
  7  8  1  0  0  0  0
  7  9  1  0  0  0  0
 10  9  1  1  0  0  0
 10 11  1  0  0  0  0
 10 12  1  0  0  0  0
 11 16  1  0  0  0  0
 12 13  1  6  0  0  0
 12 14  1  0  0  0  0
 14 15  1  6  0  0  0
 14 16  1  0  0  0  0
 16 27  1  1  0  0  0
 18 19  2  0  0  0  0
 18 23  1  0  0  0  0
 19 20  1  0  0  0  0
 20 21  2  0  0  0  0
 21 22  1  0  0  0  0
 21 27  1  0  0  0  0
 22 23  2  0  0  0  0
 22 25  1  0  0  0  0
 23 24  1  0  0  0  0
 25 26  2  0  0  0  0
 26 27  1  0  0  0  0
M  END
>  <CHROM.1>
-15.74128357,-70.98806033,-84.84757792,-172.52596922,-77.01509608,141.13562519
-67.56921843,15.08633774,-7.24616322,8.52135325,-1.07870338,-0.45789628,2.55185746

>  <Name>
ligand

>  <RI>
0

>  <Rbt.Current_Directory>
/home/itssahil/PROJECTS/Mol_Feturizer/Test_systems_manuscript/rnas/2ydh

>  <Rbt.Executable>
rbdock ($Id: //depot/dev/client3/rdock/2013.1/src/exe/rbdock.cxx#4 $)

>  <Rbt.Library>
libRbt.so (2013.1, Build901 2013/11/27)

>  <Rbt.Parameter_File>
/export/apps/rDock/src/rDock_2013.1_src/data/scripts/dock_solv.prm

>  <Rbt.Receptor>
prm/pocket_docking_6.prm

>  <SCORE>
-12.1507

>  <SCORE.INTER>
-13.5705

>  <SCORE.INTER.CONST>
1

>  <SCORE.INTER.POLAR>
0

>  <SCORE.INTER.ROT>
7

>  <SCORE.INTER.SOLV>
9.22267

>  <SCORE.INTER.VDW>
-20.3879

>  <SCORE.INTER.norm>
-0.50261

>  <SCORE.INTRA>
1.41975

>  <SCORE.INTRA.DIHEDRAL>
0.471547

>  <SCORE.INTRA.DIHEDRAL.0>
9.75037

>  <SCORE.INTRA.POLAR>
0

>  <SCORE.INTRA.POLAR.0>
0

>  <SCORE.INTRA.REPUL>
0

>  <SCORE.INTRA.REPUL.0>
0

>  <SCORE.INTRA.SOLV>
0.913391

>  <SCORE.INTRA.SOLV.lig_0>
-48.4279

>  <SCORE.INTRA.VDW>
0.727281

>  <SCORE.INTRA.VDW.0>
-4.69037

>  <SCORE.INTRA.norm>
0.0525833

>  <SCORE.RESTR>
0

>  <SCORE.RESTR.CAVITY>
0

>  <SCORE.RESTR.norm>
0

>  <SCORE.SYSTEM>
0

>  <SCORE.SYSTEM.CONST>
0

>  <SCORE.SYSTEM.DIHEDRAL>
0

>  <SCORE.SYSTEM.SOLV>
0

>  <SCORE.SYSTEM.norm>
0

>  <SCORE.heavy>
27

>  <SCORE.norm>
-0.450026

>  <RMSD>
6.445

$$$$
ligand
 OpenBabel02271912153D
libRbt.so/2013.1/901 2013/11/27
 27 29  0  0  0  0  0  0  0  0999 V2000
   12.8884   -7.7027    4.0589 N   0  0  0  0  0  0  0  0  0  0  0  0
   13.9817   -6.9372    4.7337 C   0  0  2  0  0  0  0  0  0  0  0  0
   15.1641   -7.8619    5.0989 C   0  0  0  0  0  0  0  0  0  0  0  0
   16.1031   -7.4541    5.7894 O   0  0  0  0  0  0  0  0  0  0  0  0
   13.4183   -6.2181    5.9549 C   0  0  0  0  0  0  0  0  0  0  0  0
   14.3167   -5.1277    6.5142 C   0  0  0  0  0  0  0  0  0  0  0  0
   13.5479   -4.1844    7.8618 S   0  0  2  0  0  0  0  0  0  0  0  0
   12.1625   -3.4079    6.9823 C   0  0  0  0  0  0  0  0  0  0  0  0
   14.6268   -2.7802    8.1843 C   0  0  0  0  0  0  0  0  0  0  0  0
   15.3255   -2.9888    9.5143 C   0  0  1  0  0  0  0  0  0  0  0  0
   14.4210   -3.3092   10.5599 O   0  0  0  0  0  0  0  0  0  0  0  0
   16.3315   -4.1114    9.4393 C   0  0  1  0  0  0  0  0  0  0  0  0
   17.5607   -3.6544    8.9526 O   0  0  0  0  0  0  0  0  0  0  0  0
   16.4148   -4.5232   10.8775 C   0  0  1  0  0  0  0  0  0  0  0  0
   17.3860   -3.7293   11.5323 O   0  0  0  0  0  0  0  0  0  0  0  0
   15.0267   -4.2336   11.4337 C   0  0  2  0  0  0  0  0  0  0  0  0
   15.2278   -9.0441    4.7148 O   0  0  0  0  0  0  0  0  0  0  0  0
   13.2932   -8.6554    9.1313 N   0  0  0  0  0  0  0  0  0  0  0  0
   14.1604   -7.7072    8.6083 C   0  0  0  0  0  0  0  0  0  0  0  0
   14.5119   -6.5804    9.3419 N   0  0  0  0  0  0  0  0  0  0  0  0
   14.0163   -6.4214   10.5826 C   0  0  0  0  0  0  0  0  0  0  0  0
   13.1536   -7.3775   11.1261 C   0  0  0  0  0  0  0  0  0  0  0  0
   12.7787   -8.4926   10.3996 C   0  0  0  0  0  0  0  0  0  0  0  0
   11.9522   -9.3904   10.9149 N   0  0  0  0  0  0  0  0  0  0  0  0
   12.8248   -6.9860   12.3621 N   0  0  0  0  0  0  0  0  0  0  0  0
   13.4536   -5.8171   12.6162 C   0  0  0  0  0  0  0  0  0  0  0  0
   14.2019   -5.4533   11.5244 N   0  0  0  0  0  0  0  0  0  0  0  0
  2  1  1  1  0  0  0
  2  3  1  0  0  0  0
  2  5  1  0  0  0  0
  3  4  1  0  0  0  0
  3 17  1  0  0  0  0
  5  6  1  0  0  0  0
  7  6  1  6  0  0  0
  7  8  1  0  0  0  0
  7  9  1  0  0  0  0
 10  9  1  6  0  0  0
 10 11  1  0  0  0  0
 10 12  1  0  0  0  0
 11 16  1  0  0  0  0
 12 13  1  1  0  0  0
 12 14  1  0  0  0  0
 14 15  1  1  0  0  0
 14 16  1  0  0  0  0
 16 27  1  6  0  0  0
 18 19  2  0  0  0  0
 18 23  1  0  0  0  0
 19 20  1  0  0  0  0
 20 21  2  0  0  0  0
 21 22  1  0  0  0  0
 21 27  1  0  0  0  0
 22 23  2  0  0  0  0
 22 25  1  0  0  0  0
 23 24  1  0  0  0  0
 25 26  2  0  0  0  0
 26 27  1  0  0  0  0
M  END
>  <CHROM.1>
-172.12652429,-164.68849137,174.31866034,-63.96569878,-108.76597559,-50.85630856
71.62922702,14.38525962,-5.80725455,8.74859911,1.85261588,-1.09055035,-1.77761397

>  <Name>
ligand

>  <RI>
0

>  <Rbt.Current_Directory>
/home/itssahil/PROJECTS/Mol_Feturizer/Test_systems_manuscript/rnas/2ydh

>  <Rbt.Executable>
rbdock ($Id: //depot/dev/client3/rdock/2013.1/src/exe/rbdock.cxx#4 $)

>  <Rbt.Library>
libRbt.so (2013.1, Build901 2013/11/27)

>  <Rbt.Parameter_File>
/export/apps/rDock/src/rDock_2013.1_src/data/scripts/dock_solv.prm

>  <Rbt.Receptor>
prm/pocket_docking_2.prm

>  <SCORE>
-5.98999

>  <SCORE.INTER>
-6.06946

>  <SCORE.INTER.CONST>
1

>  <SCORE.INTER.POLAR>
0

>  <SCORE.INTER.ROT>
7

>  <SCORE.INTER.SOLV>
19.5393

>  <SCORE.INTER.VDW>
-18.8261

>  <SCORE.INTER.norm>
-0.224795

>  <SCORE.INTRA>
-1.3184

>  <SCORE.INTRA.DIHEDRAL>
-1.9811

>  <SCORE.INTRA.DIHEDRAL.0>
9.75037

>  <SCORE.INTRA.POLAR>
0

>  <SCORE.INTRA.POLAR.0>
0

>  <SCORE.INTRA.REPUL>
0

>  <SCORE.INTRA.REPUL.0>
0

>  <SCORE.INTRA.SOLV>
-1.20606

>  <SCORE.INTRA.SOLV.lig_0>
-48.4279

>  <SCORE.INTRA.VDW>
0.275181

>  <SCORE.INTRA.VDW.0>
-4.69037

>  <SCORE.INTRA.norm>
-0.0488297

>  <SCORE.RESTR>
1.39787

>  <SCORE.RESTR.CAVITY>
1.39787

>  <SCORE.RESTR.norm>
0.0517728

>  <SCORE.SYSTEM>
0

>  <SCORE.SYSTEM.CONST>
0

>  <SCORE.SYSTEM.DIHEDRAL>
0

>  <SCORE.SYSTEM.SOLV>
0

>  <SCORE.SYSTEM.norm>
0

>  <SCORE.heavy>
27

>  <SCORE.norm>
-0.221852

>  <RMSD>
6.448

$$$$
ligand
 OpenBabel02271912153D
libRbt.so/2013.1/901 2013/11/27
 27 29  0  0  0  0  0  0  0  0999 V2000
   13.5441   -7.3568    6.4591 N   0  0  0  0  0  0  0  0  0  0  0  0
   14.7777   -7.1591    5.6370 C   0  0  2  0  0  0  0  0  0  0  0  0
   15.3397   -8.5110    5.1439 C   0  0  0  0  0  0  0  0  0  0  0  0
   16.5035   -8.6099    4.7434 O   0  0  0  0  0  0  0  0  0  0  0  0
   15.8044   -6.3719    6.4443 C   0  0  0  0  0  0  0  0  0  0  0  0
   15.5532   -4.8740    6.4936 C   0  0  0  0  0  0  0  0  0  0  0  0
   14.0227   -4.4305    7.3643 S   0  0  2  0  0  0  0  0  0  0  0  0
   12.9250   -4.0828    5.9608 C   0  0  0  0  0  0  0  0  0  0  0  0
   14.2845   -2.7896    8.0563 C   0  0  0  0  0  0  0  0  0  0  0  0
   14.9224   -2.9266    9.4256 C   0  0  1  0  0  0  0  0  0  0  0  0
   13.9986   -3.3496   10.4165 O   0  0  0  0  0  0  0  0  0  0  0  0
   16.0485   -3.9314    9.4120 C   0  0  1  0  0  0  0  0  0  0  0  0
   17.2465   -3.3397    8.9980 O   0  0  0  0  0  0  0  0  0  0  0  0
   16.0918   -4.3386   10.8533 C   0  0  1  0  0  0  0  0  0  0  0  0
   16.9295   -3.4459   11.5630 O   0  0  0  0  0  0  0  0  0  0  0  0
   14.6498   -4.2060   11.3261 C   0  0  2  0  0  0  0  0  0  0  0  0
   14.6533   -9.5491    5.1224 O   0  0  0  0  0  0  0  0  0  0  0  0
   14.7663   -9.3775   10.2767 N   0  0  0  0  0  0  0  0  0  0  0  0
   15.7599   -8.4386   10.0405 C   0  0  0  0  0  0  0  0  0  0  0  0
   15.5685   -7.1006   10.3638 N   0  0  0  0  0  0  0  0  0  0  0  0
   14.4092   -6.7194   10.9305 C   0  0  0  0  0  0  0  0  0  0  0  0
   13.4065   -7.6588   11.1873 C   0  0  0  0  0  0  0  0  0  0  0  0
   13.5751   -8.9895   10.8514 C   0  0  0  0  0  0  0  0  0  0  0  0
   12.6176   -9.8740   11.0867 N   0  0  0  0  0  0  0  0  0  0  0  0
   12.3784   -7.0234   11.7603 N   0  0  0  0  0  0  0  0  0  0  0  0
   12.7011   -5.7162   11.8756 C   0  0  0  0  0  0  0  0  0  0  0  0
   13.9604   -5.5094   11.3700 N   0  0  0  0  0  0  0  0  0  0  0  0
  2  1  1  1  0  0  0
  2  3  1  0  0  0  0
  2  5  1  0  0  0  0
  3  4  1  0  0  0  0
  3 17  1  0  0  0  0
  5  6  1  0  0  0  0
  7  6  1  6  0  0  0
  7  8  1  0  0  0  0
  7  9  1  0  0  0  0
 10  9  1  6  0  0  0
 10 11  1  0  0  0  0
 10 12  1  0  0  0  0
 11 16  1  0  0  0  0
 12 13  1  1  0  0  0
 12 14  1  0  0  0  0
 14 15  1  1  0  0  0
 14 16  1  0  0  0  0
 16 27  1  6  0  0  0
 18 19  2  0  0  0  0
 18 23  1  0  0  0  0
 19 20  1  0  0  0  0
 20 21  2  0  0  0  0
 21 22  1  0  0  0  0
 21 27  1  0  0  0  0
 22 23  2  0  0  0  0
 22 25  1  0  0  0  0
 23 24  1  0  0  0  0
 25 26  2  0  0  0  0
 26 27  1  0  0  0  0
M  END
>  <CHROM.1>
-161.88051222,-79.13515236,65.12047926,-102.16849833,-87.70077161,-75.20774780
111.67742686,14.68510019,-6.01301409,8.86563644,1.44353460,-1.30275068,-2.27974575

>  <Name>
ligand

>  <RI>
0

>  <Rbt.Current_Directory>
/home/itssahil/PROJECTS/Mol_Feturizer/Test_systems_manuscript/rnas/2ydh

>  <Rbt.Executable>
rbdock ($Id: //depot/dev/client3/rdock/2013.1/src/exe/rbdock.cxx#4 $)

>  <Rbt.Library>
libRbt.so (2013.1, Build901 2013/11/27)

>  <Rbt.Parameter_File>
/export/apps/rDock/src/rDock_2013.1_src/data/scripts/dock_solv.prm

>  <Rbt.Receptor>
prm/pocket_docking_3.prm

>  <SCORE>
-7.70442

>  <SCORE.INTER>
-10.1933

>  <SCORE.INTER.CONST>
1

>  <SCORE.INTER.POLAR>
0

>  <SCORE.INTER.ROT>
7

>  <SCORE.INTER.SOLV>
12.766

>  <SCORE.INTER.VDW>
-19.3175

>  <SCORE.INTER.norm>
-0.377529

>  <SCORE.INTRA>
2.48886

>  <SCORE.INTRA.DIHEDRAL>
-0.491423

>  <SCORE.INTRA.DIHEDRAL.0>
9.75037

>  <SCORE.INTRA.POLAR>
0

>  <SCORE.INTRA.POLAR.0>
0

>  <SCORE.INTRA.REPUL>
0

>  <SCORE.INTRA.REPUL.0>
0

>  <SCORE.INTRA.SOLV>
1.65396

>  <SCORE.INTRA.SOLV.lig_0>
-48.4279

>  <SCORE.INTRA.VDW>
1.90759

>  <SCORE.INTRA.VDW.0>
-4.69037

>  <SCORE.INTRA.norm>
0.0921801

>  <SCORE.RESTR>
0

>  <SCORE.RESTR.CAVITY>
0

>  <SCORE.RESTR.norm>
0

>  <SCORE.SYSTEM>
0

>  <SCORE.SYSTEM.CONST>
0

>  <SCORE.SYSTEM.DIHEDRAL>
0

>  <SCORE.SYSTEM.SOLV>
0

>  <SCORE.SYSTEM.norm>
0

>  <SCORE.heavy>
27

>  <SCORE.norm>
-0.285349

>  <RMSD>
6.451

$$$$
ligand
 OpenBabel02271912153D
libRbt.so/2013.1/901 2013/11/27
 27 29  0  0  0  0  0  0  0  0999 V2000
   15.7164   -9.1959    4.4107 N   0  0  0  0  0  0  0  0  0  0  0  0
   14.4378   -8.4204    4.4264 C   0  0  2  0  0  0  0  0  0  0  0  0
   14.0539   -7.9526    3.0050 C   0  0  0  0  0  0  0  0  0  0  0  0
   14.4361   -8.5690    2.0057 O   0  0  0  0  0  0  0  0  0  0  0  0
   14.5648   -7.2528    5.3991 C   0  0  0  0  0  0  0  0  0  0  0  0
   14.7855   -7.6595    6.8465 C   0  0  0  0  0  0  0  0  0  0  0  0
   15.5060   -6.3381    7.8622 S   0  0  2  0  0  0  0  0  0  0  0  0
   15.5116   -7.1325    9.4946 C   0  0  0  0  0  0  0  0  0  0  0  0
   14.2277   -5.0856    8.0547 C   0  0  0  0  0  0  0  0  0  0  0  0
   14.8412   -3.8442    8.6738 C   0  0  1  0  0  0  0  0  0  0  0  0
   15.5309   -4.1229    9.8825 O   0  0  0  0  0  0  0  0  0  0  0  0
   15.8310   -3.1926    7.7392 C   0  0  1  0  0  0  0  0  0  0  0  0
   15.1868   -2.3335    6.8427 O   0  0  0  0  0  0  0  0  0  0  0  0
   16.6976   -2.4469    8.7077 C   0  0  1  0  0  0  0  0  0  0  0  0
   16.1297   -1.1745    8.9542 O   0  0  0  0  0  0  0  0  0  0  0  0
   16.6690   -3.2971    9.9713 C   0  0  2  0  0  0  0  0  0  0  0  0
   13.3550   -6.9427    2.8027 O   0  0  0  0  0  0  0  0  0  0  0  0
   20.1357   -6.5750    7.7138 N   0  0  0  0  0  0  0  0  0  0  0  0
   19.0329   -5.9687    7.1298 C   0  0  0  0  0  0  0  0  0  0  0  0
   18.2021   -5.1353    7.8692 N   0  0  0  0  0  0  0  0  0  0  0  0
   18.4865   -4.9020    9.1634 C   0  0  0  0  0  0  0  0  0  0  0  0
   19.6033   -5.4950    9.7589 C   0  0  0  0  0  0  0  0  0  0  0  0
   20.4264   -6.3431    9.0410 C   0  0  0  0  0  0  0  0  0  0  0  0
   21.4775   -6.9114    9.6127 N   0  0  0  0  0  0  0  0  0  0  0  0
   19.6604   -5.0892   11.0321 N   0  0  0  0  0  0  0  0  0  0  0  0
   18.6188   -4.2583   11.2576 C   0  0  0  0  0  0  0  0  0  0  0  0
   17.8814   -4.1262   10.1072 N   0  0  0  0  0  0  0  0  0  0  0  0
  2  1  1  6  0  0  0
  2  3  1  0  0  0  0
  2  5  1  0  0  0  0
  3  4  1  0  0  0  0
  3 17  1  0  0  0  0
  5  6  1  0  0  0  0
  7  6  1  6  0  0  0
  7  8  1  0  0  0  0
  7  9  1  0  0  0  0
 10  9  1  6  0  0  0
 10 11  1  0  0  0  0
 10 12  1  0  0  0  0
 11 16  1  0  0  0  0
 12 13  1  6  0  0  0
 12 14  1  0  0  0  0
 14 15  1  1  0  0  0
 14 16  1  0  0  0  0
 16 27  1  6  0  0  0
 18 19  2  0  0  0  0
 18 23  1  0  0  0  0
 19 20  1  0  0  0  0
 20 21  2  0  0  0  0
 21 22  1  0  0  0  0
 21 27  1  0  0  0  0
 22 23  2  0  0  0  0
 22 25  1  0  0  0  0
 23 24  1  0  0  0  0
 25 26  2  0  0  0  0
 26 27  1  0  0  0  0
M  END
>  <CHROM.1>
26.02272619,-62.90274209,159.53680739,176.30481349,-169.69395749,-53.79999552
71.82929571,16.56136358,-5.57250788,7.64760767,-2.21082243,-0.52236018,0.68968785

>  <Name>
ligand

>  <RI>
0

>  <Rbt.Current_Directory>
/home/itssahil/PROJECTS/Mol_Feturizer/Test_systems_manuscript/rnas/2ydh

>  <Rbt.Executable>
rbdock ($Id: //depot/dev/client3/rdock/2013.1/src/exe/rbdock.cxx#4 $)

>  <Rbt.Library>
libRbt.so (2013.1, Build901 2013/11/27)

>  <Rbt.Parameter_File>
/export/apps/rDock/src/rDock_2013.1_src/data/scripts/dock_solv.prm

>  <Rbt.Receptor>
prm/pocket_docking_8.prm

>  <SCORE>
-15.3758

>  <SCORE.INTER>
-13.8398

>  <SCORE.INTER.CONST>
1

>  <SCORE.INTER.POLAR>
0

>  <SCORE.INTER.ROT>
7

>  <SCORE.INTER.SOLV>
14.6541

>  <SCORE.INTER.VDW>
-22.3779

>  <SCORE.INTER.norm>
-0.512587

>  <SCORE.INTRA>
-1.53592

>  <SCORE.INTRA.DIHEDRAL>
-4.20096

>  <SCORE.INTRA.DIHEDRAL.0>
9.75037

>  <SCORE.INTRA.POLAR>
0

>  <SCORE.INTRA.POLAR.0>
0

>  <SCORE.INTRA.REPUL>
0

>  <SCORE.INTRA.REPUL.0>
0

>  <SCORE.INTRA.SOLV>
-0.422428

>  <SCORE.INTRA.SOLV.lig_0>
-48.4279

>  <SCORE.INTRA.VDW>
0.775779

>  <SCORE.INTRA.VDW.0>
-4.69037

>  <SCORE.INTRA.norm>
-0.0568858

>  <SCORE.RESTR>
0

>  <SCORE.RESTR.CAVITY>
0

>  <SCORE.RESTR.norm>
0

>  <SCORE.SYSTEM>
0

>  <SCORE.SYSTEM.CONST>
0

>  <SCORE.SYSTEM.DIHEDRAL>
0

>  <SCORE.SYSTEM.SOLV>
0

>  <SCORE.SYSTEM.norm>
0

>  <SCORE.heavy>
27

>  <SCORE.norm>
-0.569472

>  <RMSD>
6.460

$$$$
ligand
 OpenBabel02271912153D
libRbt.so/2013.1/901 2013/11/27
 27 29  0  0  0  0  0  0  0  0999 V2000
   16.9166   -7.4159    5.6161 N   0  0  0  0  0  0  0  0  0  0  0  0
   15.8540   -7.8485    6.5754 C   0  0  2  0  0  0  0  0  0  0  0  0
   14.7182   -8.5992    5.8452 C   0  0  0  0  0  0  0  0  0  0  0  0
   13.6912   -8.9378    6.4412 O   0  0  0  0  0  0  0  0  0  0  0  0
   15.3384   -6.6353    7.3422 C   0  0  0  0  0  0  0  0  0  0  0  0
   14.6579   -5.5865    6.4785 C   0  0  0  0  0  0  0  0  0  0  0  0
   14.0728   -4.1491    7.4211 S   0  0  2  0  0  0  0  0  0  0  0  0
   12.9253   -3.4067    6.2263 C   0  0  0  0  0  0  0  0  0  0  0  0
   15.4253   -2.9615    7.4359 C   0  0  0  0  0  0  0  0  0  0  0  0
   16.1666   -3.0728    8.7545 C   0  0  1  0  0  0  0  0  0  0  0  0
   15.3069   -2.9357    9.8753 O   0  0  0  0  0  0  0  0  0  0  0  0
   16.8587   -4.4074    8.8877 C   0  0  1  0  0  0  0  0  0  0  0  0
   18.1144   -4.3872    8.2717 O   0  0  0  0  0  0  0  0  0  0  0  0
   16.9656   -4.5317   10.3771 C   0  0  1  0  0  0  0  0  0  0  0  0
   18.1545   -3.8992   10.8116 O   0  0  0  0  0  0  0  0  0  0  0  0
   15.7441   -3.7912   10.9059 C   0  0  2  0  0  0  0  0  0  0  0  0
   14.7865   -8.8990    4.6390 O   0  0  0  0  0  0  0  0  0  0  0  0
   13.7768   -7.1890   14.4334 N   0  0  0  0  0  0  0  0  0  0  0  0
   14.9605   -6.4699   14.5129 C   0  0  0  0  0  0  0  0  0  0  0  0
   15.3486   -5.6191   13.4848 N   0  0  0  0  0  0  0  0  0  0  0  0
   14.5528   -5.4805   12.4089 C   0  0  0  0  0  0  0  0  0  0  0  0
   13.3504   -6.1881   12.3243 C   0  0  0  0  0  0  0  0  0  0  0  0
   12.9621   -7.0542   13.3298 C   0  0  0  0  0  0  0  0  0  0  0  0
   11.8269   -7.7310   13.2401 N   0  0  0  0  0  0  0  0  0  0  0  0
   12.7546   -5.8595   11.1728 N   0  0  0  0  0  0  0  0  0  0  0  0
   13.5399   -4.9665   10.5308 C   0  0  0  0  0  0  0  0  0  0  0  0
   14.6588   -4.7154   11.2854 N   0  0  0  0  0  0  0  0  0  0  0  0
  2  1  1  6  0  0  0
  2  3  1  0  0  0  0
  2  5  1  0  0  0  0
  3  4  1  0  0  0  0
  3 17  1  0  0  0  0
  5  6  1  0  0  0  0
  7  6  1  6  0  0  0
  7  8  1  0  0  0  0
  7  9  1  0  0  0  0
 10  9  1  6  0  0  0
 10 11  1  0  0  0  0
 10 12  1  0  0  0  0
 11 16  1  0  0  0  0
 12 13  1  6  0  0  0
 12 14  1  0  0  0  0
 14 15  1  1  0  0  0
 14 16  1  0  0  0  0
 16 27  1  6  0  0  0
 18 19  2  0  0  0  0
 18 23  1  0  0  0  0
 19 20  1  0  0  0  0
 20 21  2  0  0  0  0
 21 22  1  0  0  0  0
 21 27  1  0  0  0  0
 22 23  2  0  0  0  0
 22 25  1  0  0  0  0
 23 24  1  0  0  0  0
 25 26  2  0  0  0  0
 26 27  1  0  0  0  0
M  END
>  <CHROM.1>
-173.70404496,63.42477604,-179.38407556,-163.65555954,-99.07732272,-54.26653508
-163.85661237,14.93465094,-5.57226153,9.37708538,1.30578237,-1.00202320,-1.86911236

>  <Name>
ligand

>  <RI>
0

>  <Rbt.Current_Directory>
/home/itssahil/PROJECTS/Mol_Feturizer/Test_systems_manuscript/rnas/2ydh

>  <Rbt.Executable>
rbdock ($Id: //depot/dev/client3/rdock/2013.1/src/exe/rbdock.cxx#4 $)

>  <Rbt.Library>
libRbt.so (2013.1, Build901 2013/11/27)

>  <Rbt.Parameter_File>
/export/apps/rDock/src/rDock_2013.1_src/data/scripts/dock_solv.prm

>  <Rbt.Receptor>
prm/pocket_docking_5.prm

>  <SCORE>
-14.0731

>  <SCORE.INTER>
-13.7976

>  <SCORE.INTER.CONST>
1

>  <SCORE.INTER.POLAR>
0

>  <SCORE.INTER.ROT>
7

>  <SCORE.INTER.SOLV>
10.7001

>  <SCORE.INTER.VDW>
-21.0318

>  <SCORE.INTER.norm>
-0.511024

>  <SCORE.INTRA>
-0.275498

>  <SCORE.INTRA.DIHEDRAL>
-2.70975

>  <SCORE.INTRA.DIHEDRAL.0>
9.75037

>  <SCORE.INTRA.POLAR>
0

>  <SCORE.INTRA.POLAR.0>
0

>  <SCORE.INTRA.REPUL>
0

>  <SCORE.INTRA.REPUL.0>
0

>  <SCORE.INTRA.SOLV>
-0.184952

>  <SCORE.INTRA.SOLV.lig_0>
-48.4279

>  <SCORE.INTRA.VDW>
1.17185

>  <SCORE.INTRA.VDW.0>
-4.69037

>  <SCORE.INTRA.norm>
-0.0102036

>  <SCORE.RESTR>
0

>  <SCORE.RESTR.CAVITY>
0

>  <SCORE.RESTR.norm>
0

>  <SCORE.SYSTEM>
0

>  <SCORE.SYSTEM.CONST>
0

>  <SCORE.SYSTEM.DIHEDRAL>
0

>  <SCORE.SYSTEM.SOLV>
0

>  <SCORE.SYSTEM.norm>
0

>  <SCORE.heavy>
27

>  <SCORE.norm>
-0.521228

>  <RMSD>
6.468

$$$$
ligand
 OpenBabel02271912153D
libRbt.so/2013.1/901 2013/11/27
 27 29  0  0  0  0  0  0  0  0999 V2000
   14.7449   -8.5958    7.6541 N   0  0  0  0  0  0  0  0  0  0  0  0
   14.2675   -7.3553    6.9686 C   0  0  2  0  0  0  0  0  0  0  0  0
   13.7828   -7.6641    5.5346 C   0  0  0  0  0  0  0  0  0  0  0  0
   14.2932   -8.5713    4.8703 O   0  0  0  0  0  0  0  0  0  0  0  0
   15.3758   -6.3079    6.9858 C   0  0  0  0  0  0  0  0  0  0  0  0
   14.9351   -4.9172    6.5604 C   0  0  0  0  0  0  0  0  0  0  0  0
   13.7687   -4.1472    7.7195 S   0  0  2  0  0  0  0  0  0  0  0  0
   12.5544   -3.4512    6.5635 C   0  0  0  0  0  0  0  0  0  0  0  0
   14.5778   -2.6699    8.3542 C   0  0  0  0  0  0  0  0  0  0  0  0
   15.3280   -3.0240    9.6240 C   0  0  1  0  0  0  0  0  0  0  0  0
   14.4581   -3.3335   10.7018 O   0  0  0  0  0  0  0  0  0  0  0  0
   16.2241   -4.2212    9.4202 C   0  0  1  0  0  0  0  0  0  0  0  0
   17.4602   -3.8403    8.8876 O   0  0  0  0  0  0  0  0  0  0  0  0
   16.3502   -4.7318   10.8232 C   0  0  1  0  0  0  0  0  0  0  0  0
   17.4233   -4.0684   11.4639 O   0  0  0  0  0  0  0  0  0  0  0  0
   15.0265   -4.3615   11.4797 C   0  0  2  0  0  0  0  0  0  0  0  0
   12.8709   -7.0181    4.9867 O   0  0  0  0  0  0  0  0  0  0  0  0
   14.3825   -9.5994   11.5701 N   0  0  0  0  0  0  0  0  0  0  0  0
   15.5722   -8.8893   11.4988 C   0  0  0  0  0  0  0  0  0  0  0  0
   15.5730   -7.4998   11.4694 N   0  0  0  0  0  0  0  0  0  0  0  0
   14.4024   -6.8393   11.5300 C   0  0  0  0  0  0  0  0  0  0  0  0
   13.1982   -7.5434   11.6174 C   0  0  0  0  0  0  0  0  0  0  0  0
   13.1812   -8.9260   11.6261 C   0  0  0  0  0  0  0  0  0  0  0  0
   12.0366   -9.5889   11.6981 N   0  0  0  0  0  0  0  0  0  0  0  0
   12.2003   -6.6547   11.6775 N   0  0  0  0  0  0  0  0  0  0  0  0
   12.7359   -5.4148   11.6339 C   0  0  0  0  0  0  0  0  0  0  0  0
   14.1026   -5.5094   11.5470 N   0  0  0  0  0  0  0  0  0  0  0  0
  2  1  1  6  0  0  0
  2  3  1  0  0  0  0
  2  5  1  0  0  0  0
  3  4  1  0  0  0  0
  3 17  1  0  0  0  0
  5  6  1  0  0  0  0
  7  6  1  6  0  0  0
  7  8  1  0  0  0  0
  7  9  1  0  0  0  0
 10  9  1  6  0  0  0
 10 11  1  0  0  0  0
 10 12  1  0  0  0  0
 11 16  1  0  0  0  0
 12 13  1  1  0  0  0
 12 14  1  0  0  0  0
 14 15  1  1  0  0  0
 14 16  1  0  0  0  0
 16 27  1  6  0  0  0
 18 19  2  0  0  0  0
 18 23  1  0  0  0  0
 19 20  1  0  0  0  0
 20 21  2  0  0  0  0
 21 22  1  0  0  0  0
 21 27  1  0  0  0  0
 22 23  2  0  0  0  0
 22 25  1  0  0  0  0
 23 24  1  0  0  0  0
 25 26  2  0  0  0  0
 26 27  1  0  0  0  0
M  END
>  <CHROM.1>
-31.58413916,-168.88390476,66.55660519,-136.04533884,-91.58011912,-69.08438386
142.17479038,14.46662931,-5.95819011,9.26798329,1.59141835,-1.21307489,-1.25113541

>  <Name>
ligand

>  <RI>
0

>  <Rbt.Current_Directory>
/home/itssahil/PROJECTS/Mol_Feturizer/Test_systems_manuscript/rnas/2ydh

>  <Rbt.Executable>
rbdock ($Id: //depot/dev/client3/rdock/2013.1/src/exe/rbdock.cxx#4 $)

>  <Rbt.Library>
libRbt.so (2013.1, Build901 2013/11/27)

>  <Rbt.Parameter_File>
/export/apps/rDock/src/rDock_2013.1_src/data/scripts/dock_solv.prm

>  <Rbt.Receptor>
prm/pocket_docking_3.prm

>  <SCORE>
-8.78361

>  <SCORE.INTER>
-9.22404

>  <SCORE.INTER.CONST>
1

>  <SCORE.INTER.POLAR>
0

>  <SCORE.INTER.ROT>
7

>  <SCORE.INTER.SOLV>
12.0305

>  <SCORE.INTER.VDW>
-18.4262

>  <SCORE.INTER.norm>
-0.341631

>  <SCORE.INTRA>
0.440428

>  <SCORE.INTRA.DIHEDRAL>
-0.0320615

>  <SCORE.INTRA.DIHEDRAL.0>
9.75037

>  <SCORE.INTRA.POLAR>
0

>  <SCORE.INTRA.POLAR.0>
0

>  <SCORE.INTRA.REPUL>
0

>  <SCORE.INTRA.REPUL.0>
0

>  <SCORE.INTRA.SOLV>
-0.895454

>  <SCORE.INTRA.SOLV.lig_0>
-48.4279

>  <SCORE.INTRA.VDW>
0.904186

>  <SCORE.INTRA.VDW.0>
-4.69037

>  <SCORE.INTRA.norm>
0.0163121

>  <SCORE.RESTR>
0

>  <SCORE.RESTR.CAVITY>
0

>  <SCORE.RESTR.norm>
0

>  <SCORE.SYSTEM>
0

>  <SCORE.SYSTEM.CONST>
0

>  <SCORE.SYSTEM.DIHEDRAL>
0

>  <SCORE.SYSTEM.SOLV>
0

>  <SCORE.SYSTEM.norm>
0

>  <SCORE.heavy>
27

>  <SCORE.norm>
-0.325319

>  <RMSD>
6.481

$$$$
ligand
 OpenBabel02271912153D
libRbt.so/2013.1/901 2013/11/27
 27 29  0  0  0  0  0  0  0  0999 V2000
   16.2240   -2.1401    7.3469 N   0  0  0  0  0  0  0  0  0  0  0  0
   14.7799   -2.4515    7.5800 C   0  0  2  0  0  0  0  0  0  0  0  0
   14.5104   -2.7559    9.0704 C   0  0  0  0  0  0  0  0  0  0  0  0
   13.3585   -2.8739    9.4992 O   0  0  0  0  0  0  0  0  0  0  0  0
   14.3568   -3.6031    6.6743 C   0  0  0  0  0  0  0  0  0  0  0  0
   15.2625   -4.8215    6.7394 C   0  0  0  0  0  0  0  0  0  0  0  0
   14.3591   -6.3754    6.9970 S   0  0  2  0  0  0  0  0  0  0  0  0
   13.1456   -6.2872    5.6497 C   0  0  0  0  0  0  0  0  0  0  0  0
   13.3278   -6.1328    8.4522 C   0  0  0  0  0  0  0  0  0  0  0  0
   14.1907   -5.6210    9.5898 C   0  0  1  0  0  0  0  0  0  0  0  0
   13.4339   -5.3093   10.7492 O   0  0  0  0  0  0  0  0  0  0  0  0
   15.2271   -6.6394    9.9980 C   0  0  1  0  0  0  0  0  0  0  0  0
   16.3678   -6.5472    9.1936 O   0  0  0  0  0  0  0  0  0  0  0  0
   15.5014   -6.2242   11.4113 C   0  0  1  0  0  0  0  0  0  0  0  0
   16.5100   -5.2318   11.4162 O   0  0  0  0  0  0  0  0  0  0  0  0
   14.1797   -5.6432   11.8969 C   0  0  2  0  0  0  0  0  0  0  0  0
   15.4295   -2.8894    9.8992 O   0  0  0  0  0  0  0  0  0  0  0  0
   10.5391   -9.4568   12.1450 N   0  0  0  0  0  0  0  0  0  0  0  0
   10.9777   -8.7707   11.0218 C   0  0  0  0  0  0  0  0  0  0  0  0
   11.9417   -7.7749   11.1254 N   0  0  0  0  0  0  0  0  0  0  0  0
   12.4666   -7.4895   12.3309 C   0  0  0  0  0  0  0  0  0  0  0  0
   12.0438   -8.1844   13.4675 C   0  0  0  0  0  0  0  0  0  0  0  0
   11.0703   -9.1627   13.3824 C   0  0  0  0  0  0  0  0  0  0  0  0
   10.6649   -9.8109   14.4641 N   0  0  0  0  0  0  0  0  0  0  0  0
   12.7280   -7.7186   14.5182 N   0  0  0  0  0  0  0  0  0  0  0  0
   13.5695   -6.7559   14.0810 C   0  0  0  0  0  0  0  0  0  0  0  0
   13.4247   -6.6030   12.7245 N   0  0  0  0  0  0  0  0  0  0  0  0
  2  1  1  1  0  0  0
  2  3  1  0  0  0  0
  2  5  1  0  0  0  0
  3  4  1  0  0  0  0
  3 17  1  0  0  0  0
  5  6  1  0  0  0  0
  7  6  1  6  0  0  0
  7  8  1  0  0  0  0
  7  9  1  0  0  0  0
 10  9  1  6  0  0  0
 10 11  1  0  0  0  0
 10 12  1  0  0  0  0
 11 16  1  0  0  0  0
 12 13  1  6  0  0  0
 12 14  1  0  0  0  0
 14 15  1  6  0  0  0
 14 16  1  0  0  0  0
 16 27  1  6  0  0  0
 18 19  2  0  0  0  0
 18 23  1  0  0  0  0
 19 20  1  0  0  0  0
 20 21  2  0  0  0  0
 21 22  1  0  0  0  0
 21 27  1  0  0  0  0
 22 23  2  0  0  0  0
 22 25  1  0  0  0  0
 23 24  1  0  0  0  0
 25 26  2  0  0  0  0
 26 27  1  0  0  0  0
M  END
>  <CHROM.1>
170.94019265,51.02067850,129.89272833,53.03235973,-51.99135155,175.63757070
25.69569844,13.77676788,-5.99942509,10.19353345,-0.86759832,0.90331621,1.65073098

>  <Name>
ligand

>  <RI>
0

>  <Rbt.Current_Directory>
/home/itssahil/PROJECTS/Mol_Feturizer/Test_systems_manuscript/rnas/2ydh

>  <Rbt.Executable>
rbdock ($Id: //depot/dev/client3/rdock/2013.1/src/exe/rbdock.cxx#4 $)

>  <Rbt.Library>
libRbt.so (2013.1, Build901 2013/11/27)

>  <Rbt.Parameter_File>
/export/apps/rDock/src/rDock_2013.1_src/data/scripts/dock_solv.prm

>  <Rbt.Receptor>
prm/pocket_docking_8.prm

>  <SCORE>
-8.90108

>  <SCORE.INTER>
-9.93459

>  <SCORE.INTER.CONST>
1

>  <SCORE.INTER.POLAR>
0

>  <SCORE.INTER.ROT>
7

>  <SCORE.INTER.SOLV>
10.7794

>  <SCORE.INTER.VDW>
-18.4829

>  <SCORE.INTER.norm>
-0.367948

>  <SCORE.INTRA>
1.03351

>  <SCORE.INTRA.DIHEDRAL>
-0.47932

>  <SCORE.INTRA.DIHEDRAL.0>
9.75037

>  <SCORE.INTRA.POLAR>
0

>  <SCORE.INTRA.POLAR.0>
0

>  <SCORE.INTRA.REPUL>
0

>  <SCORE.INTRA.REPUL.0>
0

>  <SCORE.INTRA.SOLV>
0.059254

>  <SCORE.INTRA.SOLV.lig_0>
-48.4279

>  <SCORE.INTRA.VDW>
1.24354

>  <SCORE.INTRA.VDW.0>
-4.69037

>  <SCORE.INTRA.norm>
0.0382782

>  <SCORE.RESTR>
0

>  <SCORE.RESTR.CAVITY>
0

>  <SCORE.RESTR.norm>
0

>  <SCORE.SYSTEM>
0

>  <SCORE.SYSTEM.CONST>
0

>  <SCORE.SYSTEM.DIHEDRAL>
0

>  <SCORE.SYSTEM.SOLV>
0

>  <SCORE.SYSTEM.norm>
0

>  <SCORE.heavy>
27

>  <SCORE.norm>
-0.32967

>  <RMSD>
6.485

$$$$
ligand
 OpenBabel02271912153D
libRbt.so/2013.1/901 2013/11/27
 27 29  0  0  0  0  0  0  0  0999 V2000
   13.6027   -5.0901    8.0771 N   0  0  0  0  0  0  0  0  0  0  0  0
   13.9991   -4.7896    6.6667 C   0  0  2  0  0  0  0  0  0  0  0  0
   13.6508   -3.3325    6.2898 C   0  0  0  0  0  0  0  0  0  0  0  0
   14.4135   -2.4020    6.5678 O   0  0  0  0  0  0  0  0  0  0  0  0
   13.3411   -5.7968    5.7295 C   0  0  0  0  0  0  0  0  0  0  0  0
   13.8013   -7.2320    5.9233 C   0  0  0  0  0  0  0  0  0  0  0  0
   15.5391   -7.4968    5.4686 S   0  0  2  0  0  0  0  0  0  0  0  0
   15.3566   -8.7107    4.1312 C   0  0  0  0  0  0  0  0  0  0  0  0
   16.2670   -8.4878    6.7831 C   0  0  0  0  0  0  0  0  0  0  0  0
   16.4513   -7.6191    8.0128 C   0  0  1  0  0  0  0  0  0  0  0  0
   15.2317   -7.3806    8.6984 O   0  0  0  0  0  0  0  0  0  0  0  0
   17.3980   -8.2552    9.0012 C   0  0  1  0  0  0  0  0  0  0  0  0
   18.7283   -7.9585    8.6868 O   0  0  0  0  0  0  0  0  0  0  0  0
   16.9642   -7.6042   10.2792 C   0  0  1  0  0  0  0  0  0  0  0  0
   17.6594   -6.3819   10.4369 O   0  0  0  0  0  0  0  0  0  0  0  0
   15.4750   -7.3491   10.0858 C   0  0  2  0  0  0  0  0  0  0  0  0
   12.5964   -3.0311    5.7010 O   0  0  0  0  0  0  0  0  0  0  0  0
   10.7945   -8.6855   12.1268 N   0  0  0  0  0  0  0  0  0  0  0  0
   11.1475   -7.4897   11.5186 C   0  0  0  0  0  0  0  0  0  0  0  0
   12.4366   -7.2856   11.0409 N   0  0  0  0  0  0  0  0  0  0  0  0
   13.3451   -8.2714   11.1557 C   0  0  0  0  0  0  0  0  0  0  0  0
   12.9970   -9.4862   11.7529 C   0  0  0  0  0  0  0  0  0  0  0  0
   11.7244   -9.6952   12.2517 C   0  0  0  0  0  0  0  0  0  0  0  0
   11.4025  -10.8443   12.8266 N   0  0  0  0  0  0  0  0  0  0  0  0
   14.0693  -10.2852   11.7256 N   0  0  0  0  0  0  0  0  0  0  0  0
   15.0800   -9.6156   11.1287 C   0  0  0  0  0  0  0  0  0  0  0  0
   14.6475   -8.3649   10.7637 N   0  0  0  0  0  0  0  0  0  0  0  0
  2  1  1  1  0  0  0
  2  3  1  0  0  0  0
  2  5  1  0  0  0  0
  3  4  1  0  0  0  0
  3 17  1  0  0  0  0
  5  6  1  0  0  0  0
  7  6  1  1  0  0  0
  7  8  1  0  0  0  0
  7  9  1  0  0  0  0
 10  9  1  6  0  0  0
 10 11  1  0  0  0  0
 10 12  1  0  0  0  0
 11 16  1  0  0  0  0
 12 13  1  6  0  0  0
 12 14  1  0  0  0  0
 14 15  1  6  0  0  0
 14 16  1  0  0  0  0
 16 27  1  1  0  0  0
 18 19  2  0  0  0  0
 18 23  1  0  0  0  0
 19 20  1  0  0  0  0
 20 21  2  0  0  0  0
 21 22  1  0  0  0  0
 21 27  1  0  0  0  0
 22 23  2  0  0  0  0
 22 25  1  0  0  0  0
 23 24  1  0  0  0  0
 25 26  2  0  0  0  0
 26 27  1  0  0  0  0
M  END
>  <CHROM.1>
84.02954028,-64.63014929,-66.98022649,-118.72192619,-73.13579591,75.93869576
-82.86758836,14.48690558,-7.31247891,8.74307561,1.29479363,0.40693640,-0.88394203

>  <Name>
ligand

>  <RI>
0

>  <Rbt.Current_Directory>
/home/itssahil/PROJECTS/Mol_Feturizer/Test_systems_manuscript/rnas/2ydh

>  <Rbt.Executable>
rbdock ($Id: //depot/dev/client3/rdock/2013.1/src/exe/rbdock.cxx#4 $)

>  <Rbt.Library>
libRbt.so (2013.1, Build901 2013/11/27)

>  <Rbt.Parameter_File>
/export/apps/rDock/src/rDock_2013.1_src/data/scripts/dock_solv.prm

>  <Rbt.Receptor>
prm/pocket_docking_5.prm

>  <SCORE>
-9.90799

>  <SCORE.INTER>
-12.0222

>  <SCORE.INTER.CONST>
1

>  <SCORE.INTER.POLAR>
0

>  <SCORE.INTER.ROT>
7

>  <SCORE.INTER.SOLV>
11.9315

>  <SCORE.INTER.VDW>
-20.2586

>  <SCORE.INTER.norm>
-0.445267

>  <SCORE.INTRA>
2.11423

>  <SCORE.INTRA.DIHEDRAL>
-1.20797

>  <SCORE.INTRA.DIHEDRAL.0>
9.75037

>  <SCORE.INTRA.POLAR>
0

>  <SCORE.INTRA.POLAR.0>
0

>  <SCORE.INTRA.REPUL>
0

>  <SCORE.INTRA.REPUL.0>
0

>  <SCORE.INTRA.SOLV>
2.15633

>  <SCORE.INTRA.SOLV.lig_0>
-48.4279

>  <SCORE.INTRA.VDW>
1.64005

>  <SCORE.INTRA.VDW.0>
-4.69037

>  <SCORE.INTRA.norm>
0.0783047

>  <SCORE.RESTR>
0

>  <SCORE.RESTR.CAVITY>
0

>  <SCORE.RESTR.norm>
0

>  <SCORE.SYSTEM>
0

>  <SCORE.SYSTEM.CONST>
0

>  <SCORE.SYSTEM.DIHEDRAL>
0

>  <SCORE.SYSTEM.SOLV>
0

>  <SCORE.SYSTEM.norm>
0

>  <SCORE.heavy>
27

>  <SCORE.norm>
-0.366963

>  <RMSD>
6.488

$$$$
ligand
 OpenBabel02271912153D
libRbt.so/2013.1/901 2013/11/27
 27 29  0  0  0  0  0  0  0  0999 V2000
   16.5367   -3.8697    8.7667 N   0  0  0  0  0  0  0  0  0  0  0  0
   16.0948   -3.5137    7.3830 C   0  0  2  0  0  0  0  0  0  0  0  0
   14.9181   -2.5132    7.4154 C   0  0  0  0  0  0  0  0  0  0  0  0
   14.7597   -1.7455    8.3695 O   0  0  0  0  0  0  0  0  0  0  0  0
   15.7440   -4.7863    6.6195 C   0  0  0  0  0  0  0  0  0  0  0  0
   16.8978   -5.7616    6.4562 C   0  0  0  0  0  0  0  0  0  0  0  0
   17.2172   -6.7521    7.9441 S   0  0  2  0  0  0  0  0  0  0  0  0
   18.3697   -7.9898    7.2842 C   0  0  0  0  0  0  0  0  0  0  0  0
   15.7353   -7.7314    8.2350 C   0  0  0  0  0  0  0  0  0  0  0  0
   15.8316   -8.3795    9.6030 C   0  0  1  0  0  0  0  0  0  0  0  0
   16.8914   -9.3197    9.6863 O   0  0  0  0  0  0  0  0  0  0  0  0
   16.0638   -7.3532   10.6849 C   0  0  1  0  0  0  0  0  0  0  0  0
   14.8561   -6.7966   11.1187 O   0  0  0  0  0  0  0  0  0  0  0  0
   16.7095   -8.1909   11.7462 C   0  0  1  0  0  0  0  0  0  0  0  0
   15.7038   -8.7764   12.5513 O   0  0  0  0  0  0  0  0  0  0  0  0
   17.4644   -9.2640   10.9723 C   0  0  2  0  0  0  0  0  0  0  0  0
   14.0822   -2.4387    6.4961 O   0  0  0  0  0  0  0  0  0  0  0  0
   21.2464   -5.6418   10.3132 N   0  0  0  0  0  0  0  0  0  0  0  0
   19.8742   -5.4416   10.3542 C   0  0  0  0  0  0  0  0  0  0  0  0
   19.0022   -6.5107   10.5221 N   0  0  0  0  0  0  0  0  0  0  0  0
   19.5017   -7.7517   10.6650 C   0  0  0  0  0  0  0  0  0  0  0  0
   20.8830   -7.9640   10.6405 C   0  0  0  0  0  0  0  0  0  0  0  0
   21.7613   -6.9126   10.4530 C   0  0  0  0  0  0  0  0  0  0  0  0
   23.0691   -7.1203   10.4196 N   0  0  0  0  0  0  0  0  0  0  0  0
   21.1060   -9.2709   10.8168 N   0  0  0  0  0  0  0  0  0  0  0  0
   19.9119   -9.8884   10.9544 C   0  0  0  0  0  0  0  0  0  0  0  0
   18.9041   -8.9603   10.8676 N   0  0  0  0  0  0  0  0  0  0  0  0
  2  1  1  1  0  0  0
  2  3  1  0  0  0  0
  2  5  1  0  0  0  0
  3  4  1  0  0  0  0
  3 17  1  0  0  0  0
  5  6  1  0  0  0  0
  7  6  1  6  0  0  0
  7  8  1  0  0  0  0
  7  9  1  0  0  0  0
 10  9  1  6  0  0  0
 10 11  1  0  0  0  0
 10 12  1  0  0  0  0
 11 16  1  0  0  0  0
 12 13  1  1  0  0  0
 12 14  1  0  0  0  0
 14 15  1  1  0  0  0
 14 16  1  0  0  0  0
 16 27  1  6  0  0  0
 18 19  2  0  0  0  0
 18 23  1  0  0  0  0
 19 20  1  0  0  0  0
 20 21  2  0  0  0  0
 21 22  1  0  0  0  0
 21 27  1  0  0  0  0
 22 23  2  0  0  0  0
 22 25  1  0  0  0  0
 23 24  1  0  0  0  0
 25 26  2  0  0  0  0
 26 27  1  0  0  0  0
M  END
>  <CHROM.1>
26.52062231,-61.03012033,78.99446712,168.78199569,-169.29918566,-64.93583217
79.55609103,17.62280413,-6.66447371,9.43049574,-2.26865636,0.05850104,2.57989953

>  <Name>
ligand

>  <RI>
0

>  <Rbt.Current_Directory>
/home/itssahil/PROJECTS/Mol_Feturizer/Test_systems_manuscript/rnas/2ydh

>  <Rbt.Executable>
rbdock ($Id: //depot/dev/client3/rdock/2013.1/src/exe/rbdock.cxx#4 $)

>  <Rbt.Library>
libRbt.so (2013.1, Build901 2013/11/27)

>  <Rbt.Parameter_File>
/export/apps/rDock/src/rDock_2013.1_src/data/scripts/dock_solv.prm

>  <Rbt.Receptor>
prm/pocket_docking_8.prm

>  <SCORE>
-12.571

>  <SCORE.INTER>
-11.6386

>  <SCORE.INTER.CONST>
1

>  <SCORE.INTER.POLAR>
0

>  <SCORE.INTER.ROT>
7

>  <SCORE.INTER.SOLV>
8.15857

>  <SCORE.INTER.VDW>
-18.7453

>  <SCORE.INTER.norm>
-0.43106

>  <SCORE.INTRA>
-0.932406

>  <SCORE.INTRA.DIHEDRAL>
-4.40472

>  <SCORE.INTRA.DIHEDRAL.0>
9.75037

>  <SCORE.INTRA.POLAR>
0

>  <SCORE.INTRA.POLAR.0>
0

>  <SCORE.INTRA.REPUL>
0

>  <SCORE.INTRA.REPUL.0>
0

>  <SCORE.INTRA.SOLV>
1.74578

>  <SCORE.INTRA.SOLV.lig_0>
-48.4279

>  <SCORE.INTRA.VDW>
0.397066

>  <SCORE.INTRA.VDW.0>
-4.69037

>  <SCORE.INTRA.norm>
-0.0345335

>  <SCORE.RESTR>
0

>  <SCORE.RESTR.CAVITY>
0

>  <SCORE.RESTR.norm>
0

>  <SCORE.SYSTEM>
0

>  <SCORE.SYSTEM.CONST>
0

>  <SCORE.SYSTEM.DIHEDRAL>
0

>  <SCORE.SYSTEM.SOLV>
0

>  <SCORE.SYSTEM.norm>
0

>  <SCORE.heavy>
27

>  <SCORE.norm>
-0.465593

>  <RMSD>
6.490

$$$$
ligand
 OpenBabel02271912153D
libRbt.so/2013.1/901 2013/11/27
 27 29  0  0  0  0  0  0  0  0999 V2000
   16.3411   -8.7924    5.6454 N   0  0  0  0  0  0  0  0  0  0  0  0
   15.0420   -8.0626    5.5172 C   0  0  2  0  0  0  0  0  0  0  0  0
   14.5034   -8.1364    4.0712 C   0  0  0  0  0  0  0  0  0  0  0  0
   13.4990   -7.5036    3.7316 O   0  0  0  0  0  0  0  0  0  0  0  0
   15.2199   -6.6236    5.9897 C   0  0  0  0  0  0  0  0  0  0  0  0
   13.9596   -5.7774    5.9207 C   0  0  0  0  0  0  0  0  0  0  0  0
   13.8489   -4.5439    7.2486 S   0  0  2  0  0  0  0  0  0  0  0  0
   12.5194   -3.4833    6.6137 C   0  0  0  0  0  0  0  0  0  0  0  0
   15.2928   -3.4820    7.0825 C   0  0  0  0  0  0  0  0  0  0  0  0
   16.0364   -3.4485    8.4040 C   0  0  1  0  0  0  0  0  0  0  0  0
   15.1660   -3.2967    9.5146 O   0  0  0  0  0  0  0  0  0  0  0  0
   16.8225   -4.7173    8.6275 C   0  0  1  0  0  0  0  0  0  0  0  0
   18.0752   -4.6492    8.0088 O   0  0  0  0  0  0  0  0  0  0  0  0
   16.9339   -4.7307   10.1216 C   0  0  1  0  0  0  0  0  0  0  0  0
   18.0729   -3.9857   10.5089 O   0  0  0  0  0  0  0  0  0  0  0  0
   15.6607   -4.0453   10.6008 C   0  0  2  0  0  0  0  0  0  0  0  0
   15.0461   -8.8324    3.1934 O   0  0  0  0  0  0  0  0  0  0  0  0
   14.2198   -9.0932   11.1500 N   0  0  0  0  0  0  0  0  0  0  0  0
   15.4055   -8.5988   10.6262 C   0  0  0  0  0  0  0  0  0  0  0  0
   15.6297   -7.2301   10.5362 N   0  0  0  0  0  0  0  0  0  0  0  0
   14.6886   -6.3781   10.9819 C   0  0  0  0  0  0  0  0  0  0  0  0
   13.4964   -6.8644   11.5257 C   0  0  0  0  0  0  0  0  0  0  0  0
   13.2510   -8.2230   11.6018 C   0  0  0  0  0  0  0  0  0  0  0  0
   12.1150   -8.6789   12.1079 N   0  0  0  0  0  0  0  0  0  0  0  0
   12.7521   -5.8176   11.8989 N   0  0  0  0  0  0  0  0  0  0  0  0
   13.4367   -4.6886   11.6111 C   0  0  0  0  0  0  0  0  0  0  0  0
   14.6437   -5.0169   11.0454 N   0  0  0  0  0  0  0  0  0  0  0  0
  2  1  1  6  0  0  0
  2  3  1  0  0  0  0
  2  5  1  0  0  0  0
  3  4  1  0  0  0  0
  3 17  1  0  0  0  0
  5  6  1  0  0  0  0
  7  6  1  6  0  0  0
  7  8  1  0  0  0  0
  7  9  1  0  0  0  0
 10  9  1  6  0  0  0
 10 11  1  0  0  0  0
 10 12  1  0  0  0  0
 11 16  1  0  0  0  0
 12 13  1  6  0  0  0
 12 14  1  0  0  0  0
 14 15  1  6  0  0  0
 14 16  1  0  0  0  0
 16 27  1  6  0  0  0
 18 19  2  0  0  0  0
 18 23  1  0  0  0  0
 19 20  1  0  0  0  0
 20 21  2  0  0  0  0
 21 22  1  0  0  0  0
 21 27  1  0  0  0  0
 22 23  2  0  0  0  0
 22 25  1  0  0  0  0
 23 24  1  0  0  0  0
 25 26  2  0  0  0  0
 26 27  1  0  0  0  0
M  END
>  <CHROM.1>
-173.90978457,-179.44068284,146.44104226,165.87142756,-125.75381706,-44.18911563
113.57886175,14.85860473,-5.99140049,8.50554981,1.52814294,-1.13049499,-1.80566128

>  <Name>
ligand

>  <RI>
0

>  <Rbt.Current_Directory>
/home/itssahil/PROJECTS/Mol_Feturizer/Test_systems_manuscript/rnas/2ydh

>  <Rbt.Executable>
rbdock ($Id: //depot/dev/client3/rdock/2013.1/src/exe/rbdock.cxx#4 $)

>  <Rbt.Library>
libRbt.so (2013.1, Build901 2013/11/27)

>  <Rbt.Parameter_File>
/export/apps/rDock/src/rDock_2013.1_src/data/scripts/dock_solv.prm

>  <Rbt.Receptor>
prm/pocket_docking_3.prm

>  <SCORE>
-8.64624

>  <SCORE.INTER>
-11.1435

>  <SCORE.INTER.CONST>
1

>  <SCORE.INTER.POLAR>
0

>  <SCORE.INTER.ROT>
7

>  <SCORE.INTER.SOLV>
9.17297

>  <SCORE.INTER.VDW>
-18.7533

>  <SCORE.INTER.norm>
-0.412722

>  <SCORE.INTRA>
2.47573

>  <SCORE.INTRA.DIHEDRAL>
1.97342

>  <SCORE.INTRA.DIHEDRAL.0>
9.75037

>  <SCORE.INTRA.POLAR>
0

>  <SCORE.INTRA.POLAR.0>
0

>  <SCORE.INTRA.REPUL>
0

>  <SCORE.INTRA.REPUL.0>
0

>  <SCORE.INTRA.SOLV>
-1.25155

>  <SCORE.INTRA.SOLV.lig_0>
-48.4279

>  <SCORE.INTRA.VDW>
2.11479

>  <SCORE.INTRA.VDW.0>
-4.69037

>  <SCORE.INTRA.norm>
0.0916936

>  <SCORE.RESTR>
0.0215373

>  <SCORE.RESTR.CAVITY>
0.0215373

>  <SCORE.RESTR.norm>
0.000797679

>  <SCORE.SYSTEM>
0

>  <SCORE.SYSTEM.CONST>
0

>  <SCORE.SYSTEM.DIHEDRAL>
0

>  <SCORE.SYSTEM.SOLV>
0

>  <SCORE.SYSTEM.norm>
0

>  <SCORE.heavy>
27

>  <SCORE.norm>
-0.320231

>  <RMSD>
6.495

$$$$
ligand
 OpenBabel02271912153D
libRbt.so/2013.1/901 2013/11/27
 27 29  0  0  0  0  0  0  0  0999 V2000
   15.6836   -9.7579    3.9009 N   0  0  0  0  0  0  0  0  0  0  0  0
   16.4780   -8.6218    4.4620 C   0  0  2  0  0  0  0  0  0  0  0  0
   17.9318   -9.0526    4.7575 C   0  0  0  0  0  0  0  0  0  0  0  0
   18.2544   -9.4915    5.8656 O   0  0  0  0  0  0  0  0  0  0  0  0
   15.7781   -8.0777    5.7030 C   0  0  0  0  0  0  0  0  0  0  0  0
   14.5300   -7.2601    5.4150 C   0  0  0  0  0  0  0  0  0  0  0  0
   14.2515   -5.9271    6.6160 S   0  0  2  0  0  0  0  0  0  0  0  0
   13.0591   -4.9008    5.7103 C   0  0  0  0  0  0  0  0  0  0  0  0
   15.7297   -4.9002    6.5930 C   0  0  0  0  0  0  0  0  0  0  0  0
   15.4616   -3.6303    7.3779 C   0  0  1  0  0  0  0  0  0  0  0  0
   14.3164   -3.7359    8.2095 O   0  0  0  0  0  0  0  0  0  0  0  0
   16.6261   -3.2767    8.2705 C   0  0  1  0  0  0  0  0  0  0  0  0
   17.5940   -2.5485    7.5709 O   0  0  0  0  0  0  0  0  0  0  0  0
   15.9478   -2.4477    9.3182 C   0  0  1  0  0  0  0  0  0  0  0  0
   15.9014   -1.1010    8.8864 O   0  0  0  0  0  0  0  0  0  0  0  0
   14.5421   -3.0278    9.4064 C   0  0  2  0  0  0  0  0  0  0  0  0
   18.8357   -8.9734    3.9054 O   0  0  0  0  0  0  0  0  0  0  0  0
   12.4735   -7.4623   11.3849 N   0  0  0  0  0  0  0  0  0  0  0  0
   12.3378   -6.9598   10.0989 C   0  0  0  0  0  0  0  0  0  0  0  0
   12.9387   -5.7608    9.7344 N   0  0  0  0  0  0  0  0  0  0  0  0
   13.6762   -5.0921   10.6395 C   0  0  0  0  0  0  0  0  0  0  0  0
   13.8327   -5.5960   11.9338 C   0  0  0  0  0  0  0  0  0  0  0  0
   13.2231   -6.7766   12.3164 C   0  0  0  0  0  0  0  0  0  0  0  0
   13.3655   -7.2445   13.5474 N   0  0  0  0  0  0  0  0  0  0  0  0
   14.6149   -4.7527   12.6165 N   0  0  0  0  0  0  0  0  0  0  0  0
   14.9586   -3.7364   11.7948 C   0  0  0  0  0  0  0  0  0  0  0  0
   14.3888   -3.9324   10.5614 N   0  0  0  0  0  0  0  0  0  0  0  0
  2  1  1  1  0  0  0
  2  3  1  0  0  0  0
  2  5  1  0  0  0  0
  3  4  1  0  0  0  0
  3 17  1  0  0  0  0
  5  6  1  0  0  0  0
  7  6  1  6  0  0  0
  7  8  1  0  0  0  0
  7  9  1  0  0  0  0
 10  9  1  1  0  0  0
 10 11  1  0  0  0  0
 10 12  1  0  0  0  0
 11 16  1  0  0  0  0
 12 13  1  6  0  0  0
 12 14  1  0  0  0  0
 14 15  1  6  0  0  0
 14 16  1  0  0  0  0
 16 27  1  1  0  0  0
 18 19  2  0  0  0  0
 18 23  1  0  0  0  0
 19 20  1  0  0  0  0
 20 21  2  0  0  0  0
 21 22  1  0  0  0  0
 21 27  1  0  0  0  0
 22 23  2  0  0  0  0
 22 25  1  0  0  0  0
 23 24  1  0  0  0  0
 25 26  2  0  0  0  0
 26 27  1  0  0  0  0
M  END
>  <CHROM.1>
-91.40597244,-74.00013294,-147.70674328,163.38210422,169.55914342,16.40438389
-23.92280672,15.08339347,-5.70378048,8.21517028,0.82564380,-1.03238134,-2.77288882

>  <Name>
ligand

>  <RI>
0

>  <Rbt.Current_Directory>
/home/itssahil/PROJECTS/Mol_Feturizer/Test_systems_manuscript/rnas/2ydh

>  <Rbt.Executable>
rbdock ($Id: //depot/dev/client3/rdock/2013.1/src/exe/rbdock.cxx#4 $)

>  <Rbt.Library>
libRbt.so (2013.1, Build901 2013/11/27)

>  <Rbt.Parameter_File>
/export/apps/rDock/src/rDock_2013.1_src/data/scripts/dock_solv.prm

>  <Rbt.Receptor>
prm/pocket_docking_4.prm

>  <SCORE>
-10.7753

>  <SCORE.INTER>
-14.515

>  <SCORE.INTER.CONST>
1

>  <SCORE.INTER.POLAR>
0

>  <SCORE.INTER.ROT>
7

>  <SCORE.INTER.SOLV>
16.2853

>  <SCORE.INTER.VDW>
-23.3718

>  <SCORE.INTER.norm>
-0.537592

>  <SCORE.INTRA>
3.73969

>  <SCORE.INTRA.DIHEDRAL>
1.79874

>  <SCORE.INTRA.DIHEDRAL.0>
9.75037

>  <SCORE.INTRA.POLAR>
0

>  <SCORE.INTRA.POLAR.0>
0

>  <SCORE.INTRA.REPUL>
0

>  <SCORE.INTRA.REPUL.0>
0

>  <SCORE.INTRA.SOLV>
-0.782502

>  <SCORE.INTRA.SOLV.lig_0>
-48.4279

>  <SCORE.INTRA.VDW>
3.23157

>  <SCORE.INTRA.VDW.0>
-4.69037

>  <SCORE.INTRA.norm>
0.138507

>  <SCORE.RESTR>
0

>  <SCORE.RESTR.CAVITY>
0

>  <SCORE.RESTR.norm>
0

>  <SCORE.SYSTEM>
0

>  <SCORE.SYSTEM.CONST>
0

>  <SCORE.SYSTEM.DIHEDRAL>
0

>  <SCORE.SYSTEM.SOLV>
0

>  <SCORE.SYSTEM.norm>
0

>  <SCORE.heavy>
27

>  <SCORE.norm>
-0.399085

>  <RMSD>
6.499

$$$$
ligand
 OpenBabel02271912153D
libRbt.so/2013.1/901 2013/11/27
 27 29  0  0  0  0  0  0  0  0999 V2000
   15.8638   -6.7513    5.5798 N   0  0  0  0  0  0  0  0  0  0  0  0
   14.5488   -7.1767    6.1512 C   0  0  2  0  0  0  0  0  0  0  0  0
   14.2508   -8.6557    5.8190 C   0  0  0  0  0  0  0  0  0  0  0  0
   14.8703   -9.2470    4.9294 O   0  0  0  0  0  0  0  0  0  0  0  0
   13.4518   -6.2442    5.6486 C   0  0  0  0  0  0  0  0  0  0  0  0
   13.7534   -4.7650    5.8229 C   0  0  0  0  0  0  0  0  0  0  0  0
   14.1083   -4.3019    7.5423 S   0  0  2  0  0  0  0  0  0  0  0  0
   12.7202   -3.1827    7.8834 C   0  0  0  0  0  0  0  0  0  0  0  0
   15.5051   -3.1679    7.4891 C   0  0  0  0  0  0  0  0  0  0  0  0
   16.2027   -3.1793    8.8359 C   0  0  1  0  0  0  0  0  0  0  0  0
   15.3030   -2.9864    9.9164 O   0  0  0  0  0  0  0  0  0  0  0  0
   16.9125   -4.4889    9.0790 C   0  0  1  0  0  0  0  0  0  0  0  0
   18.1880   -4.4845    8.5048 O   0  0  0  0  0  0  0  0  0  0  0  0
   16.9705   -4.5144   10.5760 C   0  0  1  0  0  0  0  0  0  0  0  0
   18.1328   -3.8323   11.0072 O   0  0  0  0  0  0  0  0  0  0  0  0
   15.7191   -3.7647   11.0147 C   0  0  2  0  0  0  0  0  0  0  0  0
   13.3799   -9.3106    6.4206 O   0  0  0  0  0  0  0  0  0  0  0  0
   13.8763   -7.2603   14.5137 N   0  0  0  0  0  0  0  0  0  0  0  0
   15.0769   -6.5665   14.5555 C   0  0  0  0  0  0  0  0  0  0  0  0
   15.4263   -5.6836   13.5406 N   0  0  0  0  0  0  0  0  0  0  0  0
   14.5766   -5.4890   12.5157 C   0  0  0  0  0  0  0  0  0  0  0  0
   13.3573   -6.1709   12.4703 C   0  0  0  0  0  0  0  0  0  0  0  0
   13.0063   -7.0681   13.4621 C   0  0  0  0  0  0  0  0  0  0  0  0
   11.8545   -7.7201   13.4090 N   0  0  0  0  0  0  0  0  0  0  0  0
   12.7072   -5.7871   11.3662 N   0  0  0  0  0  0  0  0  0  0  0  0
   13.4746   -4.8844   10.7164 C   0  0  0  0  0  0  0  0  0  0  0  0
   14.6374   -4.6830   11.4177 N   0  0  0  0  0  0  0  0  0  0  0  0
  2  1  1  6  0  0  0
  2  3  1  0  0  0  0
  2  5  1  0  0  0  0
  3  4  1  0  0  0  0
  3 17  1  0  0  0  0
  5  6  1  0  0  0  0
  7  6  1  6  0  0  0
  7  8  1  0  0  0  0
  7  9  1  0  0  0  0
 10  9  1  6  0  0  0
 10 11  1  0  0  0  0
 10 12  1  0  0  0  0
 11 16  1  0  0  0  0
 12 13  1  6  0  0  0
 12 14  1  0  0  0  0
 14 15  1  6  0  0  0
 14 16  1  0  0  0  0
 16 27  1  6  0  0  0
 18 19  2  0  0  0  0
 18 23  1  0  0  0  0
 19 20  1  0  0  0  0
 20 21  2  0  0  0  0
 21 22  1  0  0  0  0
 21 27  1  0  0  0  0
 22 23  2  0  0  0  0
 22 25  1  0  0  0  0
 23 24  1  0  0  0  0
 25 26  2  0  0  0  0
 26 27  1  0  0  0  0
M  END
>  <CHROM.1>
-16.48964723,-50.53110771,-56.53980594,-116.05648771,-157.29515675,-50.63456799
-171.92169169,14.74029154,-5.53452431,9.44326545,1.53033849,-0.95171577,-1.70315833

>  <Name>
ligand

>  <RI>
0

>  <Rbt.Current_Directory>
/home/itssahil/PROJECTS/Mol_Feturizer/Test_systems_manuscript/rnas/2ydh

>  <Rbt.Executable>
rbdock ($Id: //depot/dev/client3/rdock/2013.1/src/exe/rbdock.cxx#4 $)

>  <Rbt.Library>
libRbt.so (2013.1, Build901 2013/11/27)

>  <Rbt.Parameter_File>
/export/apps/rDock/src/rDock_2013.1_src/data/scripts/dock_solv.prm

>  <Rbt.Receptor>
prm/pocket_docking_6.prm

>  <SCORE>
-12.4096

>  <SCORE.INTER>
-14.3322

>  <SCORE.INTER.CONST>
1

>  <SCORE.INTER.POLAR>
0

>  <SCORE.INTER.ROT>
7

>  <SCORE.INTER.SOLV>
12.1898

>  <SCORE.INTER.VDW>
-21.8848

>  <SCORE.INTER.norm>
-0.530823

>  <SCORE.INTRA>
1.92266

>  <SCORE.INTRA.DIHEDRAL>
0.31048

>  <SCORE.INTRA.DIHEDRAL.0>
9.75037

>  <SCORE.INTRA.POLAR>
0

>  <SCORE.INTRA.POLAR.0>
0

>  <SCORE.INTRA.REPUL>
0

>  <SCORE.INTRA.REPUL.0>
0

>  <SCORE.INTRA.SOLV>
0.931347

>  <SCORE.INTRA.SOLV.lig_0>
-48.4279

>  <SCORE.INTRA.VDW>
1.30175

>  <SCORE.INTRA.VDW.0>
-4.69037

>  <SCORE.INTRA.norm>
0.0712097

>  <SCORE.RESTR>
0

>  <SCORE.RESTR.CAVITY>
0

>  <SCORE.RESTR.norm>
0

>  <SCORE.SYSTEM>
0

>  <SCORE.SYSTEM.CONST>
0

>  <SCORE.SYSTEM.DIHEDRAL>
0

>  <SCORE.SYSTEM.SOLV>
0

>  <SCORE.SYSTEM.norm>
0

>  <SCORE.heavy>
27

>  <SCORE.norm>
-0.459613

>  <RMSD>
6.508

$$$$
ligand
 OpenBabel02271912153D
libRbt.so/2013.1/901 2013/11/27
 27 29  0  0  0  0  0  0  0  0999 V2000
   16.4226   -7.4658    5.1336 N   0  0  0  0  0  0  0  0  0  0  0  0
   15.2850   -7.3409    6.0963 C   0  0  2  0  0  0  0  0  0  0  0  0
   14.0343   -8.0854    5.5784 C   0  0  0  0  0  0  0  0  0  0  0  0
   13.4382   -7.7038    4.5666 O   0  0  0  0  0  0  0  0  0  0  0  0
   15.0047   -5.8656    6.3616 C   0  0  0  0  0  0  0  0  0  0  0  0
   14.0754   -5.6017    7.5346 C   0  0  0  0  0  0  0  0  0  0  0  0
   13.6697   -3.8449    7.7486 S   0  0  2  0  0  0  0  0  0  0  0  0
   12.8622   -3.4895    6.1620 C   0  0  0  0  0  0  0  0  0  0  0  0
   15.2181   -2.9397    7.5969 C   0  0  0  0  0  0  0  0  0  0  0  0
   16.0208   -3.1162    8.8716 C   0  0  1  0  0  0  0  0  0  0  0  0
   15.2223   -2.9957   10.0387 O   0  0  0  0  0  0  0  0  0  0  0  0
   16.6813   -4.4722    8.9249 C   0  0  1  0  0  0  0  0  0  0  0  0
   17.9048   -4.4634    8.2468 O   0  0  0  0  0  0  0  0  0  0  0  0
   16.8589   -4.6510   10.4018 C   0  0  1  0  0  0  0  0  0  0  0  0
   18.0851   -4.0653   10.7963 O   0  0  0  0  0  0  0  0  0  0  0  0
   15.6864   -3.8976   11.0166 C   0  0  2  0  0  0  0  0  0  0  0  0
   13.5716   -9.0884    6.1522 O   0  0  0  0  0  0  0  0  0  0  0  0
   13.7656   -7.2992   14.5661 N   0  0  0  0  0  0  0  0  0  0  0  0
   14.9646   -6.6032   14.6163 C   0  0  0  0  0  0  0  0  0  0  0  0
   15.3367   -5.7478   13.5861 N   0  0  0  0  0  0  0  0  0  0  0  0
   14.5105   -5.5818   12.5373 C   0  0  0  0  0  0  0  0  0  0  0  0
   13.2928   -6.2659   12.4826 C   0  0  0  0  0  0  0  0  0  0  0  0
   12.9196   -7.1362   13.4901 C   0  0  0  0  0  0  0  0  0  0  0  0
   11.7696   -7.7906   13.4285 N   0  0  0  0  0  0  0  0  0  0  0  0
   12.6679   -5.9127   11.3540 N   0  0  0  0  0  0  0  0  0  0  0  0
   13.4496   -5.0272   10.6977 C   0  0  0  0  0  0  0  0  0  0  0  0
   14.5960   -4.8058   11.4196 N   0  0  0  0  0  0  0  0  0  0  0  0
  2  1  1  6  0  0  0
  2  3  1  0  0  0  0
  2  5  1  0  0  0  0
  3  4  1  0  0  0  0
  3 17  1  0  0  0  0
  5  6  1  0  0  0  0
  7  6  1  6  0  0  0
  7  8  1  0  0  0  0
  7  9  1  0  0  0  0
 10  9  1  6  0  0  0
 10 11  1  0  0  0  0
 10 12  1  0  0  0  0
 11 16  1  0  0  0  0
 12 13  1  6  0  0  0
 12 14  1  0  0  0  0
 14 15  1  1  0  0  0
 14 16  1  0  0  0  0
 16 27  1  6  0  0  0
 18 19  2  0  0  0  0
 18 23  1  0  0  0  0
 19 20  1  0  0  0  0
 20 21  2  0  0  0  0
 21 22  1  0  0  0  0
 21 27  1  0  0  0  0
 22 23  2  0  0  0  0
 22 25  1  0  0  0  0
 23 24  1  0  0  0  0
 25 26  2  0  0  0  0
 26 27  1  0  0  0  0
M  END
>  <CHROM.1>
-66.36369877,-167.76754195,-175.89762030,60.66486870,-75.66135736,-43.28119904
-162.09081111,14.69439859,-5.50221095,9.41693911,1.46895316,-0.90901770,-1.66721761

>  <Name>
ligand

>  <RI>
0

>  <Rbt.Current_Directory>
/home/itssahil/PROJECTS/Mol_Feturizer/Test_systems_manuscript/rnas/2ydh

>  <Rbt.Executable>
rbdock ($Id: //depot/dev/client3/rdock/2013.1/src/exe/rbdock.cxx#4 $)

>  <Rbt.Library>
libRbt.so (2013.1, Build901 2013/11/27)

>  <Rbt.Parameter_File>
/export/apps/rDock/src/rDock_2013.1_src/data/scripts/dock_solv.prm

>  <Rbt.Receptor>
prm/pocket_docking_7.prm

>  <SCORE>
-15.2355

>  <SCORE.INTER>
-14.0648

>  <SCORE.INTER.CONST>
1

>  <SCORE.INTER.POLAR>
0

>  <SCORE.INTER.ROT>
7

>  <SCORE.INTER.SOLV>
11.7584

>  <SCORE.INTER.VDW>
-21.5627

>  <SCORE.INTER.norm>
-0.52092

>  <SCORE.INTRA>
-1.17062

>  <SCORE.INTRA.DIHEDRAL>
-4.80258

>  <SCORE.INTRA.DIHEDRAL.0>
9.75037

>  <SCORE.INTRA.POLAR>
0

>  <SCORE.INTRA.POLAR.0>
0

>  <SCORE.INTRA.REPUL>
0

>  <SCORE.INTRA.REPUL.0>
0

>  <SCORE.INTRA.SOLV>
-1.06485

>  <SCORE.INTRA.SOLV.lig_0>
-48.4279

>  <SCORE.INTRA.VDW>
1.76309

>  <SCORE.INTRA.VDW.0>
-4.69037

>  <SCORE.INTRA.norm>
-0.0433564

>  <SCORE.RESTR>
0

>  <SCORE.RESTR.CAVITY>
0

>  <SCORE.RESTR.norm>
0

>  <SCORE.SYSTEM>
0

>  <SCORE.SYSTEM.CONST>
0

>  <SCORE.SYSTEM.DIHEDRAL>
0

>  <SCORE.SYSTEM.SOLV>
0

>  <SCORE.SYSTEM.norm>
0

>  <SCORE.heavy>
27

>  <SCORE.norm>
-0.564276

>  <RMSD>
6.510

$$$$
ligand
 OpenBabel02271912153D
libRbt.so/2013.1/901 2013/11/27
 27 29  0  0  0  0  0  0  0  0999 V2000
   14.4343   -8.6706    4.8800 N   0  0  0  0  0  0  0  0  0  0  0  0
   15.2308   -7.5132    5.3925 C   0  0  2  0  0  0  0  0  0  0  0  0
   16.3865   -7.9917    6.2991 C   0  0  0  0  0  0  0  0  0  0  0  0
   17.5645   -7.7774    5.9974 O   0  0  0  0  0  0  0  0  0  0  0  0
   14.3041   -6.5386    6.1117 C   0  0  0  0  0  0  0  0  0  0  0  0
   14.9734   -5.2531    6.5684 C   0  0  0  0  0  0  0  0  0  0  0  0
   13.8504   -4.1333    7.4525 S   0  0  2  0  0  0  0  0  0  0  0  0
   12.7888   -3.5752    6.0898 C   0  0  0  0  0  0  0  0  0  0  0  0
   14.7976   -2.6492    7.8272 C   0  0  0  0  0  0  0  0  0  0  0  0
   15.5335   -2.8503    9.1382 C   0  0  1  0  0  0  0  0  0  0  0  0
   14.6521   -2.9770   10.2432 O   0  0  0  0  0  0  0  0  0  0  0  0
   16.3866   -4.0950    9.1071 C   0  0  1  0  0  0  0  0  0  0  0  0
   17.6360   -3.8350    8.5343 O   0  0  0  0  0  0  0  0  0  0  0  0
   16.4931   -4.4107   10.5679 C   0  0  1  0  0  0  0  0  0  0  0  0
   17.5885   -3.7030   11.1171 O   0  0  0  0  0  0  0  0  0  0  0  0
   15.1828   -3.9068   11.1591 C   0  0  2  0  0  0  0  0  0  0  0  0
   16.1873   -8.6124    7.3596 O   0  0  0  0  0  0  0  0  0  0  0  0
   13.2554   -7.6007   14.3993 N   0  0  0  0  0  0  0  0  0  0  0  0
   14.2742   -6.6938   14.6529 C   0  0  0  0  0  0  0  0  0  0  0  0
   14.6790   -5.7857   13.6818 N   0  0  0  0  0  0  0  0  0  0  0  0
   14.0583   -5.7779   12.4881 C   0  0  0  0  0  0  0  0  0  0  0  0
   13.0203   -6.6765   12.2262 C   0  0  0  0  0  0  0  0  0  0  0  0
   12.6216   -7.5996   13.1754 C   0  0  0  0  0  0  0  0  0  0  0  0
   11.6447   -8.4565   12.9185 N   0  0  0  0  0  0  0  0  0  0  0  0
   12.5751   -6.4475   10.9859 N   0  0  0  0  0  0  0  0  0  0  0  0
   13.2958   -5.4330   10.4590 C   0  0  0  0  0  0  0  0  0  0  0  0
   14.2185   -5.0012   11.3791 N   0  0  0  0  0  0  0  0  0  0  0  0
  2  1  1  1  0  0  0
  2  3  1  0  0  0  0
  2  5  1  0  0  0  0
  3  4  1  0  0  0  0
  3 17  1  0  0  0  0
  5  6  1  0  0  0  0
  7  6  1  6  0  0  0
  7  8  1  0  0  0  0
  7  9  1  0  0  0  0
 10  9  1  6  0  0  0
 10 11  1  0  0  0  0
 10 12  1  0  0  0  0
 11 16  1  0  0  0  0
 12 13  1  1  0  0  0
 12 14  1  0  0  0  0
 14 15  1  1  0  0  0
 14 16  1  0  0  0  0
 16 27  1  6  0  0  0
 18 19  2  0  0  0  0
 18 23  1  0  0  0  0
 19 20  1  0  0  0  0
 20 21  2  0  0  0  0
 21 22  1  0  0  0  0
 21 27  1  0  0  0  0
 22 23  2  0  0  0  0
 22 25  1  0  0  0  0
 23 24  1  0  0  0  0
 25 26  2  0  0  0  0
 26 27  1  0  0  0  0
M  END
>  <CHROM.1>
117.81461042,-174.60038637,-178.72032733,-70.81220714,-86.60341511,-65.41372712
-151.72012363,14.74343799,-5.59995071,9.44991254,0.87515776,-1.17209991,-2.18792904

>  <Name>
ligand

>  <RI>
0

>  <Rbt.Current_Directory>
/home/itssahil/PROJECTS/Mol_Feturizer/Test_systems_manuscript/rnas/2ydh

>  <Rbt.Executable>
rbdock ($Id: //depot/dev/client3/rdock/2013.1/src/exe/rbdock.cxx#4 $)

>  <Rbt.Library>
libRbt.so (2013.1, Build901 2013/11/27)

>  <Rbt.Parameter_File>
/export/apps/rDock/src/rDock_2013.1_src/data/scripts/dock_solv.prm

>  <Rbt.Receptor>
prm/pocket_docking_8.prm

>  <SCORE>
-14.0678

>  <SCORE.INTER>
-12.6594

>  <SCORE.INTER.CONST>
1

>  <SCORE.INTER.POLAR>
0

>  <SCORE.INTER.ROT>
7

>  <SCORE.INTER.SOLV>
11.4806

>  <SCORE.INTER.VDW>
-20.5331

>  <SCORE.INTER.norm>
-0.468866

>  <SCORE.INTRA>
-1.40845

>  <SCORE.INTRA.DIHEDRAL>
-5.45611

>  <SCORE.INTRA.DIHEDRAL.0>
9.75037

>  <SCORE.INTRA.POLAR>
0

>  <SCORE.INTRA.POLAR.0>
0

>  <SCORE.INTRA.REPUL>
0

>  <SCORE.INTRA.REPUL.0>
0

>  <SCORE.INTRA.SOLV>
-1.19203

>  <SCORE.INTRA.SOLV.lig_0>
-48.4279

>  <SCORE.INTRA.VDW>
1.91561

>  <SCORE.INTRA.VDW.0>
-4.69037

>  <SCORE.INTRA.norm>
-0.052165

>  <SCORE.RESTR>
0

>  <SCORE.RESTR.CAVITY>
0

>  <SCORE.RESTR.norm>
0

>  <SCORE.SYSTEM>
0

>  <SCORE.SYSTEM.CONST>
0

>  <SCORE.SYSTEM.DIHEDRAL>
0

>  <SCORE.SYSTEM.SOLV>
0

>  <SCORE.SYSTEM.norm>
0

>  <SCORE.heavy>
27

>  <SCORE.norm>
-0.521031

>  <RMSD>
6.539

$$$$
ligand
 OpenBabel02271912153D
libRbt.so/2013.1/901 2013/11/27
 27 29  0  0  0  0  0  0  0  0999 V2000
   15.8366   -7.8859    7.0376 N   0  0  0  0  0  0  0  0  0  0  0  0
   14.4072   -7.8202    6.6028 C   0  0  2  0  0  0  0  0  0  0  0  0
   14.2995   -7.5419    5.0870 C   0  0  0  0  0  0  0  0  0  0  0  0
   13.4064   -6.8203    4.6328 O   0  0  0  0  0  0  0  0  0  0  0  0
   13.6727   -6.7716    7.4315 C   0  0  0  0  0  0  0  0  0  0  0  0
   14.3425   -5.4079    7.4593 C   0  0  0  0  0  0  0  0  0  0  0  0
   13.2831   -4.1009    8.1421 S   0  0  2  0  0  0  0  0  0  0  0  0
   12.3386   -3.6269    6.6660 C   0  0  0  0  0  0  0  0  0  0  0  0
   14.3390   -2.6651    8.3936 C   0  0  0  0  0  0  0  0  0  0  0  0
   15.3117   -2.9580    9.5199 C   0  0  1  0  0  0  0  0  0  0  0  0
   14.6930   -3.6120   10.6170 O   0  0  0  0  0  0  0  0  0  0  0  0
   16.4424   -3.8438    9.0565 C   0  0  1  0  0  0  0  0  0  0  0  0
   17.4656   -3.0901    8.4722 O   0  0  0  0  0  0  0  0  0  0  0  0
   16.8720   -4.4668   10.3497 C   0  0  1  0  0  0  0  0  0  0  0  0
   17.8208   -3.6256   10.9777 O   0  0  0  0  0  0  0  0  0  0  0  0
   15.5945   -4.5392   11.1761 C   0  0  2  0  0  0  0  0  0  0  0  0
   15.0942   -8.0300    4.2626 O   0  0  0  0  0  0  0  0  0  0  0  0
   11.2853   -7.5489   11.6576 N   0  0  0  0  0  0  0  0  0  0  0  0
   11.3744   -6.1680   11.7573 C   0  0  0  0  0  0  0  0  0  0  0  0
   12.5961   -5.5202   11.6185 N   0  0  0  0  0  0  0  0  0  0  0  0
   13.7009   -6.2452   11.3656 C   0  0  0  0  0  0  0  0  0  0  0  0
   13.6213   -7.6357   11.2479 C   0  0  0  0  0  0  0  0  0  0  0  0
   12.4162   -8.2953   11.4048 C   0  0  0  0  0  0  0  0  0  0  0  0
   12.3476   -9.6142   11.3032 N   0  0  0  0  0  0  0  0  0  0  0  0
   14.8471   -8.1016   10.9846 N   0  0  0  0  0  0  0  0  0  0  0  0
   15.6954   -7.0511   10.9297 C   0  0  0  0  0  0  0  0  0  0  0  0
   15.0008   -5.8895   11.1590 N   0  0  0  0  0  0  0  0  0  0  0  0
  2  1  1  1  0  0  0
  2  3  1  0  0  0  0
  2  5  1  0  0  0  0
  3  4  1  0  0  0  0
  3 17  1  0  0  0  0
  5  6  1  0  0  0  0
  7  6  1  6  0  0  0
  7  8  1  0  0  0  0
  7  9  1  0  0  0  0
 10  9  1  6  0  0  0
 10 11  1  0  0  0  0
 10 12  1  0  0  0  0
 11 16  1  0  0  0  0
 12 13  1  1  0  0  0
 12 14  1  0  0  0  0
 14 15  1  1  0  0  0
 14 16  1  0  0  0  0
 16 27  1  6  0  0  0
 18 19  2  0  0  0  0
 18 23  1  0  0  0  0
 19 20  1  0  0  0  0
 20 21  2  0  0  0  0
 21 22  1  0  0  0  0
 21 27  1  0  0  0  0
 22 23  2  0  0  0  0
 22 25  1  0  0  0  0
 23 24  1  0  0  0  0
 25 26  2  0  0  0  0
 26 27  1  0  0  0  0
M  END
>  <CHROM.1>
-143.00836963,52.27412943,167.60162353,-84.69964873,-68.87609361,-42.82995174
-36.91040377,14.36130080,-5.74970168,9.10550913,1.41068919,-0.97079984,-1.74154461

>  <Name>
ligand

>  <RI>
0

>  <Rbt.Current_Directory>
/home/itssahil/PROJECTS/Mol_Feturizer/Test_systems_manuscript/rnas/2ydh

>  <Rbt.Executable>
rbdock ($Id: //depot/dev/client3/rdock/2013.1/src/exe/rbdock.cxx#4 $)

>  <Rbt.Library>
libRbt.so (2013.1, Build901 2013/11/27)

>  <Rbt.Parameter_File>
/export/apps/rDock/src/rDock_2013.1_src/data/scripts/dock_solv.prm

>  <Rbt.Receptor>
prm/pocket_docking_3.prm

>  <SCORE>
-11.0802

>  <SCORE.INTER>
-9.91999

>  <SCORE.INTER.CONST>
1

>  <SCORE.INTER.POLAR>
0

>  <SCORE.INTER.ROT>
7

>  <SCORE.INTER.SOLV>
11

>  <SCORE.INTER.VDW>
-18.5467

>  <SCORE.INTER.norm>
-0.367407

>  <SCORE.INTRA>
-1.16408

>  <SCORE.INTRA.DIHEDRAL>
-4.04131

>  <SCORE.INTRA.DIHEDRAL.0>
9.75037

>  <SCORE.INTRA.POLAR>
0

>  <SCORE.INTRA.POLAR.0>
0

>  <SCORE.INTRA.REPUL>
0

>  <SCORE.INTRA.REPUL.0>
0

>  <SCORE.INTRA.SOLV>
-0.390155

>  <SCORE.INTRA.SOLV.lig_0>
-48.4279

>  <SCORE.INTRA.VDW>
1.05166

>  <SCORE.INTRA.VDW.0>
-4.69037

>  <SCORE.INTRA.norm>
-0.043114

>  <SCORE.RESTR>
0.00384405

>  <SCORE.RESTR.CAVITY>
0.00384405

>  <SCORE.RESTR.norm>
0.000142372

>  <SCORE.SYSTEM>
0

>  <SCORE.SYSTEM.CONST>
0

>  <SCORE.SYSTEM.DIHEDRAL>
0

>  <SCORE.SYSTEM.SOLV>
0

>  <SCORE.SYSTEM.norm>
0

>  <SCORE.heavy>
27

>  <SCORE.norm>
-0.410379

>  <RMSD>
6.552

$$$$
ligand
 OpenBabel02271912153D
libRbt.so/2013.1/901 2013/11/27
 27 29  0  0  0  0  0  0  0  0999 V2000
   14.6954   -8.6052    7.2861 N   0  0  0  0  0  0  0  0  0  0  0  0
   14.2737   -7.2851    6.7238 C   0  0  2  0  0  0  0  0  0  0  0  0
   13.8728   -7.4165    5.2376 C   0  0  0  0  0  0  0  0  0  0  0  0
   14.5973   -8.0081    4.4314 O   0  0  0  0  0  0  0  0  0  0  0  0
   15.3902   -6.2667    6.9282 C   0  0  0  0  0  0  0  0  0  0  0  0
   14.9994   -4.8319    6.6156 C   0  0  0  0  0  0  0  0  0  0  0  0
   13.7118   -4.1815    7.7183 S   0  0  2  0  0  0  0  0  0  0  0  0
   12.4678   -3.6501    6.5076 C   0  0  0  0  0  0  0  0  0  0  0  0
   14.3230   -2.6100    8.3482 C   0  0  0  0  0  0  0  0  0  0  0  0
   15.2688   -2.8749    9.5040 C   0  0  1  0  0  0  0  0  0  0  0  0
   14.6486   -3.5893   10.5619 O   0  0  0  0  0  0  0  0  0  0  0  0
   16.4647   -3.6840    9.0645 C   0  0  1  0  0  0  0  0  0  0  0  0
   17.4638   -2.8597    8.5364 O   0  0  0  0  0  0  0  0  0  0  0  0
   16.8814   -4.3131   10.3590 C   0  0  1  0  0  0  0  0  0  0  0  0
   17.7567   -3.4352   11.0412 O   0  0  0  0  0  0  0  0  0  0  0  0
   15.5805   -4.4775   11.1343 C   0  0  2  0  0  0  0  0  0  0  0  0
   12.8173   -6.9339    4.7877 O   0  0  0  0  0  0  0  0  0  0  0  0
   11.4225   -7.7256   11.2723 N   0  0  0  0  0  0  0  0  0  0  0  0
   11.4265   -6.3430   11.3866 C   0  0  0  0  0  0  0  0  0  0  0  0
   12.6170   -5.6272   11.3439 N   0  0  0  0  0  0  0  0  0  0  0  0
   13.7765   -6.2875   11.1706 C   0  0  0  0  0  0  0  0  0  0  0  0
   13.7837   -7.6789   11.0390 C   0  0  0  0  0  0  0  0  0  0  0  0
   12.6090   -8.4057   11.1008 C   0  0  0  0  0  0  0  0  0  0  0  0
   12.6221   -9.7253   10.9866 N   0  0  0  0  0  0  0  0  0  0  0  0
   15.0499   -8.0737   10.8660 N   0  0  0  0  0  0  0  0  0  0  0  0
   15.8399   -6.9774   10.8812 C   0  0  0  0  0  0  0  0  0  0  0  0
   15.0662   -5.8583   11.0646 N   0  0  0  0  0  0  0  0  0  0  0  0
  2  1  1  6  0  0  0
  2  3  1  0  0  0  0
  2  5  1  0  0  0  0
  3  4  1  0  0  0  0
  3 17  1  0  0  0  0
  5  6  1  0  0  0  0
  7  6  1  6  0  0  0
  7  8  1  0  0  0  0
  7  9  1  0  0  0  0
 10  9  1  6  0  0  0
 10 11  1  0  0  0  0
 10 12  1  0  0  0  0
 11 16  1  0  0  0  0
 12 13  1  1  0  0  0
 12 14  1  0  0  0  0
 14 15  1  1  0  0  0
 14 16  1  0  0  0  0
 16 27  1  6  0  0  0
 18 19  2  0  0  0  0
 18 23  1  0  0  0  0
 19 20  1  0  0  0  0
 20 21  2  0  0  0  0
 21 22  1  0  0  0  0
 21 27  1  0  0  0  0
 22 23  2  0  0  0  0
 22 25  1  0  0  0  0
 23 24  1  0  0  0  0
 25 26  2  0  0  0  0
 26 27  1  0  0  0  0
M  END
>  <CHROM.1>
-48.56145645,-170.09962493,64.28165300,-124.89989327,-81.45621842,-58.82354490
-34.58199090,14.42227166,-5.71201079,8.96968849,2.35896966,-1.00840453,-1.53676527

>  <Name>
ligand

>  <RI>
0

>  <Rbt.Current_Directory>
/home/itssahil/PROJECTS/Mol_Feturizer/Test_systems_manuscript/rnas/2ydh

>  <Rbt.Executable>
rbdock ($Id: //depot/dev/client3/rdock/2013.1/src/exe/rbdock.cxx#4 $)

>  <Rbt.Library>
libRbt.so (2013.1, Build901 2013/11/27)

>  <Rbt.Parameter_File>
/export/apps/rDock/src/rDock_2013.1_src/data/scripts/dock_solv.prm

>  <Rbt.Receptor>
prm/pocket_docking_3.prm

>  <SCORE>
-9.80816

>  <SCORE.INTER>
-9.06291

>  <SCORE.INTER.CONST>
1

>  <SCORE.INTER.POLAR>
0

>  <SCORE.INTER.ROT>
7

>  <SCORE.INTER.SOLV>
13.9635

>  <SCORE.INTER.VDW>
-18.9631

>  <SCORE.INTER.norm>
-0.335663

>  <SCORE.INTRA>
-0.74525

>  <SCORE.INTRA.DIHEDRAL>
-1.26451

>  <SCORE.INTRA.DIHEDRAL.0>
9.75037

>  <SCORE.INTRA.POLAR>
0

>  <SCORE.INTRA.POLAR.0>
0

>  <SCORE.INTRA.REPUL>
0

>  <SCORE.INTRA.REPUL.0>
0

>  <SCORE.INTRA.SOLV>
-0.716823

>  <SCORE.INTRA.SOLV.lig_0>
-48.4279

>  <SCORE.INTRA.VDW>
0.245417

>  <SCORE.INTRA.VDW.0>
-4.69037

>  <SCORE.INTRA.norm>
-0.0276019

>  <SCORE.RESTR>
0

>  <SCORE.RESTR.CAVITY>
0

>  <SCORE.RESTR.norm>
0

>  <SCORE.SYSTEM>
0

>  <SCORE.SYSTEM.CONST>
0

>  <SCORE.SYSTEM.DIHEDRAL>
0

>  <SCORE.SYSTEM.SOLV>
0

>  <SCORE.SYSTEM.norm>
0

>  <SCORE.heavy>
27

>  <SCORE.norm>
-0.363265

>  <RMSD>
6.569

$$$$
ligand
 OpenBabel02271912153D
libRbt.so/2013.1/901 2013/11/27
 27 29  0  0  0  0  0  0  0  0999 V2000
   14.5712   -8.0104   12.0839 N   0  0  0  0  0  0  0  0  0  0  0  0
   15.7365   -7.7327   12.9793 C   0  0  2  0  0  0  0  0  0  0  0  0
   15.8465   -8.7963   14.0944 C   0  0  0  0  0  0  0  0  0  0  0  0
   16.9429   -9.2466   14.4404 O   0  0  0  0  0  0  0  0  0  0  0  0
   15.6174   -6.3210   13.5437 C   0  0  0  0  0  0  0  0  0  0  0  0
   15.8568   -5.2148   12.5297 C   0  0  0  0  0  0  0  0  0  0  0  0
   17.5397   -5.2168   11.8480 S   0  0  2  0  0  0  0  0  0  0  0  0
   17.4510   -3.7922   10.7264 C   0  0  0  0  0  0  0  0  0  0  0  0
   17.6248   -6.5994   10.6986 C   0  0  0  0  0  0  0  0  0  0  0  0
   19.0740   -7.0148   10.5314 C   0  0  1  0  0  0  0  0  0  0  0  0
   19.2072   -8.3098    9.9663 O   0  0  0  0  0  0  0  0  0  0  0  0
   19.8218   -6.0603    9.6327 C   0  0  1  0  0  0  0  0  0  0  0  0
   20.3003   -4.9607   10.3530 O   0  0  0  0  0  0  0  0  0  0  0  0
   20.9333   -6.9358    9.1399 C   0  0  1  0  0  0  0  0  0  0  0  0
   22.0103   -6.8786   10.0560 O   0  0  0  0  0  0  0  0  0  0  0  0
   20.3291   -8.3338    9.1143 C   0  0  2  0  0  0  0  0  0  0  0  0
   14.8478   -9.2473   14.6849 O   0  0  0  0  0  0  0  0  0  0  0  0
   17.2157   -7.4834    4.9380 N   0  0  0  0  0  0  0  0  0  0  0  0
   17.2602   -6.7683    6.1259 C   0  0  0  0  0  0  0  0  0  0  0  0
   18.1341   -7.1303    7.1441 N   0  0  0  0  0  0  0  0  0  0  0  0
   18.9589   -8.1776    6.9626 C   0  0  0  0  0  0  0  0  0  0  0  0
   18.9340   -8.8965    5.7642 C   0  0  0  0  0  0  0  0  0  0  0  0
   18.0549   -8.5607    4.7510 C   0  0  0  0  0  0  0  0  0  0  0  0
   18.0273   -9.2518    3.6214 N   0  0  0  0  0  0  0  0  0  0  0  0
   19.8527   -9.8655    5.8413 N   0  0  0  0  0  0  0  0  0  0  0  0
   20.4573   -9.7793    7.0468 C   0  0  0  0  0  0  0  0  0  0  0  0
   19.9187   -8.7340    7.7551 N   0  0  0  0  0  0  0  0  0  0  0  0
  2  1  1  1  0  0  0
  2  3  1  0  0  0  0
  2  5  1  0  0  0  0
  3  4  1  0  0  0  0
  3 17  1  0  0  0  0
  5  6  1  0  0  0  0
  7  6  1  1  0  0  0
  7  8  1  0  0  0  0
  7  9  1  0  0  0  0
 10  9  1  6  0  0  0
 10 11  1  0  0  0  0
 10 12  1  0  0  0  0
 11 16  1  0  0  0  0
 12 13  1  1  0  0  0
 12 14  1  0  0  0  0
 14 15  1  1  0  0  0
 14 16  1  0  0  0  0
 16 27  1  6  0  0  0
 18 19  2  0  0  0  0
 18 23  1  0  0  0  0
 19 20  1  0  0  0  0
 20 21  2  0  0  0  0
 21 22  1  0  0  0  0
 21 27  1  0  0  0  0
 22 23  2  0  0  0  0
 22 25  1  0  0  0  0
 23 24  1  0  0  0  0
 25 26  2  0  0  0  0
 26 27  1  0  0  0  0
M  END
>  <CHROM.1>
139.34206463,-70.98940750,-63.23087300,-179.45758457,-157.03822120,162.92038812
54.57583518,18.13360066,-7.39266532,9.72175430,2.03571442,0.61577306,1.12139798

>  <Name>
ligand

>  <RI>
0

>  <Rbt.Current_Directory>
/home/itssahil/PROJECTS/Mol_Feturizer/Test_systems_manuscript/rnas/2ydh

>  <Rbt.Executable>
rbdock ($Id: //depot/dev/client3/rdock/2013.1/src/exe/rbdock.cxx#4 $)

>  <Rbt.Library>
libRbt.so (2013.1, Build901 2013/11/27)

>  <Rbt.Parameter_File>
/export/apps/rDock/src/rDock_2013.1_src/data/scripts/dock_solv.prm

>  <Rbt.Receptor>
prm/pocket_docking_7.prm

>  <SCORE>
-9.35233

>  <SCORE.INTER>
-9.29784

>  <SCORE.INTER.CONST>
1

>  <SCORE.INTER.POLAR>
0

>  <SCORE.INTER.ROT>
7

>  <SCORE.INTER.SOLV>
14.2409

>  <SCORE.INTER.VDW>
-19.2122

>  <SCORE.INTER.norm>
-0.344364

>  <SCORE.INTRA>
-0.0544918

>  <SCORE.INTRA.DIHEDRAL>
-2.78031

>  <SCORE.INTRA.DIHEDRAL.0>
9.75037

>  <SCORE.INTRA.POLAR>
0

>  <SCORE.INTRA.POLAR.0>
0

>  <SCORE.INTRA.REPUL>
0

>  <SCORE.INTRA.REPUL.0>
0

>  <SCORE.INTRA.SOLV>
0.691589

>  <SCORE.INTRA.SOLV.lig_0>
-48.4279

>  <SCORE.INTRA.VDW>
0.98987

>  <SCORE.INTRA.VDW.0>
-4.69037

>  <SCORE.INTRA.norm>
-0.00201822

>  <SCORE.RESTR>
0

>  <SCORE.RESTR.CAVITY>
0

>  <SCORE.RESTR.norm>
0

>  <SCORE.SYSTEM>
0

>  <SCORE.SYSTEM.CONST>
0

>  <SCORE.SYSTEM.DIHEDRAL>
0

>  <SCORE.SYSTEM.SOLV>
0

>  <SCORE.SYSTEM.norm>
0

>  <SCORE.heavy>
27

>  <SCORE.norm>
-0.346383

>  <RMSD>
6.583

$$$$
ligand
 OpenBabel02271912153D
libRbt.so/2013.1/901 2013/11/27
 27 29  0  0  0  0  0  0  0  0999 V2000
   20.4505   -9.4514    5.6599 N   0  0  0  0  0  0  0  0  0  0  0  0
   19.3401   -9.5025    4.6594 C   0  0  2  0  0  0  0  0  0  0  0  0
   19.7536   -8.8233    3.3349 C   0  0  0  0  0  0  0  0  0  0  0  0
   20.6893   -8.0186    3.2957 O   0  0  0  0  0  0  0  0  0  0  0  0
   18.0873   -8.8730    5.2594 C   0  0  0  0  0  0  0  0  0  0  0  0
   16.8802   -8.8688    4.3364 C   0  0  0  0  0  0  0  0  0  0  0  0
   15.3438   -8.3696    5.1653 S   0  0  2  0  0  0  0  0  0  0  0  0
   14.2856   -8.0202    3.7321 C   0  0  0  0  0  0  0  0  0  0  0  0
   15.6337   -6.7232    5.8325 C   0  0  0  0  0  0  0  0  0  0  0  0
   14.2991   -6.0779    6.1536 C   0  0  1  0  0  0  0  0  0  0  0  0
   13.4505   -6.9292    6.9081 O   0  0  0  0  0  0  0  0  0  0  0  0
   14.4771   -4.8094    6.9520 C   0  0  1  0  0  0  0  0  0  0  0  0
   14.7168   -3.7160    6.1132 O   0  0  0  0  0  0  0  0  0  0  0  0
   13.1492   -4.7099    7.6389 C   0  0  1  0  0  0  0  0  0  0  0  0
   12.2415   -4.0241    6.7975 O   0  0  0  0  0  0  0  0  0  0  0  0
   12.7125   -6.1570    7.8268 C   0  0  2  0  0  0  0  0  0  0  0  0
   19.1672   -9.0481    2.2602 O   0  0  0  0  0  0  0  0  0  0  0  0
   14.3624   -5.0756   12.7224 N   0  0  0  0  0  0  0  0  0  0  0  0
   14.2893   -4.2124   11.6388 C   0  0  0  0  0  0  0  0  0  0  0  0
   13.8420   -4.6580   10.4007 N   0  0  0  0  0  0  0  0  0  0  0  0
   13.4583   -5.9400   10.2616 C   0  0  0  0  0  0  0  0  0  0  0  0
   13.5131   -6.8154   11.3499 C   0  0  0  0  0  0  0  0  0  0  0  0
   13.9760   -6.3912   12.5819 C   0  0  0  0  0  0  0  0  0  0  0  0
   14.0364   -7.2274   13.6074 N   0  0  0  0  0  0  0  0  0  0  0  0
   13.0668   -8.0098   10.9457 N   0  0  0  0  0  0  0  0  0  0  0  0
   12.7302   -7.9152    9.6404 C   0  0  0  0  0  0  0  0  0  0  0  0
   12.9619   -6.6360    9.1995 N   0  0  0  0  0  0  0  0  0  0  0  0
  2  1  1  1  0  0  0
  2  3  1  0  0  0  0
  2  5  1  0  0  0  0
  3  4  1  0  0  0  0
  3 17  1  0  0  0  0
  5  6  1  0  0  0  0
  7  6  1  6  0  0  0
  7  8  1  0  0  0  0
  7  9  1  0  0  0  0
 10  9  1  1  0  0  0
 10 11  1  0  0  0  0
 10 12  1  0  0  0  0
 11 16  1  0  0  0  0
 12 13  1  6  0  0  0
 12 14  1  0  0  0  0
 14 15  1  6  0  0  0
 14 16  1  0  0  0  0
 16 27  1  1  0  0  0
 18 19  2  0  0  0  0
 18 23  1  0  0  0  0
 19 20  1  0  0  0  0
 20 21  2  0  0  0  0
 21 22  1  0  0  0  0
 21 27  1  0  0  0  0
 22 23  2  0  0  0  0
 22 25  1  0  0  0  0
 23 24  1  0  0  0  0
 25 26  2  0  0  0  0
 26 27  1  0  0  0  0
M  END
>  <CHROM.1>
-20.23948085,-179.78887854,170.45217290,164.49811575,162.72081660,48.99098077
121.55628864,15.26764182,-6.92532508,7.32371329,-0.82239862,-0.58683965,1.65723169

>  <Name>
ligand

>  <RI>
0

>  <Rbt.Current_Directory>
/home/itssahil/PROJECTS/Mol_Feturizer/Test_systems_manuscript/rnas/2ydh

>  <Rbt.Executable>
rbdock ($Id: //depot/dev/client3/rdock/2013.1/src/exe/rbdock.cxx#4 $)

>  <Rbt.Library>
libRbt.so (2013.1, Build901 2013/11/27)

>  <Rbt.Parameter_File>
/export/apps/rDock/src/rDock_2013.1_src/data/scripts/dock_solv.prm

>  <Rbt.Receptor>
prm/pocket_docking_8.prm

>  <SCORE>
-14.7733

>  <SCORE.INTER>
-14.4519

>  <SCORE.INTER.CONST>
1

>  <SCORE.INTER.POLAR>
0

>  <SCORE.INTER.ROT>
7

>  <SCORE.INTER.SOLV>
9.87752

>  <SCORE.INTER.VDW>
-21.1937

>  <SCORE.INTER.norm>
-0.535254

>  <SCORE.INTRA>
-0.321427

>  <SCORE.INTRA.DIHEDRAL>
-5.46707

>  <SCORE.INTRA.DIHEDRAL.0>
9.75037

>  <SCORE.INTRA.POLAR>
0

>  <SCORE.INTRA.POLAR.0>
0

>  <SCORE.INTRA.REPUL>
0

>  <SCORE.INTRA.REPUL.0>
0

>  <SCORE.INTRA.SOLV>
-1.49035

>  <SCORE.INTRA.SOLV.lig_0>
-48.4279

>  <SCORE.INTRA.VDW>
3.15728

>  <SCORE.INTRA.VDW.0>
-4.69037

>  <SCORE.INTRA.norm>
-0.0119047

>  <SCORE.RESTR>
0

>  <SCORE.RESTR.CAVITY>
0

>  <SCORE.RESTR.norm>
0

>  <SCORE.SYSTEM>
0

>  <SCORE.SYSTEM.CONST>
0

>  <SCORE.SYSTEM.DIHEDRAL>
0

>  <SCORE.SYSTEM.SOLV>
0

>  <SCORE.SYSTEM.norm>
0

>  <SCORE.heavy>
27

>  <SCORE.norm>
-0.547159

>  <RMSD>
6.588

$$$$
ligand
 OpenBabel02271912153D
libRbt.so/2013.1/901 2013/11/27
 27 29  0  0  0  0  0  0  0  0999 V2000
   15.5896   -9.9079    3.4786 N   0  0  0  0  0  0  0  0  0  0  0  0
   15.1241   -8.8079    4.3787 C   0  0  2  0  0  0  0  0  0  0  0  0
   14.1342   -7.8734    3.6482 C   0  0  0  0  0  0  0  0  0  0  0  0
   14.1325   -7.7833    2.4167 O   0  0  0  0  0  0  0  0  0  0  0  0
   16.3319   -8.0514    4.9216 C   0  0  0  0  0  0  0  0  0  0  0  0
   15.9868   -6.8675    5.8095 C   0  0  0  0  0  0  0  0  0  0  0  0
   17.2263   -6.5507    7.0981 S   0  0  2  0  0  0  0  0  0  0  0  0
   16.9932   -8.0077    8.1557 C   0  0  0  0  0  0  0  0  0  0  0  0
   16.5692   -5.2273    8.1261 C   0  0  0  0  0  0  0  0  0  0  0  0
   15.1053   -5.0192    7.7881 C   0  0  1  0  0  0  0  0  0  0  0  0
   14.3470   -6.2141    7.8949 O   0  0  0  0  0  0  0  0  0  0  0  0
   14.4657   -4.0053    8.7050 C   0  0  1  0  0  0  0  0  0  0  0  0
   14.6783   -2.7027    8.2418 O   0  0  0  0  0  0  0  0  0  0  0  0
   13.0240   -4.4040    8.6184 C   0  0  1  0  0  0  0  0  0  0  0  0
   12.4264   -3.7481    7.5162 O   0  0  0  0  0  0  0  0  0  0  0  0
   13.0622   -5.9090    8.3862 C   0  0  2  0  0  0  0  0  0  0  0  0
   13.3065   -7.1725    4.2589 O   0  0  0  0  0  0  0  0  0  0  0  0
   14.1872  -10.0964   11.3960 N   0  0  0  0  0  0  0  0  0  0  0  0
   14.7482   -9.7504   10.1752 C   0  0  0  0  0  0  0  0  0  0  0  0
   14.3299   -8.6132    9.4947 N   0  0  0  0  0  0  0  0  0  0  0  0
   13.3812   -7.8307   10.0406 C   0  0  0  0  0  0  0  0  0  0  0  0
   12.8194   -8.1606   11.2771 C   0  0  0  0  0  0  0  0  0  0  0  0
   13.2107   -9.3004   11.9552 C   0  0  0  0  0  0  0  0  0  0  0  0
   12.6675   -9.6147   13.1217 N   0  0  0  0  0  0  0  0  0  0  0  0
   11.9229   -7.2190   11.5911 N   0  0  0  0  0  0  0  0  0  0  0  0
   11.9034   -6.3057   10.5953 C   0  0  0  0  0  0  0  0  0  0  0  0
   12.8059   -6.6663    9.6258 N   0  0  0  0  0  0  0  0  0  0  0  0
  2  1  1  6  0  0  0
  2  3  1  0  0  0  0
  2  5  1  0  0  0  0
  3  4  1  0  0  0  0
  3 17  1  0  0  0  0
  5  6  1  0  0  0  0
  7  6  1  6  0  0  0
  7  8  1  0  0  0  0
  7  9  1  0  0  0  0
 10  9  1  1  0  0  0
 10 11  1  0  0  0  0
 10 12  1  0  0  0  0
 11 16  1  0  0  0  0
 12 13  1  6  0  0  0
 12 14  1  0  0  0  0
 14 15  1  6  0  0  0
 14 16  1  0  0  0  0
 16 27  1  1  0  0  0
 18 19  2  0  0  0  0
 18 23  1  0  0  0  0
 19 20  1  0  0  0  0
 20 21  2  0  0  0  0
 21 22  1  0  0  0  0
 21 27  1  0  0  0  0
 22 23  2  0  0  0  0
 22 25  1  0  0  0  0
 23 24  1  0  0  0  0
 25 26  2  0  0  0  0
 26 27  1  0  0  0  0
M  END
>  <CHROM.1>
-23.62258338,177.63708112,148.91761948,-68.60463350,12.25717492,54.58238539
-23.71719934,14.40172452,-7.02539250,7.96231742,-0.41094350,-1.22644355,2.77726667

>  <Name>
ligand

>  <RI>
0

>  <Rbt.Current_Directory>
/home/itssahil/PROJECTS/Mol_Feturizer/Test_systems_manuscript/rnas/2ydh

>  <Rbt.Executable>
rbdock ($Id: //depot/dev/client3/rdock/2013.1/src/exe/rbdock.cxx#4 $)

>  <Rbt.Library>
libRbt.so (2013.1, Build901 2013/11/27)

>  <Rbt.Parameter_File>
/export/apps/rDock/src/rDock_2013.1_src/data/scripts/dock_solv.prm

>  <Rbt.Receptor>
prm/pocket_docking_3.prm

>  <SCORE>
-6.7286

>  <SCORE.INTER>
-9.91957

>  <SCORE.INTER.CONST>
1

>  <SCORE.INTER.POLAR>
0

>  <SCORE.INTER.ROT>
7

>  <SCORE.INTER.SOLV>
13.1082

>  <SCORE.INTER.VDW>
-19.2491

>  <SCORE.INTER.norm>
-0.367391

>  <SCORE.INTRA>
3.10133

>  <SCORE.INTRA.DIHEDRAL>
-0.336085

>  <SCORE.INTRA.DIHEDRAL.0>
9.75037

>  <SCORE.INTRA.POLAR>
0

>  <SCORE.INTRA.POLAR.0>
0

>  <SCORE.INTRA.REPUL>
0

>  <SCORE.INTRA.REPUL.0>
0

>  <SCORE.INTRA.SOLV>
-1.28308

>  <SCORE.INTRA.SOLV.lig_0>
-48.4279

>  <SCORE.INTRA.VDW>
3.91091

>  <SCORE.INTRA.VDW.0>
-4.69037

>  <SCORE.INTRA.norm>
0.114864

>  <SCORE.RESTR>
0.0896405

>  <SCORE.RESTR.CAVITY>
0.0896405

>  <SCORE.RESTR.norm>
0.00332002

>  <SCORE.SYSTEM>
0

>  <SCORE.SYSTEM.CONST>
0

>  <SCORE.SYSTEM.DIHEDRAL>
0

>  <SCORE.SYSTEM.SOLV>
0

>  <SCORE.SYSTEM.norm>
0

>  <SCORE.heavy>
27

>  <SCORE.norm>
-0.249207

>  <RMSD>
6.601

$$$$
ligand
 OpenBabel02271912153D
libRbt.so/2013.1/901 2013/11/27
 27 29  0  0  0  0  0  0  0  0999 V2000
   15.1447   -8.3248    6.4227 N   0  0  0  0  0  0  0  0  0  0  0  0
   13.8794   -7.8441    5.7866 C   0  0  2  0  0  0  0  0  0  0  0  0
   14.0613   -7.6497    4.2648 C   0  0  0  0  0  0  0  0  0  0  0  0
   13.2604   -6.9781    3.6074 O   0  0  0  0  0  0  0  0  0  0  0  0
   13.4190   -6.5645    6.4768 C   0  0  0  0  0  0  0  0  0  0  0  0
   14.4879   -5.4905    6.5908 C   0  0  0  0  0  0  0  0  0  0  0  0
   13.9226   -4.0045    7.4679 S   0  0  2  0  0  0  0  0  0  0  0  0
   12.8123   -3.2821    6.2266 C   0  0  0  0  0  0  0  0  0  0  0  0
   15.3028   -2.8492    7.4601 C   0  0  0  0  0  0  0  0  0  0  0  0
   16.1370   -3.0670    8.7080 C   0  0  1  0  0  0  0  0  0  0  0  0
   15.3771   -2.9389    9.8997 O   0  0  0  0  0  0  0  0  0  0  0  0
   16.7574   -4.4428    8.7241 C   0  0  1  0  0  0  0  0  0  0  0  0
   17.9601   -4.4611    8.0101 O   0  0  0  0  0  0  0  0  0  0  0  0
   16.9729   -4.6471   10.1927 C   0  0  1  0  0  0  0  0  0  0  0  0
   18.2273   -4.1036   10.5579 O   0  0  0  0  0  0  0  0  0  0  0  0
   15.8422   -3.8675   10.8517 C   0  0  2  0  0  0  0  0  0  0  0  0
   15.0081   -8.1587    3.6373 O   0  0  0  0  0  0  0  0  0  0  0  0
   13.8811   -7.1800   14.4629 N   0  0  0  0  0  0  0  0  0  0  0  0
   15.0939   -6.5072   14.4947 C   0  0  0  0  0  0  0  0  0  0  0  0
   15.4751   -5.6740   13.4498 N   0  0  0  0  0  0  0  0  0  0  0  0
   14.6447   -5.5065   12.4046 C   0  0  0  0  0  0  0  0  0  0  0  0
   13.4135   -6.1671   12.3682 C   0  0  0  0  0  0  0  0  0  0  0  0
   13.0306   -7.0156   13.3907 C   0  0  0  0  0  0  0  0  0  0  0  0
   11.8675   -7.6480   13.3465 N   0  0  0  0  0  0  0  0  0  0  0  0
   12.7873   -5.8177   11.2392 N   0  0  0  0  0  0  0  0  0  0  0  0
   13.5814   -4.9571   10.5647 C   0  0  0  0  0  0  0  0  0  0  0  0
   14.7372   -4.7482   11.2754 N   0  0  0  0  0  0  0  0  0  0  0  0
  2  1  1  1  0  0  0
  2  3  1  0  0  0  0
  2  5  1  0  0  0  0
  3  4  1  0  0  0  0
  3 17  1  0  0  0  0
  5  6  1  0  0  0  0
  7  6  1  6  0  0  0
  7  8  1  0  0  0  0
  7  9  1  0  0  0  0
 10  9  1  6  0  0  0
 10 11  1  0  0  0  0
 10 12  1  0  0  0  0
 11 16  1  0  0  0  0
 12 13  1  6  0  0  0
 12 14  1  0  0  0  0
 14 15  1  1  0  0  0
 14 16  1  0  0  0  0
 16 27  1  6  0  0  0
 18 19  2  0  0  0  0
 18 23  1  0  0  0  0
 19 20  1  0  0  0  0
 20 21  2  0  0  0  0
 21 22  1  0  0  0  0
 21 27  1  0  0  0  0
 22 23  2  0  0  0  0
 22 25  1  0  0  0  0
 23 24  1  0  0  0  0
 25 26  2  0  0  0  0
 26 27  1  0  0  0  0
M  END
>  <CHROM.1>
-163.03661515,51.19512608,-178.00243399,-72.34325528,-91.00968233,-56.55329975
-159.97345867,14.70494864,-5.45524122,9.12569297,1.59458256,-0.87129155,-1.61248905

>  <Name>
ligand

>  <RI>
0

>  <Rbt.Current_Directory>
/home/itssahil/PROJECTS/Mol_Feturizer/Test_systems_manuscript/rnas/2ydh

>  <Rbt.Executable>
rbdock ($Id: //depot/dev/client3/rdock/2013.1/src/exe/rbdock.cxx#4 $)

>  <Rbt.Library>
libRbt.so (2013.1, Build901 2013/11/27)

>  <Rbt.Parameter_File>
/export/apps/rDock/src/rDock_2013.1_src/data/scripts/dock_solv.prm

>  <Rbt.Receptor>
prm/pocket_docking_6.prm

>  <SCORE>
-17.0351

>  <SCORE.INTER>
-16.2822

>  <SCORE.INTER.CONST>
1

>  <SCORE.INTER.POLAR>
0

>  <SCORE.INTER.ROT>
7

>  <SCORE.INTER.SOLV>
11.0095

>  <SCORE.INTER.VDW>
-22.7913

>  <SCORE.INTER.norm>
-0.603043

>  <SCORE.INTRA>
-0.752943

>  <SCORE.INTRA.DIHEDRAL>
-4.7991

>  <SCORE.INTRA.DIHEDRAL.0>
9.75037

>  <SCORE.INTRA.POLAR>
0

>  <SCORE.INTRA.POLAR.0>
0

>  <SCORE.INTRA.REPUL>
0

>  <SCORE.INTRA.REPUL.0>
0

>  <SCORE.INTRA.SOLV>
-0.454109

>  <SCORE.INTRA.SOLV.lig_0>
-48.4279

>  <SCORE.INTRA.VDW>
1.87366

>  <SCORE.INTRA.VDW.0>
-4.69037

>  <SCORE.INTRA.norm>
-0.0278868

>  <SCORE.RESTR>
0

>  <SCORE.RESTR.CAVITY>
0

>  <SCORE.RESTR.norm>
0

>  <SCORE.SYSTEM>
0

>  <SCORE.SYSTEM.CONST>
0

>  <SCORE.SYSTEM.DIHEDRAL>
0

>  <SCORE.SYSTEM.SOLV>
0

>  <SCORE.SYSTEM.norm>
0

>  <SCORE.heavy>
27

>  <SCORE.norm>
-0.63093

>  <RMSD>
6.611

$$$$
ligand
 OpenBabel02271912153D
libRbt.so/2013.1/901 2013/11/27
 27 29  0  0  0  0  0  0  0  0999 V2000
   15.7037   -2.1240    8.7306 N   0  0  0  0  0  0  0  0  0  0  0  0
   14.9197   -3.3575    8.4132 C   0  0  2  0  0  0  0  0  0  0  0  0
   14.4032   -3.3286    6.9575 C   0  0  0  0  0  0  0  0  0  0  0  0
   14.4341   -4.3398    6.2496 O   0  0  0  0  0  0  0  0  0  0  0  0
   13.7853   -3.5107    9.4208 C   0  0  0  0  0  0  0  0  0  0  0  0
   14.2407   -3.7356   10.8530 C   0  0  0  0  0  0  0  0  0  0  0  0
   15.2025   -5.2604   11.0700 S   0  0  2  0  0  0  0  0  0  0  0  0
   15.4088   -5.2751   12.8736 C   0  0  0  0  0  0  0  0  0  0  0  0
   16.8712   -4.8984   10.5006 C   0  0  0  0  0  0  0  0  0  0  0  0
   17.5423   -6.1927   10.0822 C   0  0  1  0  0  0  0  0  0  0  0  0
   17.5409   -7.1653   11.1157 O   0  0  0  0  0  0  0  0  0  0  0  0
   16.8535   -6.8116    8.8905 C   0  0  1  0  0  0  0  0  0  0  0  0
   17.3310   -6.2669    7.6938 O   0  0  0  0  0  0  0  0  0  0  0  0
   17.2403   -8.2507    9.0464 C   0  0  1  0  0  0  0  0  0  0  0  0
   18.4849   -8.4686    8.4094 O   0  0  0  0  0  0  0  0  0  0  0  0
   17.3708   -8.4451   10.5516 C   0  0  2  0  0  0  0  0  0  0  0  0
   13.9428   -2.2969    6.4350 O   0  0  0  0  0  0  0  0  0  0  0  0
   14.7736  -10.0165   14.8694 N   0  0  0  0  0  0  0  0  0  0  0  0
   15.9977   -9.3672   14.8017 C   0  0  0  0  0  0  0  0  0  0  0  0
   16.5596   -9.0302   13.5761 N   0  0  0  0  0  0  0  0  0  0  0  0
   15.8944   -9.3232   12.4439 C   0  0  0  0  0  0  0  0  0  0  0  0
   14.6532   -9.9636   12.4999 C   0  0  0  0  0  0  0  0  0  0  0  0
   14.0923  -10.3238   13.7113 C   0  0  0  0  0  0  0  0  0  0  0  0
   12.9209  -10.9404   13.7587 N   0  0  0  0  0  0  0  0  0  0  0  0
   14.2099  -10.1213   11.2478 N   0  0  0  0  0  0  0  0  0  0  0  0
   15.1286   -9.5992   10.4055 C   0  0  0  0  0  0  0  0  0  0  0  0
   16.1795   -9.0946   11.1304 N   0  0  0  0  0  0  0  0  0  0  0  0
  2  1  1  1  0  0  0
  2  3  1  0  0  0  0
  2  5  1  0  0  0  0
  3  4  1  0  0  0  0
  3 17  1  0  0  0  0
  5  6  1  0  0  0  0
  7  6  1  1  0  0  0
  7  8  1  0  0  0  0
  7  9  1  0  0  0  0
 10  9  1  1  0  0  0
 10 11  1  0  0  0  0
 10 12  1  0  0  0  0
 11 16  1  0  0  0  0
 12 13  1  6  0  0  0
 12 14  1  0  0  0  0
 14 15  1  6  0  0  0
 14 16  1  0  0  0  0
 16 27  1  1  0  0  0
 18 19  2  0  0  0  0
 18 23  1  0  0  0  0
 19 20  1  0  0  0  0
 20 21  2  0  0  0  0
 21 22  1  0  0  0  0
 21 27  1  0  0  0  0
 22 23  2  0  0  0  0
 22 25  1  0  0  0  0
 23 24  1  0  0  0  0
 25 26  2  0  0  0  0
 26 27  1  0  0  0  0
M  END
>  <CHROM.1>
138.47547627,-64.24365535,-61.81052136,-174.40871763,-155.57614181,-55.53716612
-55.32295748,15.62002959,-6.78229464,10.52254637,1.59276683,0.81800447,-0.70962092

>  <Name>
ligand

>  <RI>
0

>  <Rbt.Current_Directory>
/home/itssahil/PROJECTS/Mol_Feturizer/Test_systems_manuscript/rnas/2ydh

>  <Rbt.Executable>
rbdock ($Id: //depot/dev/client3/rdock/2013.1/src/exe/rbdock.cxx#4 $)

>  <Rbt.Library>
libRbt.so (2013.1, Build901 2013/11/27)

>  <Rbt.Parameter_File>
/export/apps/rDock/src/rDock_2013.1_src/data/scripts/dock_solv.prm

>  <Rbt.Receptor>
prm/pocket_docking_5.prm

>  <SCORE>
-10.6272

>  <SCORE.INTER>
-10.0924

>  <SCORE.INTER.CONST>
1

>  <SCORE.INTER.POLAR>
0

>  <SCORE.INTER.ROT>
7

>  <SCORE.INTER.SOLV>
13.9827

>  <SCORE.INTER.VDW>
-19.6558

>  <SCORE.INTER.norm>
-0.373793

>  <SCORE.INTRA>
-0.534767

>  <SCORE.INTRA.DIHEDRAL>
-3.67383

>  <SCORE.INTRA.DIHEDRAL.0>
9.75037

>  <SCORE.INTRA.POLAR>
0

>  <SCORE.INTRA.POLAR.0>
0

>  <SCORE.INTRA.REPUL>
0

>  <SCORE.INTRA.REPUL.0>
0

>  <SCORE.INTRA.SOLV>
0.975718

>  <SCORE.INTRA.SOLV.lig_0>
-48.4279

>  <SCORE.INTRA.VDW>
0.81429

>  <SCORE.INTRA.VDW.0>
-4.69037

>  <SCORE.INTRA.norm>
-0.0198062

>  <SCORE.RESTR>
0

>  <SCORE.RESTR.CAVITY>
0

>  <SCORE.RESTR.norm>
0

>  <SCORE.SYSTEM>
0

>  <SCORE.SYSTEM.CONST>
0

>  <SCORE.SYSTEM.DIHEDRAL>
0

>  <SCORE.SYSTEM.SOLV>
0

>  <SCORE.SYSTEM.norm>
0

>  <SCORE.heavy>
27

>  <SCORE.norm>
-0.3936

>  <RMSD>
6.612

$$$$
ligand
 OpenBabel02271912153D
libRbt.so/2013.1/901 2013/11/27
 27 29  0  0  0  0  0  0  0  0999 V2000
   15.3034   -8.0573    6.3873 N   0  0  0  0  0  0  0  0  0  0  0  0
   14.1505   -7.3996    5.6981 C   0  0  2  0  0  0  0  0  0  0  0  0
   14.1856   -7.6681    4.1771 C   0  0  0  0  0  0  0  0  0  0  0  0
   15.0615   -8.3788    3.6749 O   0  0  0  0  0  0  0  0  0  0  0  0
   14.1528   -5.9083    6.0168 C   0  0  0  0  0  0  0  0  0  0  0  0
   13.7932   -5.5706    7.4541 C   0  0  0  0  0  0  0  0  0  0  0  0
   13.6543   -3.7861    7.7597 S   0  0  2  0  0  0  0  0  0  0  0  0
   12.7486   -3.2596    6.2770 C   0  0  0  0  0  0  0  0  0  0  0  0
   15.2887   -3.0889    7.4728 C   0  0  0  0  0  0  0  0  0  0  0  0
   16.1148   -3.2290    8.7372 C   0  0  1  0  0  0  0  0  0  0  0  0
   15.3459   -3.0337    9.9140 O   0  0  0  0  0  0  0  0  0  0  0  0
   16.7403   -4.5988    8.8390 C   0  0  1  0  0  0  0  0  0  0  0  0
   17.9481   -4.6544    8.1357 O   0  0  0  0  0  0  0  0  0  0  0  0
   16.9460   -4.7150   10.3186 C   0  0  1  0  0  0  0  0  0  0  0  0
   18.1957   -4.1457   10.6597 O   0  0  0  0  0  0  0  0  0  0  0  0
   15.8077   -3.9025   10.9225 C   0  0  2  0  0  0  0  0  0  0  0  0
   13.3468   -7.1826    3.3960 O   0  0  0  0  0  0  0  0  0  0  0  0
   13.9314   -7.1883   14.6024 N   0  0  0  0  0  0  0  0  0  0  0  0
   15.1587   -6.5418   14.5848 C   0  0  0  0  0  0  0  0  0  0  0  0
   15.5129   -5.7123   13.5275 N   0  0  0  0  0  0  0  0  0  0  0  0
   14.6424   -5.5224   12.5193 C   0  0  0  0  0  0  0  0  0  0  0  0
   13.3968   -6.1562   12.5333 C   0  0  0  0  0  0  0  0  0  0  0  0
   13.0397   -7.0009   13.5682 C   0  0  0  0  0  0  0  0  0  0  0  0
   11.8623   -7.6079   13.5716 N   0  0  0  0  0  0  0  0  0  0  0  0
   12.7307   -5.7884   11.4333 N   0  0  0  0  0  0  0  0  0  0  0  0
   13.5137   -4.9420   10.7286 C   0  0  0  0  0  0  0  0  0  0  0  0
   14.7030   -4.7611   11.3899 N   0  0  0  0  0  0  0  0  0  0  0  0
  2  1  1  1  0  0  0
  2  3  1  0  0  0  0
  2  5  1  0  0  0  0
  3  4  1  0  0  0  0
  3 17  1  0  0  0  0
  5  6  1  0  0  0  0
  7  6  1  6  0  0  0
  7  8  1  0  0  0  0
  7  9  1  0  0  0  0
 10  9  1  6  0  0  0
 10 11  1  0  0  0  0
 10 12  1  0  0  0  0
 11 16  1  0  0  0  0
 12 13  1  6  0  0  0
 12 14  1  0  0  0  0
 14 15  1  6  0  0  0
 14 16  1  0  0  0  0
 16 27  1  6  0  0  0
 18 19  2  0  0  0  0
 18 23  1  0  0  0  0
 19 20  1  0  0  0  0
 20 21  2  0  0  0  0
 21 22  1  0  0  0  0
 21 27  1  0  0  0  0
 22 23  2  0  0  0  0
 22 25  1  0  0  0  0
 23 24  1  0  0  0  0
 25 26  2  0  0  0  0
 26 27  1  0  0  0  0
M  END
>  <CHROM.1>
2.03985643,-69.99056080,-174.63076857,42.67560026,-84.62452365,-37.17426534
-164.81063090,14.69854445,-5.44541858,9.22259644,1.57331781,-0.85339694,-1.62399919

>  <Name>
ligand

>  <RI>
0

>  <Rbt.Current_Directory>
/home/itssahil/PROJECTS/Mol_Feturizer/Test_systems_manuscript/rnas/2ydh

>  <Rbt.Executable>
rbdock ($Id: //depot/dev/client3/rdock/2013.1/src/exe/rbdock.cxx#4 $)

>  <Rbt.Library>
libRbt.so (2013.1, Build901 2013/11/27)

>  <Rbt.Parameter_File>
/export/apps/rDock/src/rDock_2013.1_src/data/scripts/dock_solv.prm

>  <Rbt.Receptor>
prm/pocket_docking_4.prm

>  <SCORE>
-15.5902

>  <SCORE.INTER>
-16.4085

>  <SCORE.INTER.CONST>
1

>  <SCORE.INTER.POLAR>
0

>  <SCORE.INTER.ROT>
7

>  <SCORE.INTER.SOLV>
10.2269

>  <SCORE.INTER.VDW>
-22.6146

>  <SCORE.INTER.norm>
-0.607724

>  <SCORE.INTRA>
0.818319

>  <SCORE.INTRA.DIHEDRAL>
-3.39249

>  <SCORE.INTRA.DIHEDRAL.0>
9.75037

>  <SCORE.INTRA.POLAR>
0

>  <SCORE.INTRA.POLAR.0>
0

>  <SCORE.INTRA.REPUL>
0

>  <SCORE.INTRA.REPUL.0>
0

>  <SCORE.INTRA.SOLV>
-0.545706

>  <SCORE.INTRA.SOLV.lig_0>
-48.4279

>  <SCORE.INTRA.VDW>
2.78742

>  <SCORE.INTRA.VDW.0>
-4.69037

>  <SCORE.INTRA.norm>
0.0303081

>  <SCORE.RESTR>
0

>  <SCORE.RESTR.CAVITY>
0

>  <SCORE.RESTR.norm>
0

>  <SCORE.SYSTEM>
0

>  <SCORE.SYSTEM.CONST>
0

>  <SCORE.SYSTEM.DIHEDRAL>
0

>  <SCORE.SYSTEM.SOLV>
0

>  <SCORE.SYSTEM.norm>
0

>  <SCORE.heavy>
27

>  <SCORE.norm>
-0.577416

>  <RMSD>
6.631

$$$$
ligand
 OpenBabel02271912153D
libRbt.so/2013.1/901 2013/11/27
 27 29  0  0  0  0  0  0  0  0999 V2000
   15.0116   -8.3383    6.3554 N   0  0  0  0  0  0  0  0  0  0  0  0
   13.7982   -7.8578    5.6250 C   0  0  2  0  0  0  0  0  0  0  0  0
   14.0757   -7.7284    4.1108 C   0  0  0  0  0  0  0  0  0  0  0  0
   13.2897   -7.1342    3.3667 O   0  0  0  0  0  0  0  0  0  0  0  0
   13.3264   -6.5424    6.2356 C   0  0  0  0  0  0  0  0  0  0  0  0
   14.4133   -5.4908    6.3836 C   0  0  0  0  0  0  0  0  0  0  0  0
   13.8648   -4.0127    7.2843 S   0  0  2  0  0  0  0  0  0  0  0  0
   12.7902   -3.2400    6.0417 C   0  0  0  0  0  0  0  0  0  0  0  0
   15.2687   -2.8869    7.3238 C   0  0  0  0  0  0  0  0  0  0  0  0
   16.0180   -3.0767    8.6289 C   0  0  1  0  0  0  0  0  0  0  0  0
   15.1516   -3.1238    9.7519 O   0  0  0  0  0  0  0  0  0  0  0  0
   16.8121   -4.3601    8.6280 C   0  0  1  0  0  0  0  0  0  0  0  0
   18.0617   -4.1787    8.0261 O   0  0  0  0  0  0  0  0  0  0  0  0
   16.9301   -4.6297   10.0971 C   0  0  1  0  0  0  0  0  0  0  0  0
   18.0666   -3.9554   10.6031 O   0  0  0  0  0  0  0  0  0  0  0  0
   15.6552   -4.0450   10.6914 C   0  0  2  0  0  0  0  0  0  0  0  0
   15.0886   -8.2154    3.5758 O   0  0  0  0  0  0  0  0  0  0  0  0
   13.5946   -7.5047   14.1036 N   0  0  0  0  0  0  0  0  0  0  0  0
   14.6545   -6.6337   14.3103 C   0  0  0  0  0  0  0  0  0  0  0  0
   15.0905   -5.7878   13.2976 N   0  0  0  0  0  0  0  0  0  0  0  0
   14.4608   -5.8046   12.1087 C   0  0  0  0  0  0  0  0  0  0  0  0
   13.3820   -6.6670   11.8934 C   0  0  0  0  0  0  0  0  0  0  0  0
   12.9512   -7.5291   12.8849 C   0  0  0  0  0  0  0  0  0  0  0  0
   11.9354   -8.3522   12.6725 N   0  0  0  0  0  0  0  0  0  0  0  0
   12.9369   -6.4729   10.6472 N   0  0  0  0  0  0  0  0  0  0  0  0
   13.6971   -5.5153   10.0715 C   0  0  0  0  0  0  0  0  0  0  0  0
   14.6456   -5.0850   10.9656 N   0  0  0  0  0  0  0  0  0  0  0  0
  2  1  1  1  0  0  0
  2  3  1  0  0  0  0
  2  5  1  0  0  0  0
  3  4  1  0  0  0  0
  3 17  1  0  0  0  0
  5  6  1  0  0  0  0
  7  6  1  6  0  0  0
  7  8  1  0  0  0  0
  7  9  1  0  0  0  0
 10  9  1  6  0  0  0
 10 11  1  0  0  0  0
 10 12  1  0  0  0  0
 11 16  1  0  0  0  0
 12 13  1  1  0  0  0
 12 14  1  0  0  0  0
 14 15  1  1  0  0  0
 14 16  1  0  0  0  0
 16 27  1  6  0  0  0
 18 19  2  0  0  0  0
 18 23  1  0  0  0  0
 19 20  1  0  0  0  0
 20 21  2  0  0  0  0
 21 22  1  0  0  0  0
 21 27  1  0  0  0  0
 22 23  2  0  0  0  0
 22 25  1  0  0  0  0
 23 24  1  0  0  0  0
 25 26  2  0  0  0  0
 26 27  1  0  0  0  0
M  END
>  <CHROM.1>
-167.35907336,50.70295107,-173.38549808,-72.65431744,-95.25666586,-46.18156375
-150.95894831,14.62952106,-5.59779313,8.90460953,1.58959945,-0.92910465,-1.57867334

>  <Name>
ligand

>  <RI>
0

>  <Rbt.Current_Directory>
/home/itssahil/PROJECTS/Mol_Feturizer/Test_systems_manuscript/rnas/2ydh

>  <Rbt.Executable>
rbdock ($Id: //depot/dev/client3/rdock/2013.1/src/exe/rbdock.cxx#4 $)

>  <Rbt.Library>
libRbt.so (2013.1, Build901 2013/11/27)

>  <Rbt.Parameter_File>
/export/apps/rDock/src/rDock_2013.1_src/data/scripts/dock_solv.prm

>  <Rbt.Receptor>
prm/pocket_docking_3.prm

>  <SCORE>
-15.047

>  <SCORE.INTER>
-14.7899

>  <SCORE.INTER.CONST>
1

>  <SCORE.INTER.POLAR>
0

>  <SCORE.INTER.ROT>
7

>  <SCORE.INTER.SOLV>
9.02088

>  <SCORE.INTER.VDW>
-21.1336

>  <SCORE.INTER.norm>
-0.547776

>  <SCORE.INTRA>
-0.276572

>  <SCORE.INTRA.DIHEDRAL>
-3.50618

>  <SCORE.INTRA.DIHEDRAL.0>
9.75037

>  <SCORE.INTRA.POLAR>
0

>  <SCORE.INTRA.POLAR.0>
0

>  <SCORE.INTRA.REPUL>
0

>  <SCORE.INTRA.REPUL.0>
0

>  <SCORE.INTRA.SOLV>
-0.488158

>  <SCORE.INTRA.SOLV.lig_0>
-48.4279

>  <SCORE.INTRA.VDW>
1.7206

>  <SCORE.INTRA.VDW.0>
-4.69037

>  <SCORE.INTRA.norm>
-0.0102434

>  <SCORE.RESTR>
0.0194935

>  <SCORE.RESTR.CAVITY>
0.0194935

>  <SCORE.RESTR.norm>
0.000721983

>  <SCORE.SYSTEM>
0

>  <SCORE.SYSTEM.CONST>
0

>  <SCORE.SYSTEM.DIHEDRAL>
0

>  <SCORE.SYSTEM.SOLV>
0

>  <SCORE.SYSTEM.norm>
0

>  <SCORE.heavy>
27

>  <SCORE.norm>
-0.557297

>  <RMSD>
6.640

$$$$
ligand
 OpenBabel02271912153D
libRbt.so/2013.1/901 2013/11/27
 27 29  0  0  0  0  0  0  0  0999 V2000
   16.6922   -9.6673    3.7456 N   0  0  0  0  0  0  0  0  0  0  0  0
   15.3450   -9.0506    3.9490 C   0  0  2  0  0  0  0  0  0  0  0  0
   14.7726   -8.5141    2.6182 C   0  0  0  0  0  0  0  0  0  0  0  0
   13.7753   -7.7863    2.6001 O   0  0  0  0  0  0  0  0  0  0  0  0
   15.4410   -7.9613    5.0120 C   0  0  0  0  0  0  0  0  0  0  0  0
   14.1155   -7.3085    5.3668 C   0  0  0  0  0  0  0  0  0  0  0  0
   14.2380   -6.1400    6.7512 S   0  0  2  0  0  0  0  0  0  0  0  0
   12.6550   -5.2653    6.5953 C   0  0  0  0  0  0  0  0  0  0  0  0
   15.4196   -4.8771    6.2522 C   0  0  0  0  0  0  0  0  0  0  0  0
   15.8161   -4.0628    7.4689 C   0  0  1  0  0  0  0  0  0  0  0  0
   14.7080   -3.7479    8.2977 O   0  0  0  0  0  0  0  0  0  0  0  0
   16.8146   -4.8017    8.3262 C   0  0  1  0  0  0  0  0  0  0  0  0
   18.1198   -4.6033    7.8636 O   0  0  0  0  0  0  0  0  0  0  0  0
   16.5869   -4.1562    9.6590 C   0  0  1  0  0  0  0  0  0  0  0  0
   17.3947   -2.9987    9.7584 O   0  0  0  0  0  0  0  0  0  0  0  0
   15.1117   -3.7770    9.6473 C   0  0  2  0  0  0  0  0  0  0  0  0
   15.2798   -8.7912    1.5157 O   0  0  0  0  0  0  0  0  0  0  0  0
   13.7362   -8.8046   10.4784 N   0  0  0  0  0  0  0  0  0  0  0  0
   14.6653   -8.3152    9.5718 C   0  0  0  0  0  0  0  0  0  0  0  0
   14.9057   -6.9507    9.4632 N   0  0  0  0  0  0  0  0  0  0  0  0
   14.2393   -6.0989   10.2635 C   0  0  0  0  0  0  0  0  0  0  0  0
   13.3118   -6.5811   11.1914 C   0  0  0  0  0  0  0  0  0  0  0  0
   13.0471   -7.9343   11.2955 C   0  0  0  0  0  0  0  0  0  0  0  0
   12.1593   -8.3856   12.1688 N   0  0  0  0  0  0  0  0  0  0  0  0
   12.8103   -5.5365   11.8594 N   0  0  0  0  0  0  0  0  0  0  0  0
   13.3928   -4.4130   11.3855 C   0  0  0  0  0  0  0  0  0  0  0  0
   14.2866   -4.7429   10.3972 N   0  0  0  0  0  0  0  0  0  0  0  0
  2  1  1  6  0  0  0
  2  3  1  0  0  0  0
  2  5  1  0  0  0  0
  3  4  1  0  0  0  0
  3 17  1  0  0  0  0
  5  6  1  0  0  0  0
  7  6  1  6  0  0  0
  7  8  1  0  0  0  0
  7  9  1  0  0  0  0
 10  9  1  6  0  0  0
 10 11  1  0  0  0  0
 10 12  1  0  0  0  0
 11 16  1  0  0  0  0
 12 13  1  6  0  0  0
 12 14  1  0  0  0  0
 14 15  1  6  0  0  0
 14 16  1  0  0  0  0
 16 27  1  1  0  0  0
 18 19  2  0  0  0  0
 18 23  1  0  0  0  0
 19 20  1  0  0  0  0
 20 21  2  0  0  0  0
 21 22  1  0  0  0  0
 21 27  1  0  0  0  0
 22 23  2  0  0  0  0
 22 25  1  0  0  0  0
 23 24  1  0  0  0  0
 25 26  2  0  0  0  0
 26 27  1  0  0  0  0
M  END
>  <CHROM.1>
-168.46545399,-176.73734751,174.09198759,165.61767013,-166.69162273,-42.50249689
66.44925527,14.78118206,-6.30731831,7.75751347,1.39984750,-0.92420235,-2.05940080

>  <Name>
ligand

>  <RI>
0

>  <Rbt.Current_Directory>
/home/itssahil/PROJECTS/Mol_Feturizer/Test_systems_manuscript/rnas/2ydh

>  <Rbt.Executable>
rbdock ($Id: //depot/dev/client3/rdock/2013.1/src/exe/rbdock.cxx#4 $)

>  <Rbt.Library>
libRbt.so (2013.1, Build901 2013/11/27)

>  <Rbt.Parameter_File>
/export/apps/rDock/src/rDock_2013.1_src/data/scripts/dock_solv.prm

>  <Rbt.Receptor>
prm/pocket_docking_4.prm

>  <SCORE>
-12.2843

>  <SCORE.INTER>
-10.8969

>  <SCORE.INTER.CONST>
1

>  <SCORE.INTER.POLAR>
0

>  <SCORE.INTER.ROT>
7

>  <SCORE.INTER.SOLV>
11.199

>  <SCORE.INTER.VDW>
-19.2643

>  <SCORE.INTER.norm>
-0.403589

>  <SCORE.INTRA>
-1.38737

>  <SCORE.INTRA.DIHEDRAL>
-4.19654

>  <SCORE.INTRA.DIHEDRAL.0>
9.75037

>  <SCORE.INTRA.POLAR>
0

>  <SCORE.INTRA.POLAR.0>
0

>  <SCORE.INTRA.REPUL>
0

>  <SCORE.INTRA.REPUL.0>
0

>  <SCORE.INTRA.SOLV>
-1.20698

>  <SCORE.INTRA.SOLV.lig_0>
-48.4279

>  <SCORE.INTRA.VDW>
1.31439

>  <SCORE.INTRA.VDW.0>
-4.69037

>  <SCORE.INTRA.norm>
-0.0513842

>  <SCORE.RESTR>
0

>  <SCORE.RESTR.CAVITY>
0

>  <SCORE.RESTR.norm>
0

>  <SCORE.SYSTEM>
0

>  <SCORE.SYSTEM.CONST>
0

>  <SCORE.SYSTEM.DIHEDRAL>
0

>  <SCORE.SYSTEM.SOLV>
0

>  <SCORE.SYSTEM.norm>
0

>  <SCORE.heavy>
27

>  <SCORE.norm>
-0.454973

>  <RMSD>
6.649

$$$$
ligand
 OpenBabel02271912153D
libRbt.so/2013.1/901 2013/11/27
 27 29  0  0  0  0  0  0  0  0999 V2000
   13.7630   -9.1319    6.2426 N   0  0  0  0  0  0  0  0  0  0  0  0
   13.9548   -7.7203    5.7873 C   0  0  2  0  0  0  0  0  0  0  0  0
   14.0333   -7.6391    4.2466 C   0  0  0  0  0  0  0  0  0  0  0  0
   14.8694   -8.2926    3.6152 O   0  0  0  0  0  0  0  0  0  0  0  0
   15.1946   -7.1358    6.4559 C   0  0  0  0  0  0  0  0  0  0  0  0
   15.3646   -5.6375    6.2680 C   0  0  0  0  0  0  0  0  0  0  0  0
   14.0595   -4.6605    7.0676 S   0  0  2  0  0  0  0  0  0  0  0  0
   12.8906   -4.4693    5.6918 C   0  0  0  0  0  0  0  0  0  0  0  0
   14.7079   -2.9912    7.2487 C   0  0  0  0  0  0  0  0  0  0  0  0
   15.3888   -2.8691    8.5986 C   0  0  1  0  0  0  0  0  0  0  0  0
   14.4751   -2.9687    9.6800 O   0  0  0  0  0  0  0  0  0  0  0  0
   16.4253   -3.9486    8.7937 C   0  0  1  0  0  0  0  0  0  0  0  0
   17.6502   -3.5786    8.2285 O   0  0  0  0  0  0  0  0  0  0  0  0
   16.4946   -4.0179   10.2888 C   0  0  1  0  0  0  0  0  0  0  0  0
   17.4329   -3.0666   10.7547 O   0  0  0  0  0  0  0  0  0  0  0  0
   15.0898   -3.6502   10.7489 C   0  0  2  0  0  0  0  0  0  0  0  0
   13.2712   -6.9165    3.5785 O   0  0  0  0  0  0  0  0  0  0  0  0
   14.0011   -7.4136   14.2859 N   0  0  0  0  0  0  0  0  0  0  0  0
   14.9244   -6.3839   14.3957 C   0  0  0  0  0  0  0  0  0  0  0  0
   15.1043   -5.4738   13.3609 N   0  0  0  0  0  0  0  0  0  0  0  0
   14.3571   -5.5864   12.2476 C   0  0  0  0  0  0  0  0  0  0  0  0
   13.4130   -6.6105   12.1316 C   0  0  0  0  0  0  0  0  0  0  0  0
   13.2384   -7.5356   13.1443 C   0  0  0  0  0  0  0  0  0  0  0  0
   12.3501   -8.5109   13.0251 N   0  0  0  0  0  0  0  0  0  0  0  0
   12.8068   -6.4848   10.9459 N   0  0  0  0  0  0  0  0  0  0  0  0
   13.3354   -5.4143   10.3127 C   0  0  0  0  0  0  0  0  0  0  0  0
   14.2963   -4.8408   11.1078 N   0  0  0  0  0  0  0  0  0  0  0  0
  2  1  1  6  0  0  0
  2  3  1  0  0  0  0
  2  5  1  0  0  0  0
  3  4  1  0  0  0  0
  3 17  1  0  0  0  0
  5  6  1  0  0  0  0
  7  6  1  6  0  0  0
  7  8  1  0  0  0  0
  7  9  1  0  0  0  0
 10  9  1  6  0  0  0
 10 11  1  0  0  0  0
 10 12  1  0  0  0  0
 11 16  1  0  0  0  0
 12 13  1  6  0  0  0
 12 14  1  0  0  0  0
 14 15  1  1  0  0  0
 14 16  1  0  0  0  0
 16 27  1  6  0  0  0
 18 19  2  0  0  0  0
 18 23  1  0  0  0  0
 19 20  1  0  0  0  0
 20 21  2  0  0  0  0
 21 22  1  0  0  0  0
 21 27  1  0  0  0  0
 22 23  2  0  0  0  0
 22 25  1  0  0  0  0
 23 24  1  0  0  0  0
 25 26  2  0  0  0  0
 26 27  1  0  0  0  0
M  END
>  <CHROM.1>
-56.33543726,-169.84248099,65.30965595,-93.30500616,-91.25589434,-66.70758922
-163.55210641,14.55862157,-5.58624884,8.98153525,1.60235178,-1.06106975,-1.63039543

>  <Name>
ligand

>  <RI>
0

>  <Rbt.Current_Directory>
/home/itssahil/PROJECTS/Mol_Feturizer/Test_systems_manuscript/rnas/2ydh

>  <Rbt.Executable>
rbdock ($Id: //depot/dev/client3/rdock/2013.1/src/exe/rbdock.cxx#4 $)

>  <Rbt.Library>
libRbt.so (2013.1, Build901 2013/11/27)

>  <Rbt.Parameter_File>
/export/apps/rDock/src/rDock_2013.1_src/data/scripts/dock_solv.prm

>  <Rbt.Receptor>
prm/pocket_docking_6.prm

>  <SCORE>
-14.4241

>  <SCORE.INTER>
-13.7053

>  <SCORE.INTER.CONST>
1

>  <SCORE.INTER.POLAR>
0

>  <SCORE.INTER.ROT>
7

>  <SCORE.INTER.SOLV>
13.2022

>  <SCORE.INTER.VDW>
-21.8043

>  <SCORE.INTER.norm>
-0.507602

>  <SCORE.INTRA>
-0.718806

>  <SCORE.INTRA.DIHEDRAL>
-2.75259

>  <SCORE.INTRA.DIHEDRAL.0>
9.75037

>  <SCORE.INTRA.POLAR>
0

>  <SCORE.INTRA.POLAR.0>
0

>  <SCORE.INTRA.REPUL>
0

>  <SCORE.INTRA.REPUL.0>
0

>  <SCORE.INTRA.SOLV>
-1.06571

>  <SCORE.INTRA.SOLV.lig_0>
-48.4279

>  <SCORE.INTRA.VDW>
1.19035

>  <SCORE.INTRA.VDW.0>
-4.69037

>  <SCORE.INTRA.norm>
-0.0266225

>  <SCORE.RESTR>
0

>  <SCORE.RESTR.CAVITY>
0

>  <SCORE.RESTR.norm>
0

>  <SCORE.SYSTEM>
0

>  <SCORE.SYSTEM.CONST>
0

>  <SCORE.SYSTEM.DIHEDRAL>
0

>  <SCORE.SYSTEM.SOLV>
0

>  <SCORE.SYSTEM.norm>
0

>  <SCORE.heavy>
27

>  <SCORE.norm>
-0.534225

>  <RMSD>
6.656

$$$$
ligand
 OpenBabel02271912153D
libRbt.so/2013.1/901 2013/11/27
 27 29  0  0  0  0  0  0  0  0999 V2000
   13.5225   -7.6384    6.4527 N   0  0  0  0  0  0  0  0  0  0  0  0
   14.4295   -7.1562    5.3657 C   0  0  2  0  0  0  0  0  0  0  0  0
   14.7566   -8.2914    4.3703 C   0  0  0  0  0  0  0  0  0  0  0  0
   15.3196   -9.3249    4.7440 O   0  0  0  0  0  0  0  0  0  0  0  0
   15.6877   -6.5560    5.9840 C   0  0  0  0  0  0  0  0  0  0  0  0
   15.5647   -5.0904    6.3658 C   0  0  0  0  0  0  0  0  0  0  0  0
   14.3077   -4.7828    7.6395 S   0  0  2  0  0  0  0  0  0  0  0  0
   12.8128   -4.6648    6.6163 C   0  0  0  0  0  0  0  0  0  0  0  0
   14.5322   -3.0806    8.1799 C   0  0  0  0  0  0  0  0  0  0  0  0
   15.5198   -3.0536    9.3309 C   0  0  1  0  0  0  0  0  0  0  0  0
   14.8825   -3.1300   10.5966 O   0  0  0  0  0  0  0  0  0  0  0  0
   16.4900   -4.2071    9.2531 C   0  0  1  0  0  0  0  0  0  0  0  0
   17.5708   -3.9007    8.4196 O   0  0  0  0  0  0  0  0  0  0  0  0
   16.9050   -4.3347   10.6871 C   0  0  1  0  0  0  0  0  0  0  0  0
   17.9947   -3.4666   10.9341 O   0  0  0  0  0  0  0  0  0  0  0  0
   15.6799   -3.8897   11.4753 C   0  0  2  0  0  0  0  0  0  0  0  0
   14.4765   -8.2164    3.1598 O   0  0  0  0  0  0  0  0  0  0  0  0
   11.7503   -7.3377   10.7484 N   0  0  0  0  0  0  0  0  0  0  0  0
   12.1631   -6.3253    9.8943 C   0  0  0  0  0  0  0  0  0  0  0  0
   13.2148   -5.4851   10.2399 N   0  0  0  0  0  0  0  0  0  0  0  0
   13.8497   -5.6724   11.4113 C   0  0  0  0  0  0  0  0  0  0  0  0
   13.4527   -6.6986   12.2733 C   0  0  0  0  0  0  0  0  0  0  0  0
   12.3945   -7.5284   11.9519 C   0  0  0  0  0  0  0  0  0  0  0  0
   12.0150   -8.4927   12.7771 N   0  0  0  0  0  0  0  0  0  0  0  0
   14.2501   -6.6715   13.3468 N   0  0  0  0  0  0  0  0  0  0  0  0
   15.1375   -5.6648   13.1886 C   0  0  0  0  0  0  0  0  0  0  0  0
   14.9073   -5.0360   11.9902 N   0  0  0  0  0  0  0  0  0  0  0  0
  2  1  1  1  0  0  0
  2  3  1  0  0  0  0
  2  5  1  0  0  0  0
  3  4  1  0  0  0  0
  3 17  1  0  0  0  0
  5  6  1  0  0  0  0
  7  6  1  6  0  0  0
  7  8  1  0  0  0  0
  7  9  1  0  0  0  0
 10  9  1  6  0  0  0
 10 11  1  0  0  0  0
 10 12  1  0  0  0  0
 11 16  1  0  0  0  0
 12 13  1  6  0  0  0
 12 14  1  0  0  0  0
 14 15  1  6  0  0  0
 14 16  1  0  0  0  0
 16 27  1  6  0  0  0
 18 19  2  0  0  0  0
 18 23  1  0  0  0  0
 19 20  1  0  0  0  0
 20 21  2  0  0  0  0
 21 22  1  0  0  0  0
 21 27  1  0  0  0  0
 22 23  2  0  0  0  0
 22 25  1  0  0  0  0
 23 24  1  0  0  0  0
 25 26  2  0  0  0  0
 26 27  1  0  0  0  0
M  END
>  <CHROM.1>
-60.02700709,-86.08336431,62.62862049,-84.54533229,-89.48523063,-92.35463362
25.84033410,14.61152322,-5.70110189,9.00245020,1.53630198,-0.84815166,-1.86505192

>  <Name>
ligand

>  <RI>
0

>  <Rbt.Current_Directory>
/home/itssahil/PROJECTS/Mol_Feturizer/Test_systems_manuscript/rnas/2ydh

>  <Rbt.Executable>
rbdock ($Id: //depot/dev/client3/rdock/2013.1/src/exe/rbdock.cxx#4 $)

>  <Rbt.Library>
libRbt.so (2013.1, Build901 2013/11/27)

>  <Rbt.Parameter_File>
/export/apps/rDock/src/rDock_2013.1_src/data/scripts/dock_solv.prm

>  <Rbt.Receptor>
prm/pocket_docking_3.prm

>  <SCORE>
-8.9612

>  <SCORE.INTER>
-13.2805

>  <SCORE.INTER.CONST>
1

>  <SCORE.INTER.POLAR>
0

>  <SCORE.INTER.ROT>
7

>  <SCORE.INTER.SOLV>
8.92367

>  <SCORE.INTER.VDW>
-20.0949

>  <SCORE.INTER.norm>
-0.491869

>  <SCORE.INTRA>
4.31927

>  <SCORE.INTRA.DIHEDRAL>
0.830456

>  <SCORE.INTRA.DIHEDRAL.0>
9.75037

>  <SCORE.INTRA.POLAR>
0

>  <SCORE.INTRA.POLAR.0>
0

>  <SCORE.INTRA.REPUL>
0

>  <SCORE.INTRA.REPUL.0>
0

>  <SCORE.INTRA.SOLV>
1.95032

>  <SCORE.INTRA.SOLV.lig_0>
-48.4279

>  <SCORE.INTRA.VDW>
2.92888

>  <SCORE.INTRA.VDW.0>
-4.69037

>  <SCORE.INTRA.norm>
0.159973

>  <SCORE.RESTR>
0

>  <SCORE.RESTR.CAVITY>
0

>  <SCORE.RESTR.norm>
0

>  <SCORE.SYSTEM>
0

>  <SCORE.SYSTEM.CONST>
0

>  <SCORE.SYSTEM.DIHEDRAL>
0

>  <SCORE.SYSTEM.SOLV>
0

>  <SCORE.SYSTEM.norm>
0

>  <SCORE.heavy>
27

>  <SCORE.norm>
-0.331896

>  <RMSD>
6.661

$$$$
ligand
 OpenBabel02271912153D
libRbt.so/2013.1/901 2013/11/27
 27 29  0  0  0  0  0  0  0  0999 V2000
   15.4536   -8.2266    6.0226 N   0  0  0  0  0  0  0  0  0  0  0  0
   14.0871   -7.8752    5.5269 C   0  0  2  0  0  0  0  0  0  0  0  0
   14.0855   -7.6772    3.9947 C   0  0  0  0  0  0  0  0  0  0  0  0
   13.2470   -6.9561    3.4456 O   0  0  0  0  0  0  0  0  0  0  0  0
   13.5820   -6.6398    6.2648 C   0  0  0  0  0  0  0  0  0  0  0  0
   14.5722   -5.4883    6.3171 C   0  0  0  0  0  0  0  0  0  0  0  0
   14.0065   -4.1003    7.3419 S   0  0  2  0  0  0  0  0  0  0  0  0
   12.8225   -3.3100    6.2154 C   0  0  0  0  0  0  0  0  0  0  0  0
   15.3530   -2.9063    7.3751 C   0  0  0  0  0  0  0  0  0  0  0  0
   16.1559   -3.1019    8.6470 C   0  0  1  0  0  0  0  0  0  0  0  0
   15.3633   -2.9691    9.8168 O   0  0  0  0  0  0  0  0  0  0  0  0
   16.7899   -4.4707    8.6947 C   0  0  1  0  0  0  0  0  0  0  0  0
   18.0114   -4.4839    8.0130 O   0  0  0  0  0  0  0  0  0  0  0  0
   16.9683   -4.6570   10.1706 C   0  0  1  0  0  0  0  0  0  0  0  0
   18.2069   -4.0963   10.5630 O   0  0  0  0  0  0  0  0  0  0  0  0
   15.8125   -3.8825   10.7908 C   0  0  2  0  0  0  0  0  0  0  0  0
   14.9150   -8.2323    3.2510 O   0  0  0  0  0  0  0  0  0  0  0  0
   13.7566   -7.1198   14.4173 N   0  0  0  0  0  0  0  0  0  0  0  0
   14.9551   -6.4240   14.4794 C   0  0  0  0  0  0  0  0  0  0  0  0
   15.3662   -5.6159   13.4261 N   0  0  0  0  0  0  0  0  0  0  0  0
   14.5783   -5.4957   12.3421 C   0  0  0  0  0  0  0  0  0  0  0  0
   13.3614   -6.1798   12.2744 C   0  0  0  0  0  0  0  0  0  0  0  0
   12.9500   -7.0039   13.3057 C   0  0  0  0  0  0  0  0  0  0  0  0
   11.8009   -7.6588   13.2322 N   0  0  0  0  0  0  0  0  0  0  0  0
   12.7780   -5.8765   11.1096 N   0  0  0  0  0  0  0  0  0  0  0  0
   13.5853   -5.0221   10.4429 C   0  0  0  0  0  0  0  0  0  0  0  0
   14.7058   -4.7703   11.1947 N   0  0  0  0  0  0  0  0  0  0  0  0
  2  1  1  1  0  0  0
  2  3  1  0  0  0  0
  2  5  1  0  0  0  0
  3  4  1  0  0  0  0
  3 17  1  0  0  0  0
  5  6  1  0  0  0  0
  7  6  1  6  0  0  0
  7  8  1  0  0  0  0
  7  9  1  0  0  0  0
 10  9  1  6  0  0  0
 10 11  1  0  0  0  0
 10 12  1  0  0  0  0
 11 16  1  0  0  0  0
 12 13  1  6  0  0  0
 12 14  1  0  0  0  0
 14 15  1  1  0  0  0
 14 16  1  0  0  0  0
 16 27  1  6  0  0  0
 18 19  2  0  0  0  0
 18 23  1  0  0  0  0
 19 20  1  0  0  0  0
 20 21  2  0  0  0  0
 21 22  1  0  0  0  0
 21 27  1  0  0  0  0
 22 23  2  0  0  0  0
 22 25  1  0  0  0  0
 23 24  1  0  0  0  0
 25 26  2  0  0  0  0
 26 27  1  0  0  0  0
M  END
>  <CHROM.1>
-154.20531648,48.67878877,-174.21092951,-77.85216942,-97.42404493,-57.78418097
-158.45473710,14.71607527,-5.47232043,9.00598525,1.57208982,-0.84795871,-1.64648008

>  <Name>
ligand

>  <RI>
0

>  <Rbt.Current_Directory>
/home/itssahil/PROJECTS/Mol_Feturizer/Test_systems_manuscript/rnas/2ydh

>  <Rbt.Executable>
rbdock ($Id: //depot/dev/client3/rdock/2013.1/src/exe/rbdock.cxx#4 $)

>  <Rbt.Library>
libRbt.so (2013.1, Build901 2013/11/27)

>  <Rbt.Parameter_File>
/export/apps/rDock/src/rDock_2013.1_src/data/scripts/dock_solv.prm

>  <Rbt.Receptor>
prm/pocket_docking_4.prm

>  <SCORE>
-17.0726

>  <SCORE.INTER>
-17.0114

>  <SCORE.INTER.CONST>
1

>  <SCORE.INTER.POLAR>
0

>  <SCORE.INTER.ROT>
7

>  <SCORE.INTER.SOLV>
10.4471

>  <SCORE.INTER.VDW>
-23.09

>  <SCORE.INTER.norm>
-0.630052

>  <SCORE.INTRA>
-0.0612295

>  <SCORE.INTRA.DIHEDRAL>
-3.5185

>  <SCORE.INTRA.DIHEDRAL.0>
9.75037

>  <SCORE.INTRA.POLAR>
0

>  <SCORE.INTRA.POLAR.0>
0

>  <SCORE.INTRA.REPUL>
0

>  <SCORE.INTRA.REPUL.0>
0

>  <SCORE.INTRA.SOLV>
-0.432043

>  <SCORE.INTRA.SOLV.lig_0>
-48.4279

>  <SCORE.INTRA.VDW>
1.91404

>  <SCORE.INTRA.VDW.0>
-4.69037

>  <SCORE.INTRA.norm>
-0.00226776

>  <SCORE.RESTR>
0

>  <SCORE.RESTR.CAVITY>
0

>  <SCORE.RESTR.norm>
0

>  <SCORE.SYSTEM>
0

>  <SCORE.SYSTEM.CONST>
0

>  <SCORE.SYSTEM.DIHEDRAL>
0

>  <SCORE.SYSTEM.SOLV>
0

>  <SCORE.SYSTEM.norm>
0

>  <SCORE.heavy>
27

>  <SCORE.norm>
-0.63232

>  <RMSD>
6.661

$$$$
ligand
 OpenBabel02271912153D
libRbt.so/2013.1/901 2013/11/27
 27 29  0  0  0  0  0  0  0  0999 V2000
   13.4625   -7.2119    3.7901 N   0  0  0  0  0  0  0  0  0  0  0  0
   14.3875   -7.4756    4.9353 C   0  0  2  0  0  0  0  0  0  0  0  0
   14.4538   -8.9845    5.2601 C   0  0  0  0  0  0  0  0  0  0  0  0
   13.7622   -9.4748    6.1579 O   0  0  0  0  0  0  0  0  0  0  0  0
   13.9514   -6.6488    6.1402 C   0  0  0  0  0  0  0  0  0  0  0  0
   14.5630   -5.2592    6.2056 C   0  0  0  0  0  0  0  0  0  0  0  0
   13.8866   -4.2389    7.5465 S   0  0  2  0  0  0  0  0  0  0  0  0
   12.4289   -3.5303    6.7287 C   0  0  0  0  0  0  0  0  0  0  0  0
   14.9690   -2.8087    7.6975 C   0  0  0  0  0  0  0  0  0  0  0  0
   15.7881   -2.9405    8.9673 C   0  0  1  0  0  0  0  0  0  0  0  0
   14.9860   -2.9116   10.1378 O   0  0  0  0  0  0  0  0  0  0  0  0
   16.5623   -4.2358    8.9929 C   0  0  1  0  0  0  0  0  0  0  0  0
   17.7783   -4.1091    8.3132 O   0  0  0  0  0  0  0  0  0  0  0  0
   16.7594   -4.4274   10.4658 C   0  0  1  0  0  0  0  0  0  0  0  0
   17.9323   -3.7466   10.8697 O   0  0  0  0  0  0  0  0  0  0  0  0
   15.5287   -3.7892   11.0970 C   0  0  2  0  0  0  0  0  0  0  0  0
   15.2017   -9.7657    4.6439 O   0  0  0  0  0  0  0  0  0  0  0  0
   13.8649   -7.3397   14.6305 N   0  0  0  0  0  0  0  0  0  0  0  0
   14.9910   -6.5324   14.7006 C   0  0  0  0  0  0  0  0  0  0  0  0
   15.3019   -5.6508   13.6722 N   0  0  0  0  0  0  0  0  0  0  0  0
   14.4862   -5.5698   12.6052 C   0  0  0  0  0  0  0  0  0  0  0  0
   13.3407   -6.3671   12.5302 C   0  0  0  0  0  0  0  0  0  0  0  0
   13.0305   -7.2638   13.5360 C   0  0  0  0  0  0  0  0  0  0  0  0
   11.9496   -8.0251   13.4552 N   0  0  0  0  0  0  0  0  0  0  0  0
   12.7092   -6.0811   11.3863 N   0  0  0  0  0  0  0  0  0  0  0  0
   13.4170   -5.1285   10.7399 C   0  0  0  0  0  0  0  0  0  0  0  0
   14.5214   -4.7950   11.4839 N   0  0  0  0  0  0  0  0  0  0  0  0
  2  1  1  6  0  0  0
  2  3  1  0  0  0  0
  2  5  1  0  0  0  0
  3  4  1  0  0  0  0
  3 17  1  0  0  0  0
  5  6  1  0  0  0  0
  7  6  1  6  0  0  0
  7  8  1  0  0  0  0
  7  9  1  0  0  0  0
 10  9  1  6  0  0  0
 10 11  1  0  0  0  0
 10 12  1  0  0  0  0
 11 16  1  0  0  0  0
 12 13  1  6  0  0  0
 12 14  1  0  0  0  0
 14 15  1  1  0  0  0
 14 16  1  0  0  0  0
 16 27  1  6  0  0  0
 18 19  2  0  0  0  0
 18 23  1  0  0  0  0
 19 20  1  0  0  0  0
 20 21  2  0  0  0  0
 21 22  1  0  0  0  0
 21 27  1  0  0  0  0
 22 23  2  0  0  0  0
 22 25  1  0  0  0  0
 23 24  1  0  0  0  0
 25 26  2  0  0  0  0
 26 27  1  0  0  0  0
M  END
>  <CHROM.1>
-96.79112213,-88.84383566,173.69036350,-86.24308949,-107.69758505,-64.24227701
-160.01305597,14.59320008,-5.63445669,9.31551673,1.60724270,-1.10296570,-1.70106933

>  <Name>
ligand

>  <RI>
0

>  <Rbt.Current_Directory>
/home/itssahil/PROJECTS/Mol_Feturizer/Test_systems_manuscript/rnas/2ydh

>  <Rbt.Executable>
rbdock ($Id: //depot/dev/client3/rdock/2013.1/src/exe/rbdock.cxx#4 $)

>  <Rbt.Library>
libRbt.so (2013.1, Build901 2013/11/27)

>  <Rbt.Parameter_File>
/export/apps/rDock/src/rDock_2013.1_src/data/scripts/dock_solv.prm

>  <Rbt.Receptor>
prm/pocket_docking_7.prm

>  <SCORE>
-12.7266

>  <SCORE.INTER>
-14.5459

>  <SCORE.INTER.CONST>
1

>  <SCORE.INTER.POLAR>
0

>  <SCORE.INTER.ROT>
7

>  <SCORE.INTER.SOLV>
16.3633

>  <SCORE.INTER.VDW>
-23.4183

>  <SCORE.INTER.norm>
-0.538736

>  <SCORE.INTRA>
1.81924

>  <SCORE.INTRA.DIHEDRAL>
0.656221

>  <SCORE.INTRA.DIHEDRAL.0>
9.75037

>  <SCORE.INTRA.POLAR>
0

>  <SCORE.INTRA.POLAR.0>
0

>  <SCORE.INTRA.REPUL>
0

>  <SCORE.INTRA.REPUL.0>
0

>  <SCORE.INTRA.SOLV>
-0.817313

>  <SCORE.INTRA.SOLV.lig_0>
-48.4279

>  <SCORE.INTRA.VDW>
1.89978

>  <SCORE.INTRA.VDW.0>
-4.69037

>  <SCORE.INTRA.norm>
0.0673791

>  <SCORE.RESTR>
0

>  <SCORE.RESTR.CAVITY>
0

>  <SCORE.RESTR.norm>
0

>  <SCORE.SYSTEM>
0

>  <SCORE.SYSTEM.CONST>
0

>  <SCORE.SYSTEM.DIHEDRAL>
0

>  <SCORE.SYSTEM.SOLV>
0

>  <SCORE.SYSTEM.norm>
0

>  <SCORE.heavy>
27

>  <SCORE.norm>
-0.471357

>  <RMSD>
6.713

$$$$
ligand
 OpenBabel02271912153D
libRbt.so/2013.1/901 2013/11/27
 27 29  0  0  0  0  0  0  0  0999 V2000
   14.8544   -4.7037    6.4953 N   0  0  0  0  0  0  0  0  0  0  0  0
   13.7871   -4.2485    7.4388 C   0  0  2  0  0  0  0  0  0  0  0  0
   12.7648   -3.3373    6.7238 C   0  0  0  0  0  0  0  0  0  0  0  0
   13.1283   -2.5031    5.8891 O   0  0  0  0  0  0  0  0  0  0  0  0
   14.4302   -3.5584    8.6371 C   0  0  0  0  0  0  0  0  0  0  0  0
   15.1911   -2.2873    8.2987 C   0  0  0  0  0  0  0  0  0  0  0  0
   16.9777   -2.4192    8.5947 S   0  0  2  0  0  0  0  0  0  0  0  0
   17.5710   -0.9278    7.7465 C   0  0  0  0  0  0  0  0  0  0  0  0
   17.5793   -3.7313    7.5194 C   0  0  0  0  0  0  0  0  0  0  0  0
   17.5137   -5.0506    8.2650 C   0  0  1  0  0  0  0  0  0  0  0  0
   16.9445   -6.0896    7.4836 O   0  0  0  0  0  0  0  0  0  0  0  0
   18.8862   -5.5150    8.6872 C   0  0  1  0  0  0  0  0  0  0  0  0
   19.2623   -4.9347    9.9031 O   0  0  0  0  0  0  0  0  0  0  0  0
   18.6670   -6.9918    8.8137 C   0  0  1  0  0  0  0  0  0  0  0  0
   18.1952   -7.2813   10.1159 O   0  0  0  0  0  0  0  0  0  0  0  0
   17.5955   -7.3041    7.7770 C   0  0  2  0  0  0  0  0  0  0  0  0
   11.5435   -3.3965    6.9565 O   0  0  0  0  0  0  0  0  0  0  0  0
   21.0067  -10.6672    5.5606 N   0  0  0  0  0  0  0  0  0  0  0  0
   20.7839  -10.4483    6.9123 C   0  0  0  0  0  0  0  0  0  0  0  0
   19.8523   -9.5094    7.3389 N   0  0  0  0  0  0  0  0  0  0  0  0
   19.1465   -8.8196    6.4244 C   0  0  0  0  0  0  0  0  0  0  0  0
   19.3513   -9.0421    5.0598 C   0  0  0  0  0  0  0  0  0  0  0  0
   20.2899   -9.9578    4.6210 C   0  0  0  0  0  0  0  0  0  0  0  0
   20.4881  -10.1573    3.3266 N   0  0  0  0  0  0  0  0  0  0  0  0
   18.5205   -8.2449    4.3792 N   0  0  0  0  0  0  0  0  0  0  0  0
   17.7975   -7.5299    5.2693 C   0  0  0  0  0  0  0  0  0  0  0  0
   18.1690   -7.8767    6.5445 N   0  0  0  0  0  0  0  0  0  0  0  0
  2  1  1  6  0  0  0
  2  3  1  0  0  0  0
  2  5  1  0  0  0  0
  3  4  1  0  0  0  0
  3 17  1  0  0  0  0
  5  6  1  0  0  0  0
  7  6  1  6  0  0  0
  7  8  1  0  0  0  0
  7  9  1  0  0  0  0
 10  9  1  6  0  0  0
 10 11  1  0  0  0  0
 10 12  1  0  0  0  0
 11 16  1  0  0  0  0
 12 13  1  1  0  0  0
 12 14  1  0  0  0  0
 14 15  1  1  0  0  0
 14 16  1  0  0  0  0
 16 27  1  6  0  0  0
 18 19  2  0  0  0  0
 18 23  1  0  0  0  0
 19 20  1  0  0  0  0
 20 21  2  0  0  0  0
 21 22  1  0  0  0  0
 21 27  1  0  0  0  0
 22 23  2  0  0  0  0
 22 25  1  0  0  0  0
 23 24  1  0  0  0  0
 25 26  2  0  0  0  0
 26 27  1  0  0  0  0
M  END
>  <CHROM.1>
-39.46608670,63.62928176,-114.46202030,167.60462982,-90.50823646,133.73298532
161.19309681,17.33011680,-5.88878984,7.18773142,2.36209756,-0.53922060,0.74730017

>  <Name>
ligand

>  <RI>
0

>  <Rbt.Current_Directory>
/home/itssahil/PROJECTS/Mol_Feturizer/Test_systems_manuscript/rnas/2ydh

>  <Rbt.Executable>
rbdock ($Id: //depot/dev/client3/rdock/2013.1/src/exe/rbdock.cxx#4 $)

>  <Rbt.Library>
libRbt.so (2013.1, Build901 2013/11/27)

>  <Rbt.Parameter_File>
/export/apps/rDock/src/rDock_2013.1_src/data/scripts/dock_solv.prm

>  <Rbt.Receptor>
prm/pocket_docking_7.prm

>  <SCORE>
-10.376

>  <SCORE.INTER>
-15.8013

>  <SCORE.INTER.CONST>
1

>  <SCORE.INTER.POLAR>
0

>  <SCORE.INTER.ROT>
7

>  <SCORE.INTER.SOLV>
10.3594

>  <SCORE.INTER.VDW>
-22.254

>  <SCORE.INTER.norm>
-0.585232

>  <SCORE.INTRA>
5.42528

>  <SCORE.INTRA.DIHEDRAL>
4.86921

>  <SCORE.INTRA.DIHEDRAL.0>
9.75037

>  <SCORE.INTRA.POLAR>
0

>  <SCORE.INTRA.POLAR.0>
0

>  <SCORE.INTRA.REPUL>
0

>  <SCORE.INTRA.REPUL.0>
0

>  <SCORE.INTRA.SOLV>
3.36989

>  <SCORE.INTRA.SOLV.lig_0>
-48.4279

>  <SCORE.INTRA.VDW>
1.30573

>  <SCORE.INTRA.VDW.0>
-4.69037

>  <SCORE.INTRA.norm>
0.200936

>  <SCORE.RESTR>
0

>  <SCORE.RESTR.CAVITY>
0

>  <SCORE.RESTR.norm>
0

>  <SCORE.SYSTEM>
0

>  <SCORE.SYSTEM.CONST>
0

>  <SCORE.SYSTEM.DIHEDRAL>
0

>  <SCORE.SYSTEM.SOLV>
0

>  <SCORE.SYSTEM.norm>
0

>  <SCORE.heavy>
27

>  <SCORE.norm>
-0.384295

>  <RMSD>
6.835

$$$$
ligand
 OpenBabel02271912153D
libRbt.so/2013.1/901 2013/11/27
 27 29  0  0  0  0  0  0  0  0999 V2000
   15.2806   -7.3262    4.9776 N   0  0  0  0  0  0  0  0  0  0  0  0
   14.4081   -7.1971    6.1854 C   0  0  2  0  0  0  0  0  0  0  0  0
   14.1159   -8.5795    6.8103 C   0  0  0  0  0  0  0  0  0  0  0  0
   14.4565   -8.8410    7.9680 O   0  0  0  0  0  0  0  0  0  0  0  0
   13.1292   -6.4559    5.8104 C   0  0  0  0  0  0  0  0  0  0  0  0
   13.2615   -4.9422    5.7885 C   0  0  0  0  0  0  0  0  0  0  0  0
   13.3339   -4.2034    7.4456 S   0  0  2  0  0  0  0  0  0  0  0  0
   14.0589   -2.5841    7.0615 C   0  0  0  0  0  0  0  0  0  0  0  0
   14.6797   -5.0248    8.3140 C   0  0  0  0  0  0  0  0  0  0  0  0
   14.7988   -4.4389    9.7080 C   0  0  1  0  0  0  0  0  0  0  0  0
   13.6365   -4.6591   10.4920 O   0  0  0  0  0  0  0  0  0  0  0  0
   15.9612   -5.0383   10.4613 C   0  0  1  0  0  0  0  0  0  0  0  0
   17.1533   -4.3705   10.1621 O   0  0  0  0  0  0  0  0  0  0  0  0
   15.5337   -4.8161   11.8800 C   0  0  1  0  0  0  0  0  0  0  0  0
   15.9572   -3.5320   12.2968 O   0  0  0  0  0  0  0  0  0  0  0  0
   14.0128   -4.8856   11.8307 C   0  0  2  0  0  0  0  0  0  0  0  0
   13.5359   -9.4844    6.1826 O   0  0  0  0  0  0  0  0  0  0  0  0
   11.8351   -9.5243   10.5659 N   0  0  0  0  0  0  0  0  0  0  0  0
   12.1812   -8.4859    9.7135 C   0  0  0  0  0  0  0  0  0  0  0  0
   12.7379   -7.3124   10.2079 N   0  0  0  0  0  0  0  0  0  0  0  0
   12.9592   -7.1946   11.5298 C   0  0  0  0  0  0  0  0  0  0  0  0
   12.6288   -8.2399   12.3969 C   0  0  0  0  0  0  0  0  0  0  0  0
   12.0548   -9.4045   11.9214 C   0  0  0  0  0  0  0  0  0  0  0  0
   11.7333  -10.3879   12.7484 N   0  0  0  0  0  0  0  0  0  0  0  0
   12.9617   -7.8710   13.6387 N   0  0  0  0  0  0  0  0  0  0  0  0
   13.4934   -6.6299   13.5824 C   0  0  0  0  0  0  0  0  0  0  0  0
   13.5044   -6.1954   12.2803 N   0  0  0  0  0  0  0  0  0  0  0  0
  2  1  1  6  0  0  0
  2  3  1  0  0  0  0
  2  5  1  0  0  0  0
  3  4  1  0  0  0  0
  3 17  1  0  0  0  0
  5  6  1  0  0  0  0
  7  6  1  6  0  0  0
  7  8  1  0  0  0  0
  7  9  1  0  0  0  0
 10  9  1  6  0  0  0
 10 11  1  0  0  0  0
 10 12  1  0  0  0  0
 11 16  1  0  0  0  0
 12 13  1  6  0  0  0
 12 14  1  0  0  0  0
 14 15  1  6  0  0  0
 14 16  1  0  0  0  0
 16 27  1  6  0  0  0
 18 19  2  0  0  0  0
 18 23  1  0  0  0  0
 19 20  1  0  0  0  0
 20 21  2  0  0  0  0
 21 22  1  0  0  0  0
 21 27  1  0  0  0  0
 22 23  2  0  0  0  0
 22 25  1  0  0  0  0
 23 24  1  0  0  0  0
 25 26  2  0  0  0  0
 26 27  1  0  0  0  0
M  END
>  <CHROM.1>
119.39568796,-82.34184811,-74.44428285,160.92495326,179.49759716,62.73352901
11.17667292,13.85022430,-6.41808212,9.53972903,1.13775413,-1.14617259,-1.65024254

>  <Name>
ligand

>  <RI>
0

>  <Rbt.Current_Directory>
/home/itssahil/PROJECTS/Mol_Feturizer/Test_systems_manuscript/rnas/2ydh

>  <Rbt.Executable>
rbdock ($Id: //depot/dev/client3/rdock/2013.1/src/exe/rbdock.cxx#4 $)

>  <Rbt.Library>
libRbt.so (2013.1, Build901 2013/11/27)

>  <Rbt.Parameter_File>
/export/apps/rDock/src/rDock_2013.1_src/data/scripts/dock_solv.prm

>  <Rbt.Receptor>
prm/pocket_docking_5.prm

>  <SCORE>
-11.491

>  <SCORE.INTER>
-10.335

>  <SCORE.INTER.CONST>
1

>  <SCORE.INTER.POLAR>
0

>  <SCORE.INTER.ROT>
7

>  <SCORE.INTER.SOLV>
13.9896

>  <SCORE.INTER.VDW>
-19.8199

>  <SCORE.INTER.norm>
-0.382779

>  <SCORE.INTRA>
-1.15602

>  <SCORE.INTRA.DIHEDRAL>
-3.56722

>  <SCORE.INTRA.DIHEDRAL.0>
9.75037

>  <SCORE.INTRA.POLAR>
0

>  <SCORE.INTRA.POLAR.0>
0

>  <SCORE.INTRA.REPUL>
0

>  <SCORE.INTRA.REPUL.0>
0

>  <SCORE.INTRA.SOLV>
-0.351726

>  <SCORE.INTRA.SOLV.lig_0>
-48.4279

>  <SCORE.INTRA.VDW>
0.803458

>  <SCORE.INTRA.VDW.0>
-4.69037

>  <SCORE.INTRA.norm>
-0.0428154

>  <SCORE.RESTR>
0

>  <SCORE.RESTR.CAVITY>
0

>  <SCORE.RESTR.norm>
0

>  <SCORE.SYSTEM>
0

>  <SCORE.SYSTEM.CONST>
0

>  <SCORE.SYSTEM.DIHEDRAL>
0

>  <SCORE.SYSTEM.SOLV>
0

>  <SCORE.SYSTEM.norm>
0

>  <SCORE.heavy>
27

>  <SCORE.norm>
-0.425594

>  <RMSD>
6.841

$$$$
ligand
 OpenBabel02271912153D
libRbt.so/2013.1/901 2013/11/27
 27 29  0  0  0  0  0  0  0  0999 V2000
   16.1123   -8.8983    4.6890 N   0  0  0  0  0  0  0  0  0  0  0  0
   14.6905   -8.5030    4.9314 C   0  0  2  0  0  0  0  0  0  0  0  0
   14.0797   -7.8307    3.6817 C   0  0  0  0  0  0  0  0  0  0  0  0
   14.4153   -8.1745    2.5443 O   0  0  0  0  0  0  0  0  0  0  0  0
   14.6168   -7.6028    6.1601 C   0  0  0  0  0  0  0  0  0  0  0  0
   15.5688   -6.4187    6.1318 C   0  0  0  0  0  0  0  0  0  0  0  0
   15.4993   -5.4049    7.6366 S   0  0  2  0  0  0  0  0  0  0  0  0
   14.0671   -4.3520    7.2680 C   0  0  0  0  0  0  0  0  0  0  0  0
   16.8652   -4.2373    7.5307 C   0  0  0  0  0  0  0  0  0  0  0  0
   17.2866   -3.8412    8.9328 C   0  0  1  0  0  0  0  0  0  0  0  0
   16.2090   -3.3274    9.7003 O   0  0  0  0  0  0  0  0  0  0  0  0
   17.8506   -5.0169    9.6928 C   0  0  1  0  0  0  0  0  0  0  0  0
   19.2108   -5.1899    9.4157 O   0  0  0  0  0  0  0  0  0  0  0  0
   17.6160   -4.5871   11.1088 C   0  0  1  0  0  0  0  0  0  0  0  0
   18.7142   -3.8090   11.5458 O   0  0  0  0  0  0  0  0  0  0  0  0
   16.3540   -3.7367   11.0406 C   0  0  2  0  0  0  0  0  0  0  0  0
   13.2359   -6.9192    3.7617 O   0  0  0  0  0  0  0  0  0  0  0  0
   14.2596   -7.4175   14.1908 N   0  0  0  0  0  0  0  0  0  0  0  0
   15.5792   -6.9926   14.1387 C   0  0  0  0  0  0  0  0  0  0  0  0
   15.9787   -6.0149   13.2354 N   0  0  0  0  0  0  0  0  0  0  0  0
   15.0655   -5.4631   12.4157 C   0  0  0  0  0  0  0  0  0  0  0  0
   13.7300   -5.8721   12.4694 C   0  0  0  0  0  0  0  0  0  0  0  0
   13.3227   -6.8588   13.3483 C   0  0  0  0  0  0  0  0  0  0  0  0
   12.0580   -7.2507   13.3879 N   0  0  0  0  0  0  0  0  0  0  0  0
   13.0412   -5.1619   11.5693 N   0  0  0  0  0  0  0  0  0  0  0  0
   13.8973   -4.3176   10.9527 C   0  0  0  0  0  0  0  0  0  0  0  0
   15.1582   -4.4869   11.4685 N   0  0  0  0  0  0  0  0  0  0  0  0
  2  1  1  6  0  0  0
  2  3  1  0  0  0  0
  2  5  1  0  0  0  0
  3  4  1  0  0  0  0
  3 17  1  0  0  0  0
  5  6  1  0  0  0  0
  7  6  1  6  0  0  0
  7  8  1  0  0  0  0
  7  9  1  0  0  0  0
 10  9  1  6  0  0  0
 10 11  1  0  0  0  0
 10 12  1  0  0  0  0
 11 16  1  0  0  0  0
 12 13  1  1  0  0  0
 12 14  1  0  0  0  0
 14 15  1  6  0  0  0
 14 16  1  0  0  0  0
 16 27  1  6  0  0  0
 18 19  2  0  0  0  0
 18 23  1  0  0  0  0
 19 20  1  0  0  0  0
 20 21  2  0  0  0  0
 21 22  1  0  0  0  0
 21 27  1  0  0  0  0
 22 23  2  0  0  0  0
 22 25  1  0  0  0  0
 23 24  1  0  0  0  0
 25 26  2  0  0  0  0
 26 27  1  0  0  0  0
M  END
>  <CHROM.1>
33.37879153,51.81013682,-177.81008363,-82.86678550,-153.14541447,-55.21577809
151.96941209,15.39547121,-5.80428223,9.17969705,1.64229711,-0.59442584,-1.74824250

>  <Name>
ligand

>  <RI>
0

>  <Rbt.Current_Directory>
/home/itssahil/PROJECTS/Mol_Feturizer/Test_systems_manuscript/rnas/2ydh

>  <Rbt.Executable>
rbdock ($Id: //depot/dev/client3/rdock/2013.1/src/exe/rbdock.cxx#4 $)

>  <Rbt.Library>
libRbt.so (2013.1, Build901 2013/11/27)

>  <Rbt.Parameter_File>
/export/apps/rDock/src/rDock_2013.1_src/data/scripts/dock_solv.prm

>  <Rbt.Receptor>
prm/pocket_docking_5.prm

>  <SCORE>
-13.2439

>  <SCORE.INTER>
-13.5908

>  <SCORE.INTER.CONST>
1

>  <SCORE.INTER.POLAR>
0

>  <SCORE.INTER.ROT>
7

>  <SCORE.INTER.SOLV>
14.4852

>  <SCORE.INTER.VDW>
-22.1556

>  <SCORE.INTER.norm>
-0.503365

>  <SCORE.INTRA>
0.346955

>  <SCORE.INTRA.DIHEDRAL>
-2.88385

>  <SCORE.INTRA.DIHEDRAL.0>
9.75037

>  <SCORE.INTRA.POLAR>
0

>  <SCORE.INTRA.POLAR.0>
0

>  <SCORE.INTRA.REPUL>
0

>  <SCORE.INTRA.REPUL.0>
0

>  <SCORE.INTRA.SOLV>
-0.546579

>  <SCORE.INTRA.SOLV.lig_0>
-48.4279

>  <SCORE.INTRA.VDW>
2.06217

>  <SCORE.INTRA.VDW.0>
-4.69037

>  <SCORE.INTRA.norm>
0.0128502

>  <SCORE.RESTR>
0

>  <SCORE.RESTR.CAVITY>
0

>  <SCORE.RESTR.norm>
0

>  <SCORE.SYSTEM>
0

>  <SCORE.SYSTEM.CONST>
0

>  <SCORE.SYSTEM.DIHEDRAL>
0

>  <SCORE.SYSTEM.SOLV>
0

>  <SCORE.SYSTEM.norm>
0

>  <SCORE.heavy>
27

>  <SCORE.norm>
-0.490514

>  <RMSD>
6.844

$$$$
ligand
 OpenBabel02271912153D
libRbt.so/2013.1/901 2013/11/27
 27 29  0  0  0  0  0  0  0  0999 V2000
   14.1455   -8.9051    5.9266 N   0  0  0  0  0  0  0  0  0  0  0  0
   14.0664   -7.5562    6.5677 C   0  0  2  0  0  0  0  0  0  0  0  0
   13.6437   -7.6689    8.0493 C   0  0  0  0  0  0  0  0  0  0  0  0
   14.3461   -8.2684    8.8691 O   0  0  0  0  0  0  0  0  0  0  0  0
   13.1187   -6.6691    5.7674 C   0  0  0  0  0  0  0  0  0  0  0  0
   13.5126   -5.2020    5.7263 C   0  0  0  0  0  0  0  0  0  0  0  0
   13.4285   -4.3899    7.3481 S   0  0  2  0  0  0  0  0  0  0  0  0
   13.9215   -2.6999    6.9050 C   0  0  0  0  0  0  0  0  0  0  0  0
   14.8534   -4.9671    8.2842 C   0  0  0  0  0  0  0  0  0  0  0  0
   14.8021   -4.3733    9.6790 C   0  0  1  0  0  0  0  0  0  0  0  0
   13.5183   -4.4890   10.2728 O   0  0  0  0  0  0  0  0  0  0  0  0
   15.7812   -5.0531   10.6048 C   0  0  1  0  0  0  0  0  0  0  0  0
   17.0554   -4.4868   10.4940 O   0  0  0  0  0  0  0  0  0  0  0  0
   15.1583   -4.7777   11.9394 C   0  0  1  0  0  0  0  0  0  0  0  0
   15.6148   -3.5258   12.4154 O   0  0  0  0  0  0  0  0  0  0  0  0
   13.6629   -4.7263   11.6541 C   0  0  2  0  0  0  0  0  0  0  0  0
   12.5867   -7.1720    8.4796 O   0  0  0  0  0  0  0  0  0  0  0  0
   13.0227   -8.6143   15.1659 N   0  0  0  0  0  0  0  0  0  0  0  0
   13.8583   -7.5109   15.2606 C   0  0  0  0  0  0  0  0  0  0  0  0
   13.9238   -6.5755   14.2349 N   0  0  0  0  0  0  0  0  0  0  0  0
   13.1504   -6.7371   13.1459 C   0  0  0  0  0  0  0  0  0  0  0  0
   12.2932   -7.8366   13.0457 C   0  0  0  0  0  0  0  0  0  0  0  0
   12.2336   -8.7863   14.0490 C   0  0  0  0  0  0  0  0  0  0  0  0
   11.4277   -9.8323   13.9445 N   0  0  0  0  0  0  0  0  0  0  0  0
   11.6374   -7.7479   11.8834 N   0  0  0  0  0  0  0  0  0  0  0  0
   12.0505   -6.6281   11.2497 C   0  0  0  0  0  0  0  0  0  0  0  0
   12.9865   -5.9849   12.0207 N   0  0  0  0  0  0  0  0  0  0  0  0
  2  1  1  6  0  0  0
  2  3  1  0  0  0  0
  2  5  1  0  0  0  0
  3  4  1  0  0  0  0
  3 17  1  0  0  0  0
  5  6  1  0  0  0  0
  7  6  1  6  0  0  0
  7  8  1  0  0  0  0
  7  9  1  0  0  0  0
 10  9  1  6  0  0  0
 10 11  1  0  0  0  0
 10 12  1  0  0  0  0
 11 16  1  0  0  0  0
 12 13  1  1  0  0  0
 12 14  1  0  0  0  0
 14 15  1  6  0  0  0
 14 16  1  0  0  0  0
 16 27  1  6  0  0  0
 18 19  2  0  0  0  0
 18 23  1  0  0  0  0
 19 20  1  0  0  0  0
 20 21  2  0  0  0  0
 21 22  1  0  0  0  0
 21 27  1  0  0  0  0
 22 23  2  0  0  0  0
 22 25  1  0  0  0  0
 23 24  1  0  0  0  0
 25 26  2  0  0  0  0
 26 27  1  0  0  0  0
M  END
>  <CHROM.1>
62.47382830,-145.53364158,-65.70596023,-178.97141562,-177.26382022,46.83184949
162.50428280,13.72088935,-6.19785068,10.26044932,1.29276260,-1.07406327,-1.51860914

>  <Name>
ligand

>  <RI>
0

>  <Rbt.Current_Directory>
/home/itssahil/PROJECTS/Mol_Feturizer/Test_systems_manuscript/rnas/2ydh

>  <Rbt.Executable>
rbdock ($Id: //depot/dev/client3/rdock/2013.1/src/exe/rbdock.cxx#4 $)

>  <Rbt.Library>
libRbt.so (2013.1, Build901 2013/11/27)

>  <Rbt.Parameter_File>
/export/apps/rDock/src/rDock_2013.1_src/data/scripts/dock_solv.prm

>  <Rbt.Receptor>
prm/pocket_docking_5.prm

>  <SCORE>
-11.3973

>  <SCORE.INTER>
-10.9489

>  <SCORE.INTER.CONST>
1

>  <SCORE.INTER.POLAR>
0

>  <SCORE.INTER.ROT>
7

>  <SCORE.INTER.SOLV>
12.0802

>  <SCORE.INTER.VDW>
-19.5926

>  <SCORE.INTER.norm>
-0.405513

>  <SCORE.INTRA>
-0.448412

>  <SCORE.INTRA.DIHEDRAL>
-1.96866

>  <SCORE.INTRA.DIHEDRAL.0>
9.75037

>  <SCORE.INTRA.POLAR>
0

>  <SCORE.INTRA.POLAR.0>
0

>  <SCORE.INTRA.REPUL>
0

>  <SCORE.INTRA.REPUL.0>
0

>  <SCORE.INTRA.SOLV>
-1.22518

>  <SCORE.INTRA.SOLV.lig_0>
-48.4279

>  <SCORE.INTRA.VDW>
1.14851

>  <SCORE.INTRA.VDW.0>
-4.69037

>  <SCORE.INTRA.norm>
-0.0166079

>  <SCORE.RESTR>
0

>  <SCORE.RESTR.CAVITY>
0

>  <SCORE.RESTR.norm>
0

>  <SCORE.SYSTEM>
0

>  <SCORE.SYSTEM.CONST>
0

>  <SCORE.SYSTEM.DIHEDRAL>
0

>  <SCORE.SYSTEM.SOLV>
0

>  <SCORE.SYSTEM.norm>
0

>  <SCORE.heavy>
27

>  <SCORE.norm>
-0.422121

>  <RMSD>
6.848

$$$$
ligand
 OpenBabel02271912153D
libRbt.so/2013.1/901 2013/11/27
 27 29  0  0  0  0  0  0  0  0999 V2000
   13.0365   -7.5631    5.0880 N   0  0  0  0  0  0  0  0  0  0  0  0
   14.4997   -7.2551    5.0567 C   0  0  2  0  0  0  0  0  0  0  0  0
   15.3412   -8.5501    5.0952 C   0  0  0  0  0  0  0  0  0  0  0  0
   16.0445   -8.8250    6.0722 O   0  0  0  0  0  0  0  0  0  0  0  0
   14.8445   -6.3133    6.2055 C   0  0  0  0  0  0  0  0  0  0  0  0
   14.0631   -5.0100    6.2081 C   0  0  0  0  0  0  0  0  0  0  0  0
   13.6082   -4.4484    7.8738 S   0  0  2  0  0  0  0  0  0  0  0  0
   12.6326   -2.9699    7.4764 C   0  0  0  0  0  0  0  0  0  0  0  0
   15.0948   -3.7379    8.5983 C   0  0  0  0  0  0  0  0  0  0  0  0
   14.8969   -3.5984   10.0956 C   0  0  1  0  0  0  0  0  0  0  0  0
   13.7628   -4.3119   10.5635 O   0  0  0  0  0  0  0  0  0  0  0  0
   16.0912   -4.1142   10.8608 C   0  0  1  0  0  0  0  0  0  0  0  0
   17.0782   -3.1298   10.9772 O   0  0  0  0  0  0  0  0  0  0  0  0
   15.4686   -4.4445   12.1830 C   0  0  1  0  0  0  0  0  0  0  0  0
   15.4744   -3.2895   13.0004 O   0  0  0  0  0  0  0  0  0  0  0  0
   14.0403   -4.8457   11.8375 C   0  0  2  0  0  0  0  0  0  0  0  0
   15.3540   -9.3638    4.1534 O   0  0  0  0  0  0  0  0  0  0  0  0
   12.6167   -9.1544    9.1417 N   0  0  0  0  0  0  0  0  0  0  0  0
   12.6216   -7.8385    8.7023 C   0  0  0  0  0  0  0  0  0  0  0  0
   13.0144   -6.8062    9.5457 N   0  0  0  0  0  0  0  0  0  0  0  0
   13.4123   -7.0945   10.7983 C   0  0  0  0  0  0  0  0  0  0  0  0
   13.4262   -8.4180   11.2475 C   0  0  0  0  0  0  0  0  0  0  0  0
   13.0178   -9.4527   10.4263 C   0  0  0  0  0  0  0  0  0  0  0  0
   13.0224  -10.7042   10.8602 N   0  0  0  0  0  0  0  0  0  0  0  0
   13.8720   -8.4243   12.5086 N   0  0  0  0  0  0  0  0  0  0  0  0
   14.1420   -7.1498   12.8675 C   0  0  0  0  0  0  0  0  0  0  0  0
   13.8672   -6.3104   11.8166 N   0  0  0  0  0  0  0  0  0  0  0  0
  2  1  1  1  0  0  0
  2  3  1  0  0  0  0
  2  5  1  0  0  0  0
  3  4  1  0  0  0  0
  3 17  1  0  0  0  0
  5  6  1  0  0  0  0
  7  6  1  6  0  0  0
  7  8  1  0  0  0  0
  7  9  1  0  0  0  0
 10  9  1  6  0  0  0
 10 11  1  0  0  0  0
 10 12  1  0  0  0  0
 11 16  1  0  0  0  0
 12 13  1  1  0  0  0
 12 14  1  0  0  0  0
 14 15  1  1  0  0  0
 14 16  1  0  0  0  0
 16 27  1  6  0  0  0
 18 19  2  0  0  0  0
 18 23  1  0  0  0  0
 19 20  1  0  0  0  0
 20 21  2  0  0  0  0
 21 22  1  0  0  0  0
 21 27  1  0  0  0  0
 22 23  2  0  0  0  0
 22 25  1  0  0  0  0
 23 24  1  0  0  0  0
 25 26  2  0  0  0  0
 26 27  1  0  0  0  0
M  END
>  <CHROM.1>
-112.75243013,-57.23970212,142.31537067,-176.76036889,-164.65235682,13.00410488
-4.87056768,14.24316730,-6.26432506,9.12801830,-1.82872637,1.33222855,1.30594781

>  <Name>
ligand

>  <RI>
0

>  <Rbt.Current_Directory>
/home/itssahil/PROJECTS/Mol_Feturizer/Test_systems_manuscript/rnas/2ydh

>  <Rbt.Executable>
rbdock ($Id: //depot/dev/client3/rdock/2013.1/src/exe/rbdock.cxx#4 $)

>  <Rbt.Library>
libRbt.so (2013.1, Build901 2013/11/27)

>  <Rbt.Parameter_File>
/export/apps/rDock/src/rDock_2013.1_src/data/scripts/dock_solv.prm

>  <Rbt.Receptor>
prm/pocket_docking_2.prm

>  <SCORE>
-0.441508

>  <SCORE.INTER>
-6.36001

>  <SCORE.INTER.CONST>
1

>  <SCORE.INTER.POLAR>
0

>  <SCORE.INTER.ROT>
7

>  <SCORE.INTER.SOLV>
22.766

>  <SCORE.INTER.VDW>
-20.0953

>  <SCORE.INTER.norm>
-0.235556

>  <SCORE.INTRA>
3.93816

>  <SCORE.INTRA.DIHEDRAL>
3.52712

>  <SCORE.INTRA.DIHEDRAL.0>
9.75037

>  <SCORE.INTRA.POLAR>
0

>  <SCORE.INTRA.POLAR.0>
0

>  <SCORE.INTRA.REPUL>
0

>  <SCORE.INTRA.REPUL.0>
0

>  <SCORE.INTRA.SOLV>
-0.156137

>  <SCORE.INTRA.SOLV.lig_0>
-48.4279

>  <SCORE.INTRA.VDW>
2.25267

>  <SCORE.INTRA.VDW.0>
-4.69037

>  <SCORE.INTRA.norm>
0.145858

>  <SCORE.RESTR>
1.98034

>  <SCORE.RESTR.CAVITY>
1.98034

>  <SCORE.RESTR.norm>
0.073346

>  <SCORE.SYSTEM>
0

>  <SCORE.SYSTEM.CONST>
0

>  <SCORE.SYSTEM.DIHEDRAL>
0

>  <SCORE.SYSTEM.SOLV>
0

>  <SCORE.SYSTEM.norm>
0

>  <SCORE.heavy>
27

>  <SCORE.norm>
-0.0163521

>  <RMSD>
6.895

$$$$
ligand
 OpenBabel02271912153D
libRbt.so/2013.1/901 2013/11/27
 27 29  0  0  0  0  0  0  0  0999 V2000
   16.4754   -7.0714    5.2483 N   0  0  0  0  0  0  0  0  0  0  0  0
   15.2888   -7.3187    6.1243 C   0  0  2  0  0  0  0  0  0  0  0  0
   14.5804   -8.6372    5.7415 C   0  0  0  0  0  0  0  0  0  0  0  0
   14.9398   -9.2923    4.7585 O   0  0  0  0  0  0  0  0  0  0  0  0
   14.3475   -6.1210    6.0533 C   0  0  0  0  0  0  0  0  0  0  0  0
   14.9822   -4.7966    6.4435 C   0  0  0  0  0  0  0  0  0  0  0  0
   13.7810   -3.5720    7.0387 S   0  0  2  0  0  0  0  0  0  0  0  0
   14.8769   -2.1682    7.3907 C   0  0  0  0  0  0  0  0  0  0  0  0
   13.2925   -4.0948    8.6903 C   0  0  0  0  0  0  0  0  0  0  0  0
   14.3862   -3.7186    9.6716 C   0  0  1  0  0  0  0  0  0  0  0  0
   13.9178   -3.6535   11.0098 O   0  0  0  0  0  0  0  0  0  0  0  0
   15.5178   -4.7170    9.6465 C   0  0  1  0  0  0  0  0  0  0  0  0
   16.4318   -4.4166    8.6311 O   0  0  0  0  0  0  0  0  0  0  0  0
   16.1081   -4.5213   11.0097 C   0  0  1  0  0  0  0  0  0  0  0  0
   17.0610   -3.4765   10.9573 O   0  0  0  0  0  0  0  0  0  0  0  0
   14.9238   -4.1193   11.8793 C   0  0  2  0  0  0  0  0  0  0  0  0
   13.6233   -9.0924    6.3942 O   0  0  0  0  0  0  0  0  0  0  0  0
   11.1408   -7.7193   12.6458 N   0  0  0  0  0  0  0  0  0  0  0  0
   11.2081   -6.7540   11.6517 C   0  0  0  0  0  0  0  0  0  0  0  0
   12.2730   -5.8629   11.5937 N   0  0  0  0  0  0  0  0  0  0  0  0
   13.2585   -5.9543   12.5051 C   0  0  0  0  0  0  0  0  0  0  0  0
   13.2095   -6.9325   13.5022 C   0  0  0  0  0  0  0  0  0  0  0  0
   12.1456   -7.8118   13.5848 C   0  0  0  0  0  0  0  0  0  0  0  0
   12.0982   -8.7301   14.5382 N   0  0  0  0  0  0  0  0  0  0  0  0
   14.3069   -6.8119   14.2573 N   0  0  0  0  0  0  0  0  0  0  0  0
   15.0467   -5.7927   13.7675 C   0  0  0  0  0  0  0  0  0  0  0  0
   14.4139   -5.2510   12.6763 N   0  0  0  0  0  0  0  0  0  0  0  0
  2  1  1  6  0  0  0
  2  3  1  0  0  0  0
  2  5  1  0  0  0  0
  3  4  1  0  0  0  0
  3 17  1  0  0  0  0
  5  6  1  0  0  0  0
  7  6  1  1  0  0  0
  7  8  1  0  0  0  0
  7  9  1  0  0  0  0
 10  9  1  6  0  0  0
 10 11  1  0  0  0  0
 10 12  1  0  0  0  0
 11 16  1  0  0  0  0
 12 13  1  6  0  0  0
 12 14  1  0  0  0  0
 14 15  1  6  0  0  0
 14 16  1  0  0  0  0
 16 27  1  6  0  0  0
 18 19  2  0  0  0  0
 18 23  1  0  0  0  0
 19 20  1  0  0  0  0
 20 21  2  0  0  0  0
 21 22  1  0  0  0  0
 21 27  1  0  0  0  0
 22 23  2  0  0  0  0
 22 25  1  0  0  0  0
 23 24  1  0  0  0  0
 25 26  2  0  0  0  0
 26 27  1  0  0  0  0
M  END
>  <CHROM.1>
-5.35447037,-57.34569117,-155.21254135,-179.81312747,77.87525184,159.23756572
11.13328472,14.23244247,-5.73234342,9.66998001,0.97841210,-1.13405559,-2.07969708

>  <Name>
ligand

>  <RI>
0

>  <Rbt.Current_Directory>
/home/itssahil/PROJECTS/Mol_Feturizer/Test_systems_manuscript/rnas/2ydh

>  <Rbt.Executable>
rbdock ($Id: //depot/dev/client3/rdock/2013.1/src/exe/rbdock.cxx#4 $)

>  <Rbt.Library>
libRbt.so (2013.1, Build901 2013/11/27)

>  <Rbt.Parameter_File>
/export/apps/rDock/src/rDock_2013.1_src/data/scripts/dock_solv.prm

>  <Rbt.Receptor>
prm/pocket_docking_5.prm

>  <SCORE>
-12.7373

>  <SCORE.INTER>
-17.8086

>  <SCORE.INTER.CONST>
1

>  <SCORE.INTER.POLAR>
0

>  <SCORE.INTER.ROT>
7

>  <SCORE.INTER.SOLV>
10.726

>  <SCORE.INTER.VDW>
-23.7144

>  <SCORE.INTER.norm>
-0.659579

>  <SCORE.INTRA>
5.07132

>  <SCORE.INTRA.DIHEDRAL>
-1.45191

>  <SCORE.INTRA.DIHEDRAL.0>
9.75037

>  <SCORE.INTRA.POLAR>
0

>  <SCORE.INTRA.POLAR.0>
0

>  <SCORE.INTRA.REPUL>
0

>  <SCORE.INTRA.REPUL.0>
0

>  <SCORE.INTRA.SOLV>
0.111949

>  <SCORE.INTRA.SOLV.lig_0>
-48.4279

>  <SCORE.INTRA.VDW>
5.7413

>  <SCORE.INTRA.VDW.0>
-4.69037

>  <SCORE.INTRA.norm>
0.187827

>  <SCORE.RESTR>
0

>  <SCORE.RESTR.CAVITY>
0

>  <SCORE.RESTR.norm>
0

>  <SCORE.SYSTEM>
0

>  <SCORE.SYSTEM.CONST>
0

>  <SCORE.SYSTEM.DIHEDRAL>
0

>  <SCORE.SYSTEM.SOLV>
0

>  <SCORE.SYSTEM.norm>
0

>  <SCORE.heavy>
27

>  <SCORE.norm>
-0.471753

>  <RMSD>
6.977

$$$$
ligand
 OpenBabel02271912153D
libRbt.so/2013.1/901 2013/11/27
 27 29  0  0  0  0  0  0  0  0999 V2000
   13.6170   -8.5010    5.8453 N   0  0  0  0  0  0  0  0  0  0  0  0
   13.2063   -7.4451    4.8691 C   0  0  2  0  0  0  0  0  0  0  0  0
   13.9062   -7.6453    3.5065 C   0  0  0  0  0  0  0  0  0  0  0  0
   13.4630   -7.1233    2.4790 O   0  0  0  0  0  0  0  0  0  0  0  0
   13.4891   -6.0688    5.4618 C   0  0  0  0  0  0  0  0  0  0  0  0
   12.5570   -5.6659    6.5923 C   0  0  0  0  0  0  0  0  0  0  0  0
   13.2902   -4.4573    7.7319 S   0  0  2  0  0  0  0  0  0  0  0  0
   13.6581   -3.0959    6.5886 C   0  0  0  0  0  0  0  0  0  0  0  0
   14.9347   -5.0673    8.1363 C   0  0  0  0  0  0  0  0  0  0  0  0
   15.5304   -4.1970    9.2265 C   0  0  1  0  0  0  0  0  0  0  0  0
   14.6375   -3.9958   10.3110 O   0  0  0  0  0  0  0  0  0  0  0  0
   16.7877   -4.8081    9.7954 C   0  0  1  0  0  0  0  0  0  0  0  0
   17.9048   -4.4723    9.0235 O   0  0  0  0  0  0  0  0  0  0  0  0
   16.8309   -4.1735   11.1520 C   0  0  1  0  0  0  0  0  0  0  0  0
   17.5040   -2.9321   11.0626 O   0  0  0  0  0  0  0  0  0  0  0  0
   15.3671   -3.9611   11.5158 C   0  0  2  0  0  0  0  0  0  0  0  0
   14.9331   -8.3375    3.3810 O   0  0  0  0  0  0  0  0  0  0  0  0
   11.5431   -7.3750   12.7730 N   0  0  0  0  0  0  0  0  0  0  0  0
   11.5863   -6.5055   11.6929 C   0  0  0  0  0  0  0  0  0  0  0  0
   12.6673   -5.6520   11.5071 N   0  0  0  0  0  0  0  0  0  0  0  0
   13.6914   -5.6870   12.3790 C   0  0  0  0  0  0  0  0  0  0  0  0
   13.6662   -6.5695   13.4625 C   0  0  0  0  0  0  0  0  0  0  0  0
   12.5877   -7.4091   13.6717 C   0  0  0  0  0  0  0  0  0  0  0  0
   12.5635   -8.2360   14.7062 N   0  0  0  0  0  0  0  0  0  0  0  0
   14.7997   -6.4106   14.1547 N   0  0  0  0  0  0  0  0  0  0  0  0
   15.5390   -5.4598   13.5418 C   0  0  0  0  0  0  0  0  0  0  0  0
   14.8690   -5.0022   12.4345 N   0  0  0  0  0  0  0  0  0  0  0  0
  2  1  1  1  0  0  0
  2  3  1  0  0  0  0
  2  5  1  0  0  0  0
  3  4  1  0  0  0  0
  3 17  1  0  0  0  0
  5  6  1  0  0  0  0
  7  6  1  6  0  0  0
  7  8  1  0  0  0  0
  7  9  1  0  0  0  0
 10  9  1  6  0  0  0
 10 11  1  0  0  0  0
 10 12  1  0  0  0  0
 11 16  1  0  0  0  0
 12 13  1  6  0  0  0
 12 14  1  0  0  0  0
 14 15  1  6  0  0  0
 14 16  1  0  0  0  0
 16 27  1  1  0  0  0
 18 19  2  0  0  0  0
 18 23  1  0  0  0  0
 19 20  1  0  0  0  0
 20 21  2  0  0  0  0
 21 22  1  0  0  0  0
 21 27  1  0  0  0  0
 22 23  2  0  0  0  0
 22 25  1  0  0  0  0
 23 24  1  0  0  0  0
 25 26  2  0  0  0  0
 26 27  1  0  0  0  0
M  END
>  <CHROM.1>
160.77768624,-71.81176407,154.68880069,58.80127358,-172.63144512,48.71076788
-16.79468726,14.26107863,-5.69570419,9.31558647,1.62760327,-0.74276916,-1.63582935

>  <Name>
ligand

>  <RI>
0

>  <Rbt.Current_Directory>
/home/itssahil/PROJECTS/Mol_Feturizer/Test_systems_manuscript/rnas/2ydh

>  <Rbt.Executable>
rbdock ($Id: //depot/dev/client3/rdock/2013.1/src/exe/rbdock.cxx#4 $)

>  <Rbt.Library>
libRbt.so (2013.1, Build901 2013/11/27)

>  <Rbt.Parameter_File>
/export/apps/rDock/src/rDock_2013.1_src/data/scripts/dock_solv.prm

>  <Rbt.Receptor>
prm/pocket_docking_5.prm

>  <SCORE>
-17.5635

>  <SCORE.INTER>
-18.5479

>  <SCORE.INTER.CONST>
1

>  <SCORE.INTER.POLAR>
0

>  <SCORE.INTER.ROT>
7

>  <SCORE.INTER.SOLV>
13.0635

>  <SCORE.INTER.VDW>
-24.9864

>  <SCORE.INTER.norm>
-0.686959

>  <SCORE.INTRA>
0.984437

>  <SCORE.INTRA.DIHEDRAL>
-2.91227

>  <SCORE.INTRA.DIHEDRAL.0>
9.75037

>  <SCORE.INTRA.POLAR>
0

>  <SCORE.INTRA.POLAR.0>
0

>  <SCORE.INTRA.REPUL>
0

>  <SCORE.INTRA.REPUL.0>
0

>  <SCORE.INTRA.SOLV>
-0.533224

>  <SCORE.INTRA.SOLV.lig_0>
-48.4279

>  <SCORE.INTRA.VDW>
2.70718

>  <SCORE.INTRA.VDW.0>
-4.69037

>  <SCORE.INTRA.norm>
0.0364606

>  <SCORE.RESTR>
0

>  <SCORE.RESTR.CAVITY>
0

>  <SCORE.RESTR.norm>
0

>  <SCORE.SYSTEM>
0

>  <SCORE.SYSTEM.CONST>
0

>  <SCORE.SYSTEM.DIHEDRAL>
0

>  <SCORE.SYSTEM.SOLV>
0

>  <SCORE.SYSTEM.norm>
0

>  <SCORE.heavy>
27

>  <SCORE.norm>
-0.650498

>  <RMSD>
7.086

$$$$
ligand
 OpenBabel02271912153D
libRbt.so/2013.1/901 2013/11/27
 27 29  0  0  0  0  0  0  0  0999 V2000
   13.7842   -8.2716    5.2745 N   0  0  0  0  0  0  0  0  0  0  0  0
   14.1501   -6.8218    5.2991 C   0  0  2  0  0  0  0  0  0  0  0  0
   15.4704   -6.5947    6.0684 C   0  0  0  0  0  0  0  0  0  0  0  0
   15.8524   -7.3930    6.9294 O   0  0  0  0  0  0  0  0  0  0  0  0
   12.9970   -6.0176    5.8901 C   0  0  0  0  0  0  0  0  0  0  0  0
   13.2552   -4.5232    5.9865 C   0  0  0  0  0  0  0  0  0  0  0  0
   13.3935   -3.9269    7.6960 S   0  0  2  0  0  0  0  0  0  0  0  0
   14.3760   -2.4204    7.4491 C   0  0  0  0  0  0  0  0  0  0  0  0
   14.5663   -5.0128    8.5237 C   0  0  0  0  0  0  0  0  0  0  0  0
   14.7325   -4.5572    9.9609 C   0  0  1  0  0  0  0  0  0  0  0  0
   13.5241   -4.6387   10.7008 O   0  0  0  0  0  0  0  0  0  0  0  0
   15.7556   -5.3933   10.6902 C   0  0  1  0  0  0  0  0  0  0  0  0
   17.0500   -4.9115   10.4687 O   0  0  0  0  0  0  0  0  0  0  0  0
   15.3226   -5.2069   12.1125 C   0  0  1  0  0  0  0  0  0  0  0  0
   15.9356   -4.0439   12.6358 O   0  0  0  0  0  0  0  0  0  0  0  0
   13.8132   -5.0206   12.0257 C   0  0  2  0  0  0  0  0  0  0  0  0
   16.1989   -5.6065    5.8630 O   0  0  0  0  0  0  0  0  0  0  0  0
   12.6310   -8.6891   15.6317 N   0  0  0  0  0  0  0  0  0  0  0  0
   13.4478   -7.5781   15.7840 C   0  0  0  0  0  0  0  0  0  0  0  0
   13.6721   -6.7070   14.7247 N   0  0  0  0  0  0  0  0  0  0  0  0
   13.0716   -6.9387   13.5432 C   0  0  0  0  0  0  0  0  0  0  0  0
   12.2343   -8.0462   13.3820 C   0  0  0  0  0  0  0  0  0  0  0  0
   12.0191   -8.9329   14.4209 C   0  0  0  0  0  0  0  0  0  0  0  0
   11.2334   -9.9871   14.2600 N   0  0  0  0  0  0  0  0  0  0  0  0
   11.7623   -8.0319   12.1306 N   0  0  0  0  0  0  0  0  0  0  0  0
   12.2717   -6.9511   11.4993 C   0  0  0  0  0  0  0  0  0  0  0  0
   13.0833   -6.2575   12.3622 N   0  0  0  0  0  0  0  0  0  0  0  0
  2  1  1  1  0  0  0
  2  3  1  0  0  0  0
  2  5  1  0  0  0  0
  3  4  1  0  0  0  0
  3 17  1  0  0  0  0
  5  6  1  0  0  0  0
  7  6  1  6  0  0  0
  7  8  1  0  0  0  0
  7  9  1  0  0  0  0
 10  9  1  6  0  0  0
 10 11  1  0  0  0  0
 10 12  1  0  0  0  0
 11 16  1  0  0  0  0
 12 13  1  1  0  0  0
 12 14  1  0  0  0  0
 14 15  1  6  0  0  0
 14 16  1  0  0  0  0
 16 27  1  6  0  0  0
 18 19  2  0  0  0  0
 18 23  1  0  0  0  0
 19 20  1  0  0  0  0
 20 21  2  0  0  0  0
 21 22  1  0  0  0  0
 21 27  1  0  0  0  0
 22 23  2  0  0  0  0
 22 25  1  0  0  0  0
 23 24  1  0  0  0  0
 25 26  2  0  0  0  0
 26 27  1  0  0  0  0
M  END
>  <CHROM.1>
-24.74683340,179.22541452,-112.24608021,156.23499938,179.60779708,62.33590259
-178.78302818,13.94912300,-6.07106308,10.19940776,1.17258223,-1.00707290
-1.62199777

>  <Name>
ligand

>  <RI>
0

>  <Rbt.Current_Directory>
/home/itssahil/PROJECTS/Mol_Feturizer/Test_systems_manuscript/rnas/2ydh

>  <Rbt.Executable>
rbdock ($Id: //depot/dev/client3/rdock/2013.1/src/exe/rbdock.cxx#4 $)

>  <Rbt.Library>
libRbt.so (2013.1, Build901 2013/11/27)

>  <Rbt.Parameter_File>
/export/apps/rDock/src/rDock_2013.1_src/data/scripts/dock_solv.prm

>  <Rbt.Receptor>
prm/pocket_docking_8.prm

>  <SCORE>
-11.2268

>  <SCORE.INTER>
-11.9811

>  <SCORE.INTER.CONST>
1

>  <SCORE.INTER.POLAR>
0

>  <SCORE.INTER.ROT>
7

>  <SCORE.INTER.SOLV>
10.1841

>  <SCORE.INTER.VDW>
-19.6487

>  <SCORE.INTER.norm>
-0.443743

>  <SCORE.INTRA>
0.754233

>  <SCORE.INTRA.DIHEDRAL>
-0.461896

>  <SCORE.INTRA.DIHEDRAL.0>
9.75037

>  <SCORE.INTRA.POLAR>
0

>  <SCORE.INTRA.POLAR.0>
0

>  <SCORE.INTRA.REPUL>
0

>  <SCORE.INTRA.REPUL.0>
0

>  <SCORE.INTRA.SOLV>
-1.4779

>  <SCORE.INTRA.SOLV.lig_0>
-48.4279

>  <SCORE.INTRA.VDW>
1.72413

>  <SCORE.INTRA.VDW.0>
-4.69037

>  <SCORE.INTRA.norm>
0.0279345

>  <SCORE.RESTR>
0

>  <SCORE.RESTR.CAVITY>
0

>  <SCORE.RESTR.norm>
0

>  <SCORE.SYSTEM>
0

>  <SCORE.SYSTEM.CONST>
0

>  <SCORE.SYSTEM.DIHEDRAL>
0

>  <SCORE.SYSTEM.SOLV>
0

>  <SCORE.SYSTEM.norm>
0

>  <SCORE.heavy>
27

>  <SCORE.norm>
-0.415809

>  <RMSD>
7.162

$$$$
ligand
 OpenBabel02271912153D
libRbt.so/2013.1/901 2013/11/27
 27 29  0  0  0  0  0  0  0  0999 V2000
   15.8516   -6.6839    5.8263 N   0  0  0  0  0  0  0  0  0  0  0  0
   14.4328   -6.4918    6.2583 C   0  0  2  0  0  0  0  0  0  0  0  0
   13.5205   -7.5944    5.6766 C   0  0  0  0  0  0  0  0  0  0  0  0
   13.5376   -8.7422    6.1314 O   0  0  0  0  0  0  0  0  0  0  0  0
   13.9669   -5.0946    5.8627 C   0  0  0  0  0  0  0  0  0  0  0  0
   12.7479   -4.5983    6.6221 C   0  0  0  0  0  0  0  0  0  0  0  0
   13.1069   -4.1544    8.3458 S   0  0  2  0  0  0  0  0  0  0  0  0
   14.4168   -2.9197    8.1102 C   0  0  0  0  0  0  0  0  0  0  0  0
   14.0140   -5.5390    9.0527 C   0  0  0  0  0  0  0  0  0  0  0  0
   14.6994   -5.0823   10.3264 C   0  0  1  0  0  0  0  0  0  0  0  0
   13.7925   -4.9274   11.4070 O   0  0  0  0  0  0  0  0  0  0  0  0
   15.7530   -6.0677   10.7702 C   0  0  1  0  0  0  0  0  0  0  0  0
   16.9695   -5.8304   10.1217 O   0  0  0  0  0  0  0  0  0  0  0  0
   15.8305   -5.7693   12.2365 C   0  0  1  0  0  0  0  0  0  0  0  0
   16.7566   -4.7207   12.4486 O   0  0  0  0  0  0  0  0  0  0  0  0
   14.4225   -5.3194   12.6046 C   0  0  2  0  0  0  0  0  0  0  0  0
   12.7395   -7.3818    4.7310 O   0  0  0  0  0  0  0  0  0  0  0  0
   10.8235   -9.1519   12.1377 N   0  0  0  0  0  0  0  0  0  0  0  0
   11.2960   -8.3029   11.1474 C   0  0  0  0  0  0  0  0  0  0  0  0
   12.2427   -7.3272   11.4363 N   0  0  0  0  0  0  0  0  0  0  0  0
   12.7176   -7.2214   12.6906 C   0  0  0  0  0  0  0  0  0  0  0  0
   12.2604   -8.0810   13.6935 C   0  0  0  0  0  0  0  0  0  0  0  0
   11.3033   -9.0422   13.4251 C   0  0  0  0  0  0  0  0  0  0  0  0
   10.8652   -9.8473   14.3814 N   0  0  0  0  0  0  0  0  0  0  0  0
   12.8981   -7.7726   14.8281 N   0  0  0  0  0  0  0  0  0  0  0  0
   13.7434   -6.7497   14.5728 C   0  0  0  0  0  0  0  0  0  0  0  0
   13.6487   -6.3971   13.2495 N   0  0  0  0  0  0  0  0  0  0  0  0
  2  1  1  6  0  0  0
  2  3  1  0  0  0  0
  2  5  1  0  0  0  0
  3  4  1  0  0  0  0
  3 17  1  0  0  0  0
  5  6  1  0  0  0  0
  7  6  1  6  0  0  0
  7  8  1  0  0  0  0
  7  9  1  0  0  0  0
 10  9  1  6  0  0  0
 10 11  1  0  0  0  0
 10 12  1  0  0  0  0
 11 16  1  0  0  0  0
 12 13  1  6  0  0  0
 12 14  1  0  0  0  0
 14 15  1  6  0  0  0
 14 16  1  0  0  0  0
 16 27  1  6  0  0  0
 18 19  2  0  0  0  0
 18 23  1  0  0  0  0
 19 20  1  0  0  0  0
 20 21  2  0  0  0  0
 21 22  1  0  0  0  0
 21 27  1  0  0  0  0
 22 23  2  0  0  0  0
 22 25  1  0  0  0  0
 23 24  1  0  0  0  0
 25 26  2  0  0  0  0
 26 27  1  0  0  0  0
M  END
>  <CHROM.1>
74.60720565,-160.60873247,72.82275802,56.73180859,163.14121127,74.59410111
19.04054312,13.66696102,-6.39299761,10.11931329,1.31927727,-0.81815087,-1.50924480

>  <Name>
ligand

>  <RI>
0

>  <Rbt.Current_Directory>
/home/itssahil/PROJECTS/Mol_Feturizer/Test_systems_manuscript/rnas/2ydh

>  <Rbt.Executable>
rbdock ($Id: //depot/dev/client3/rdock/2013.1/src/exe/rbdock.cxx#4 $)

>  <Rbt.Library>
libRbt.so (2013.1, Build901 2013/11/27)

>  <Rbt.Parameter_File>
/export/apps/rDock/src/rDock_2013.1_src/data/scripts/dock_solv.prm

>  <Rbt.Receptor>
prm/pocket_docking_8.prm

>  <SCORE>
-11.3859

>  <SCORE.INTER>
-12.3465

>  <SCORE.INTER.CONST>
1

>  <SCORE.INTER.POLAR>
0

>  <SCORE.INTER.ROT>
7

>  <SCORE.INTER.SOLV>
9.58819

>  <SCORE.INTER.VDW>
-19.6937

>  <SCORE.INTER.norm>
-0.457277

>  <SCORE.INTRA>
0.960529

>  <SCORE.INTRA.DIHEDRAL>
-3.7558

>  <SCORE.INTRA.DIHEDRAL.0>
9.75037

>  <SCORE.INTRA.POLAR>
0

>  <SCORE.INTRA.POLAR.0>
0

>  <SCORE.INTRA.REPUL>
0

>  <SCORE.INTRA.REPUL.0>
0

>  <SCORE.INTRA.SOLV>
-0.541119

>  <SCORE.INTRA.SOLV.lig_0>
-48.4279

>  <SCORE.INTRA.VDW>
3.10899

>  <SCORE.INTRA.VDW.0>
-4.69037

>  <SCORE.INTRA.norm>
0.0355751

>  <SCORE.RESTR>
0

>  <SCORE.RESTR.CAVITY>
0

>  <SCORE.RESTR.norm>
0

>  <SCORE.SYSTEM>
0

>  <SCORE.SYSTEM.CONST>
0

>  <SCORE.SYSTEM.DIHEDRAL>
0

>  <SCORE.SYSTEM.SOLV>
0

>  <SCORE.SYSTEM.norm>
0

>  <SCORE.heavy>
27

>  <SCORE.norm>
-0.421702

>  <RMSD>
7.219

$$$$
ligand
 OpenBabel02271912153D
libRbt.so/2013.1/901 2013/11/27
 27 29  0  0  0  0  0  0  0  0999 V2000
   15.8667   -6.7738    5.8163 N   0  0  0  0  0  0  0  0  0  0  0  0
   14.4834   -7.2287    6.1573 C   0  0  2  0  0  0  0  0  0  0  0  0
   14.2587   -8.6952    5.7268 C   0  0  0  0  0  0  0  0  0  0  0  0
   13.4179   -9.4034    6.2892 O   0  0  0  0  0  0  0  0  0  0  0  0
   13.4681   -6.2835    5.5239 C   0  0  0  0  0  0  0  0  0  0  0  0
   13.5825   -4.8384    5.9797 C   0  0  0  0  0  0  0  0  0  0  0  0
   13.1703   -4.6031    7.7323 S   0  0  2  0  0  0  0  0  0  0  0  0
   13.6009   -2.8527    7.9479 C   0  0  0  0  0  0  0  0  0  0  0  0
   14.4602   -5.4298    8.6771 C   0  0  0  0  0  0  0  0  0  0  0  0
   14.3855   -4.9723   10.1213 C   0  0  1  0  0  0  0  0  0  0  0  0
   13.0976   -5.1624   10.6864 O   0  0  0  0  0  0  0  0  0  0  0  0
   15.3655   -5.7229   10.9896 C   0  0  1  0  0  0  0  0  0  0  0  0
   16.6319   -5.1304   10.9480 O   0  0  0  0  0  0  0  0  0  0  0  0
   14.7247   -5.5848   12.3370 C   0  0  1  0  0  0  0  0  0  0  0  0
   15.1570   -4.3775   12.9351 O   0  0  0  0  0  0  0  0  0  0  0  0
   13.2317   -5.5279   12.0405 C   0  0  2  0  0  0  0  0  0  0  0  0
   14.9097   -9.2266    4.8085 O   0  0  0  0  0  0  0  0  0  0  0  0
   13.6929  -10.6232   13.3381 N   0  0  0  0  0  0  0  0  0  0  0  0
   14.7017   -9.6764   13.2358 C   0  0  0  0  0  0  0  0  0  0  0  0
   14.4166   -8.3673   12.8662 N   0  0  0  0  0  0  0  0  0  0  0  0
   13.1410   -8.0145   12.6238 C   0  0  0  0  0  0  0  0  0  0  0  0
   12.1142   -8.9559   12.7384 C   0  0  0  0  0  0  0  0  0  0  0  0
   12.3858  -10.2667   13.0844 C   0  0  0  0  0  0  0  0  0  0  0  0
   11.4106  -11.1578   13.1811 N   0  0  0  0  0  0  0  0  0  0  0  0
   10.9573   -8.3452   12.4598 N   0  0  0  0  0  0  0  0  0  0  0  0
   11.2207   -7.0504   12.1765 C   0  0  0  0  0  0  0  0  0  0  0  0
   12.5710   -6.8253   12.2779 N   0  0  0  0  0  0  0  0  0  0  0  0
  2  1  1  6  0  0  0
  2  3  1  0  0  0  0
  2  5  1  0  0  0  0
  3  4  1  0  0  0  0
  3 17  1  0  0  0  0
  5  6  1  0  0  0  0
  7  6  1  6  0  0  0
  7  8  1  0  0  0  0
  7  9  1  0  0  0  0
 10  9  1  6  0  0  0
 10 11  1  0  0  0  0
 10 12  1  0  0  0  0
 11 16  1  0  0  0  0
 12 13  1  1  0  0  0
 12 14  1  0  0  0  0
 14 15  1  6  0  0  0
 14 16  1  0  0  0  0
 16 27  1  6  0  0  0
 18 19  2  0  0  0  0
 18 23  1  0  0  0  0
 19 20  1  0  0  0  0
 20 21  2  0  0  0  0
 21 22  1  0  0  0  0
 21 27  1  0  0  0  0
 22 23  2  0  0  0  0
 22 25  1  0  0  0  0
 23 24  1  0  0  0  0
 25 26  2  0  0  0  0
 26 27  1  0  0  0  0
M  END
>  <CHROM.1>
154.69132320,-60.04650371,-66.47988501,173.66796560,165.28425018,54.68231537
113.89596299,13.73117721,-6.90512273,9.91077221,0.76946731,-1.32985524,-2.01918939

>  <Name>
ligand

>  <RI>
0

>  <Rbt.Current_Directory>
/home/itssahil/PROJECTS/Mol_Feturizer/Test_systems_manuscript/rnas/2ydh

>  <Rbt.Executable>
rbdock ($Id: //depot/dev/client3/rdock/2013.1/src/exe/rbdock.cxx#4 $)

>  <Rbt.Library>
libRbt.so (2013.1, Build901 2013/11/27)

>  <Rbt.Parameter_File>
/export/apps/rDock/src/rDock_2013.1_src/data/scripts/dock_solv.prm

>  <Rbt.Receptor>
prm/pocket_docking_5.prm

>  <SCORE>
-11.7374

>  <SCORE.INTER>
-11.6262

>  <SCORE.INTER.CONST>
1

>  <SCORE.INTER.POLAR>
0

>  <SCORE.INTER.ROT>
7

>  <SCORE.INTER.SOLV>
14.7076

>  <SCORE.INTER.VDW>
-20.92

>  <SCORE.INTER.norm>
-0.430601

>  <SCORE.INTRA>
-0.111184

>  <SCORE.INTRA.DIHEDRAL>
-6.31027

>  <SCORE.INTRA.DIHEDRAL.0>
9.75037

>  <SCORE.INTRA.POLAR>
0

>  <SCORE.INTRA.POLAR.0>
0

>  <SCORE.INTRA.REPUL>
0

>  <SCORE.INTRA.REPUL.0>
0

>  <SCORE.INTRA.SOLV>
0.656188

>  <SCORE.INTRA.SOLV.lig_0>
-48.4279

>  <SCORE.INTRA.VDW>
2.71586

>  <SCORE.INTRA.VDW.0>
-4.69037

>  <SCORE.INTRA.norm>
-0.00411793

>  <SCORE.RESTR>
0

>  <SCORE.RESTR.CAVITY>
0

>  <SCORE.RESTR.norm>
0

>  <SCORE.SYSTEM>
0

>  <SCORE.SYSTEM.CONST>
0

>  <SCORE.SYSTEM.DIHEDRAL>
0

>  <SCORE.SYSTEM.SOLV>
0

>  <SCORE.SYSTEM.norm>
0

>  <SCORE.heavy>
27

>  <SCORE.norm>
-0.434719

>  <RMSD>
7.231

$$$$
ligand
 OpenBabel02271912153D
libRbt.so/2013.1/901 2013/11/27
 27 29  0  0  0  0  0  0  0  0999 V2000
   14.1957   -7.3393    6.5829 N   0  0  0  0  0  0  0  0  0  0  0  0
   15.0388   -7.2173    5.3537 C   0  0  2  0  0  0  0  0  0  0  0  0
   14.7623   -8.3781    4.3726 C   0  0  0  0  0  0  0  0  0  0  0  0
   14.2589   -8.1705    3.2643 O   0  0  0  0  0  0  0  0  0  0  0  0
   16.5088   -7.1418    5.7523 C   0  0  0  0  0  0  0  0  0  0  0  0
   17.0182   -5.7349    6.0179 C   0  0  0  0  0  0  0  0  0  0  0  0
   16.0502   -4.8447    7.2698 S   0  0  2  0  0  0  0  0  0  0  0  0
   17.0387   -3.3325    7.4479 C   0  0  0  0  0  0  0  0  0  0  0  0
   16.3488   -5.6792    8.8365 C   0  0  0  0  0  0  0  0  0  0  0  0
   15.8278   -4.8113    9.9660 C   0  0  1  0  0  0  0  0  0  0  0  0
   14.4101   -4.7517    9.9971 O   0  0  0  0  0  0  0  0  0  0  0  0
   16.2790   -5.3261   11.3111 C   0  0  1  0  0  0  0  0  0  0  0  0
   17.5529   -4.8458   11.6326 O   0  0  0  0  0  0  0  0  0  0  0  0
   15.2219   -4.7590   12.2088 C   0  0  1  0  0  0  0  0  0  0  0  0
   15.6016   -3.4556   12.6075 O   0  0  0  0  0  0  0  0  0  0  0  0
   13.9744   -4.7072   11.3362 C   0  0  2  0  0  0  0  0  0  0  0  0
   15.0253   -9.5623    4.6516 O   0  0  0  0  0  0  0  0  0  0  0  0
   12.2213   -8.3394   14.7410 N   0  0  0  0  0  0  0  0  0  0  0  0
   13.1942   -7.3733   14.9532 C   0  0  0  0  0  0  0  0  0  0  0  0
   13.5565   -6.4917   13.9418 N   0  0  0  0  0  0  0  0  0  0  0  0
   12.9391   -6.5685   12.7488 C   0  0  0  0  0  0  0  0  0  0  0  0
   11.9467   -7.5276   12.5279 C   0  0  0  0  0  0  0  0  0  0  0  0
   11.5911   -8.4249   13.5181 C   0  0  0  0  0  0  0  0  0  0  0  0
   10.6577   -9.3391   13.3005 N   0  0  0  0  0  0  0  0  0  0  0  0
   11.4938   -7.3772   11.2784 N   0  0  0  0  0  0  0  0  0  0  0  0
   12.1656   -6.3539   10.7060 C   0  0  0  0  0  0  0  0  0  0  0  0
   13.0640   -5.8362   11.6056 N   0  0  0  0  0  0  0  0  0  0  0  0
  2  1  1  1  0  0  0
  2  3  1  0  0  0  0
  2  5  1  0  0  0  0
  3  4  1  0  0  0  0
  3 17  1  0  0  0  0
  5  6  1  0  0  0  0
  7  6  1  6  0  0  0
  7  8  1  0  0  0  0
  7  9  1  0  0  0  0
 10  9  1  6  0  0  0
 10 11  1  0  0  0  0
 10 12  1  0  0  0  0
 11 16  1  0  0  0  0
 12 13  1  1  0  0  0
 12 14  1  0  0  0  0
 14 15  1  6  0  0  0
 14 16  1  0  0  0  0
 16 27  1  1  0  0  0
 18 19  2  0  0  0  0
 18 23  1  0  0  0  0
 19 20  1  0  0  0  0
 20 21  2  0  0  0  0
 21 22  1  0  0  0  0
 21 27  1  0  0  0  0
 22 23  2  0  0  0  0
 22 25  1  0  0  0  0
 23 24  1  0  0  0  0
 25 26  2  0  0  0  0
 26 27  1  0  0  0  0
M  END
>  <CHROM.1>
114.85432953,-88.86258701,55.49185306,173.93758007,167.37737950,70.52841528
144.08606688,14.51674969,-6.32694588,9.70664154,1.08147148,-0.78602493,-1.92523865

>  <Name>
ligand

>  <RI>
0

>  <Rbt.Current_Directory>
/home/itssahil/PROJECTS/Mol_Feturizer/Test_systems_manuscript/rnas/2ydh

>  <Rbt.Executable>
rbdock ($Id: //depot/dev/client3/rdock/2013.1/src/exe/rbdock.cxx#4 $)

>  <Rbt.Library>
libRbt.so (2013.1, Build901 2013/11/27)

>  <Rbt.Parameter_File>
/export/apps/rDock/src/rDock_2013.1_src/data/scripts/dock_solv.prm

>  <Rbt.Receptor>
prm/pocket_docking_5.prm

>  <SCORE>
-10.1807

>  <SCORE.INTER>
-11.2111

>  <SCORE.INTER.CONST>
1

>  <SCORE.INTER.POLAR>
0

>  <SCORE.INTER.ROT>
7

>  <SCORE.INTER.SOLV>
11.5804

>  <SCORE.INTER.VDW>
-19.6009

>  <SCORE.INTER.norm>
-0.415225

>  <SCORE.INTRA>
1.02287

>  <SCORE.INTRA.DIHEDRAL>
-3.41649

>  <SCORE.INTRA.DIHEDRAL.0>
9.75037

>  <SCORE.INTRA.POLAR>
0

>  <SCORE.INTRA.POLAR.0>
0

>  <SCORE.INTRA.REPUL>
0.0124966

>  <SCORE.INTRA.REPUL.0>
0

>  <SCORE.INTRA.SOLV>
0.93997

>  <SCORE.INTRA.SOLV.lig_0>
-48.4279

>  <SCORE.INTRA.VDW>
2.19865

>  <SCORE.INTRA.VDW.0>
-4.69037

>  <SCORE.INTRA.norm>
0.0378842

>  <SCORE.RESTR>
0.00746408

>  <SCORE.RESTR.CAVITY>
0.00746408

>  <SCORE.RESTR.norm>
0.000276447

>  <SCORE.SYSTEM>
0

>  <SCORE.SYSTEM.CONST>
0

>  <SCORE.SYSTEM.DIHEDRAL>
0

>  <SCORE.SYSTEM.SOLV>
0

>  <SCORE.SYSTEM.norm>
0

>  <SCORE.heavy>
27

>  <SCORE.norm>
-0.377064

>  <RMSD>
7.241

$$$$
ligand
 OpenBabel02271912153D
libRbt.so/2013.1/901 2013/11/27
 27 29  0  0  0  0  0  0  0  0999 V2000
   15.0004   -7.3384    6.3461 N   0  0  0  0  0  0  0  0  0  0  0  0
   13.7399   -7.5172    5.5613 C   0  0  2  0  0  0  0  0  0  0  0  0
   14.0335   -7.5859    4.0462 C   0  0  0  0  0  0  0  0  0  0  0  0
   13.3014   -7.0205    3.2283 O   0  0  0  0  0  0  0  0  0  0  0  0
   12.7647   -6.3965    5.9058 C   0  0  0  0  0  0  0  0  0  0  0  0
   13.3663   -5.0018    5.8613 C   0  0  0  0  0  0  0  0  0  0  0  0
   13.4482   -4.2025    7.4895 S   0  0  2  0  0  0  0  0  0  0  0  0
   14.2944   -2.6540    7.0628 C   0  0  0  0  0  0  0  0  0  0  0  0
   14.7108   -5.0784    8.4269 C   0  0  0  0  0  0  0  0  0  0  0  0
   14.8083   -4.4703    9.8130 C   0  0  1  0  0  0  0  0  0  0  0  0
   13.7037   -4.8120   10.6361 O   0  0  0  0  0  0  0  0  0  0  0  0
   16.0542   -4.9291   10.5308 C   0  0  1  0  0  0  0  0  0  0  0  0
   17.1536   -4.1348   10.1889 O   0  0  0  0  0  0  0  0  0  0  0  0
   15.6502   -4.7433   11.9616 C   0  0  1  0  0  0  0  0  0  0  0  0
   15.9403   -3.4161   12.3573 O   0  0  0  0  0  0  0  0  0  0  0  0
   14.1459   -4.9830   11.9628 C   0  0  2  0  0  0  0  0  0  0  0  0
   15.0059   -8.2108    3.5843 O   0  0  0  0  0  0  0  0  0  0  0  0
   10.4464   -8.6802   12.6724 N   0  0  0  0  0  0  0  0  0  0  0  0
   10.2917   -7.4161   12.1221 C   0  0  0  0  0  0  0  0  0  0  0  0
   11.3711   -6.5470   12.0168 N   0  0  0  0  0  0  0  0  0  0  0  0
   12.5838   -6.9491   12.4386 C   0  0  0  0  0  0  0  0  0  0  0  0
   12.7552   -8.2259   12.9808 C   0  0  0  0  0  0  0  0  0  0  0  0
   11.6861   -9.0931   13.1112 C   0  0  0  0  0  0  0  0  0  0  0  0
   11.8513  -10.2981   13.6358 N   0  0  0  0  0  0  0  0  0  0  0  0
   14.0454   -8.3715   13.3021 N   0  0  0  0  0  0  0  0  0  0  0  0
   14.6927   -7.2305   12.9779 C   0  0  0  0  0  0  0  0  0  0  0  0
   13.8023   -6.3373   12.4359 N   0  0  0  0  0  0  0  0  0  0  0  0
  2  1  1  1  0  0  0
  2  3  1  0  0  0  0
  2  5  1  0  0  0  0
  3  4  1  0  0  0  0
  3 17  1  0  0  0  0
  5  6  1  0  0  0  0
  7  6  1  6  0  0  0
  7  8  1  0  0  0  0
  7  9  1  0  0  0  0
 10  9  1  6  0  0  0
 10 11  1  0  0  0  0
 10 12  1  0  0  0  0
 11 16  1  0  0  0  0
 12 13  1  6  0  0  0
 12 14  1  0  0  0  0
 14 15  1  6  0  0  0
 14 16  1  0  0  0  0
 16 27  1  6  0  0  0
 18 19  2  0  0  0  0
 18 23  1  0  0  0  0
 19 20  1  0  0  0  0
 20 21  2  0  0  0  0
 21 22  1  0  0  0  0
 21 27  1  0  0  0  0
 22 23  2  0  0  0  0
 22 25  1  0  0  0  0
 23 24  1  0  0  0  0
 25 26  2  0  0  0  0
 26 27  1  0  0  0  0
M  END
>  <CHROM.1>
-139.41116203,48.73683457,-113.49161711,176.54133998,-178.93965832,73.24378475
-53.80167293,13.76700361,-6.19652090,9.52228471,1.31311694,-0.94822220,-1.62845881

>  <Name>
ligand

>  <RI>
0

>  <Rbt.Current_Directory>
/home/itssahil/PROJECTS/Mol_Feturizer/Test_systems_manuscript/rnas/2ydh

>  <Rbt.Executable>
rbdock ($Id: //depot/dev/client3/rdock/2013.1/src/exe/rbdock.cxx#4 $)

>  <Rbt.Library>
libRbt.so (2013.1, Build901 2013/11/27)

>  <Rbt.Parameter_File>
/export/apps/rDock/src/rDock_2013.1_src/data/scripts/dock_solv.prm

>  <Rbt.Receptor>
prm/pocket_docking_7.prm

>  <SCORE>
-10.859

>  <SCORE.INTER>
-14.3523

>  <SCORE.INTER.CONST>
1

>  <SCORE.INTER.POLAR>
0

>  <SCORE.INTER.ROT>
7

>  <SCORE.INTER.SOLV>
9.03387

>  <SCORE.INTER.VDW>
-20.8462

>  <SCORE.INTER.norm>
-0.531568

>  <SCORE.INTRA>
3.49336

>  <SCORE.INTRA.DIHEDRAL>
-0.0229046

>  <SCORE.INTRA.DIHEDRAL.0>
9.75037

>  <SCORE.INTRA.POLAR>
0

>  <SCORE.INTRA.POLAR.0>
0

>  <SCORE.INTRA.REPUL>
0

>  <SCORE.INTRA.REPUL.0>
0

>  <SCORE.INTRA.SOLV>
1.14893

>  <SCORE.INTRA.SOLV.lig_0>
-48.4279

>  <SCORE.INTRA.VDW>
2.93035

>  <SCORE.INTRA.VDW.0>
-4.69037

>  <SCORE.INTRA.norm>
0.129384

>  <SCORE.RESTR>
0

>  <SCORE.RESTR.CAVITY>
0

>  <SCORE.RESTR.norm>
0

>  <SCORE.SYSTEM>
0

>  <SCORE.SYSTEM.CONST>
0

>  <SCORE.SYSTEM.DIHEDRAL>
0

>  <SCORE.SYSTEM.SOLV>
0

>  <SCORE.SYSTEM.norm>
0

>  <SCORE.heavy>
27

>  <SCORE.norm>
-0.402184

>  <RMSD>
7.396

$$$$
ligand
 OpenBabel02271912153D
libRbt.so/2013.1/901 2013/11/27
 27 29  0  0  0  0  0  0  0  0999 V2000
   19.3149   -5.4806    9.4578 N   0  0  0  0  0  0  0  0  0  0  0  0
   18.3864   -6.1656    8.5063 C   0  0  2  0  0  0  0  0  0  0  0  0
   17.9651   -5.2176    7.3614 C   0  0  0  0  0  0  0  0  0  0  0  0
   17.6245   -5.6597    6.2600 O   0  0  0  0  0  0  0  0  0  0  0  0
   17.1847   -6.7083    9.2724 C   0  0  0  0  0  0  0  0  0  0  0  0
   17.5316   -7.7093   10.3617 C   0  0  0  0  0  0  0  0  0  0  0  0
   16.0743   -8.3755   11.2158 S   0  0  2  0  0  0  0  0  0  0  0  0
   16.8580   -9.5611   12.3452 C   0  0  0  0  0  0  0  0  0  0  0  0
   15.2451   -9.4604   10.0431 C   0  0  0  0  0  0  0  0  0  0  0  0
   13.8142   -9.6775   10.4970 C   0  0  1  0  0  0  0  0  0  0  0  0
   13.7292  -10.4821   11.6630 O   0  0  0  0  0  0  0  0  0  0  0  0
   13.1300   -8.3693   10.8106 C   0  0  1  0  0  0  0  0  0  0  0  0
   12.5945   -7.7913    9.6549 O   0  0  0  0  0  0  0  0  0  0  0  0
   12.0620   -8.8204   11.7598 C   0  0  1  0  0  0  0  0  0  0  0  0
   10.9202   -9.2125   11.0215 O   0  0  0  0  0  0  0  0  0  0  0  0
   12.6732  -10.0196   12.4729 C   0  0  2  0  0  0  0  0  0  0  0  0
   17.9546   -3.9798    7.4921 O   0  0  0  0  0  0  0  0  0  0  0  0
   11.9948   -7.3346   16.9662 N   0  0  0  0  0  0  0  0  0  0  0  0
   11.1541   -7.3745   15.8634 C   0  0  0  0  0  0  0  0  0  0  0  0
   11.4843   -8.1252   14.7414 N   0  0  0  0  0  0  0  0  0  0  0  0
   12.6267   -8.8358   14.7375 C   0  0  0  0  0  0  0  0  0  0  0  0
   13.4745   -8.8157   15.8486 C   0  0  0  0  0  0  0  0  0  0  0  0
   13.1690   -8.0565   16.9631 C   0  0  0  0  0  0  0  0  0  0  0  0
   13.9810   -8.0320   18.0094 N   0  0  0  0  0  0  0  0  0  0  0  0
   14.5192   -9.6096   15.5889 N   0  0  0  0  0  0  0  0  0  0  0  0
   14.3564  -10.1311   14.3530 C   0  0  0  0  0  0  0  0  0  0  0  0
   13.1844   -9.6658   13.8106 N   0  0  0  0  0  0  0  0  0  0  0  0
  2  1  1  1  0  0  0
  2  3  1  0  0  0  0
  2  5  1  0  0  0  0
  3  4  1  0  0  0  0
  3 17  1  0  0  0  0
  5  6  1  0  0  0  0
  7  6  1  6  0  0  0
  7  8  1  0  0  0  0
  7  9  1  0  0  0  0
 10  9  1  1  0  0  0
 10 11  1  0  0  0  0
 10 12  1  0  0  0  0
 11 16  1  0  0  0  0
 12 13  1  6  0  0  0
 12 14  1  0  0  0  0
 14 15  1  6  0  0  0
 14 16  1  0  0  0  0
 16 27  1  1  0  0  0
 18 19  2  0  0  0  0
 18 23  1  0  0  0  0
 19 20  1  0  0  0  0
 20 21  2  0  0  0  0
 21 22  1  0  0  0  0
 21 27  1  0  0  0  0
 22 23  2  0  0  0  0
 22 25  1  0  0  0  0
 23 24  1  0  0  0  0
 25 26  2  0  0  0  0
 26 27  1  0  0  0  0
M  END
>  <CHROM.1>
153.81482877,-59.61465734,-178.09409393,177.16480679,-161.14286499,-70.53564607
158.50500413,14.66296064,-8.09271540,11.95168530,-0.90144214,0.48129000,1.57602959

>  <Name>
ligand

>  <RI>
0

>  <Rbt.Current_Directory>
/home/itssahil/PROJECTS/Mol_Feturizer/Test_systems_manuscript/rnas/2ydh

>  <Rbt.Executable>
rbdock ($Id: //depot/dev/client3/rdock/2013.1/src/exe/rbdock.cxx#4 $)

>  <Rbt.Library>
libRbt.so (2013.1, Build901 2013/11/27)

>  <Rbt.Parameter_File>
/export/apps/rDock/src/rDock_2013.1_src/data/scripts/dock_solv.prm

>  <Rbt.Receptor>
prm/pocket_docking_7.prm

>  <SCORE>
-8.92526

>  <SCORE.INTER>
-8.52538

>  <SCORE.INTER.CONST>
1

>  <SCORE.INTER.POLAR>
0

>  <SCORE.INTER.ROT>
7

>  <SCORE.INTER.SOLV>
9.38487

>  <SCORE.INTER.VDW>
-17.0785

>  <SCORE.INTER.norm>
-0.315755

>  <SCORE.INTRA>
-0.399881

>  <SCORE.INTRA.DIHEDRAL>
-4.47088

>  <SCORE.INTRA.DIHEDRAL.0>
9.75037

>  <SCORE.INTRA.POLAR>
0

>  <SCORE.INTRA.POLAR.0>
0

>  <SCORE.INTRA.REPUL>
0

>  <SCORE.INTRA.REPUL.0>
0

>  <SCORE.INTRA.SOLV>
-0.57071

>  <SCORE.INTRA.SOLV.lig_0>
-48.4279

>  <SCORE.INTRA.VDW>
2.12091

>  <SCORE.INTRA.VDW.0>
-4.69037

>  <SCORE.INTRA.norm>
-0.0148104

>  <SCORE.RESTR>
0

>  <SCORE.RESTR.CAVITY>
0

>  <SCORE.RESTR.norm>
0

>  <SCORE.SYSTEM>
0

>  <SCORE.SYSTEM.CONST>
0

>  <SCORE.SYSTEM.DIHEDRAL>
0

>  <SCORE.SYSTEM.SOLV>
0

>  <SCORE.SYSTEM.norm>
0

>  <SCORE.heavy>
27

>  <SCORE.norm>
-0.330565

>  <RMSD>
7.614

$$$$
ligand
 OpenBabel02271912153D
libRbt.so/2013.1/901 2013/11/27
 27 29  0  0  0  0  0  0  0  0999 V2000
   17.4371   -3.3446    7.1013 N   0  0  0  0  0  0  0  0  0  0  0  0
   16.1367   -3.5408    7.8135 C   0  0  2  0  0  0  0  0  0  0  0  0
   15.0038   -2.7414    7.1323 C   0  0  0  0  0  0  0  0  0  0  0  0
   14.0993   -3.3146    6.5174 O   0  0  0  0  0  0  0  0  0  0  0  0
   16.3009   -3.1640    9.2821 C   0  0  0  0  0  0  0  0  0  0  0  0
   15.0845   -3.4518   10.1462 C   0  0  0  0  0  0  0  0  0  0  0  0
   14.7434   -5.2247   10.3391 S   0  0  2  0  0  0  0  0  0  0  0  0
   13.2612   -5.1711   11.3859 C   0  0  0  0  0  0  0  0  0  0  0  0
   15.9857   -5.8645   11.4737 C   0  0  0  0  0  0  0  0  0  0  0  0
   15.9855   -7.3797   11.4037 C   0  0  1  0  0  0  0  0  0  0  0  0
   16.7715   -7.9718   12.4263 O   0  0  0  0  0  0  0  0  0  0  0  0
   14.5900   -7.9385   11.5381 C   0  0  1  0  0  0  0  0  0  0  0  0
   13.9343   -7.9581   10.3026 O   0  0  0  0  0  0  0  0  0  0  0  0
   14.8774   -9.3194   12.0434 C   0  0  1  0  0  0  0  0  0  0  0  0
   15.0905  -10.1818   10.9420 O   0  0  0  0  0  0  0  0  0  0  0  0
   16.1574   -9.1652   12.8548 C   0  0  2  0  0  0  0  0  0  0  0  0
   14.9531   -1.4982    7.1661 O   0  0  0  0  0  0  0  0  0  0  0  0
   13.1751   -7.2811   16.7810 N   0  0  0  0  0  0  0  0  0  0  0  0
   13.0327   -7.0541   15.4198 C   0  0  0  0  0  0  0  0  0  0  0  0
   13.9165   -7.6165   14.5065 N   0  0  0  0  0  0  0  0  0  0  0  0
   14.9106   -8.4059   14.9526 C   0  0  0  0  0  0  0  0  0  0  0  0
   15.0551   -8.6542   16.3204 C   0  0  0  0  0  0  0  0  0  0  0  0
   14.1961   -8.0843   17.2419 C   0  0  0  0  0  0  0  0  0  0  0  0
   14.3437   -8.3138   18.5381 N   0  0  0  0  0  0  0  0  0  0  0  0
   16.1008   -9.4715   16.4864 N   0  0  0  0  0  0  0  0  0  0  0  0
   16.6178   -9.7485   15.2690 C   0  0  0  0  0  0  0  0  0  0  0  0
   15.8888   -9.0994   14.3038 N   0  0  0  0  0  0  0  0  0  0  0  0
  2  1  1  6  0  0  0
  2  3  1  0  0  0  0
  2  5  1  0  0  0  0
  3  4  1  0  0  0  0
  3 17  1  0  0  0  0
  5  6  1  0  0  0  0
  7  6  1  1  0  0  0
  7  8  1  0  0  0  0
  7  9  1  0  0  0  0
 10  9  1  1  0  0  0
 10 11  1  0  0  0  0
 10 12  1  0  0  0  0
 11 16  1  0  0  0  0
 12 13  1  6  0  0  0
 12 14  1  0  0  0  0
 14 15  1  6  0  0  0
 14 16  1  0  0  0  0
 16 27  1  1  0  0  0
 18 19  2  0  0  0  0
 18 23  1  0  0  0  0
 19 20  1  0  0  0  0
 20 21  2  0  0  0  0
 21 22  1  0  0  0  0
 21 27  1  0  0  0  0
 22 23  2  0  0  0  0
 22 25  1  0  0  0  0
 23 24  1  0  0  0  0
 25 26  2  0  0  0  0
 26 27  1  0  0  0  0
M  END
>  <CHROM.1>
110.11906516,-174.17464978,67.24614478,-179.53012419,-165.58270874,-169.95962382
75.49829485,15.07706409,-6.58367808,11.99853295,-1.45347036,-1.13859587,2.27486258

>  <Name>
ligand

>  <RI>
0

>  <Rbt.Current_Directory>
/home/itssahil/PROJECTS/Mol_Feturizer/Test_systems_manuscript/rnas/2ydh

>  <Rbt.Executable>
rbdock ($Id: //depot/dev/client3/rdock/2013.1/src/exe/rbdock.cxx#4 $)

>  <Rbt.Library>
libRbt.so (2013.1, Build901 2013/11/27)

>  <Rbt.Parameter_File>
/export/apps/rDock/src/rDock_2013.1_src/data/scripts/dock_solv.prm

>  <Rbt.Receptor>
prm/pocket_docking_8.prm

>  <SCORE>
-8.08686

>  <SCORE.INTER>
-8.20134

>  <SCORE.INTER.CONST>
1

>  <SCORE.INTER.POLAR>
0

>  <SCORE.INTER.ROT>
7

>  <SCORE.INTER.SOLV>
12.8681

>  <SCORE.INTER.VDW>
-18.0236

>  <SCORE.INTER.norm>
-0.303753

>  <SCORE.INTRA>
0.114484

>  <SCORE.INTRA.DIHEDRAL>
-4.61463

>  <SCORE.INTRA.DIHEDRAL.0>
9.75037

>  <SCORE.INTRA.POLAR>
0

>  <SCORE.INTRA.POLAR.0>
0

>  <SCORE.INTRA.REPUL>
0

>  <SCORE.INTRA.REPUL.0>
0

>  <SCORE.INTRA.SOLV>
-1.04166

>  <SCORE.INTRA.SOLV.lig_0>
-48.4279

>  <SCORE.INTRA.VDW>
2.94263

>  <SCORE.INTRA.VDW.0>
-4.69037

>  <SCORE.INTRA.norm>
0.00424016

>  <SCORE.RESTR>
0

>  <SCORE.RESTR.CAVITY>
0

>  <SCORE.RESTR.norm>
0

>  <SCORE.SYSTEM>
0

>  <SCORE.SYSTEM.CONST>
0

>  <SCORE.SYSTEM.DIHEDRAL>
0

>  <SCORE.SYSTEM.SOLV>
0

>  <SCORE.SYSTEM.norm>
0

>  <SCORE.heavy>
27

>  <SCORE.norm>
-0.299513

>  <RMSD>
7.673

$$$$
ligand
 OpenBabel02271912153D
libRbt.so/2013.1/901 2013/11/27
 27 29  0  0  0  0  0  0  0  0999 V2000
   14.3203   -3.3049    8.2140 N   0  0  0  0  0  0  0  0  0  0  0  0
   14.4362   -4.3237    7.1254 C   0  0  2  0  0  0  0  0  0  0  0  0
   13.1504   -4.3722    6.2703 C   0  0  0  0  0  0  0  0  0  0  0  0
   12.7117   -3.3576    5.7200 O   0  0  0  0  0  0  0  0  0  0  0  0
   14.7706   -5.6812    7.7346 C   0  0  0  0  0  0  0  0  0  0  0  0
   13.6986   -6.2401    8.6552 C   0  0  0  0  0  0  0  0  0  0  0  0
   13.4733   -5.2654   10.1705 S   0  0  2  0  0  0  0  0  0  0  0  0
   15.1095   -5.4483   10.9355 C   0  0  0  0  0  0  0  0  0  0  0  0
   12.4328   -6.2485   11.2616 C   0  0  0  0  0  0  0  0  0  0  0  0
   12.8870   -7.6946   11.2072 C   0  0  1  0  0  0  0  0  0  0  0  0
   14.0757   -7.9200   11.9491 O   0  0  0  0  0  0  0  0  0  0  0  0
   11.8357   -8.6247   11.7619 C   0  0  1  0  0  0  0  0  0  0  0  0
   10.8959   -8.9634   10.7828 O   0  0  0  0  0  0  0  0  0  0  0  0
   12.6723   -9.7996   12.1678 C   0  0  1  0  0  0  0  0  0  0  0  0
   12.8215  -10.6679   11.0606 O   0  0  0  0  0  0  0  0  0  0  0  0
   14.0148   -9.1915   12.5529 C   0  0  2  0  0  0  0  0  0  0  0  0
   12.5018   -5.4212    6.1025 O   0  0  0  0  0  0  0  0  0  0  0  0
   12.0496   -7.4162   17.1185 N   0  0  0  0  0  0  0  0  0  0  0  0
   11.4966   -7.3000   15.8515 C   0  0  0  0  0  0  0  0  0  0  0  0
   12.1508   -7.8132   14.7379 N   0  0  0  0  0  0  0  0  0  0  0  0
   13.3269   -8.4466   14.8989 C   0  0  0  0  0  0  0  0  0  0  0  0
   13.8866   -8.5832   16.1723 C   0  0  0  0  0  0  0  0  0  0  0  0
   13.2573   -8.0590   17.2863 C   0  0  0  0  0  0  0  0  0  0  0  0
   13.7971   -8.1814   18.4897 N   0  0  0  0  0  0  0  0  0  0  0  0
   15.0357   -9.2570   16.0513 N   0  0  0  0  0  0  0  0  0  0  0  0
   15.2170   -9.5517   14.7450 C   0  0  0  0  0  0  0  0  0  0  0  0
   14.1635   -9.0607   14.0146 N   0  0  0  0  0  0  0  0  0  0  0  0
  2  1  1  1  0  0  0
  2  3  1  0  0  0  0
  2  5  1  0  0  0  0
  3  4  1  0  0  0  0
  3 17  1  0  0  0  0
  5  6  1  0  0  0  0
  7  6  1  6  0  0  0
  7  8  1  0  0  0  0
  7  9  1  0  0  0  0
 10  9  1  1  0  0  0
 10 11  1  0  0  0  0
 10 12  1  0  0  0  0
 11 16  1  0  0  0  0
 12 13  1  6  0  0  0
 12 14  1  0  0  0  0
 14 15  1  6  0  0  0
 14 16  1  0  0  0  0
 16 27  1  1  0  0  0
 18 19  2  0  0  0  0
 18 23  1  0  0  0  0
 19 20  1  0  0  0  0
 20 21  2  0  0  0  0
 21 22  1  0  0  0  0
 21 27  1  0  0  0  0
 22 23  2  0  0  0  0
 22 25  1  0  0  0  0
 23 24  1  0  0  0  0
 25 26  2  0  0  0  0
 26 27  1  0  0  0  0
M  END
>  <CHROM.1>
55.82421215,63.49291329,-66.31364843,-62.48100255,42.18268835,76.38263923
64.85808469,13.33300063,-7.14668683,11.74969888,-1.53931649,1.26015371,1.96488624

>  <Name>
ligand

>  <RI>
0

>  <Rbt.Current_Directory>
/home/itssahil/PROJECTS/Mol_Feturizer/Test_systems_manuscript/rnas/2ydh

>  <Rbt.Executable>
rbdock ($Id: //depot/dev/client3/rdock/2013.1/src/exe/rbdock.cxx#4 $)

>  <Rbt.Library>
libRbt.so (2013.1, Build901 2013/11/27)

>  <Rbt.Parameter_File>
/export/apps/rDock/src/rDock_2013.1_src/data/scripts/dock_solv.prm

>  <Rbt.Receptor>
prm/pocket_docking_7.prm

>  <SCORE>
-9.78875

>  <SCORE.INTER>
-11.5476

>  <SCORE.INTER.CONST>
1

>  <SCORE.INTER.POLAR>
0

>  <SCORE.INTER.ROT>
7

>  <SCORE.INTER.SOLV>
7.57146

>  <SCORE.INTER.VDW>
-18.4889

>  <SCORE.INTER.norm>
-0.42769

>  <SCORE.INTRA>
1.75886

>  <SCORE.INTRA.DIHEDRAL>
-5.25469

>  <SCORE.INTRA.DIHEDRAL.0>
9.75037

>  <SCORE.INTRA.POLAR>
0

>  <SCORE.INTRA.POLAR.0>
0

>  <SCORE.INTRA.REPUL>
0

>  <SCORE.INTRA.REPUL.0>
0

>  <SCORE.INTRA.SOLV>
1.54783

>  <SCORE.INTRA.SOLV.lig_0>
-48.4279

>  <SCORE.INTRA.VDW>
3.61229

>  <SCORE.INTRA.VDW.0>
-4.69037

>  <SCORE.INTRA.norm>
0.0651431

>  <SCORE.RESTR>
0

>  <SCORE.RESTR.CAVITY>
0

>  <SCORE.RESTR.norm>
0

>  <SCORE.SYSTEM>
0

>  <SCORE.SYSTEM.CONST>
0

>  <SCORE.SYSTEM.DIHEDRAL>
0

>  <SCORE.SYSTEM.SOLV>
0

>  <SCORE.SYSTEM.norm>
0

>  <SCORE.heavy>
27

>  <SCORE.norm>
-0.362546

>  <RMSD>
7.738

$$$$
ligand
 OpenBabel02271912153D
libRbt.so/2013.1/901 2013/11/27
 27 29  0  0  0  0  0  0  0  0999 V2000
   13.2787   -6.4617    5.5689 N   0  0  0  0  0  0  0  0  0  0  0  0
   14.3653   -7.4323    5.2315 C   0  0  2  0  0  0  0  0  0  0  0  0
   14.2654   -7.8887    3.7590 C   0  0  0  0  0  0  0  0  0  0  0  0
   15.0775   -8.6874    3.2823 O   0  0  0  0  0  0  0  0  0  0  0  0
   14.3136   -8.6085    6.2008 C   0  0  0  0  0  0  0  0  0  0  0  0
   14.4795   -8.2282    7.6626 C   0  0  0  0  0  0  0  0  0  0  0  0
   12.9798   -7.5113    8.3931 S   0  0  2  0  0  0  0  0  0  0  0  0
   13.6213   -5.9201    8.9866 C   0  0  0  0  0  0  0  0  0  0  0  0
   12.6851   -8.3985    9.9313 C   0  0  0  0  0  0  0  0  0  0  0  0
   13.9471   -8.3632   10.7719 C   0  0  1  0  0  0  0  0  0  0  0  0
   13.8312   -7.4989   11.8916 O   0  0  0  0  0  0  0  0  0  0  0  0
   14.2949   -9.7323   11.3034 C   0  0  1  0  0  0  0  0  0  0  0  0
   15.0317  -10.4641   10.3663 O   0  0  0  0  0  0  0  0  0  0  0  0
   15.1126   -9.3773   12.5077 C   0  0  1  0  0  0  0  0  0  0  0  0
   16.4632   -9.2117   12.1193 O   0  0  0  0  0  0  0  0  0  0  0  0
   14.5287   -8.0531   12.9830 C   0  0  2  0  0  0  0  0  0  0  0  0
   13.3767   -7.4741    2.9925 O   0  0  0  0  0  0  0  0  0  0  0  0
   10.9351  -11.0507   15.4241 N   0  0  0  0  0  0  0  0  0  0  0  0
   11.6081  -11.3220   14.2417 C   0  0  0  0  0  0  0  0  0  0  0  0
   12.5224  -10.4161   13.7174 N   0  0  0  0  0  0  0  0  0  0  0  0
   12.7680   -9.2707   14.3792 C   0  0  0  0  0  0  0  0  0  0  0  0
   12.1073   -8.9932   15.5792 C   0  0  0  0  0  0  0  0  0  0  0  0
   11.1796   -9.8755   16.1015 C   0  0  0  0  0  0  0  0  0  0  0  0
   10.5480   -9.6029   17.2334 N   0  0  0  0  0  0  0  0  0  0  0  0
   12.5418   -7.8109   16.0292 N   0  0  0  0  0  0  0  0  0  0  0  0
   13.4559   -7.3360   15.1545 C   0  0  0  0  0  0  0  0  0  0  0  0
   13.6130   -8.2313   14.1257 N   0  0  0  0  0  0  0  0  0  0  0  0
  2  1  1  1  0  0  0
  2  3  1  0  0  0  0
  2  5  1  0  0  0  0
  3  4  1  0  0  0  0
  3 17  1  0  0  0  0
  5  6  1  0  0  0  0
  7  6  1  6  0  0  0
  7  8  1  0  0  0  0
  7  9  1  0  0  0  0
 10  9  1  1  0  0  0
 10 11  1  0  0  0  0
 10 12  1  0  0  0  0
 11 16  1  0  0  0  0
 12 13  1  6  0  0  0
 12 14  1  0  0  0  0
 14 15  1  6  0  0  0
 14 16  1  0  0  0  0
 16 27  1  1  0  0  0
 18 19  2  0  0  0  0
 18 23  1  0  0  0  0
 19 20  1  0  0  0  0
 20 21  2  0  0  0  0
 21 22  1  0  0  0  0
 21 27  1  0  0  0  0
 22 23  2  0  0  0  0
 22 25  1  0  0  0  0
 23 24  1  0  0  0  0
 25 26  2  0  0  0  0
 26 27  1  0  0  0  0
M  END
>  <CHROM.1>
179.66330669,-59.30916323,77.21694291,-123.56692149,52.81704361,107.48739461
84.22545412,13.46878460,-8.56523827,10.70031012,1.39347326,0.29470613,-1.35750183

>  <Name>
ligand

>  <RI>
0

>  <Rbt.Current_Directory>
/home/itssahil/PROJECTS/Mol_Feturizer/Test_systems_manuscript/rnas/2ydh

>  <Rbt.Executable>
rbdock ($Id: //depot/dev/client3/rdock/2013.1/src/exe/rbdock.cxx#4 $)

>  <Rbt.Library>
libRbt.so (2013.1, Build901 2013/11/27)

>  <Rbt.Parameter_File>
/export/apps/rDock/src/rDock_2013.1_src/data/scripts/dock_solv.prm

>  <Rbt.Receptor>
prm/pocket_docking_8.prm

>  <SCORE>
-6.63135

>  <SCORE.INTER>
-11.3303

>  <SCORE.INTER.CONST>
1

>  <SCORE.INTER.POLAR>
0

>  <SCORE.INTER.ROT>
7

>  <SCORE.INTER.SOLV>
9.66275

>  <SCORE.INTER.VDW>
-19.0411

>  <SCORE.INTER.norm>
-0.41964

>  <SCORE.INTRA>
4.69893

>  <SCORE.INTRA.DIHEDRAL>
3.48786

>  <SCORE.INTRA.DIHEDRAL.0>
9.75037

>  <SCORE.INTRA.POLAR>
0

>  <SCORE.INTRA.POLAR.0>
0

>  <SCORE.INTRA.REPUL>
0

>  <SCORE.INTRA.REPUL.0>
0

>  <SCORE.INTRA.SOLV>
1.57623

>  <SCORE.INTRA.SOLV.lig_0>
-48.4279

>  <SCORE.INTRA.VDW>
2.16688

>  <SCORE.INTRA.VDW.0>
-4.69037

>  <SCORE.INTRA.norm>
0.174034

>  <SCORE.RESTR>
0

>  <SCORE.RESTR.CAVITY>
0

>  <SCORE.RESTR.norm>
0

>  <SCORE.SYSTEM>
0

>  <SCORE.SYSTEM.CONST>
0

>  <SCORE.SYSTEM.DIHEDRAL>
0

>  <SCORE.SYSTEM.SOLV>
0

>  <SCORE.SYSTEM.norm>
0

>  <SCORE.heavy>
27

>  <SCORE.norm>
-0.245606

>  <RMSD>
8.265

$$$$
ligand
 OpenBabel02271912153D
libRbt.so/2013.1/901 2013/11/27
 27 29  0  0  0  0  0  0  0  0999 V2000
    6.4431   -9.4570   18.8241 N   0  0  0  0  0  0  0  0  0  0  0  0
    7.3692   -9.6158   17.6605 C   0  0  2  0  0  0  0  0  0  0  0  0
    6.5841   -9.8918   16.3589 C   0  0  0  0  0  0  0  0  0  0  0  0
    5.7955  -10.8386   16.2782 O   0  0  0  0  0  0  0  0  0  0  0  0
    8.3806  -10.7161   17.9639 C   0  0  0  0  0  0  0  0  0  0  0  0
    9.5794  -10.7448   17.0304 C   0  0  0  0  0  0  0  0  0  0  0  0
    9.1500  -11.1894   15.3231 S   0  0  2  0  0  0  0  0  0  0  0  0
    8.8975  -12.9790   15.4940 C   0  0  0  0  0  0  0  0  0  0  0  0
   10.6775  -11.1112   14.3741 C   0  0  0  0  0  0  0  0  0  0  0  0
   11.0520   -9.6572   14.1593 C   0  0  1  0  0  0  0  0  0  0  0  0
   11.3683   -8.9917   15.3723 O   0  0  0  0  0  0  0  0  0  0  0  0
   12.2530   -9.5243   13.2550 C   0  0  1  0  0  0  0  0  0  0  0  0
   11.8744   -9.5457   11.9085 O   0  0  0  0  0  0  0  0  0  0  0  0
   12.7813   -8.1846   13.6686 C   0  0  1  0  0  0  0  0  0  0  0  0
   12.1332   -7.1772   12.9154 O   0  0  0  0  0  0  0  0  0  0  0  0
   12.4095   -8.0711   15.1415 C   0  0  2  0  0  0  0  0  0  0  0  0
    6.7120   -9.1855   15.3420 O   0  0  0  0  0  0  0  0  0  0  0  0
   14.7573   -7.4043   19.8214 N   0  0  0  0  0  0  0  0  0  0  0  0
   13.5518   -6.8700   19.3903 C   0  0  0  0  0  0  0  0  0  0  0  0
   13.0723   -7.1312   18.1123 N   0  0  0  0  0  0  0  0  0  0  0  0
   13.7815   -7.9288   17.2931 C   0  0  0  0  0  0  0  0  0  0  0  0
   14.9899   -8.4852   17.7216 C   0  0  0  0  0  0  0  0  0  0  0  0
   15.4895   -8.2168   18.9826 C   0  0  0  0  0  0  0  0  0  0  0  0
   16.6407   -8.7377   19.3802 N   0  0  0  0  0  0  0  0  0  0  0  0
   15.4756   -9.2391   16.7292 N   0  0  0  0  0  0  0  0  0  0  0  0
   14.6122   -9.1784   15.6913 C   0  0  0  0  0  0  0  0  0  0  0  0
   13.5517   -8.3732   16.0248 N   0  0  0  0  0  0  0  0  0  0  0  0
  2  1  1  1  0  0  0
  2  3  1  0  0  0  0
  2  5  1  0  0  0  0
  3  4  1  0  0  0  0
  3 17  1  0  0  0  0
  5  6  1  0  0  0  0
  7  6  1  1  0  0  0
  7  8  1  0  0  0  0
  7  9  1  0  0  0  0
 10  9  1  1  0  0  0
 10 11  1  0  0  0  0
 10 12  1  0  0  0  0
 11 16  1  0  0  0  0
 12 13  1  6  0  0  0
 12 14  1  0  0  0  0
 14 15  1  6  0  0  0
 14 16  1  0  0  0  0
 16 27  1  1  0  0  0
 18 19  2  0  0  0  0
 18 23  1  0  0  0  0
 19 20  1  0  0  0  0
 20 21  2  0  0  0  0
 21 22  1  0  0  0  0
 21 27  1  0  0  0  0
 22 23  2  0  0  0  0
 22 25  1  0  0  0  0
 23 24  1  0  0  0  0
 25 26  2  0  0  0  0
 26 27  1  0  0  0  0
M  END
>  <CHROM.1>
-55.80069658,-165.40609349,-66.64458093,-75.73187580,-73.81570696,65.21129656
-87.97328665,11.24795990,-9.32857277,16.18769583,2.90930751,-0.29967649,-1.69230012

>  <Name>
ligand

>  <RI>
0

>  <Rbt.Current_Directory>
/home/itssahil/PROJECTS/Mol_Feturizer/Test_systems_manuscript/rnas/2ydh

>  <Rbt.Executable>
rbdock ($Id: //depot/dev/client3/rdock/2013.1/src/exe/rbdock.cxx#4 $)

>  <Rbt.Library>
libRbt.so (2013.1, Build901 2013/11/27)

>  <Rbt.Parameter_File>
/export/apps/rDock/src/rDock_2013.1_src/data/scripts/dock_solv.prm

>  <Rbt.Receptor>
prm/blind_docking_100.prm

>  <SCORE>
-11.9668

>  <SCORE.INTER>
-10.2834

>  <SCORE.INTER.CONST>
1

>  <SCORE.INTER.POLAR>
0

>  <SCORE.INTER.ROT>
7

>  <SCORE.INTER.SOLV>
13.61

>  <SCORE.INTER.VDW>
-19.6589

>  <SCORE.INTER.norm>
-0.380866

>  <SCORE.INTRA>
-1.68341

>  <SCORE.INTRA.DIHEDRAL>
-5.32306

>  <SCORE.INTRA.DIHEDRAL.0>
9.75037

>  <SCORE.INTRA.POLAR>
0

>  <SCORE.INTRA.POLAR.0>
0

>  <SCORE.INTRA.REPUL>
0

>  <SCORE.INTRA.REPUL.0>
0

>  <SCORE.INTRA.SOLV>
-1.34504

>  <SCORE.INTRA.SOLV.lig_0>
-48.4279

>  <SCORE.INTRA.VDW>
1.65064

>  <SCORE.INTRA.VDW.0>
-4.69037

>  <SCORE.INTRA.norm>
-0.0623485

>  <SCORE.RESTR>
0

>  <SCORE.RESTR.CAVITY>
0

>  <SCORE.RESTR.norm>
0

>  <SCORE.SYSTEM>
0

>  <SCORE.SYSTEM.CONST>
0

>  <SCORE.SYSTEM.DIHEDRAL>
0

>  <SCORE.SYSTEM.SOLV>
0

>  <SCORE.SYSTEM.norm>
0

>  <SCORE.heavy>
27

>  <SCORE.norm>
-0.443215

>  <RMSD>
10.254

$$$$
ligand
 OpenBabel02271912153D
libRbt.so/2013.1/901 2013/11/27
 27 29  0  0  0  0  0  0  0  0999 V2000
   11.8777   -8.7164   23.1837 N   0  0  0  0  0  0  0  0  0  0  0  0
   12.2472   -7.7330   22.1192 C   0  0  2  0  0  0  0  0  0  0  0  0
   12.0574   -6.2816   22.6133 C   0  0  0  0  0  0  0  0  0  0  0  0
   12.1107   -5.3289   21.8296 O   0  0  0  0  0  0  0  0  0  0  0  0
   11.4366   -8.0202   20.8599 C   0  0  0  0  0  0  0  0  0  0  0  0
    9.9304   -7.9716   21.0553 C   0  0  0  0  0  0  0  0  0  0  0  0
    8.9978   -8.4439   19.5706 S   0  0  2  0  0  0  0  0  0  0  0  0
    7.3076   -8.4824   20.2321 C   0  0  0  0  0  0  0  0  0  0  0  0
    9.3341  -10.1895   19.2885 C   0  0  0  0  0  0  0  0  0  0  0  0
    8.9643  -10.5396   17.8598 C   0  0  1  0  0  0  0  0  0  0  0  0
    9.5004   -9.6226   16.9185 O   0  0  0  0  0  0  0  0  0  0  0  0
    9.4681  -11.9104   17.4791 C   0  0  1  0  0  0  0  0  0  0  0  0
    8.5680  -12.9055   17.8745 O   0  0  0  0  0  0  0  0  0  0  0  0
    9.5490  -11.7865   15.9881 C   0  0  1  0  0  0  0  0  0  0  0  0
    8.2936  -12.1185   15.4259 O   0  0  0  0  0  0  0  0  0  0  0  0
    9.8681  -10.3164   15.7487 C   0  0  2  0  0  0  0  0  0  0  0  0
   11.8501   -6.0075   23.8097 O   0  0  0  0  0  0  0  0  0  0  0  0
   13.7726  -10.2203   12.1985 N   0  0  0  0  0  0  0  0  0  0  0  0
   12.4314  -10.5002   11.9810 C   0  0  0  0  0  0  0  0  0  0  0  0
   11.5227  -10.4988   13.0326 N   0  0  0  0  0  0  0  0  0  0  0  0
   11.9517  -10.2030   14.2731 C   0  0  0  0  0  0  0  0  0  0  0  0
   13.2978   -9.9045   14.5021 C   0  0  0  0  0  0  0  0  0  0  0  0
   14.2167   -9.9230   13.4690 C   0  0  0  0  0  0  0  0  0  0  0  0
   15.4934   -9.6500   13.6930 N   0  0  0  0  0  0  0  0  0  0  0  0
   13.4487   -9.6369   15.8039 N   0  0  0  0  0  0  0  0  0  0  0  0
   12.2425   -9.7541   16.4018 C   0  0  0  0  0  0  0  0  0  0  0  0
   11.2997  -10.1004   15.4660 N   0  0  0  0  0  0  0  0  0  0  0  0
  2  1  1  1  0  0  0
  2  3  1  0  0  0  0
  2  5  1  0  0  0  0
  3  4  1  0  0  0  0
  3 17  1  0  0  0  0
  5  6  1  0  0  0  0
  7  6  1  1  0  0  0
  7  8  1  0  0  0  0
  7  9  1  0  0  0  0
 10  9  1  1  0  0  0
 10 11  1  0  0  0  0
 10 12  1  0  0  0  0
 11 16  1  0  0  0  0
 12 13  1  6  0  0  0
 12 14  1  0  0  0  0
 14 15  1  6  0  0  0
 14 16  1  0  0  0  0
 16 27  1  1  0  0  0
 18 19  2  0  0  0  0
 18 23  1  0  0  0  0
 19 20  1  0  0  0  0
 20 21  2  0  0  0  0
 21 22  1  0  0  0  0
 21 27  1  0  0  0  0
 22 23  2  0  0  0  0
 22 25  1  0  0  0  0
 23 24  1  0  0  0  0
 25 26  2  0  0  0  0
 26 27  1  0  0  0  0
M  END
>  <CHROM.1>
-168.87199739,58.11614331,-175.52181649,172.88843087,-162.15659299,48.63293602
-156.71727128,10.97884799,-9.44026537,17.70827024,-1.74911556,-0.47134933
-2.02756511

>  <Name>
ligand

>  <RI>
0

>  <Rbt.Current_Directory>
/home/itssahil/PROJECTS/Mol_Feturizer/Test_systems_manuscript/rnas/2ydh

>  <Rbt.Executable>
rbdock ($Id: //depot/dev/client3/rdock/2013.1/src/exe/rbdock.cxx#4 $)

>  <Rbt.Library>
libRbt.so (2013.1, Build901 2013/11/27)

>  <Rbt.Parameter_File>
/export/apps/rDock/src/rDock_2013.1_src/data/scripts/dock_solv.prm

>  <Rbt.Receptor>
prm/blind_docking_40.prm

>  <SCORE>
-12.3661

>  <SCORE.INTER>
-12.0152

>  <SCORE.INTER.CONST>
1

>  <SCORE.INTER.POLAR>
0

>  <SCORE.INTER.ROT>
7

>  <SCORE.INTER.SOLV>
13.0156

>  <SCORE.INTER.VDW>
-20.6153

>  <SCORE.INTER.norm>
-0.445008

>  <SCORE.INTRA>
-0.350887

>  <SCORE.INTRA.DIHEDRAL>
-4.53356

>  <SCORE.INTRA.DIHEDRAL.0>
9.75037

>  <SCORE.INTRA.POLAR>
0

>  <SCORE.INTRA.POLAR.0>
0

>  <SCORE.INTRA.REPUL>
0

>  <SCORE.INTRA.REPUL.0>
0

>  <SCORE.INTRA.SOLV>
-0.834605

>  <SCORE.INTRA.SOLV.lig_0>
-48.4279

>  <SCORE.INTRA.VDW>
2.33319

>  <SCORE.INTRA.VDW.0>
-4.69037

>  <SCORE.INTRA.norm>
-0.0129958

>  <SCORE.RESTR>
0

>  <SCORE.RESTR.CAVITY>
0

>  <SCORE.RESTR.norm>
0

>  <SCORE.SYSTEM>
0

>  <SCORE.SYSTEM.CONST>
0

>  <SCORE.SYSTEM.DIHEDRAL>
0

>  <SCORE.SYSTEM.SOLV>
0

>  <SCORE.SYSTEM.norm>
0

>  <SCORE.heavy>
27

>  <SCORE.norm>
-0.458004

>  <RMSD>
11.227

$$$$
ligand
 OpenBabel02271912153D
libRbt.so/2013.1/901 2013/11/27
 27 29  0  0  0  0  0  0  0  0999 V2000
   12.9037   -7.6872   21.5801 N   0  0  0  0  0  0  0  0  0  0  0  0
   11.5422   -8.2772   21.7671 C   0  0  2  0  0  0  0  0  0  0  0  0
   11.6053   -9.5594   22.6265 C   0  0  0  0  0  0  0  0  0  0  0  0
   10.6408   -9.9181   23.3089 O   0  0  0  0  0  0  0  0  0  0  0  0
   10.9081   -8.5317   20.4038 C   0  0  0  0  0  0  0  0  0  0  0  0
    9.4144   -8.8078   20.4452 C   0  0  0  0  0  0  0  0  0  0  0  0
    8.7167   -9.2308   18.8231 S   0  0  2  0  0  0  0  0  0  0  0  0
    6.9430   -9.2359   19.2099 C   0  0  0  0  0  0  0  0  0  0  0  0
    9.0526  -10.9797   18.5616 C   0  0  0  0  0  0  0  0  0  0  0  0
    8.5293  -11.3849   17.1968 C   0  0  1  0  0  0  0  0  0  0  0  0
    8.8996  -10.4688   16.1781 O   0  0  0  0  0  0  0  0  0  0  0  0
    9.0515  -12.7398   16.7853 C   0  0  1  0  0  0  0  0  0  0  0  0
    8.2578  -13.7657   17.3090 O   0  0  0  0  0  0  0  0  0  0  0  0
    8.9436  -12.6519   15.2935 C   0  0  1  0  0  0  0  0  0  0  0  0
    7.6474  -13.0581   14.8971 O   0  0  0  0  0  0  0  0  0  0  0  0
    9.1564  -11.1752   14.9864 C   0  0  2  0  0  0  0  0  0  0  0  0
   12.6199  -10.2789   22.6750 O   0  0  0  0  0  0  0  0  0  0  0  0
   13.9522   -9.2596   16.0770 N   0  0  0  0  0  0  0  0  0  0  0  0
   12.8503   -9.3243   16.9174 C   0  0  0  0  0  0  0  0  0  0  0  0
   11.6432   -9.8493   16.4718 N   0  0  0  0  0  0  0  0  0  0  0  0
   11.5530  -10.3168   15.2134 C   0  0  0  0  0  0  0  0  0  0  0  0
   12.6606  -10.2709   14.3621 C   0  0  0  0  0  0  0  0  0  0  0  0
   13.8616   -9.7319   14.7853 C   0  0  0  0  0  0  0  0  0  0  0  0
   14.9053   -9.6807   13.9713 N   0  0  0  0  0  0  0  0  0  0  0  0
   12.3058  -10.8064   13.1889 N   0  0  0  0  0  0  0  0  0  0  0  0
   11.0130  -11.1906   13.2737 C   0  0  0  0  0  0  0  0  0  0  0  0
   10.5301  -10.8989   14.5251 N   0  0  0  0  0  0  0  0  0  0  0  0
  2  1  1  6  0  0  0
  2  3  1  0  0  0  0
  2  5  1  0  0  0  0
  3  4  1  0  0  0  0
  3 17  1  0  0  0  0
  5  6  1  0  0  0  0
  7  6  1  1  0  0  0
  7  8  1  0  0  0  0
  7  9  1  0  0  0  0
 10  9  1  1  0  0  0
 10 11  1  0  0  0  0
 10 12  1  0  0  0  0
 11 16  1  0  0  0  0
 12 13  1  1  0  0  0
 12 14  1  0  0  0  0
 14 15  1  1  0  0  0
 14 16  1  0  0  0  0
 16 27  1  1  0  0  0
 18 19  2  0  0  0  0
 18 23  1  0  0  0  0
 19 20  1  0  0  0  0
 20 21  2  0  0  0  0
 21 22  1  0  0  0  0
 21 27  1  0  0  0  0
 22 23  2  0  0  0  0
 22 25  1  0  0  0  0
 23 24  1  0  0  0  0
 25 26  2  0  0  0  0
 26 27  1  0  0  0  0
M  END
>  <CHROM.1>
152.55383488,-165.82368258,-175.60000860,-171.82372324,-178.24027510,46.66962327
13.92781200,10.58194180,-10.30858779,17.58502680,-1.58418474,-0.40266740
-1.84834828

>  <Name>
ligand

>  <RI>
0

>  <Rbt.Current_Directory>
/home/itssahil/PROJECTS/Mol_Feturizer/Test_systems_manuscript/rnas/2ydh

>  <Rbt.Executable>
rbdock ($Id: //depot/dev/client3/rdock/2013.1/src/exe/rbdock.cxx#4 $)

>  <Rbt.Library>
libRbt.so (2013.1, Build901 2013/11/27)

>  <Rbt.Parameter_File>
/export/apps/rDock/src/rDock_2013.1_src/data/scripts/dock_solv.prm

>  <Rbt.Receptor>
prm/blind_docking_80.prm

>  <SCORE>
-15.2813

>  <SCORE.INTER>
-13.5743

>  <SCORE.INTER.CONST>
1

>  <SCORE.INTER.POLAR>
0

>  <SCORE.INTER.ROT>
7

>  <SCORE.INTER.SOLV>
11.9219

>  <SCORE.INTER.VDW>
-21.2902

>  <SCORE.INTER.norm>
-0.502753

>  <SCORE.INTRA>
-1.70694

>  <SCORE.INTRA.DIHEDRAL>
-4.37474

>  <SCORE.INTRA.DIHEDRAL.0>
9.75037

>  <SCORE.INTRA.POLAR>
0

>  <SCORE.INTRA.POLAR.0>
0

>  <SCORE.INTRA.REPUL>
0

>  <SCORE.INTRA.REPUL.0>
0

>  <SCORE.INTRA.SOLV>
-1.46143

>  <SCORE.INTRA.SOLV.lig_0>
-48.4279

>  <SCORE.INTRA.VDW>
1.21115

>  <SCORE.INTRA.VDW.0>
-4.69037

>  <SCORE.INTRA.norm>
-0.0632198

>  <SCORE.RESTR>
0

>  <SCORE.RESTR.CAVITY>
0

>  <SCORE.RESTR.norm>
0

>  <SCORE.SYSTEM>
0

>  <SCORE.SYSTEM.CONST>
0

>  <SCORE.SYSTEM.DIHEDRAL>
0

>  <SCORE.SYSTEM.SOLV>
0

>  <SCORE.SYSTEM.norm>
0

>  <SCORE.heavy>
27

>  <SCORE.norm>
-0.565973

>  <RMSD>
11.411

$$$$
ligand
 OpenBabel02271912153D
libRbt.so/2013.1/901 2013/11/27
 27 29  0  0  0  0  0  0  0  0999 V2000
    6.3279  -12.0074   16.4810 N   0  0  0  0  0  0  0  0  0  0  0  0
    7.5132  -11.7429   15.6081 C   0  0  2  0  0  0  0  0  0  0  0  0
    8.3746  -13.0143   15.4404 C   0  0  0  0  0  0  0  0  0  0  0  0
    9.5943  -12.9396   15.2636 O   0  0  0  0  0  0  0  0  0  0  0  0
    8.3150  -10.5789   16.1806 C   0  0  0  0  0  0  0  0  0  0  0  0
    9.3831  -10.0309   15.2489 C   0  0  0  0  0  0  0  0  0  0  0  0
   10.2162   -8.5550   15.9004 S   0  0  2  0  0  0  0  0  0  0  0  0
    8.8770   -7.3345   15.7881 C   0  0  0  0  0  0  0  0  0  0  0  0
   11.3467   -7.9963   14.6160 C   0  0  0  0  0  0  0  0  0  0  0  0
   12.7514   -7.9375   15.1852 C   0  0  1  0  0  0  0  0  0  0  0  0
   12.8705   -7.0010   16.2449 O   0  0  0  0  0  0  0  0  0  0  0  0
   13.1838   -9.2778   15.7280 C   0  0  1  0  0  0  0  0  0  0  0  0
   13.7110  -10.0852   14.7146 O   0  0  0  0  0  0  0  0  0  0  0  0
   14.2291   -8.8663   16.7193 C   0  0  1  0  0  0  0  0  0  0  0  0
   15.4767   -8.7580   16.0605 O   0  0  0  0  0  0  0  0  0  0  0  0
   13.7659   -7.5010   17.2110 C   0  0  2  0  0  0  0  0  0  0  0  0
    7.8853  -14.1585   15.4696 O   0  0  0  0  0  0  0  0  0  0  0  0
   13.8199   -6.3313   22.3576 N   0  0  0  0  0  0  0  0  0  0  0  0
   14.7701   -6.0054   21.4008 C   0  0  0  0  0  0  0  0  0  0  0  0
   14.6157   -6.4025   20.0779 N   0  0  0  0  0  0  0  0  0  0  0  0
   13.5190   -7.0961   19.7223 C   0  0  0  0  0  0  0  0  0  0  0  0
   12.5473   -7.4172   20.6744 C   0  0  0  0  0  0  0  0  0  0  0  0
   12.6982   -7.0470   21.9980 C   0  0  0  0  0  0  0  0  0  0  0  0
   11.7798   -7.3632   22.8987 N   0  0  0  0  0  0  0  0  0  0  0  0
   11.5680   -8.0888   20.0588 N   0  0  0  0  0  0  0  0  0  0  0  0
   11.8889   -8.1988   18.7507 C   0  0  0  0  0  0  0  0  0  0  0  0
   13.0948   -7.5841   18.5220 N   0  0  0  0  0  0  0  0  0  0  0  0
  2  1  1  1  0  0  0
  2  3  1  0  0  0  0
  2  5  1  0  0  0  0
  3  4  1  0  0  0  0
  3 17  1  0  0  0  0
  5  6  1  0  0  0  0
  7  6  1  6  0  0  0
  7  8  1  0  0  0  0
  7  9  1  0  0  0  0
 10  9  1  1  0  0  0
 10 11  1  0  0  0  0
 10 12  1  0  0  0  0
 11 16  1  0  0  0  0
 12 13  1  6  0  0  0
 12 14  1  0  0  0  0
 14 15  1  6  0  0  0
 14 16  1  0  0  0  0
 16 27  1  1  0  0  0
 18 19  2  0  0  0  0
 18 23  1  0  0  0  0
 19 20  1  0  0  0  0
 20 21  2  0  0  0  0
 21 22  1  0  0  0  0
 21 27  1  0  0  0  0
 22 23  2  0  0  0  0
 22 25  1  0  0  0  0
 23 24  1  0  0  0  0
 25 26  2  0  0  0  0
 26 27  1  0  0  0  0
M  END
>  <CHROM.1>
-149.91799365,-168.42997533,174.83769050,-69.80186068,-123.36052091,-62.71075031
-128.91925716,11.53934125,-8.90948800,17.38822995,2.33212407,-0.52711344
-1.89308367

>  <Name>
ligand

>  <RI>
0

>  <Rbt.Current_Directory>
/home/itssahil/PROJECTS/Mol_Feturizer/Test_systems_manuscript/rnas/2ydh

>  <Rbt.Executable>
rbdock ($Id: //depot/dev/client3/rdock/2013.1/src/exe/rbdock.cxx#4 $)

>  <Rbt.Library>
libRbt.so (2013.1, Build901 2013/11/27)

>  <Rbt.Parameter_File>
/export/apps/rDock/src/rDock_2013.1_src/data/scripts/dock_solv.prm

>  <Rbt.Receptor>
prm/blind_docking_80.prm

>  <SCORE>
-15.5809

>  <SCORE.INTER>
-16.4868

>  <SCORE.INTER.CONST>
1

>  <SCORE.INTER.POLAR>
0

>  <SCORE.INTER.ROT>
7

>  <SCORE.INTER.SOLV>
10.7732

>  <SCORE.INTER.VDW>
-22.8489

>  <SCORE.INTER.norm>
-0.610622

>  <SCORE.INTRA>
0.905898

>  <SCORE.INTRA.DIHEDRAL>
-1.71133

>  <SCORE.INTRA.DIHEDRAL.0>
9.75037

>  <SCORE.INTRA.POLAR>
0

>  <SCORE.INTRA.POLAR.0>
0

>  <SCORE.INTRA.REPUL>
0

>  <SCORE.INTRA.REPUL.0>
0

>  <SCORE.INTRA.SOLV>
-1.2928

>  <SCORE.INTRA.SOLV.lig_0>
-48.4279

>  <SCORE.INTRA.VDW>
2.40797

>  <SCORE.INTRA.VDW.0>
-4.69037

>  <SCORE.INTRA.norm>
0.0335518

>  <SCORE.RESTR>
0

>  <SCORE.RESTR.CAVITY>
0

>  <SCORE.RESTR.norm>
0

>  <SCORE.SYSTEM>
0

>  <SCORE.SYSTEM.CONST>
0

>  <SCORE.SYSTEM.DIHEDRAL>
0

>  <SCORE.SYSTEM.SOLV>
0

>  <SCORE.SYSTEM.norm>
0

>  <SCORE.heavy>
27

>  <SCORE.norm>
-0.57707

>  <RMSD>
11.570

$$$$
ligand
 OpenBabel02271912153D
libRbt.so/2013.1/901 2013/11/27
 27 29  0  0  0  0  0  0  0  0999 V2000
    6.5482  -12.0429   16.9425 N   0  0  0  0  0  0  0  0  0  0  0  0
    7.7653  -11.7844   16.1128 C   0  0  2  0  0  0  0  0  0  0  0  0
    8.8309  -12.8813   16.3324 C   0  0  0  0  0  0  0  0  0  0  0  0
    9.3544  -13.4624   15.3769 O   0  0  0  0  0  0  0  0  0  0  0  0
    8.3042  -10.3919   16.4228 C   0  0  0  0  0  0  0  0  0  0  0  0
    9.4806   -9.9651   15.5608 C   0  0  0  0  0  0  0  0  0  0  0  0
   10.0866   -8.2976   15.9471 S   0  0  2  0  0  0  0  0  0  0  0  0
    8.6387   -7.2997   15.4961 C   0  0  0  0  0  0  0  0  0  0  0  0
   11.2613   -7.8673   14.6529 C   0  0  0  0  0  0  0  0  0  0  0  0
   12.6663   -7.9248   15.2216 C   0  0  1  0  0  0  0  0  0  0  0  0
   12.8535   -7.0233   16.3016 O   0  0  0  0  0  0  0  0  0  0  0  0
   12.9985   -9.3050   15.7341 C   0  0  1  0  0  0  0  0  0  0  0  0
   13.4652  -10.1263   14.7025 O   0  0  0  0  0  0  0  0  0  0  0  0
   14.0709   -8.9936   16.7330 C   0  0  1  0  0  0  0  0  0  0  0  0
   15.3234   -8.9629   16.0752 O   0  0  0  0  0  0  0  0  0  0  0  0
   13.7093   -7.6091   17.2553 C   0  0  2  0  0  0  0  0  0  0  0  0
    9.2029  -13.2301   17.4679 O   0  0  0  0  0  0  0  0  0  0  0  0
   13.7257   -6.3253   22.3749 N   0  0  0  0  0  0  0  0  0  0  0  0
   14.6761   -6.0088   21.4151 C   0  0  0  0  0  0  0  0  0  0  0  0
   14.5326   -6.4370   20.1007 N   0  0  0  0  0  0  0  0  0  0  0  0
   13.4461   -7.1518   19.7559 C   0  0  0  0  0  0  0  0  0  0  0  0
   12.4742   -7.4639   20.7107 C   0  0  0  0  0  0  0  0  0  0  0  0
   12.6145   -7.0627   22.0265 C   0  0  0  0  0  0  0  0  0  0  0  0
   11.6961   -7.3703   22.9301 N   0  0  0  0  0  0  0  0  0  0  0  0
   11.5061   -8.1611   20.1060 N   0  0  0  0  0  0  0  0  0  0  0  0
   11.8341   -8.2959   18.8021 C   0  0  0  0  0  0  0  0  0  0  0  0
   13.0334   -7.6715   18.5650 N   0  0  0  0  0  0  0  0  0  0  0  0
  2  1  1  1  0  0  0
  2  3  1  0  0  0  0
  2  5  1  0  0  0  0
  3  4  1  0  0  0  0
  3 17  1  0  0  0  0
  5  6  1  0  0  0  0
  7  6  1  6  0  0  0
  7  8  1  0  0  0  0
  7  9  1  0  0  0  0
 10  9  1  1  0  0  0
 10 11  1  0  0  0  0
 10 12  1  0  0  0  0
 11 16  1  0  0  0  0
 12 13  1  6  0  0  0
 12 14  1  0  0  0  0
 14 15  1  6  0  0  0
 14 16  1  0  0  0  0
 16 27  1  1  0  0  0
 18 19  2  0  0  0  0
 18 23  1  0  0  0  0
 19 20  1  0  0  0  0
 20 21  2  0  0  0  0
 21 22  1  0  0  0  0
 21 27  1  0  0  0  0
 22 23  2  0  0  0  0
 22 25  1  0  0  0  0
 23 24  1  0  0  0  0
 25 26  2  0  0  0  0
 26 27  1  0  0  0  0
M  END
>  <CHROM.1>
129.40621652,-175.38267369,179.49502965,-63.99607137,-106.76589552,-60.18372966
-123.36454103,11.53541198,-8.88829041,17.56605593,2.36078609,-0.59617310
-1.82361934

>  <Name>
ligand

>  <RI>
0

>  <Rbt.Current_Directory>
/home/itssahil/PROJECTS/Mol_Feturizer/Test_systems_manuscript/rnas/2ydh

>  <Rbt.Executable>
rbdock ($Id: //depot/dev/client3/rdock/2013.1/src/exe/rbdock.cxx#4 $)

>  <Rbt.Library>
libRbt.so (2013.1, Build901 2013/11/27)

>  <Rbt.Parameter_File>
/export/apps/rDock/src/rDock_2013.1_src/data/scripts/dock_solv.prm

>  <Rbt.Receptor>
prm/blind_docking_80.prm

>  <SCORE>
-16.0786

>  <SCORE.INTER>
-15.5995

>  <SCORE.INTER.CONST>
1

>  <SCORE.INTER.POLAR>
0

>  <SCORE.INTER.ROT>
7

>  <SCORE.INTER.SOLV>
9.97512

>  <SCORE.INTER.VDW>
-21.9913

>  <SCORE.INTER.norm>
-0.577758

>  <SCORE.INTRA>
-0.479141

>  <SCORE.INTRA.DIHEDRAL>
-3.36487

>  <SCORE.INTRA.DIHEDRAL.0>
9.75037

>  <SCORE.INTRA.POLAR>
0

>  <SCORE.INTRA.POLAR.0>
0

>  <SCORE.INTRA.REPUL>
0

>  <SCORE.INTRA.REPUL.0>
0

>  <SCORE.INTRA.SOLV>
-1.28275

>  <SCORE.INTRA.SOLV.lig_0>
-48.4279

>  <SCORE.INTRA.VDW>
1.84467

>  <SCORE.INTRA.VDW.0>
-4.69037

>  <SCORE.INTRA.norm>
-0.017746

>  <SCORE.RESTR>
0

>  <SCORE.RESTR.CAVITY>
0

>  <SCORE.RESTR.norm>
0

>  <SCORE.SYSTEM>
0

>  <SCORE.SYSTEM.CONST>
0

>  <SCORE.SYSTEM.DIHEDRAL>
0

>  <SCORE.SYSTEM.SOLV>
0

>  <SCORE.SYSTEM.norm>
0

>  <SCORE.heavy>
27

>  <SCORE.norm>
-0.595504

>  <RMSD>
11.610

$$$$
ligand
 OpenBabel02271912153D
libRbt.so/2013.1/901 2013/11/27
 27 29  0  0  0  0  0  0  0  0999 V2000
   11.5305   -7.5528   23.6390 N   0  0  0  0  0  0  0  0  0  0  0  0
   12.1495   -6.7344   22.5510 C   0  0  2  0  0  0  0  0  0  0  0  0
   11.1318   -5.7328   21.9613 C   0  0  0  0  0  0  0  0  0  0  0  0
   11.4964   -4.6393   21.5186 O   0  0  0  0  0  0  0  0  0  0  0  0
   12.7255   -7.6605   21.4850 C   0  0  0  0  0  0  0  0  0  0  0  0
   13.3027   -6.9458   20.2745 C   0  0  0  0  0  0  0  0  0  0  0  0
   14.2090   -8.0495   19.1531 S   0  0  2  0  0  0  0  0  0  0  0  0
   15.9131   -7.7778   19.7170 C   0  0  0  0  0  0  0  0  0  0  0  0
   14.2117   -7.2506   17.5402 C   0  0  0  0  0  0  0  0  0  0  0  0
   13.3404   -8.0508   16.5908 C   0  0  1  0  0  0  0  0  0  0  0  0
   12.1936   -8.5909   17.2290 O   0  0  0  0  0  0  0  0  0  0  0  0
   12.8502   -7.2020   15.4432 C   0  0  1  0  0  0  0  0  0  0  0  0
   13.7952   -7.1538   14.4129 O   0  0  0  0  0  0  0  0  0  0  0  0
   11.6149   -7.9468   15.0380 C   0  0  1  0  0  0  0  0  0  0  0  0
   11.9647   -8.9561   14.1100 O   0  0  0  0  0  0  0  0  0  0  0  0
   11.1064   -8.5667   16.3332 C   0  0  2  0  0  0  0  0  0  0  0  0
    9.9120   -5.9754   21.9105 O   0  0  0  0  0  0  0  0  0  0  0  0
    8.0902   -7.5234   20.5371 N   0  0  0  0  0  0  0  0  0  0  0  0
    9.1410   -8.4247   20.4461 C   0  0  0  0  0  0  0  0  0  0  0  0
    9.8333   -8.5952   19.2532 N   0  0  0  0  0  0  0  0  0  0  0  0
    9.4878   -7.8601   18.1805 C   0  0  0  0  0  0  0  0  0  0  0  0
    8.4409   -6.9379   18.2642 C   0  0  0  0  0  0  0  0  0  0  0  0
    7.7296   -6.7732   19.4384 C   0  0  0  0  0  0  0  0  0  0  0  0
    6.7311   -5.9058   19.5096 N   0  0  0  0  0  0  0  0  0  0  0  0
    8.3178   -6.3396   17.0742 N   0  0  0  0  0  0  0  0  0  0  0  0
    9.2537   -6.8519   16.2450 C   0  0  0  0  0  0  0  0  0  0  0  0
    9.9930   -7.7942   16.9159 N   0  0  0  0  0  0  0  0  0  0  0  0
  2  1  1  1  0  0  0
  2  3  1  0  0  0  0
  2  5  1  0  0  0  0
  3  4  1  0  0  0  0
  3 17  1  0  0  0  0
  5  6  1  0  0  0  0
  7  6  1  1  0  0  0
  7  8  1  0  0  0  0
  7  9  1  0  0  0  0
 10  9  1  1  0  0  0
 10 11  1  0  0  0  0
 10 12  1  0  0  0  0
 11 16  1  0  0  0  0
 12 13  1  6  0  0  0
 12 14  1  0  0  0  0
 14 15  1  6  0  0  0
 14 16  1  0  0  0  0
 16 27  1  1  0  0  0
 18 19  2  0  0  0  0
 18 23  1  0  0  0  0
 19 20  1  0  0  0  0
 20 21  2  0  0  0  0
 21 22  1  0  0  0  0
 21 27  1  0  0  0  0
 22 23  2  0  0  0  0
 22 25  1  0  0  0  0
 23 24  1  0  0  0  0
 25 26  2  0  0  0  0
 26 27  1  0  0  0  0
M  END
>  <CHROM.1>
148.58403213,176.08447998,170.92228972,-96.74701994,-111.20481027,36.92242868
-45.58513034,11.34830145,-7.35586706,18.70428822,-1.99741557,0.11529258,-1.74646370

>  <Name>
ligand

>  <RI>
0

>  <Rbt.Current_Directory>
/home/itssahil/PROJECTS/Mol_Feturizer/Test_systems_manuscript/rnas/2ydh

>  <Rbt.Executable>
rbdock ($Id: //depot/dev/client3/rdock/2013.1/src/exe/rbdock.cxx#4 $)

>  <Rbt.Library>
libRbt.so (2013.1, Build901 2013/11/27)

>  <Rbt.Parameter_File>
/export/apps/rDock/src/rDock_2013.1_src/data/scripts/dock_solv.prm

>  <Rbt.Receptor>
prm/blind_docking_80.prm

>  <SCORE>
-12.0677

>  <SCORE.INTER>
-13.1945

>  <SCORE.INTER.CONST>
1

>  <SCORE.INTER.POLAR>
0

>  <SCORE.INTER.ROT>
7

>  <SCORE.INTER.SOLV>
9.80321

>  <SCORE.INTER.VDW>
-20.3307

>  <SCORE.INTER.norm>
-0.488685

>  <SCORE.INTRA>
1.12677

>  <SCORE.INTRA.DIHEDRAL>
1.26441

>  <SCORE.INTRA.DIHEDRAL.0>
9.75037

>  <SCORE.INTRA.POLAR>
0

>  <SCORE.INTRA.POLAR.0>
0

>  <SCORE.INTRA.REPUL>
0

>  <SCORE.INTRA.REPUL.0>
0

>  <SCORE.INTRA.SOLV>
-1.46061

>  <SCORE.INTRA.SOLV.lig_0>
-48.4279

>  <SCORE.INTRA.VDW>
1.22487

>  <SCORE.INTRA.VDW.0>
-4.69037

>  <SCORE.INTRA.norm>
0.0417323

>  <SCORE.RESTR>
0

>  <SCORE.RESTR.CAVITY>
0

>  <SCORE.RESTR.norm>
0

>  <SCORE.SYSTEM>
0

>  <SCORE.SYSTEM.CONST>
0

>  <SCORE.SYSTEM.DIHEDRAL>
0

>  <SCORE.SYSTEM.SOLV>
0

>  <SCORE.SYSTEM.norm>
0

>  <SCORE.heavy>
27

>  <SCORE.norm>
-0.446953

>  <RMSD>
11.624

$$$$
ligand
 OpenBabel02271912153D
libRbt.so/2013.1/901 2013/11/27
 27 29  0  0  0  0  0  0  0  0999 V2000
   10.9778   -7.7454   22.3368 N   0  0  0  0  0  0  0  0  0  0  0  0
   12.3313   -7.7785   21.7016 C   0  0  2  0  0  0  0  0  0  0  0  0
   13.0452   -6.4157   21.8432 C   0  0  0  0  0  0  0  0  0  0  0  0
   12.4023   -5.3663   21.9434 O   0  0  0  0  0  0  0  0  0  0  0  0
   12.1973   -8.2064   20.2441 C   0  0  0  0  0  0  0  0  0  0  0  0
   13.4965   -8.6575   19.5977 C   0  0  0  0  0  0  0  0  0  0  0  0
   13.3634   -8.8870   17.8015 S   0  0  2  0  0  0  0  0  0  0  0  0
   13.1688   -7.1668   17.2552 C   0  0  0  0  0  0  0  0  0  0  0  0
   11.7271   -9.5702   17.4925 C   0  0  0  0  0  0  0  0  0  0  0  0
   11.6568  -10.0553   16.0571 C   0  0  1  0  0  0  0  0  0  0  0  0
   10.9719  -11.2921   15.9335 O   0  0  0  0  0  0  0  0  0  0  0  0
   10.9418   -9.0627   15.1732 C   0  0  1  0  0  0  0  0  0  0  0  0
   11.8183   -8.0735   14.7151 O   0  0  0  0  0  0  0  0  0  0  0  0
   10.4675   -9.9508   14.0636 C   0  0  1  0  0  0  0  0  0  0  0  0
   11.4839  -10.0535   13.0845 O   0  0  0  0  0  0  0  0  0  0  0  0
   10.2344  -11.2990   14.7331 C   0  0  2  0  0  0  0  0  0  0  0  0
   14.2855   -6.3124   21.8573 O   0  0  0  0  0  0  0  0  0  0  0  0
    5.6015   -9.3353   16.3266 N   0  0  0  0  0  0  0  0  0  0  0  0
    6.8078   -8.6642   16.1878 C   0  0  0  0  0  0  0  0  0  0  0  0
    7.9515   -9.3324   15.7669 N   0  0  0  0  0  0  0  0  0  0  0  0
    7.8778  -10.6434   15.4736 C   0  0  0  0  0  0  0  0  0  0  0  0
    6.6646  -11.3269   15.5950 C   0  0  0  0  0  0  0  0  0  0  0  0
    5.5239  -10.6797   16.0329 C   0  0  0  0  0  0  0  0  0  0  0  0
    4.3790  -11.3343   16.1568 N   0  0  0  0  0  0  0  0  0  0  0  0
    6.8656  -12.5984   15.2318 N   0  0  0  0  0  0  0  0  0  0  0  0
    8.1637  -12.7379   14.8830 C   0  0  0  0  0  0  0  0  0  0  0  0
    8.8069  -11.5332   15.0222 N   0  0  0  0  0  0  0  0  0  0  0  0
  2  1  1  6  0  0  0
  2  3  1  0  0  0  0
  2  5  1  0  0  0  0
  3  4  1  0  0  0  0
  3 17  1  0  0  0  0
  5  6  1  0  0  0  0
  7  6  1  1  0  0  0
  7  8  1  0  0  0  0
  7  9  1  0  0  0  0
 10  9  1  1  0  0  0
 10 11  1  0  0  0  0
 10 12  1  0  0  0  0
 11 16  1  0  0  0  0
 12 13  1  6  0  0  0
 12 14  1  0  0  0  0
 14 15  1  6  0  0  0
 14 16  1  0  0  0  0
 16 27  1  1  0  0  0
 18 19  2  0  0  0  0
 18 23  1  0  0  0  0
 19 20  1  0  0  0  0
 20 21  2  0  0  0  0
 21 22  1  0  0  0  0
 21 27  1  0  0  0  0
 22 23  2  0  0  0  0
 22 25  1  0  0  0  0
 23 24  1  0  0  0  0
 25 26  2  0  0  0  0
 26 27  1  0  0  0  0
M  END
>  <CHROM.1>
-27.24115249,-163.56221670,-170.14215608,69.33617796,-168.23667968,139.05644451
79.06863719,10.38215218,-9.32647369,17.19536382,0.85759487,0.21488536,1.14705968

>  <Name>
ligand

>  <RI>
0

>  <Rbt.Current_Directory>
/home/itssahil/PROJECTS/Mol_Feturizer/Test_systems_manuscript/rnas/2ydh

>  <Rbt.Executable>
rbdock ($Id: //depot/dev/client3/rdock/2013.1/src/exe/rbdock.cxx#4 $)

>  <Rbt.Library>
libRbt.so (2013.1, Build901 2013/11/27)

>  <Rbt.Parameter_File>
/export/apps/rDock/src/rDock_2013.1_src/data/scripts/dock_solv.prm

>  <Rbt.Receptor>
prm/blind_docking_80.prm

>  <SCORE>
-14.1881

>  <SCORE.INTER>
-16.0449

>  <SCORE.INTER.CONST>
1

>  <SCORE.INTER.POLAR>
0

>  <SCORE.INTER.ROT>
7

>  <SCORE.INTER.SOLV>
13.105

>  <SCORE.INTER.VDW>
-23.3316

>  <SCORE.INTER.norm>
-0.594255

>  <SCORE.INTRA>
1.85681

>  <SCORE.INTRA.DIHEDRAL>
0.44584

>  <SCORE.INTRA.DIHEDRAL.0>
9.75037

>  <SCORE.INTRA.POLAR>
0

>  <SCORE.INTRA.POLAR.0>
0

>  <SCORE.INTRA.REPUL>
0

>  <SCORE.INTRA.REPUL.0>
0

>  <SCORE.INTRA.SOLV>
-1.23905

>  <SCORE.INTRA.SOLV.lig_0>
-48.4279

>  <SCORE.INTRA.VDW>
2.25341

>  <SCORE.INTRA.VDW.0>
-4.69037

>  <SCORE.INTRA.norm>
0.0687707

>  <SCORE.RESTR>
0

>  <SCORE.RESTR.CAVITY>
0

>  <SCORE.RESTR.norm>
0

>  <SCORE.SYSTEM>
0

>  <SCORE.SYSTEM.CONST>
0

>  <SCORE.SYSTEM.DIHEDRAL>
0

>  <SCORE.SYSTEM.SOLV>
0

>  <SCORE.SYSTEM.norm>
0

>  <SCORE.heavy>
27

>  <SCORE.norm>
-0.525484

>  <RMSD>
11.626

$$$$
ligand
 OpenBabel02271912153D
libRbt.so/2013.1/901 2013/11/27
 27 29  0  0  0  0  0  0  0  0999 V2000
    8.5221   -9.7573   19.9154 N   0  0  0  0  0  0  0  0  0  0  0  0
    9.8567   -9.2910   19.4276 C   0  0  2  0  0  0  0  0  0  0  0  0
   10.4920  -10.3258   18.4726 C   0  0  0  0  0  0  0  0  0  0  0  0
   11.5702  -10.1009   17.9142 O   0  0  0  0  0  0  0  0  0  0  0  0
   10.7550   -8.9862   20.6217 C   0  0  0  0  0  0  0  0  0  0  0  0
   10.3189   -7.7883   21.4488 C   0  0  0  0  0  0  0  0  0  0  0  0
   11.6094   -7.1840   22.5741 S   0  0  2  0  0  0  0  0  0  0  0  0
   10.7055   -5.8783   23.4537 C   0  0  0  0  0  0  0  0  0  0  0  0
   12.7623   -6.2354   21.5686 C   0  0  0  0  0  0  0  0  0  0  0  0
   13.8386   -7.1648   21.0409 C   0  0  1  0  0  0  0  0  0  0  0  0
   13.3285   -8.1272   20.1311 O   0  0  0  0  0  0  0  0  0  0  0  0
   14.9211   -6.4014   20.3175 C   0  0  1  0  0  0  0  0  0  0  0  0
   15.8827   -5.9211   21.2126 O   0  0  0  0  0  0  0  0  0  0  0  0
   15.4732   -7.4638   19.4166 C   0  0  1  0  0  0  0  0  0  0  0  0
   16.4765   -8.1834   20.1080 O   0  0  0  0  0  0  0  0  0  0  0  0
   14.2806   -8.3638   19.1199 C   0  0  2  0  0  0  0  0  0  0  0  0
    9.9515  -11.4183   18.2200 O   0  0  0  0  0  0  0  0  0  0  0  0
   14.3350   -9.2108   13.9105 N   0  0  0  0  0  0  0  0  0  0  0  0
   15.1710   -9.7615   14.8710 C   0  0  0  0  0  0  0  0  0  0  0  0
   15.0363   -9.4235   16.2123 N   0  0  0  0  0  0  0  0  0  0  0  0
   14.0685   -8.5646   16.5809 C   0  0  0  0  0  0  0  0  0  0  0  0
   13.2104   -8.0150   15.6242 C   0  0  0  0  0  0  0  0  0  0  0  0
   13.3465   -8.3258   14.2838 C   0  0  0  0  0  0  0  0  0  0  0  0
   12.5378   -7.7939   13.3796 N   0  0  0  0  0  0  0  0  0  0  0  0
   12.3434   -7.2147   16.2542 N   0  0  0  0  0  0  0  0  0  0  0  0
   12.6247   -7.2442   17.5756 C   0  0  0  0  0  0  0  0  0  0  0  0
   13.6900   -8.0809   17.7981 N   0  0  0  0  0  0  0  0  0  0  0  0
  2  1  1  1  0  0  0
  2  3  1  0  0  0  0
  2  5  1  0  0  0  0
  3  4  1  0  0  0  0
  3 17  1  0  0  0  0
  5  6  1  0  0  0  0
  7  6  1  6  0  0  0
  7  8  1  0  0  0  0
  7  9  1  0  0  0  0
 10  9  1  6  0  0  0
 10 11  1  0  0  0  0
 10 12  1  0  0  0  0
 11 16  1  0  0  0  0
 12 13  1  1  0  0  0
 12 14  1  0  0  0  0
 14 15  1  1  0  0  0
 14 16  1  0  0  0  0
 16 27  1  6  0  0  0
 18 19  2  0  0  0  0
 18 23  1  0  0  0  0
 19 20  1  0  0  0  0
 20 21  2  0  0  0  0
 21 22  1  0  0  0  0
 21 27  1  0  0  0  0
 22 23  2  0  0  0  0
 22 25  1  0  0  0  0
 23 24  1  0  0  0  0
 25 26  2  0  0  0  0
 26 27  1  0  0  0  0
M  END
>  <CHROM.1>
176.75071201,-67.69133477,-164.76829091,-175.88998346,-89.50567682,66.05156955
-156.62662690,12.78783055,-8.18084037,18.85015484,1.85528792,0.38264625,1.23499111

>  <Name>
ligand

>  <RI>
0

>  <Rbt.Current_Directory>
/home/itssahil/PROJECTS/Mol_Feturizer/Test_systems_manuscript/rnas/2ydh

>  <Rbt.Executable>
rbdock ($Id: //depot/dev/client3/rdock/2013.1/src/exe/rbdock.cxx#4 $)

>  <Rbt.Library>
libRbt.so (2013.1, Build901 2013/11/27)

>  <Rbt.Parameter_File>
/export/apps/rDock/src/rDock_2013.1_src/data/scripts/dock_solv.prm

>  <Rbt.Receptor>
prm/blind_docking_100.prm

>  <SCORE>
-15.6789

>  <SCORE.INTER>
-14.1257

>  <SCORE.INTER.CONST>
1

>  <SCORE.INTER.POLAR>
0

>  <SCORE.INTER.ROT>
7

>  <SCORE.INTER.SOLV>
14.6129

>  <SCORE.INTER.VDW>
-22.5548

>  <SCORE.INTER.norm>
-0.523174

>  <SCORE.INTRA>
-1.55324

>  <SCORE.INTRA.DIHEDRAL>
-3.8487

>  <SCORE.INTRA.DIHEDRAL.0>
9.75037

>  <SCORE.INTRA.POLAR>
0

>  <SCORE.INTRA.POLAR.0>
0

>  <SCORE.INTRA.REPUL>
0

>  <SCORE.INTRA.REPUL.0>
0

>  <SCORE.INTRA.SOLV>
-0.633122

>  <SCORE.INTRA.SOLV.lig_0>
-48.4279

>  <SCORE.INTRA.VDW>
0.687675

>  <SCORE.INTRA.VDW.0>
-4.69037

>  <SCORE.INTRA.norm>
-0.0575272

>  <SCORE.RESTR>
0

>  <SCORE.RESTR.CAVITY>
0

>  <SCORE.RESTR.norm>
0

>  <SCORE.SYSTEM>
0

>  <SCORE.SYSTEM.CONST>
0

>  <SCORE.SYSTEM.DIHEDRAL>
0

>  <SCORE.SYSTEM.SOLV>
0

>  <SCORE.SYSTEM.norm>
0

>  <SCORE.heavy>
27

>  <SCORE.norm>
-0.580701

>  <RMSD>
11.724

$$$$
ligand
 OpenBabel02271912153D
libRbt.so/2013.1/901 2013/11/27
 27 29  0  0  0  0  0  0  0  0999 V2000
    8.5704   -6.5527   23.4815 N   0  0  0  0  0  0  0  0  0  0  0  0
    9.1585   -7.2319   22.2859 C   0  0  2  0  0  0  0  0  0  0  0  0
    8.1036   -7.4063   21.1708 C   0  0  0  0  0  0  0  0  0  0  0  0
    6.9595   -7.7921   21.4298 O   0  0  0  0  0  0  0  0  0  0  0  0
    9.7707   -8.5631   22.7089 C   0  0  0  0  0  0  0  0  0  0  0  0
   11.0341   -8.4386   23.5440 C   0  0  0  0  0  0  0  0  0  0  0  0
   12.4679   -7.8550   22.5951 S   0  0  2  0  0  0  0  0  0  0  0  0
   12.0329   -6.1074   22.3672 C   0  0  0  0  0  0  0  0  0  0  0  0
   12.2816   -8.5122   20.9298 C   0  0  0  0  0  0  0  0  0  0  0  0
   13.6455   -8.5796   20.2695 C   0  0  1  0  0  0  0  0  0  0  0  0
   13.6237   -9.3022   19.0482 O   0  0  0  0  0  0  0  0  0  0  0  0
   14.1775   -7.2017   19.9595 C   0  0  1  0  0  0  0  0  0  0  0  0
   14.8273   -6.6514   21.0693 O   0  0  0  0  0  0  0  0  0  0  0  0
   15.1302   -7.5026   18.8429 C   0  0  1  0  0  0  0  0  0  0  0  0
   16.3918   -7.8407   19.3874 O   0  0  0  0  0  0  0  0  0  0  0  0
   14.5156   -8.7040   18.1363 C   0  0  2  0  0  0  0  0  0  0  0  0
    8.3555   -7.1745   19.9741 O   0  0  0  0  0  0  0  0  0  0  0  0
   13.3230   -9.7678   13.1059 N   0  0  0  0  0  0  0  0  0  0  0  0
   14.1266  -10.5042   13.9640 C   0  0  0  0  0  0  0  0  0  0  0  0
   14.3560  -10.0791   15.2672 N   0  0  0  0  0  0  0  0  0  0  0  0
   13.7733   -8.9474   15.7028 C   0  0  0  0  0  0  0  0  0  0  0  0
   12.9494   -8.2049   14.8523 C   0  0  0  0  0  0  0  0  0  0  0  0
   12.7295   -8.6046   13.5469 C   0  0  0  0  0  0  0  0  0  0  0  0
   11.9566   -7.8917   12.7413 N   0  0  0  0  0  0  0  0  0  0  0  0
   12.4936   -7.1478   15.5333 N   0  0  0  0  0  0  0  0  0  0  0  0
   13.0004   -7.2012   16.7848 C   0  0  0  0  0  0  0  0  0  0  0  0
   13.7937   -8.3144   16.9102 N   0  0  0  0  0  0  0  0  0  0  0  0
  2  1  1  1  0  0  0
  2  3  1  0  0  0  0
  2  5  1  0  0  0  0
  3  4  1  0  0  0  0
  3 17  1  0  0  0  0
  5  6  1  0  0  0  0
  7  6  1  1  0  0  0
  7  8  1  0  0  0  0
  7  9  1  0  0  0  0
 10  9  1  6  0  0  0
 10 11  1  0  0  0  0
 10 12  1  0  0  0  0
 11 16  1  0  0  0  0
 12 13  1  1  0  0  0
 12 14  1  0  0  0  0
 14 15  1  1  0  0  0
 14 16  1  0  0  0  0
 16 27  1  6  0  0  0
 18 19  2  0  0  0  0
 18 23  1  0  0  0  0
 19 20  1  0  0  0  0
 20 21  2  0  0  0  0
 21 22  1  0  0  0  0
 21 27  1  0  0  0  0
 22 23  2  0  0  0  0
 22 25  1  0  0  0  0
 23 24  1  0  0  0  0
 25 26  2  0  0  0  0
 26 27  1  0  0  0  0
M  END
>  <CHROM.1>
-43.86941376,-70.42284237,-70.96814339,73.06250738,-156.40485810,169.56050388
-102.16657510,12.33449009,-8.04396139,19.02115944,2.00171008,-0.05475726
1.42058740

>  <Name>
ligand

>  <RI>
0

>  <Rbt.Current_Directory>
/home/itssahil/PROJECTS/Mol_Feturizer/Test_systems_manuscript/rnas/2ydh

>  <Rbt.Executable>
rbdock ($Id: //depot/dev/client3/rdock/2013.1/src/exe/rbdock.cxx#4 $)

>  <Rbt.Library>
libRbt.so (2013.1, Build901 2013/11/27)

>  <Rbt.Parameter_File>
/export/apps/rDock/src/rDock_2013.1_src/data/scripts/dock_solv.prm

>  <Rbt.Receptor>
prm/blind_docking_60.prm

>  <SCORE>
-12.041

>  <SCORE.INTER>
-14.453

>  <SCORE.INTER.CONST>
1

>  <SCORE.INTER.POLAR>
0

>  <SCORE.INTER.ROT>
7

>  <SCORE.INTER.SOLV>
8.77488

>  <SCORE.INTER.VDW>
-20.827

>  <SCORE.INTER.norm>
-0.535296

>  <SCORE.INTRA>
2.41197

>  <SCORE.INTRA.DIHEDRAL>
-2.01413

>  <SCORE.INTRA.DIHEDRAL.0>
9.75037

>  <SCORE.INTRA.POLAR>
0

>  <SCORE.INTRA.POLAR.0>
0

>  <SCORE.INTRA.REPUL>
0

>  <SCORE.INTRA.REPUL.0>
0

>  <SCORE.INTRA.SOLV>
0.609095

>  <SCORE.INTRA.SOLV.lig_0>
-48.4279

>  <SCORE.INTRA.VDW>
3.11449

>  <SCORE.INTRA.VDW.0>
-4.69037

>  <SCORE.INTRA.norm>
0.0893324

>  <SCORE.RESTR>
0

>  <SCORE.RESTR.CAVITY>
0

>  <SCORE.RESTR.norm>
0

>  <SCORE.SYSTEM>
0

>  <SCORE.SYSTEM.CONST>
0

>  <SCORE.SYSTEM.DIHEDRAL>
0

>  <SCORE.SYSTEM.SOLV>
0

>  <SCORE.SYSTEM.norm>
0

>  <SCORE.heavy>
27

>  <SCORE.norm>
-0.445964

>  <RMSD>
11.859

$$$$
ligand
 OpenBabel02271912153D
libRbt.so/2013.1/901 2013/11/27
 27 29  0  0  0  0  0  0  0  0999 V2000
   12.5876  -10.3174   22.5165 N   0  0  0  0  0  0  0  0  0  0  0  0
   11.2005   -9.8339   22.7974 C   0  0  2  0  0  0  0  0  0  0  0  0
   10.5159   -9.3294   21.5076 C   0  0  0  0  0  0  0  0  0  0  0  0
    9.4943   -8.6376   21.5565 O   0  0  0  0  0  0  0  0  0  0  0  0
   11.2470   -8.7600   23.8791 C   0  0  0  0  0  0  0  0  0  0  0  0
   12.5114   -7.9171   23.8764 C   0  0  0  0  0  0  0  0  0  0  0  0
   12.3723   -6.4167   22.8634 S   0  0  2  0  0  0  0  0  0  0  0  0
   10.6785   -5.8978   23.2600 C   0  0  0  0  0  0  0  0  0  0  0  0
   12.2108   -6.9646   21.1564 C   0  0  0  0  0  0  0  0  0  0  0  0
   13.4863   -7.6732   20.7420 C   0  0  1  0  0  0  0  0  0  0  0  0
   13.2863   -8.5609   19.6528 O   0  0  0  0  0  0  0  0  0  0  0  0
   14.5524   -6.6907   20.3226 C   0  0  1  0  0  0  0  0  0  0  0  0
   15.2656   -6.2186   21.4295 O   0  0  0  0  0  0  0  0  0  0  0  0
   15.4005   -7.5454   19.4308 C   0  0  1  0  0  0  0  0  0  0  0  0
   16.3655   -8.2203   20.2154 O   0  0  0  0  0  0  0  0  0  0  0  0
   14.4216   -8.5391   18.8188 C   0  0  2  0  0  0  0  0  0  0  0  0
   10.9530   -9.5975   20.3734 O   0  0  0  0  0  0  0  0  0  0  0  0
   15.2663   -8.9815   13.6275 N   0  0  0  0  0  0  0  0  0  0  0  0
   15.9578   -9.6014   14.6581 C   0  0  0  0  0  0  0  0  0  0  0  0
   15.6191   -9.3684   15.9857 N   0  0  0  0  0  0  0  0  0  0  0  0
   14.5940   -8.5443   16.2689 C   0  0  0  0  0  0  0  0  0  0  0  0
   13.8801   -7.9258   15.2387 C   0  0  0  0  0  0  0  0  0  0  0  0
   14.2195   -8.1318   13.9142 C   0  0  0  0  0  0  0  0  0  0  0  0
   13.5468   -7.5348   12.9417 N   0  0  0  0  0  0  0  0  0  0  0  0
   12.9165   -7.1799   15.7901 N   0  0  0  0  0  0  0  0  0  0  0  0
   12.9978   -7.3102   17.1327 C   0  0  0  0  0  0  0  0  0  0  0  0
   14.0306   -8.1574   17.4486 N   0  0  0  0  0  0  0  0  0  0  0  0
  2  1  1  6  0  0  0
  2  3  1  0  0  0  0
  2  5  1  0  0  0  0
  3  4  1  0  0  0  0
  3 17  1  0  0  0  0
  5  6  1  0  0  0  0
  7  6  1  1  0  0  0
  7  8  1  0  0  0  0
  7  9  1  0  0  0  0
 10  9  1  6  0  0  0
 10 11  1  0  0  0  0
 10 12  1  0  0  0  0
 11 16  1  0  0  0  0
 12 13  1  1  0  0  0
 12 14  1  0  0  0  0
 14 15  1  1  0  0  0
 14 16  1  0  0  0  0
 16 27  1  6  0  0  0
 18 19  2  0  0  0  0
 18 23  1  0  0  0  0
 19 20  1  0  0  0  0
 20 21  2  0  0  0  0
 21 22  1  0  0  0  0
 21 27  1  0  0  0  0
 22 23  2  0  0  0  0
 22 25  1  0  0  0  0
 23 24  1  0  0  0  0
 25 26  2  0  0  0  0
 26 27  1  0  0  0  0
M  END
>  <CHROM.1>
-164.55738783,31.63171189,91.35380839,39.96164583,-64.46505988,157.35155018
-148.65156475,13.24277861,-8.05062385,19.45067295,1.94387652,0.31586176,1.38961145

>  <Name>
ligand

>  <RI>
0

>  <Rbt.Current_Directory>
/home/itssahil/PROJECTS/Mol_Feturizer/Test_systems_manuscript/rnas/2ydh

>  <Rbt.Executable>
rbdock ($Id: //depot/dev/client3/rdock/2013.1/src/exe/rbdock.cxx#4 $)

>  <Rbt.Library>
libRbt.so (2013.1, Build901 2013/11/27)

>  <Rbt.Parameter_File>
/export/apps/rDock/src/rDock_2013.1_src/data/scripts/dock_solv.prm

>  <Rbt.Receptor>
prm/blind_docking_100.prm

>  <SCORE>
-12.3315

>  <SCORE.INTER>
-17.0942

>  <SCORE.INTER.CONST>
1

>  <SCORE.INTER.POLAR>
0

>  <SCORE.INTER.ROT>
7

>  <SCORE.INTER.SOLV>
16.7622

>  <SCORE.INTER.VDW>
-25.2502

>  <SCORE.INTER.norm>
-0.63312

>  <SCORE.INTRA>
4.76077

>  <SCORE.INTRA.DIHEDRAL>
1.07298

>  <SCORE.INTRA.DIHEDRAL.0>
9.75037

>  <SCORE.INTRA.POLAR>
0

>  <SCORE.INTRA.POLAR.0>
0

>  <SCORE.INTRA.REPUL>
0

>  <SCORE.INTRA.REPUL.0>
0

>  <SCORE.INTRA.SOLV>
2.51599

>  <SCORE.INTRA.SOLV.lig_0>
-48.4279

>  <SCORE.INTRA.VDW>
2.96628

>  <SCORE.INTRA.VDW.0>
-4.69037

>  <SCORE.INTRA.norm>
0.176325

>  <SCORE.RESTR>
0.00192073

>  <SCORE.RESTR.CAVITY>
0.00192073

>  <SCORE.RESTR.norm>
7.11381e-05

>  <SCORE.SYSTEM>
0

>  <SCORE.SYSTEM.CONST>
0

>  <SCORE.SYSTEM.DIHEDRAL>
0

>  <SCORE.SYSTEM.SOLV>
0

>  <SCORE.SYSTEM.norm>
0

>  <SCORE.heavy>
27

>  <SCORE.norm>
-0.456724

>  <RMSD>
12.047

$$$$
ligand
 OpenBabel02271912153D
libRbt.so/2013.1/901 2013/11/27
 27 29  0  0  0  0  0  0  0  0999 V2000
    6.8513   -8.4274   19.2328 N   0  0  0  0  0  0  0  0  0  0  0  0
    7.4439   -8.3859   20.6053 C   0  0  2  0  0  0  0  0  0  0  0  0
    7.2223   -7.0067   21.2650 C   0  0  0  0  0  0  0  0  0  0  0  0
    7.1826   -6.8861   22.4933 O   0  0  0  0  0  0  0  0  0  0  0  0
    8.9218   -8.7547   20.5309 C   0  0  0  0  0  0  0  0  0  0  0  0
    9.6414   -8.7467   21.8693 C   0  0  0  0  0  0  0  0  0  0  0  0
   11.4172   -9.1000   21.7323 S   0  0  2  0  0  0  0  0  0  0  0  0
   11.9744   -8.6820   23.4088 C   0  0  0  0  0  0  0  0  0  0  0  0
   12.1299   -7.7684   20.7531 C   0  0  0  0  0  0  0  0  0  0  0  0
   13.5991   -8.0612   20.5157 C   0  0  1  0  0  0  0  0  0  0  0  0
   13.8007   -9.1295   19.6034 O   0  0  0  0  0  0  0  0  0  0  0  0
   14.3182   -6.8584   19.9553 C   0  0  1  0  0  0  0  0  0  0  0  0
   14.7338   -5.9987   20.9775 O   0  0  0  0  0  0  0  0  0  0  0  0
   15.4767   -7.5092   19.2629 C   0  0  1  0  0  0  0  0  0  0  0  0
   16.5340   -7.6799   20.1877 O   0  0  0  0  0  0  0  0  0  0  0  0
   14.9371   -8.8614   18.8149 C   0  0  2  0  0  0  0  0  0  0  0  0
    7.0697   -5.9668   20.5983 O   0  0  0  0  0  0  0  0  0  0  0  0
   11.4399   -7.5546   15.0839 N   0  0  0  0  0  0  0  0  0  0  0  0
   11.3569   -7.3182   16.4484 C   0  0  0  0  0  0  0  0  0  0  0  0
   12.3636   -7.7412   17.3081 N   0  0  0  0  0  0  0  0  0  0  0  0
   13.4396   -8.3713   16.8027 C   0  0  0  0  0  0  0  0  0  0  0  0
   13.5416   -8.6017   15.4279 C   0  0  0  0  0  0  0  0  0  0  0  0
   12.5378   -8.2054   14.5634 C   0  0  0  0  0  0  0  0  0  0  0  0
   12.6340   -8.4358   13.2626 N   0  0  0  0  0  0  0  0  0  0  0  0
   14.7021   -9.2249   15.1957 N   0  0  0  0  0  0  0  0  0  0  0  0
   15.3356   -9.3920   16.3777 C   0  0  0  0  0  0  0  0  0  0  0  0
   14.5689   -8.8639   17.3865 N   0  0  0  0  0  0  0  0  0  0  0  0
  2  1  1  6  0  0  0
  2  3  1  0  0  0  0
  2  5  1  0  0  0  0
  3  4  1  0  0  0  0
  3 17  1  0  0  0  0
  5  6  1  0  0  0  0
  7  6  1  1  0  0  0
  7  8  1  0  0  0  0
  7  9  1  0  0  0  0
 10  9  1  6  0  0  0
 10 11  1  0  0  0  0
 10 12  1  0  0  0  0
 11 16  1  0  0  0  0
 12 13  1  1  0  0  0
 12 14  1  0  0  0  0
 14 15  1  1  0  0  0
 14 16  1  0  0  0  0
 16 27  1  6  0  0  0
 18 19  2  0  0  0  0
 18 23  1  0  0  0  0
 19 20  1  0  0  0  0
 20 21  2  0  0  0  0
 21 22  1  0  0  0  0
 21 27  1  0  0  0  0
 22 23  2  0  0  0  0
 22 25  1  0  0  0  0
 23 24  1  0  0  0  0
 25 26  2  0  0  0  0
 26 27  1  0  0  0  0
M  END
>  <CHROM.1>
153.82580738,179.92441068,-176.80885254,169.19121575,-175.84774446,71.58512717
39.23919089,11.98942531,-8.08179439,19.12033845,2.45571676,-0.06379121,1.52086934

>  <Name>
ligand

>  <RI>
0

>  <Rbt.Current_Directory>
/home/itssahil/PROJECTS/Mol_Feturizer/Test_systems_manuscript/rnas/2ydh

>  <Rbt.Executable>
rbdock ($Id: //depot/dev/client3/rdock/2013.1/src/exe/rbdock.cxx#4 $)

>  <Rbt.Library>
libRbt.so (2013.1, Build901 2013/11/27)

>  <Rbt.Parameter_File>
/export/apps/rDock/src/rDock_2013.1_src/data/scripts/dock_solv.prm

>  <Rbt.Receptor>
prm/blind_docking_80.prm

>  <SCORE>
-16.9607

>  <SCORE.INTER>
-14.7242

>  <SCORE.INTER.CONST>
1

>  <SCORE.INTER.POLAR>
0

>  <SCORE.INTER.ROT>
7

>  <SCORE.INTER.SOLV>
9.09233

>  <SCORE.INTER.VDW>
-21.1135

>  <SCORE.INTER.norm>
-0.545339

>  <SCORE.INTRA>
-2.23657

>  <SCORE.INTRA.DIHEDRAL>
-5.76702

>  <SCORE.INTRA.DIHEDRAL.0>
9.75037

>  <SCORE.INTRA.POLAR>
0

>  <SCORE.INTRA.POLAR.0>
0

>  <SCORE.INTRA.REPUL>
0

>  <SCORE.INTRA.REPUL.0>
0

>  <SCORE.INTRA.SOLV>
-1.51978

>  <SCORE.INTRA.SOLV.lig_0>
-48.4279

>  <SCORE.INTRA.VDW>
1.40683

>  <SCORE.INTRA.VDW.0>
-4.69037

>  <SCORE.INTRA.norm>
-0.082836

>  <SCORE.RESTR>
0

>  <SCORE.RESTR.CAVITY>
0

>  <SCORE.RESTR.norm>
0

>  <SCORE.SYSTEM>
0

>  <SCORE.SYSTEM.CONST>
0

>  <SCORE.SYSTEM.DIHEDRAL>
0

>  <SCORE.SYSTEM.SOLV>
0

>  <SCORE.SYSTEM.norm>
0

>  <SCORE.heavy>
27

>  <SCORE.norm>
-0.628175

>  <RMSD>
12.096

$$$$
ligand
 OpenBabel02271912153D
libRbt.so/2013.1/901 2013/11/27
 27 29  0  0  0  0  0  0  0  0999 V2000
   13.6965   -7.7357   16.9627 N   0  0  0  0  0  0  0  0  0  0  0  0
   12.4468   -8.2775   17.5802 C   0  0  2  0  0  0  0  0  0  0  0  0
   12.6300   -8.5056   19.0971 C   0  0  0  0  0  0  0  0  0  0  0  0
   11.7347   -9.0147   19.7783 O   0  0  0  0  0  0  0  0  0  0  0  0
   12.0347   -9.5539   16.8544 C   0  0  0  0  0  0  0  0  0  0  0  0
   11.7215   -9.3669   15.3793 C   0  0  0  0  0  0  0  0  0  0  0  0
   11.5860  -10.9325   14.4696 S   0  0  2  0  0  0  0  0  0  0  0  0
   11.6957  -10.3383   12.7577 C   0  0  0  0  0  0  0  0  0  0  0  0
    9.8639  -11.4435   14.5837 C   0  0  0  0  0  0  0  0  0  0  0  0
    9.6749  -12.2665   15.8437 C   0  0  1  0  0  0  0  0  0  0  0  0
   10.0160  -11.5481   17.0191 O   0  0  0  0  0  0  0  0  0  0  0  0
    8.2428  -12.7166   15.9995 C   0  0  1  0  0  0  0  0  0  0  0  0
    8.0051  -13.8959   15.2858 O   0  0  0  0  0  0  0  0  0  0  0  0
    8.1651  -12.9308   17.4804 C   0  0  1  0  0  0  0  0  0  0  0  0
    8.5862  -14.2477   17.7817 O   0  0  0  0  0  0  0  0  0  0  0  0
    9.1399  -11.9139   18.0601 C   0  0  2  0  0  0  0  0  0  0  0  0
   13.6728   -8.1862   19.6970 O   0  0  0  0  0  0  0  0  0  0  0  0
    5.9341   -7.8283   17.1169 N   0  0  0  0  0  0  0  0  0  0  0  0
    6.3468   -8.8094   16.2270 C   0  0  0  0  0  0  0  0  0  0  0  0
    7.2121   -9.8195   16.6299 N   0  0  0  0  0  0  0  0  0  0  0  0
    7.6373   -9.8523   17.9060 C   0  0  0  0  0  0  0  0  0  0  0  0
    7.2163   -8.8781   18.8156 C   0  0  0  0  0  0  0  0  0  0  0  0
    6.3726   -7.8553   18.4233 C   0  0  0  0  0  0  0  0  0  0  0  0
    5.9851   -6.9282   19.2863 N   0  0  0  0  0  0  0  0  0  0  0  0
    7.7693   -9.1509   20.0025 N   0  0  0  0  0  0  0  0  0  0  0  0
    8.5220  -10.2655   19.8717 C   0  0  0  0  0  0  0  0  0  0  0  0
    8.4484  -10.7181   18.5778 N   0  0  0  0  0  0  0  0  0  0  0  0
  2  1  1  6  0  0  0
  2  3  1  0  0  0  0
  2  5  1  0  0  0  0
  3  4  1  0  0  0  0
  3 17  1  0  0  0  0
  5  6  1  0  0  0  0
  7  6  1  1  0  0  0
  7  8  1  0  0  0  0
  7  9  1  0  0  0  0
 10  9  1  6  0  0  0
 10 11  1  0  0  0  0
 10 12  1  0  0  0  0
 11 16  1  0  0  0  0
 12 13  1  6  0  0  0
 12 14  1  0  0  0  0
 14 15  1  6  0  0  0
 14 16  1  0  0  0  0
 16 27  1  6  0  0  0
 18 19  2  0  0  0  0
 18 23  1  0  0  0  0
 19 20  1  0  0  0  0
 20 21  2  0  0  0  0
 21 22  1  0  0  0  0
 21 27  1  0  0  0  0
 22 23  2  0  0  0  0
 22 25  1  0  0  0  0
 23 24  1  0  0  0  0
 25 26  2  0  0  0  0
 26 27  1  0  0  0  0
M  END
>  <CHROM.1>
-176.20097846,-61.38017090,167.58063095,-164.53427831,-87.99034713,59.27380278
59.85321198,9.59052519,-10.19545209,17.15685971,-0.27543173,0.25130021,0.74579214

>  <Name>
ligand

>  <RI>
0

>  <Rbt.Current_Directory>
/home/itssahil/PROJECTS/Mol_Feturizer/Test_systems_manuscript/rnas/2ydh

>  <Rbt.Executable>
rbdock ($Id: //depot/dev/client3/rdock/2013.1/src/exe/rbdock.cxx#4 $)

>  <Rbt.Library>
libRbt.so (2013.1, Build901 2013/11/27)

>  <Rbt.Parameter_File>
/export/apps/rDock/src/rDock_2013.1_src/data/scripts/dock_solv.prm

>  <Rbt.Receptor>
prm/blind_docking_40.prm

>  <SCORE>
-14.224

>  <SCORE.INTER>
-12.9227

>  <SCORE.INTER.CONST>
1

>  <SCORE.INTER.POLAR>
0

>  <SCORE.INTER.ROT>
7

>  <SCORE.INTER.SOLV>
8.34638

>  <SCORE.INTER.VDW>
-19.664

>  <SCORE.INTER.norm>
-0.47862

>  <SCORE.INTRA>
-1.30122

>  <SCORE.INTRA.DIHEDRAL>
-3.625

>  <SCORE.INTRA.DIHEDRAL.0>
9.75037

>  <SCORE.INTRA.POLAR>
0

>  <SCORE.INTRA.POLAR.0>
0

>  <SCORE.INTRA.REPUL>
0

>  <SCORE.INTRA.REPUL.0>
0

>  <SCORE.INTRA.SOLV>
-0.580298

>  <SCORE.INTRA.SOLV.lig_0>
-48.4279

>  <SCORE.INTRA.VDW>
0.801428

>  <SCORE.INTRA.VDW.0>
-4.69037

>  <SCORE.INTRA.norm>
-0.0481933

>  <SCORE.RESTR>
0

>  <SCORE.RESTR.CAVITY>
0

>  <SCORE.RESTR.norm>
0

>  <SCORE.SYSTEM>
0

>  <SCORE.SYSTEM.CONST>
0

>  <SCORE.SYSTEM.DIHEDRAL>
0

>  <SCORE.SYSTEM.SOLV>
0

>  <SCORE.SYSTEM.norm>
0

>  <SCORE.heavy>
27

>  <SCORE.norm>
-0.526814

>  <RMSD>
12.139

$$$$
ligand
 OpenBabel02271912153D
libRbt.so/2013.1/901 2013/11/27
 27 29  0  0  0  0  0  0  0  0999 V2000
   11.0904   -8.1115   22.3016 N   0  0  0  0  0  0  0  0  0  0  0  0
   12.2842   -7.9740   21.4113 C   0  0  2  0  0  0  0  0  0  0  0  0
   12.8712   -6.5469   21.4851 C   0  0  0  0  0  0  0  0  0  0  0  0
   12.1559   -5.5759   21.7499 O   0  0  0  0  0  0  0  0  0  0  0  0
   11.9025   -8.3636   19.9872 C   0  0  0  0  0  0  0  0  0  0  0  0
   13.0799   -8.5190   19.0393 C   0  0  0  0  0  0  0  0  0  0  0  0
   12.5859   -8.9324   17.3416 S   0  0  2  0  0  0  0  0  0  0  0  0
   14.2106   -9.1201   16.5538 C   0  0  0  0  0  0  0  0  0  0  0  0
   11.9788   -7.4089   16.5998 C   0  0  0  0  0  0  0  0  0  0  0  0
   10.6462   -7.6825   15.9290 C   0  0  1  0  0  0  0  0  0  0  0  0
   10.5370   -9.0175   15.4599 O   0  0  0  0  0  0  0  0  0  0  0  0
    9.4937   -7.4499   16.8754 C   0  0  1  0  0  0  0  0  0  0  0  0
    9.1207   -6.1019   16.8930 O   0  0  0  0  0  0  0  0  0  0  0  0
    8.4361   -8.3174   16.2638 C   0  0  1  0  0  0  0  0  0  0  0  0
    7.7428   -7.5779   15.2765 O   0  0  0  0  0  0  0  0  0  0  0  0
    9.2107   -9.4631   15.6255 C   0  0  2  0  0  0  0  0  0  0  0  0
   14.0758   -6.3111   21.2784 O   0  0  0  0  0  0  0  0  0  0  0  0
    7.5602  -14.4348   16.2711 N   0  0  0  0  0  0  0  0  0  0  0  0
    7.3102  -13.5872   15.2017 C   0  0  0  0  0  0  0  0  0  0  0  0
    7.8088  -12.2900   15.1878 N   0  0  0  0  0  0  0  0  0  0  0  0
    8.5592  -11.8620   16.2193 C   0  0  0  0  0  0  0  0  0  0  0  0
    8.8306  -12.7118   17.2954 C   0  0  0  0  0  0  0  0  0  0  0  0
    8.3233  -13.9976   17.3323 C   0  0  0  0  0  0  0  0  0  0  0  0
    8.5743  -14.7955   18.3594 N   0  0  0  0  0  0  0  0  0  0  0  0
    9.6001  -12.0484   18.1653 N   0  0  0  0  0  0  0  0  0  0  0  0
    9.8247  -10.8105   17.6720 C   0  0  0  0  0  0  0  0  0  0  0  0
    9.1901  -10.6780   16.4619 N   0  0  0  0  0  0  0  0  0  0  0  0
  2  1  1  1  0  0  0
  2  3  1  0  0  0  0
  2  5  1  0  0  0  0
  3  4  1  0  0  0  0
  3 17  1  0  0  0  0
  5  6  1  0  0  0  0
  7  6  1  1  0  0  0
  7  8  1  0  0  0  0
  7  9  1  0  0  0  0
 10  9  1  1  0  0  0
 10 11  1  0  0  0  0
 10 12  1  0  0  0  0
 11 16  1  0  0  0  0
 12 13  1  6  0  0  0
 12 14  1  0  0  0  0
 14 15  1  6  0  0  0
 14 16  1  0  0  0  0
 16 27  1  1  0  0  0
 18 19  2  0  0  0  0
 18 23  1  0  0  0  0
 19 20  1  0  0  0  0
 20 21  2  0  0  0  0
 21 22  1  0  0  0  0
 21 27  1  0  0  0  0
 22 23  2  0  0  0  0
 22 25  1  0  0  0  0
 23 24  1  0  0  0  0
 25 26  2  0  0  0  0
 26 27  1  0  0  0  0
M  END
>  <CHROM.1>
-28.26385398,-169.05395762,-178.20844052,-177.11730638,-131.52741406,-29.63326383
-130.44066984,10.42257920,-9.47376951,17.71480764,-0.32311541,0.96855335
2.56265211

>  <Name>
ligand

>  <RI>
0

>  <Rbt.Current_Directory>
/home/itssahil/PROJECTS/Mol_Feturizer/Test_systems_manuscript/rnas/2ydh

>  <Rbt.Executable>
rbdock ($Id: //depot/dev/client3/rdock/2013.1/src/exe/rbdock.cxx#4 $)

>  <Rbt.Library>
libRbt.so (2013.1, Build901 2013/11/27)

>  <Rbt.Parameter_File>
/export/apps/rDock/src/rDock_2013.1_src/data/scripts/dock_solv.prm

>  <Rbt.Receptor>
prm/blind_docking_100.prm

>  <SCORE>
-14.4842

>  <SCORE.INTER>
-15.5951

>  <SCORE.INTER.CONST>
1

>  <SCORE.INTER.POLAR>
0

>  <SCORE.INTER.ROT>
7

>  <SCORE.INTER.SOLV>
14.0912

>  <SCORE.INTER.VDW>
-23.3605

>  <SCORE.INTER.norm>
-0.577596

>  <SCORE.INTRA>
1.1109

>  <SCORE.INTRA.DIHEDRAL>
1.06879

>  <SCORE.INTRA.DIHEDRAL.0>
9.75037

>  <SCORE.INTRA.POLAR>
0

>  <SCORE.INTRA.POLAR.0>
0

>  <SCORE.INTRA.REPUL>
0

>  <SCORE.INTRA.REPUL.0>
0

>  <SCORE.INTRA.SOLV>
-1.36104

>  <SCORE.INTRA.SOLV.lig_0>
-48.4279

>  <SCORE.INTRA.VDW>
1.25703

>  <SCORE.INTRA.VDW.0>
-4.69037

>  <SCORE.INTRA.norm>
0.0411445

>  <SCORE.RESTR>
0

>  <SCORE.RESTR.CAVITY>
0

>  <SCORE.RESTR.norm>
0

>  <SCORE.SYSTEM>
0

>  <SCORE.SYSTEM.CONST>
0

>  <SCORE.SYSTEM.DIHEDRAL>
0

>  <SCORE.SYSTEM.SOLV>
0

>  <SCORE.SYSTEM.norm>
0

>  <SCORE.heavy>
27

>  <SCORE.norm>
-0.536452

>  <RMSD>
12.327

$$$$
ligand
 OpenBabel02271912153D
libRbt.so/2013.1/901 2013/11/27
 27 29  0  0  0  0  0  0  0  0999 V2000
   10.6617   -5.9605   22.2775 N   0  0  0  0  0  0  0  0  0  0  0  0
   11.4842   -7.1934   22.4780 C   0  0  2  0  0  0  0  0  0  0  0  0
   10.9629   -8.0208   23.6740 C   0  0  0  0  0  0  0  0  0  0  0  0
   11.6253   -8.9515   24.1427 O   0  0  0  0  0  0  0  0  0  0  0  0
   12.9491   -6.8041   22.6457 C   0  0  0  0  0  0  0  0  0  0  0  0
   13.6553   -6.4359   21.3516 C   0  0  0  0  0  0  0  0  0  0  0  0
   13.7407   -7.8073   20.1645 S   0  0  2  0  0  0  0  0  0  0  0  0
   15.4748   -7.6917   19.6399 C   0  0  0  0  0  0  0  0  0  0  0  0
   12.8619   -7.2640   18.6906 C   0  0  0  0  0  0  0  0  0  0  0  0
   12.9797   -8.3342   17.6222 C   0  0  1  0  0  0  0  0  0  0  0  0
   12.3511   -9.5498   17.9980 O   0  0  0  0  0  0  0  0  0  0  0  0
   12.3477   -7.8913   16.3251 C   0  0  1  0  0  0  0  0  0  0  0  0
   13.2438   -7.1375   15.5600 O   0  0  0  0  0  0  0  0  0  0  0  0
   12.0371   -9.2113   15.6878 C   0  0  1  0  0  0  0  0  0  0  0  0
   13.1668   -9.6521   14.9587 O   0  0  0  0  0  0  0  0  0  0  0  0
   11.7644  -10.1422   16.8623 C   0  0  2  0  0  0  0  0  0  0  0  0
    9.8628   -7.7948   24.2106 O   0  0  0  0  0  0  0  0  0  0  0  0
    7.2693  -12.4728   15.3720 N   0  0  0  0  0  0  0  0  0  0  0  0
    8.5267  -12.6054   14.8009 C   0  0  0  0  0  0  0  0  0  0  0  0
    9.6168  -11.9070   15.3062 N   0  0  0  0  0  0  0  0  0  0  0  0
    9.4487  -11.1075   16.3752 C   0  0  0  0  0  0  0  0  0  0  0  0
    8.1898  -10.9776   16.9685 C   0  0  0  0  0  0  0  0  0  0  0  0
    7.0921  -11.6498   16.4633 C   0  0  0  0  0  0  0  0  0  0  0  0
    5.8989  -11.5149   17.0224 N   0  0  0  0  0  0  0  0  0  0  0  0
    8.3042  -10.1438   18.0081 N   0  0  0  0  0  0  0  0  0  0  0  0
    9.5932   -9.7467   18.0911 C   0  0  0  0  0  0  0  0  0  0  0  0
   10.3200  -10.3386   17.0882 N   0  0  0  0  0  0  0  0  0  0  0  0
  2  1  1  1  0  0  0
  2  3  1  0  0  0  0
  2  5  1  0  0  0  0
  3  4  1  0  0  0  0
  3 17  1  0  0  0  0
  5  6  1  0  0  0  0
  7  6  1  1  0  0  0
  7  8  1  0  0  0  0
  7  9  1  0  0  0  0
 10  9  1  1  0  0  0
 10 11  1  0  0  0  0
 10 12  1  0  0  0  0
 11 16  1  0  0  0  0
 12 13  1  6  0  0  0
 12 14  1  0  0  0  0
 14 15  1  1  0  0  0
 14 16  1  0  0  0  0
 16 27  1  1  0  0  0
 18 19  2  0  0  0  0
 18 23  1  0  0  0  0
 19 20  1  0  0  0  0
 20 21  2  0  0  0  0
 21 22  1  0  0  0  0
 21 27  1  0  0  0  0
 22 23  2  0  0  0  0
 22 25  1  0  0  0  0
 23 24  1  0  0  0  0
 25 26  2  0  0  0  0
 26 27  1  0  0  0  0
M  END
>  <CHROM.1>
-167.98708471,-76.78133824,-62.68021018,-134.45442876,176.16091564,63.90128089
-165.46116474,11.15739456,-9.07564761,18.64546459,1.04824703,0.47365623,1.26293746

>  <Name>
ligand

>  <RI>
0

>  <Rbt.Current_Directory>
/home/itssahil/PROJECTS/Mol_Feturizer/Test_systems_manuscript/rnas/2ydh

>  <Rbt.Executable>
rbdock ($Id: //depot/dev/client3/rdock/2013.1/src/exe/rbdock.cxx#4 $)

>  <Rbt.Library>
libRbt.so (2013.1, Build901 2013/11/27)

>  <Rbt.Parameter_File>
/export/apps/rDock/src/rDock_2013.1_src/data/scripts/dock_solv.prm

>  <Rbt.Receptor>
prm/blind_docking_60.prm

>  <SCORE>
-12.3339

>  <SCORE.INTER>
-13.5725

>  <SCORE.INTER.CONST>
1

>  <SCORE.INTER.POLAR>
0

>  <SCORE.INTER.ROT>
7

>  <SCORE.INTER.SOLV>
13.2983

>  <SCORE.INTER.VDW>
-21.7478

>  <SCORE.INTER.norm>
-0.502685

>  <SCORE.INTRA>
1.23859

>  <SCORE.INTRA.DIHEDRAL>
-1.2399

>  <SCORE.INTRA.DIHEDRAL.0>
9.75037

>  <SCORE.INTRA.POLAR>
0

>  <SCORE.INTRA.POLAR.0>
0

>  <SCORE.INTRA.REPUL>
0

>  <SCORE.INTRA.REPUL.0>
0

>  <SCORE.INTRA.SOLV>
-0.39115

>  <SCORE.INTRA.SOLV.lig_0>
-48.4279

>  <SCORE.INTRA.VDW>
2.05411

>  <SCORE.INTRA.VDW.0>
-4.69037

>  <SCORE.INTRA.norm>
0.0458736

>  <SCORE.RESTR>
0

>  <SCORE.RESTR.CAVITY>
0

>  <SCORE.RESTR.norm>
0

>  <SCORE.SYSTEM>
0

>  <SCORE.SYSTEM.CONST>
0

>  <SCORE.SYSTEM.DIHEDRAL>
0

>  <SCORE.SYSTEM.SOLV>
0

>  <SCORE.SYSTEM.norm>
0

>  <SCORE.heavy>
27

>  <SCORE.norm>
-0.456812

>  <RMSD>
12.414

$$$$
ligand
 OpenBabel02271912153D
libRbt.so/2013.1/901 2013/11/27
 27 29  0  0  0  0  0  0  0  0999 V2000
    8.6130   -3.6001   23.4895 N   0  0  0  0  0  0  0  0  0  0  0  0
    8.0344   -4.8315   22.8684 C   0  0  2  0  0  0  0  0  0  0  0  0
    6.7645   -5.2890   23.6199 C   0  0  0  0  0  0  0  0  0  0  0  0
    5.6952   -5.4526   23.0245 O   0  0  0  0  0  0  0  0  0  0  0  0
    9.0976   -5.9238   22.8223 C   0  0  0  0  0  0  0  0  0  0  0  0
   10.3140   -5.5838   21.9773 C   0  0  0  0  0  0  0  0  0  0  0  0
   11.5086   -6.9460   21.8569 S   0  0  2  0  0  0  0  0  0  0  0  0
   12.2621   -6.8806   23.5072 C   0  0  0  0  0  0  0  0  0  0  0  0
   12.8475   -6.3613   20.8055 C   0  0  0  0  0  0  0  0  0  0  0  0
   13.8274   -7.4961   20.5760 C   0  0  1  0  0  0  0  0  0  0  0  0
   13.2494   -8.5782   19.8624 O   0  0  0  0  0  0  0  0  0  0  0  0
   15.0291   -7.0367   19.7869 C   0  0  1  0  0  0  0  0  0  0  0  0
   15.9967   -6.4733   20.6254 O   0  0  0  0  0  0  0  0  0  0  0  0
   15.4916   -8.3280   19.1839 C   0  0  1  0  0  0  0  0  0  0  0  0
   16.3644   -8.9768   20.0891 O   0  0  0  0  0  0  0  0  0  0  0  0
   14.2144   -9.1379   19.0019 C   0  0  2  0  0  0  0  0  0  0  0  0
    6.7582   -5.5060   24.8456 O   0  0  0  0  0  0  0  0  0  0  0  0
   15.3227   -9.5023   13.8543 N   0  0  0  0  0  0  0  0  0  0  0  0
   16.1969   -9.6284   14.9241 C   0  0  0  0  0  0  0  0  0  0  0  0
   15.7482   -9.4905   16.2321 N   0  0  0  0  0  0  0  0  0  0  0  0
   14.4440   -9.2501   16.4589 C   0  0  0  0  0  0  0  0  0  0  0  0
   13.5508   -9.1361   15.3899 C   0  0  0  0  0  0  0  0  0  0  0  0
   13.9871   -9.2498   14.0828 C   0  0  0  0  0  0  0  0  0  0  0  0
   13.1386   -9.1301   13.0726 N   0  0  0  0  0  0  0  0  0  0  0  0
   12.3302   -8.9137   15.8898 N   0  0  0  0  0  0  0  0  0  0  0  0
   12.4243   -8.8868   17.2376 C   0  0  0  0  0  0  0  0  0  0  0  0
   13.7285   -9.0986   17.6096 N   0  0  0  0  0  0  0  0  0  0  0  0
  2  1  1  1  0  0  0
  2  3  1  0  0  0  0
  2  5  1  0  0  0  0
  3  4  1  0  0  0  0
  3 17  1  0  0  0  0
  5  6  1  0  0  0  0
  7  6  1  1  0  0  0
  7  8  1  0  0  0  0
  7  9  1  0  0  0  0
 10  9  1  6  0  0  0
 10 11  1  0  0  0  0
 10 12  1  0  0  0  0
 11 16  1  0  0  0  0
 12 13  1  1  0  0  0
 12 14  1  0  0  0  0
 14 15  1  1  0  0  0
 14 16  1  0  0  0  0
 16 27  1  6  0  0  0
 18 19  2  0  0  0  0
 18 23  1  0  0  0  0
 19 20  1  0  0  0  0
 20 21  2  0  0  0  0
 21 22  1  0  0  0  0
 21 27  1  0  0  0  0
 22 23  2  0  0  0  0
 22 25  1  0  0  0  0
 23 24  1  0  0  0  0
 25 26  2  0  0  0  0
 26 27  1  0  0  0  0
M  END
>  <CHROM.1>
125.02215097,-62.15331785,-176.25673306,-74.66601743,-175.54855812,64.06419356
163.76390657,12.38802440,-7.50694418,19.60748965,2.24337466,-0.18853703,1.25168193

>  <Name>
ligand

>  <RI>
0

>  <Rbt.Current_Directory>
/home/itssahil/PROJECTS/Mol_Feturizer/Test_systems_manuscript/rnas/2ydh

>  <Rbt.Executable>
rbdock ($Id: //depot/dev/client3/rdock/2013.1/src/exe/rbdock.cxx#4 $)

>  <Rbt.Library>
libRbt.so (2013.1, Build901 2013/11/27)

>  <Rbt.Parameter_File>
/export/apps/rDock/src/rDock_2013.1_src/data/scripts/dock_solv.prm

>  <Rbt.Receptor>
prm/blind_docking_40.prm

>  <SCORE>
-13.9295

>  <SCORE.INTER>
-12.9044

>  <SCORE.INTER.CONST>
1

>  <SCORE.INTER.POLAR>
0

>  <SCORE.INTER.ROT>
7

>  <SCORE.INTER.SOLV>
11.5982

>  <SCORE.INTER.VDW>
-20.7356

>  <SCORE.INTER.norm>
-0.47794

>  <SCORE.INTRA>
-1.02517

>  <SCORE.INTRA.DIHEDRAL>
-5.99442

>  <SCORE.INTRA.DIHEDRAL.0>
9.75037

>  <SCORE.INTRA.POLAR>
0

>  <SCORE.INTRA.POLAR.0>
0

>  <SCORE.INTRA.REPUL>
0

>  <SCORE.INTRA.REPUL.0>
0

>  <SCORE.INTRA.SOLV>
-0.910604

>  <SCORE.INTRA.SOLV.lig_0>
-48.4279

>  <SCORE.INTRA.VDW>
2.42734

>  <SCORE.INTRA.VDW.0>
-4.69037

>  <SCORE.INTRA.norm>
-0.0379694

>  <SCORE.RESTR>
0

>  <SCORE.RESTR.CAVITY>
0

>  <SCORE.RESTR.norm>
0

>  <SCORE.SYSTEM>
0

>  <SCORE.SYSTEM.CONST>
0

>  <SCORE.SYSTEM.DIHEDRAL>
0

>  <SCORE.SYSTEM.SOLV>
0

>  <SCORE.SYSTEM.norm>
0

>  <SCORE.heavy>
27

>  <SCORE.norm>
-0.515909

>  <RMSD>
12.469

$$$$
ligand
 OpenBabel02271912153D
libRbt.so/2013.1/901 2013/11/27
 27 29  0  0  0  0  0  0  0  0999 V2000
    6.4976   -4.9424   21.9789 N   0  0  0  0  0  0  0  0  0  0  0  0
    7.6644   -4.6694   22.8736 C   0  0  2  0  0  0  0  0  0  0  0  0
    8.1854   -3.2275   22.6834 C   0  0  0  0  0  0  0  0  0  0  0  0
    9.1375   -2.9868   21.9350 O   0  0  0  0  0  0  0  0  0  0  0  0
    8.7511   -5.7092   22.6215 C   0  0  0  0  0  0  0  0  0  0  0  0
    8.3351   -7.1402   22.9186 C   0  0  0  0  0  0  0  0  0  0  0  0
    9.5620   -8.3696   22.3892 S   0  0  2  0  0  0  0  0  0  0  0  0
   10.9945   -7.8667   23.3844 C   0  0  0  0  0  0  0  0  0  0  0  0
   10.0718   -7.9015   20.7276 C   0  0  0  0  0  0  0  0  0  0  0  0
   11.2985   -8.7059   20.3418 C   0  0  1  0  0  0  0  0  0  0  0  0
   11.0881   -9.4966   19.1822 O   0  0  0  0  0  0  0  0  0  0  0  0
   12.4796   -7.8100   20.0587 C   0  0  1  0  0  0  0  0  0  0  0  0
   13.1586   -7.4844   21.2375 O   0  0  0  0  0  0  0  0  0  0  0  0
   13.3000   -8.6857   19.1615 C   0  0  1  0  0  0  0  0  0  0  0  0
   14.1409   -9.5033   19.9531 O   0  0  0  0  0  0  0  0  0  0  0  0
   12.2738   -9.5347   18.4221 C   0  0  2  0  0  0  0  0  0  0  0  0
    7.6800   -2.2541   23.2721 O   0  0  0  0  0  0  0  0  0  0  0  0
   10.6709  -10.5367   13.4941 N   0  0  0  0  0  0  0  0  0  0  0  0
   10.7517  -11.4218   14.5593 C   0  0  0  0  0  0  0  0  0  0  0  0
   11.2116  -11.0025   15.8019 N   0  0  0  0  0  0  0  0  0  0  0  0
   11.5640   -9.7154   15.9736 C   0  0  0  0  0  0  0  0  0  0  0  0
   11.4726   -8.8108   14.9121 C   0  0  0  0  0  0  0  0  0  0  0  0
   11.0370   -9.2189   13.6648 C   0  0  0  0  0  0  0  0  0  0  0  0
   10.9624   -8.3602   12.6589 N   0  0  0  0  0  0  0  0  0  0  0  0
   11.8665   -7.6110   15.3530 N   0  0  0  0  0  0  0  0  0  0  0  0
   12.2001   -7.7291   16.6572 C   0  0  0  0  0  0  0  0  0  0  0  0
   12.0142   -9.0278   17.0614 N   0  0  0  0  0  0  0  0  0  0  0  0
  2  1  1  6  0  0  0
  2  3  1  0  0  0  0
  2  5  1  0  0  0  0
  3  4  1  0  0  0  0
  3 17  1  0  0  0  0
  5  6  1  0  0  0  0
  7  6  1  1  0  0  0
  7  8  1  0  0  0  0
  7  9  1  0  0  0  0
 10  9  1  6  0  0  0
 10 11  1  0  0  0  0
 10 12  1  0  0  0  0
 11 16  1  0  0  0  0
 12 13  1  1  0  0  0
 12 14  1  0  0  0  0
 14 15  1  1  0  0  0
 14 16  1  0  0  0  0
 16 27  1  6  0  0  0
 18 19  2  0  0  0  0
 18 23  1  0  0  0  0
 19 20  1  0  0  0  0
 20 21  2  0  0  0  0
 21 22  1  0  0  0  0
 21 27  1  0  0  0  0
 22 23  2  0  0  0  0
 22 25  1  0  0  0  0
 23 24  1  0  0  0  0
 25 26  2  0  0  0  0
 26 27  1  0  0  0  0
M  END
>  <CHROM.1>
-96.37327296,-61.73251043,171.84944887,60.58429479,168.13567418,120.44035240
-86.49555678,10.62350930,-7.73971955,19.29740719,2.05987381,-0.83166230,1.40350670

>  <Name>
ligand

>  <RI>
0

>  <Rbt.Current_Directory>
/home/itssahil/PROJECTS/Mol_Feturizer/Test_systems_manuscript/rnas/2ydh

>  <Rbt.Executable>
rbdock ($Id: //depot/dev/client3/rdock/2013.1/src/exe/rbdock.cxx#4 $)

>  <Rbt.Library>
libRbt.so (2013.1, Build901 2013/11/27)

>  <Rbt.Parameter_File>
/export/apps/rDock/src/rDock_2013.1_src/data/scripts/dock_solv.prm

>  <Rbt.Receptor>
prm/blind_docking_60.prm

>  <SCORE>
-6.96045

>  <SCORE.INTER>
-9.97215

>  <SCORE.INTER.CONST>
1

>  <SCORE.INTER.POLAR>
0

>  <SCORE.INTER.ROT>
7

>  <SCORE.INTER.SOLV>
9.63224

>  <SCORE.INTER.VDW>
-18.1255

>  <SCORE.INTER.norm>
-0.369339

>  <SCORE.INTRA>
3.0117

>  <SCORE.INTRA.DIHEDRAL>
-0.945142

>  <SCORE.INTRA.DIHEDRAL.0>
9.75037

>  <SCORE.INTRA.POLAR>
0

>  <SCORE.INTRA.POLAR.0>
0

>  <SCORE.INTRA.REPUL>
0

>  <SCORE.INTRA.REPUL.0>
0

>  <SCORE.INTRA.SOLV>
-0.674056

>  <SCORE.INTRA.SOLV.lig_0>
-48.4279

>  <SCORE.INTRA.VDW>
3.8213

>  <SCORE.INTRA.VDW.0>
-4.69037

>  <SCORE.INTRA.norm>
0.111544

>  <SCORE.RESTR>
0

>  <SCORE.RESTR.CAVITY>
0

>  <SCORE.RESTR.norm>
0

>  <SCORE.SYSTEM>
0

>  <SCORE.SYSTEM.CONST>
0

>  <SCORE.SYSTEM.DIHEDRAL>
0

>  <SCORE.SYSTEM.SOLV>
0

>  <SCORE.SYSTEM.norm>
0

>  <SCORE.heavy>
27

>  <SCORE.norm>
-0.257794

>  <RMSD>
12.484

$$$$
ligand
 OpenBabel02271912153D
libRbt.so/2013.1/901 2013/11/27
 27 29  0  0  0  0  0  0  0  0999 V2000
    4.1589   -4.7489   20.0619 N   0  0  0  0  0  0  0  0  0  0  0  0
    5.2762   -5.3467   20.8560 C   0  0  2  0  0  0  0  0  0  0  0  0
    5.5305   -4.5426   22.1504 C   0  0  0  0  0  0  0  0  0  0  0  0
    5.8067   -3.3398   22.1101 O   0  0  0  0  0  0  0  0  0  0  0  0
    6.5244   -5.4400   19.9848 C   0  0  0  0  0  0  0  0  0  0  0  0
    7.7058   -6.1281   20.6480 C   0  0  0  0  0  0  0  0  0  0  0  0
    7.3030   -7.7717   21.3063 S   0  0  2  0  0  0  0  0  0  0  0  0
    8.6541   -7.9983   22.4974 C   0  0  0  0  0  0  0  0  0  0  0  0
    7.7290   -8.9567   20.0201 C   0  0  0  0  0  0  0  0  0  0  0  0
    7.0618   -8.5399   18.7233 C   0  0  1  0  0  0  0  0  0  0  0  0
    7.8020   -7.5518   18.0235 O   0  0  0  0  0  0  0  0  0  0  0  0
    6.8928   -9.7121   17.7877 C   0  0  1  0  0  0  0  0  0  0  0  0
    5.7207  -10.4198   18.0737 O   0  0  0  0  0  0  0  0  0  0  0  0
    6.8205   -9.0176   16.4620 C   0  0  1  0  0  0  0  0  0  0  0  0
    5.4789   -8.6492   16.2036 O   0  0  0  0  0  0  0  0  0  0  0  0
    7.6889   -7.7785   16.6376 C   0  0  2  0  0  0  0  0  0  0  0  0
    5.4751   -5.0637   23.2794 O   0  0  0  0  0  0  0  0  0  0  0  0
   11.0093  -10.8161   13.8795 N   0  0  0  0  0  0  0  0  0  0  0  0
    9.6947  -11.0904   14.2276 C   0  0  0  0  0  0  0  0  0  0  0  0
    8.9512  -10.1854   14.9756 N   0  0  0  0  0  0  0  0  0  0  0  0
    9.5127   -9.0210   15.3485 C   0  0  0  0  0  0  0  0  0  0  0  0
   10.8315   -8.7267   14.9908 C   0  0  0  0  0  0  0  0  0  0  0  0
   11.5898   -9.6269   14.2651 C   0  0  0  0  0  0  0  0  0  0  0  0
   12.8427   -9.3482   13.9379 N   0  0  0  0  0  0  0  0  0  0  0  0
   11.1320   -7.5150   15.4709 N   0  0  0  0  0  0  0  0  0  0  0  0
   10.0461   -7.0352   16.1163 C   0  0  0  0  0  0  0  0  0  0  0  0
    9.0290   -7.9545   16.0467 N   0  0  0  0  0  0  0  0  0  0  0  0
  2  1  1  6  0  0  0
  2  3  1  0  0  0  0
  2  5  1  0  0  0  0
  3  4  1  0  0  0  0
  3 17  1  0  0  0  0
  5  6  1  0  0  0  0
  7  6  1  6  0  0  0
  7  8  1  0  0  0  0
  7  9  1  0  0  0  0
 10  9  1  1  0  0  0
 10 11  1  0  0  0  0
 10 12  1  0  0  0  0
 11 16  1  0  0  0  0
 12 13  1  1  0  0  0
 12 14  1  0  0  0  0
 14 15  1  1  0  0  0
 14 16  1  0  0  0  0
 16 27  1  1  0  0  0
 18 19  2  0  0  0  0
 18 23  1  0  0  0  0
 19 20  1  0  0  0  0
 20 21  2  0  0  0  0
 21 22  1  0  0  0  0
 21 27  1  0  0  0  0
 22 23  2  0  0  0  0
 22 25  1  0  0  0  0
 23 24  1  0  0  0  0
 25 26  2  0  0  0  0
 26 27  1  0  0  0  0
M  END
>  <CHROM.1>
-57.81890584,-175.69598844,53.47697778,-160.00774847,-52.33682676,82.92176484
121.93318476,7.89819147,-7.82055520,18.19018475,2.11057357,0.36074469,0.84031513

>  <Name>
ligand

>  <RI>
0

>  <Rbt.Current_Directory>
/home/itssahil/PROJECTS/Mol_Feturizer/Test_systems_manuscript/rnas/2ydh

>  <Rbt.Executable>
rbdock ($Id: //depot/dev/client3/rdock/2013.1/src/exe/rbdock.cxx#4 $)

>  <Rbt.Library>
libRbt.so (2013.1, Build901 2013/11/27)

>  <Rbt.Parameter_File>
/export/apps/rDock/src/rDock_2013.1_src/data/scripts/dock_solv.prm

>  <Rbt.Receptor>
prm/blind_docking_40.prm

>  <SCORE>
-8.55764

>  <SCORE.INTER>
-8.65051

>  <SCORE.INTER.CONST>
1

>  <SCORE.INTER.POLAR>
0

>  <SCORE.INTER.ROT>
7

>  <SCORE.INTER.SOLV>
5.27858

>  <SCORE.INTER.VDW>
-15.7932

>  <SCORE.INTER.norm>
-0.320389

>  <SCORE.INTRA>
0.092878

>  <SCORE.INTRA.DIHEDRAL>
-2.29541

>  <SCORE.INTRA.DIHEDRAL.0>
9.75037

>  <SCORE.INTRA.POLAR>
0

>  <SCORE.INTRA.POLAR.0>
0

>  <SCORE.INTRA.REPUL>
0

>  <SCORE.INTRA.REPUL.0>
0

>  <SCORE.INTRA.SOLV>
-1.20127

>  <SCORE.INTRA.SOLV.lig_0>
-48.4279

>  <SCORE.INTRA.VDW>
1.84122

>  <SCORE.INTRA.VDW.0>
-4.69037

>  <SCORE.INTRA.norm>
0.00343993

>  <SCORE.RESTR>
0

>  <SCORE.RESTR.CAVITY>
0

>  <SCORE.RESTR.norm>
0

>  <SCORE.SYSTEM>
0

>  <SCORE.SYSTEM.CONST>
0

>  <SCORE.SYSTEM.DIHEDRAL>
0

>  <SCORE.SYSTEM.SOLV>
0

>  <SCORE.SYSTEM.norm>
0

>  <SCORE.heavy>
27

>  <SCORE.norm>
-0.316949

>  <RMSD>
12.517

$$$$
ligand
 OpenBabel02271912153D
libRbt.so/2013.1/901 2013/11/27
 27 29  0  0  0  0  0  0  0  0999 V2000
   10.7639  -10.8740   16.5088 N   0  0  0  0  0  0  0  0  0  0  0  0
    9.4399  -11.4510   16.8972 C   0  0  2  0  0  0  0  0  0  0  0  0
    8.3217  -10.9639   15.9491 C   0  0  0  0  0  0  0  0  0  0  0  0
    8.5742  -10.2292   14.9893 O   0  0  0  0  0  0  0  0  0  0  0  0
    9.1454  -11.1093   18.3539 C   0  0  0  0  0  0  0  0  0  0  0  0
    9.3954   -9.6567   18.7234 C   0  0  0  0  0  0  0  0  0  0  0  0
    8.6227   -9.1714   20.2932 S   0  0  2  0  0  0  0  0  0  0  0  0
    6.9337   -8.8040   19.7383 C   0  0  0  0  0  0  0  0  0  0  0  0
    9.2556   -7.5339   20.6907 C   0  0  0  0  0  0  0  0  0  0  0  0
   10.5653   -7.6791   21.4418 C   0  0  1  0  0  0  0  0  0  0  0  0
   11.4946   -8.5074   20.7603 O   0  0  0  0  0  0  0  0  0  0  0  0
   11.2334   -6.3419   21.6501 C   0  0  1  0  0  0  0  0  0  0  0  0
   10.7380   -5.7039   22.7921 O   0  0  0  0  0  0  0  0  0  0  0  0
   12.6645   -6.7546   21.8134 C   0  0  1  0  0  0  0  0  0  0  0  0
   12.9072   -7.0603   23.1735 O   0  0  0  0  0  0  0  0  0  0  0  0
   12.7967   -8.0055   20.9543 C   0  0  2  0  0  0  0  0  0  0  0  0
    7.1286  -11.2805   16.1091 O   0  0  0  0  0  0  0  0  0  0  0  0
   12.2031   -7.2535   15.7638 N   0  0  0  0  0  0  0  0  0  0  0  0
   11.2180   -7.5221   16.7030 C   0  0  0  0  0  0  0  0  0  0  0  0
   11.5409   -7.7103   18.0416 N   0  0  0  0  0  0  0  0  0  0  0  0
   12.8254   -7.6109   18.4294 C   0  0  0  0  0  0  0  0  0  0  0  0
   13.8249   -7.3257   17.4949 C   0  0  0  0  0  0  0  0  0  0  0  0
   13.5208   -7.1573   16.1566 C   0  0  0  0  0  0  0  0  0  0  0  0
   14.4730   -6.8979   15.2730 N   0  0  0  0  0  0  0  0  0  0  0  0
   14.9946   -7.2700   18.1412 N   0  0  0  0  0  0  0  0  0  0  0  0
   14.7650   -7.5076   19.4515 C   0  0  0  0  0  0  0  0  0  0  0  0
   13.4229   -7.7168   19.6502 N   0  0  0  0  0  0  0  0  0  0  0  0
  2  1  1  6  0  0  0
  2  3  1  0  0  0  0
  2  5  1  0  0  0  0
  3  4  1  0  0  0  0
  3 17  1  0  0  0  0
  5  6  1  0  0  0  0
  7  6  1  6  0  0  0
  7  8  1  0  0  0  0
  7  9  1  0  0  0  0
 10  9  1  6  0  0  0
 10 11  1  0  0  0  0
 10 12  1  0  0  0  0
 11 16  1  0  0  0  0
 12 13  1  1  0  0  0
 12 14  1  0  0  0  0
 14 15  1  1  0  0  0
 14 16  1  0  0  0  0
 16 27  1  6  0  0  0
 18 19  2  0  0  0  0
 18 23  1  0  0  0  0
 19 20  1  0  0  0  0
 20 21  2  0  0  0  0
 21 22  1  0  0  0  0
 21 27  1  0  0  0  0
 22 23  2  0  0  0  0
 22 25  1  0  0  0  0
 23 24  1  0  0  0  0
 25 26  2  0  0  0  0
 26 27  1  0  0  0  0
M  END
>  <CHROM.1>
2.19559561,46.63219091,164.13569476,-83.16251077,-86.35499387,52.48369518
15.04185482,11.01723021,-8.39613164,18.85357385,-2.33630734,0.45720848,1.25045659

>  <Name>
ligand

>  <RI>
0

>  <Rbt.Current_Directory>
/home/itssahil/PROJECTS/Mol_Feturizer/Test_systems_manuscript/rnas/2ydh

>  <Rbt.Executable>
rbdock ($Id: //depot/dev/client3/rdock/2013.1/src/exe/rbdock.cxx#4 $)

>  <Rbt.Library>
libRbt.so (2013.1, Build901 2013/11/27)

>  <Rbt.Parameter_File>
/export/apps/rDock/src/rDock_2013.1_src/data/scripts/dock_solv.prm

>  <Rbt.Receptor>
prm/blind_docking_100.prm

>  <SCORE>
-12.4395

>  <SCORE.INTER>
-11.7678

>  <SCORE.INTER.CONST>
1

>  <SCORE.INTER.POLAR>
0

>  <SCORE.INTER.ROT>
7

>  <SCORE.INTER.SOLV>
17.4202

>  <SCORE.INTER.VDW>
-21.9186

>  <SCORE.INTER.norm>
-0.435845

>  <SCORE.INTRA>
-0.673836

>  <SCORE.INTRA.DIHEDRAL>
-3.14878

>  <SCORE.INTRA.DIHEDRAL.0>
9.75037

>  <SCORE.INTRA.POLAR>
0

>  <SCORE.INTRA.POLAR.0>
0

>  <SCORE.INTRA.REPUL>
0

>  <SCORE.INTRA.REPUL.0>
0

>  <SCORE.INTRA.SOLV>
0.00437511

>  <SCORE.INTRA.SOLV.lig_0>
-48.4279

>  <SCORE.INTRA.VDW>
0.898365

>  <SCORE.INTRA.VDW.0>
-4.69037

>  <SCORE.INTRA.norm>
-0.0249569

>  <SCORE.RESTR>
0.00209687

>  <SCORE.RESTR.CAVITY>
0.00209687

>  <SCORE.RESTR.norm>
7.76618e-05

>  <SCORE.SYSTEM>
0

>  <SCORE.SYSTEM.CONST>
0

>  <SCORE.SYSTEM.DIHEDRAL>
0

>  <SCORE.SYSTEM.SOLV>
0

>  <SCORE.SYSTEM.norm>
0

>  <SCORE.heavy>
27

>  <SCORE.norm>
-0.460724

>  <RMSD>
12.549

$$$$
ligand
 OpenBabel02271912153D
libRbt.so/2013.1/901 2013/11/27
 27 29  0  0  0  0  0  0  0  0999 V2000
    8.7796   -8.4660   17.5355 N   0  0  0  0  0  0  0  0  0  0  0  0
    9.8121   -8.7374   16.4881 C   0  0  2  0  0  0  0  0  0  0  0  0
   10.1842  -10.2363   16.4498 C   0  0  0  0  0  0  0  0  0  0  0  0
   10.4124  -10.8097   15.3803 O   0  0  0  0  0  0  0  0  0  0  0  0
   11.0286   -7.8511   16.7334 C   0  0  0  0  0  0  0  0  0  0  0  0
   12.0673   -7.8858   15.6249 C   0  0  0  0  0  0  0  0  0  0  0  0
   13.6251   -7.0682   16.0742 S   0  0  2  0  0  0  0  0  0  0  0  0
   14.5616   -7.2551   14.5303 C   0  0  0  0  0  0  0  0  0  0  0  0
   14.4920   -8.1917   17.1816 C   0  0  0  0  0  0  0  0  0  0  0  0
   15.2251   -7.3813   18.2334 C   0  0  1  0  0  0  0  0  0  0  0  0
   14.3674   -6.4900   18.9292 O   0  0  0  0  0  0  0  0  0  0  0  0
   15.8702   -8.2725   19.2666 C   0  0  1  0  0  0  0  0  0  0  0  0
   17.1276   -8.7112   18.8387 O   0  0  0  0  0  0  0  0  0  0  0  0
   15.9683   -7.3393   20.4346 C   0  0  1  0  0  0  0  0  0  0  0  0
   17.1771   -6.6091   20.3452 O   0  0  0  0  0  0  0  0  0  0  0  0
   14.7717   -6.4101   20.2766 C   0  0  2  0  0  0  0  0  0  0  0  0
   10.2650  -10.9287   17.4810 O   0  0  0  0  0  0  0  0  0  0  0  0
   10.5033   -9.4145   21.0598 N   0  0  0  0  0  0  0  0  0  0  0  0
   11.3430   -9.4003   19.9556 C   0  0  0  0  0  0  0  0  0  0  0  0
   12.4270   -8.5327   19.8949 N   0  0  0  0  0  0  0  0  0  0  0  0
   12.6715   -7.7109   20.9318 C   0  0  0  0  0  0  0  0  0  0  0  0
   11.8415   -7.7268   22.0562 C   0  0  0  0  0  0  0  0  0  0  0  0
   10.7472   -8.5696   22.1212 C   0  0  0  0  0  0  0  0  0  0  0  0
    9.9572   -8.5732   23.1844 N   0  0  0  0  0  0  0  0  0  0  0  0
   12.3123   -6.8334   22.9333 N   0  0  0  0  0  0  0  0  0  0  0  0
   13.4125   -6.2576   22.4002 C   0  0  0  0  0  0  0  0  0  0  0  0
   13.6539   -6.7933   21.1596 N   0  0  0  0  0  0  0  0  0  0  0  0
  2  1  1  1  0  0  0
  2  3  1  0  0  0  0
  2  5  1  0  0  0  0
  3  4  1  0  0  0  0
  3 17  1  0  0  0  0
  5  6  1  0  0  0  0
  7  6  1  6  0  0  0
  7  8  1  0  0  0  0
  7  9  1  0  0  0  0
 10  9  1  6  0  0  0
 10 11  1  0  0  0  0
 10 12  1  0  0  0  0
 11 16  1  0  0  0  0
 12 13  1  6  0  0  0
 12 14  1  0  0  0  0
 14 15  1  6  0  0  0
 14 16  1  0  0  0  0
 16 27  1  1  0  0  0
 18 19  2  0  0  0  0
 18 23  1  0  0  0  0
 19 20  1  0  0  0  0
 20 21  2  0  0  0  0
 21 22  1  0  0  0  0
 21 27  1  0  0  0  0
 22 23  2  0  0  0  0
 22 25  1  0  0  0  0
 23 24  1  0  0  0  0
 25 26  2  0  0  0  0
 26 27  1  0  0  0  0
M  END
>  <CHROM.1>
142.35643898,-171.63670197,-169.52645734,-178.09376770,-144.09720873,54.55348555
33.33640218,12.84874314,-8.05617110,18.87177629,2.24482604,-0.35456978,-1.70347367

>  <Name>
ligand

>  <RI>
0

>  <Rbt.Current_Directory>
/home/itssahil/PROJECTS/Mol_Feturizer/Test_systems_manuscript/rnas/2ydh

>  <Rbt.Executable>
rbdock ($Id: //depot/dev/client3/rdock/2013.1/src/exe/rbdock.cxx#4 $)

>  <Rbt.Library>
libRbt.so (2013.1, Build901 2013/11/27)

>  <Rbt.Parameter_File>
/export/apps/rDock/src/rDock_2013.1_src/data/scripts/dock_solv.prm

>  <Rbt.Receptor>
prm/blind_docking_80.prm

>  <SCORE>
-15.6368

>  <SCORE.INTER>
-14.0766

>  <SCORE.INTER.CONST>
1

>  <SCORE.INTER.POLAR>
0

>  <SCORE.INTER.ROT>
7

>  <SCORE.INTER.SOLV>
11.8842

>  <SCORE.INTER.VDW>
-21.6125

>  <SCORE.INTER.norm>
-0.521354

>  <SCORE.INTRA>
-1.56021

>  <SCORE.INTRA.DIHEDRAL>
-2.06437

>  <SCORE.INTRA.DIHEDRAL.0>
9.75037

>  <SCORE.INTRA.POLAR>
0

>  <SCORE.INTRA.POLAR.0>
0

>  <SCORE.INTRA.REPUL>
0

>  <SCORE.INTRA.REPUL.0>
0

>  <SCORE.INTRA.SOLV>
-1.25911

>  <SCORE.INTRA.SOLV.lig_0>
-48.4279

>  <SCORE.INTRA.VDW>
0.10153

>  <SCORE.INTRA.VDW.0>
-4.69037

>  <SCORE.INTRA.norm>
-0.0577856

>  <SCORE.RESTR>
0

>  <SCORE.RESTR.CAVITY>
0

>  <SCORE.RESTR.norm>
0

>  <SCORE.SYSTEM>
0

>  <SCORE.SYSTEM.CONST>
0

>  <SCORE.SYSTEM.DIHEDRAL>
0

>  <SCORE.SYSTEM.SOLV>
0

>  <SCORE.SYSTEM.norm>
0

>  <SCORE.heavy>
27

>  <SCORE.norm>
-0.57914

>  <RMSD>
12.611

$$$$
ligand
 OpenBabel02271912153D
libRbt.so/2013.1/901 2013/11/27
 27 29  0  0  0  0  0  0  0  0999 V2000
   10.4122   -6.7161   22.4968 N   0  0  0  0  0  0  0  0  0  0  0  0
   11.6981   -7.2730   21.9744 C   0  0  2  0  0  0  0  0  0  0  0  0
   12.3686   -8.1952   23.0168 C   0  0  0  0  0  0  0  0  0  0  0  0
   12.4444   -9.4141   22.8350 O   0  0  0  0  0  0  0  0  0  0  0  0
   12.6117   -6.1279   21.5504 C   0  0  0  0  0  0  0  0  0  0  0  0
   13.9994   -6.5601   21.1069 C   0  0  0  0  0  0  0  0  0  0  0  0
   13.9839   -7.9976   19.9978 S   0  0  2  0  0  0  0  0  0  0  0  0
   15.6833   -7.9506   19.3611 C   0  0  0  0  0  0  0  0  0  0  0  0
   13.0243   -7.5186   18.5523 C   0  0  0  0  0  0  0  0  0  0  0  0
   12.6931   -8.7595   17.7454 C   0  0  1  0  0  0  0  0  0  0  0  0
   11.8871   -9.6785   18.4664 O   0  0  0  0  0  0  0  0  0  0  0  0
   11.9461   -8.4126   16.4807 C   0  0  1  0  0  0  0  0  0  0  0  0
   12.8297   -8.0726   15.4510 O   0  0  0  0  0  0  0  0  0  0  0  0
   11.2298   -9.6993   16.2042 C   0  0  1  0  0  0  0  0  0  0  0  0
   12.0723  -10.5458   15.4454 O   0  0  0  0  0  0  0  0  0  0  0  0
   10.9786  -10.2949   17.5835 C   0  0  2  0  0  0  0  0  0  0  0  0
   12.8527   -7.7592   24.0774 O   0  0  0  0  0  0  0  0  0  0  0  0
    5.8116  -10.4706   16.5203 N   0  0  0  0  0  0  0  0  0  0  0  0
    6.8636  -10.8356   15.6928 C   0  0  0  0  0  0  0  0  0  0  0  0
    8.1811  -10.7157   16.1189 N   0  0  0  0  0  0  0  0  0  0  0  0
    8.4331  -10.2566   17.3582 C   0  0  0  0  0  0  0  0  0  0  0  0
    7.3810   -9.9000   18.2065 C   0  0  0  0  0  0  0  0  0  0  0  0
    6.0664   -9.9940   17.7882 C   0  0  0  0  0  0  0  0  0  0  0  0
    5.0732   -9.6445   18.5920 N   0  0  0  0  0  0  0  0  0  0  0  0
    7.9035   -9.4944   19.3691 N   0  0  0  0  0  0  0  0  0  0  0  0
    9.2489   -9.5864   19.2825 C   0  0  0  0  0  0  0  0  0  0  0  0
    9.5962  -10.0624   18.0426 N   0  0  0  0  0  0  0  0  0  0  0  0
  2  1  1  1  0  0  0
  2  3  1  0  0  0  0
  2  5  1  0  0  0  0
  3  4  1  0  0  0  0
  3 17  1  0  0  0  0
  5  6  1  0  0  0  0
  7  6  1  1  0  0  0
  7  8  1  0  0  0  0
  7  9  1  0  0  0  0
 10  9  1  1  0  0  0
 10 11  1  0  0  0  0
 10 12  1  0  0  0  0
 11 16  1  0  0  0  0
 12 13  1  6  0  0  0
 12 14  1  0  0  0  0
 14 15  1  6  0  0  0
 14 16  1  0  0  0  0
 16 27  1  1  0  0  0
 18 19  2  0  0  0  0
 18 23  1  0  0  0  0
 19 20  1  0  0  0  0
 20 21  2  0  0  0  0
 21 22  1  0  0  0  0
 21 27  1  0  0  0  0
 22 23  2  0  0  0  0
 22 25  1  0  0  0  0
 23 24  1  0  0  0  0
 25 26  2  0  0  0  0
 26 27  1  0  0  0  0
M  END
>  <CHROM.1>
110.97514382,175.18388047,44.71890966,166.19854573,-166.64219097,62.54668814
166.14830296,10.90885396,-8.89178799,18.94791495,0.68681260,0.22886446,1.30082150

>  <Name>
ligand

>  <RI>
0

>  <Rbt.Current_Directory>
/home/itssahil/PROJECTS/Mol_Feturizer/Test_systems_manuscript/rnas/2ydh

>  <Rbt.Executable>
rbdock ($Id: //depot/dev/client3/rdock/2013.1/src/exe/rbdock.cxx#4 $)

>  <Rbt.Library>
libRbt.so (2013.1, Build901 2013/11/27)

>  <Rbt.Parameter_File>
/export/apps/rDock/src/rDock_2013.1_src/data/scripts/dock_solv.prm

>  <Rbt.Receptor>
prm/blind_docking_80.prm

>  <SCORE>
-14.957

>  <SCORE.INTER>
-13.8902

>  <SCORE.INTER.CONST>
1

>  <SCORE.INTER.POLAR>
0

>  <SCORE.INTER.ROT>
7

>  <SCORE.INTER.SOLV>
13.9691

>  <SCORE.INTER.VDW>
-22.1832

>  <SCORE.INTER.norm>
-0.514453

>  <SCORE.INTRA>
-1.06678

>  <SCORE.INTRA.DIHEDRAL>
-4.44102

>  <SCORE.INTRA.DIHEDRAL.0>
9.75037

>  <SCORE.INTRA.POLAR>
0

>  <SCORE.INTRA.POLAR.0>
0

>  <SCORE.INTRA.REPUL>
0

>  <SCORE.INTRA.REPUL.0>
0

>  <SCORE.INTRA.SOLV>
-1.38332

>  <SCORE.INTRA.SOLV.lig_0>
-48.4279

>  <SCORE.INTRA.VDW>
1.84539

>  <SCORE.INTRA.VDW.0>
-4.69037

>  <SCORE.INTRA.norm>
-0.0395104

>  <SCORE.RESTR>
0

>  <SCORE.RESTR.CAVITY>
0

>  <SCORE.RESTR.norm>
0

>  <SCORE.SYSTEM>
0

>  <SCORE.SYSTEM.CONST>
0

>  <SCORE.SYSTEM.DIHEDRAL>
0

>  <SCORE.SYSTEM.SOLV>
0

>  <SCORE.SYSTEM.norm>
0

>  <SCORE.heavy>
27

>  <SCORE.norm>
-0.553963

>  <RMSD>
12.622

$$$$
ligand
 OpenBabel02271912153D
libRbt.so/2013.1/901 2013/11/27
 27 29  0  0  0  0  0  0  0  0999 V2000
    7.4278   -6.4682   22.5392 N   0  0  0  0  0  0  0  0  0  0  0  0
    8.1401   -7.6039   23.2023 C   0  0  2  0  0  0  0  0  0  0  0  0
    8.1553   -7.4300   24.7373 C   0  0  0  0  0  0  0  0  0  0  0  0
    8.3826   -8.3859   25.4852 O   0  0  0  0  0  0  0  0  0  0  0  0
    9.5465   -7.7264   22.6255 C   0  0  0  0  0  0  0  0  0  0  0  0
   10.3317   -8.9261   23.1290 C   0  0  0  0  0  0  0  0  0  0  0  0
   12.0851   -8.8856   22.6591 S   0  0  2  0  0  0  0  0  0  0  0  0
   12.5722   -7.2638   23.3133 C   0  0  0  0  0  0  0  0  0  0  0  0
   12.1324   -8.6069   20.8815 C   0  0  0  0  0  0  0  0  0  0  0  0
   13.5788   -8.5180   20.4334 C   0  0  1  0  0  0  0  0  0  0  0  0
   13.8962   -9.4674   19.4274 O   0  0  0  0  0  0  0  0  0  0  0  0
   13.9003   -7.1542   19.8726 C   0  0  1  0  0  0  0  0  0  0  0  0
   14.2413   -6.2584   20.8913 O   0  0  0  0  0  0  0  0  0  0  0  0
   15.0682   -7.4713   18.9892 C   0  0  1  0  0  0  0  0  0  0  0  0
   16.2579   -7.4108   19.7529 O   0  0  0  0  0  0  0  0  0  0  0  0
   14.8090   -8.8967   18.5186 C   0  0  2  0  0  0  0  0  0  0  0  0
    7.9366   -6.3340   25.2852 O   0  0  0  0  0  0  0  0  0  0  0  0
   10.9181   -7.5223   15.2275 N   0  0  0  0  0  0  0  0  0  0  0  0
   11.0365   -7.2238   16.5772 C   0  0  0  0  0  0  0  0  0  0  0  0
   12.1245   -7.6751   17.3148 N   0  0  0  0  0  0  0  0  0  0  0  0
   13.0821   -8.3949   16.7025 C   0  0  0  0  0  0  0  0  0  0  0  0
   12.9816   -8.6892   15.3399 C   0  0  0  0  0  0  0  0  0  0  0  0
   11.8943   -8.2648   14.5985 C   0  0  0  0  0  0  0  0  0  0  0  0
   11.7980   -8.5555   13.3098 N   0  0  0  0  0  0  0  0  0  0  0  0
   14.0606   -9.3961   14.9864 N   0  0  0  0  0  0  0  0  0  0  0  0
   14.8387   -9.5543   16.0799 C   0  0  0  0  0  0  0  0  0  0  0  0
   14.2496   -8.9352   17.1542 N   0  0  0  0  0  0  0  0  0  0  0  0
  2  1  1  6  0  0  0
  2  3  1  0  0  0  0
  2  5  1  0  0  0  0
  3  4  1  0  0  0  0
  3 17  1  0  0  0  0
  5  6  1  0  0  0  0
  7  6  1  1  0  0  0
  7  8  1  0  0  0  0
  7  9  1  0  0  0  0
 10  9  1  6  0  0  0
 10 11  1  0  0  0  0
 10 12  1  0  0  0  0
 11 16  1  0  0  0  0
 12 13  1  1  0  0  0
 12 14  1  0  0  0  0
 14 15  1  1  0  0  0
 14 16  1  0  0  0  0
 16 27  1  6  0  0  0
 18 19  2  0  0  0  0
 18 23  1  0  0  0  0
 19 20  1  0  0  0  0
 20 21  2  0  0  0  0
 21 22  1  0  0  0  0
 21 27  1  0  0  0  0
 22 23  2  0  0  0  0
 22 25  1  0  0  0  0
 23 24  1  0  0  0  0
 25 26  2  0  0  0  0
 26 27  1  0  0  0  0
M  END
>  <CHROM.1>
161.62398664,-174.72665812,-169.82929065,54.75590905,178.18720520,123.14424863
57.89385140,12.04690528,-8.05763238,19.87296371,2.05637292,-0.10518790,1.51562229

>  <Name>
ligand

>  <RI>
0

>  <Rbt.Current_Directory>
/home/itssahil/PROJECTS/Mol_Feturizer/Test_systems_manuscript/rnas/2ydh

>  <Rbt.Executable>
rbdock ($Id: //depot/dev/client3/rdock/2013.1/src/exe/rbdock.cxx#4 $)

>  <Rbt.Library>
libRbt.so (2013.1, Build901 2013/11/27)

>  <Rbt.Parameter_File>
/export/apps/rDock/src/rDock_2013.1_src/data/scripts/dock_solv.prm

>  <Rbt.Receptor>
prm/blind_docking_60.prm

>  <SCORE>
-14.077

>  <SCORE.INTER>
-15.3242

>  <SCORE.INTER.CONST>
1

>  <SCORE.INTER.POLAR>
0

>  <SCORE.INTER.ROT>
7

>  <SCORE.INTER.SOLV>
10.2624

>  <SCORE.INTER.VDW>
-21.9036

>  <SCORE.INTER.norm>
-0.567563

>  <SCORE.INTRA>
1.24724

>  <SCORE.INTRA.DIHEDRAL>
-0.89881

>  <SCORE.INTRA.DIHEDRAL.0>
9.75037

>  <SCORE.INTRA.POLAR>
0

>  <SCORE.INTRA.POLAR.0>
0

>  <SCORE.INTRA.REPUL>
0

>  <SCORE.INTRA.REPUL.0>
0

>  <SCORE.INTRA.SOLV>
-1.29358

>  <SCORE.INTRA.SOLV.lig_0>
-48.4279

>  <SCORE.INTRA.VDW>
2.34344

>  <SCORE.INTRA.VDW.0>
-4.69037

>  <SCORE.INTRA.norm>
0.0461942

>  <SCORE.RESTR>
0

>  <SCORE.RESTR.CAVITY>
0

>  <SCORE.RESTR.norm>
0

>  <SCORE.SYSTEM>
0

>  <SCORE.SYSTEM.CONST>
0

>  <SCORE.SYSTEM.DIHEDRAL>
0

>  <SCORE.SYSTEM.SOLV>
0

>  <SCORE.SYSTEM.norm>
0

>  <SCORE.heavy>
27

>  <SCORE.norm>
-0.521369

>  <RMSD>
12.627

$$$$
ligand
 OpenBabel02271912153D
libRbt.so/2013.1/901 2013/11/27
 27 29  0  0  0  0  0  0  0  0999 V2000
   12.5683  -10.0246   13.8180 N   0  0  0  0  0  0  0  0  0  0  0  0
   11.8394   -8.8227   14.3286 C   0  0  2  0  0  0  0  0  0  0  0  0
   12.6110   -7.5246   14.0024 C   0  0  0  0  0  0  0  0  0  0  0  0
   13.5468   -7.1434   14.7121 O   0  0  0  0  0  0  0  0  0  0  0  0
   11.5882   -8.9794   15.8245 C   0  0  0  0  0  0  0  0  0  0  0  0
   10.7994  -10.2215   16.2043 C   0  0  0  0  0  0  0  0  0  0  0  0
   10.5483  -10.3936   17.9943 S   0  0  2  0  0  0  0  0  0  0  0  0
    9.2807  -11.6926   18.0337 C   0  0  0  0  0  0  0  0  0  0  0  0
    9.6217   -8.9439   18.5231 C   0  0  0  0  0  0  0  0  0  0  0  0
    9.4632   -8.9814   20.0311 C   0  0  1  0  0  0  0  0  0  0  0  0
   10.6951   -9.1954   20.7026 O   0  0  0  0  0  0  0  0  0  0  0  0
    8.8901   -7.6885   20.5583 C   0  0  1  0  0  0  0  0  0  0  0  0
    7.4931   -7.6915   20.4886 O   0  0  0  0  0  0  0  0  0  0  0  0
    9.3819   -7.7086   21.9735 C   0  0  1  0  0  0  0  0  0  0  0  0
    8.4572   -8.4175   22.7763 O   0  0  0  0  0  0  0  0  0  0  0  0
   10.7075   -8.4555   21.9015 C   0  0  2  0  0  0  0  0  0  0  0  0
   12.3260   -6.8086   13.0250 O   0  0  0  0  0  0  0  0  0  0  0  0
   15.4195   -7.1512   19.9129 N   0  0  0  0  0  0  0  0  0  0  0  0
   14.6069   -8.2149   19.5485 C   0  0  0  0  0  0  0  0  0  0  0  0
   13.3900   -8.4331   20.1834 N   0  0  0  0  0  0  0  0  0  0  0  0
   12.9911   -7.5874   21.1508 C   0  0  0  0  0  0  0  0  0  0  0  0
   13.7941   -6.5033   21.5161 C   0  0  0  0  0  0  0  0  0  0  0  0
   15.0167   -6.2864   20.9077 C   0  0  0  0  0  0  0  0  0  0  0  0
   15.7792   -5.2639   21.2650 N   0  0  0  0  0  0  0  0  0  0  0  0
   13.1623   -5.8238   22.4795 N   0  0  0  0  0  0  0  0  0  0  0  0
   11.9872   -6.4419   22.7311 C   0  0  0  0  0  0  0  0  0  0  0  0
   11.8613   -7.5364   21.9122 N   0  0  0  0  0  0  0  0  0  0  0  0
  2  1  1  1  0  0  0
  2  3  1  0  0  0  0
  2  5  1  0  0  0  0
  3  4  1  0  0  0  0
  3 17  1  0  0  0  0
  5  6  1  0  0  0  0
  7  6  1  6  0  0  0
  7  8  1  0  0  0  0
  7  9  1  0  0  0  0
 10  9  1  6  0  0  0
 10 11  1  0  0  0  0
 10 12  1  0  0  0  0
 11 16  1  0  0  0  0
 12 13  1  1  0  0  0
 12 14  1  0  0  0  0
 14 15  1  1  0  0  0
 14 16  1  0  0  0  0
 16 27  1  6  0  0  0
 18 19  2  0  0  0  0
 18 23  1  0  0  0  0
 19 20  1  0  0  0  0
 20 21  2  0  0  0  0
 21 22  1  0  0  0  0
 21 27  1  0  0  0  0
 22 23  2  0  0  0  0
 22 25  1  0  0  0  0
 23 24  1  0  0  0  0
 25 26  2  0  0  0  0
 26 27  1  0  0  0  0
M  END
>  <CHROM.1>
-82.02694400,-57.86175651,178.82270383,166.98373773,-176.08680786,50.59446369
-18.57488500,11.64432446,-8.20991364,19.02001542,-1.50883977,0.46963214,1.34271705

>  <Name>
ligand

>  <RI>
0

>  <Rbt.Current_Directory>
/home/itssahil/PROJECTS/Mol_Feturizer/Test_systems_manuscript/rnas/2ydh

>  <Rbt.Executable>
rbdock ($Id: //depot/dev/client3/rdock/2013.1/src/exe/rbdock.cxx#4 $)

>  <Rbt.Library>
libRbt.so (2013.1, Build901 2013/11/27)

>  <Rbt.Parameter_File>
/export/apps/rDock/src/rDock_2013.1_src/data/scripts/dock_solv.prm

>  <Rbt.Receptor>
prm/blind_docking_100.prm

>  <SCORE>
-12.6057

>  <SCORE.INTER>
-11.6144

>  <SCORE.INTER.CONST>
1

>  <SCORE.INTER.POLAR>
0

>  <SCORE.INTER.ROT>
7

>  <SCORE.INTER.SOLV>
18.1784

>  <SCORE.INTER.VDW>
-22.0691

>  <SCORE.INTER.norm>
-0.430163

>  <SCORE.INTRA>
-0.991329

>  <SCORE.INTRA.DIHEDRAL>
-5.91088

>  <SCORE.INTRA.DIHEDRAL.0>
9.75037

>  <SCORE.INTRA.POLAR>
0

>  <SCORE.INTRA.POLAR.0>
0

>  <SCORE.INTRA.REPUL>
0

>  <SCORE.INTRA.REPUL.0>
0

>  <SCORE.INTRA.SOLV>
-0.805687

>  <SCORE.INTRA.SOLV.lig_0>
-48.4279

>  <SCORE.INTRA.VDW>
2.36696

>  <SCORE.INTRA.VDW.0>
-4.69037

>  <SCORE.INTRA.norm>
-0.0367159

>  <SCORE.RESTR>
0

>  <SCORE.RESTR.CAVITY>
0

>  <SCORE.RESTR.norm>
0

>  <SCORE.SYSTEM>
0

>  <SCORE.SYSTEM.CONST>
0

>  <SCORE.SYSTEM.DIHEDRAL>
0

>  <SCORE.SYSTEM.SOLV>
0

>  <SCORE.SYSTEM.norm>
0

>  <SCORE.heavy>
27

>  <SCORE.norm>
-0.466879

>  <RMSD>
12.698

$$$$
ligand
 OpenBabel02271912153D
libRbt.so/2013.1/901 2013/11/27
 27 29  0  0  0  0  0  0  0  0999 V2000
    6.2401   -4.8335   20.8666 N   0  0  0  0  0  0  0  0  0  0  0  0
    7.2864   -4.5732   21.9029 C   0  0  2  0  0  0  0  0  0  0  0  0
    7.5401   -3.0583   22.0684 C   0  0  0  0  0  0  0  0  0  0  0  0
    7.3677   -2.4976   23.1550 O   0  0  0  0  0  0  0  0  0  0  0  0
    8.5591   -5.3310   21.5402 C   0  0  0  0  0  0  0  0  0  0  0  0
    8.3981   -6.8409   21.4808 C   0  0  0  0  0  0  0  0  0  0  0  0
    9.9022   -7.7030   20.9410 S   0  0  2  0  0  0  0  0  0  0  0  0
    9.3211   -9.4229   20.9343 C   0  0  0  0  0  0  0  0  0  0  0  0
   11.0309   -7.6899   22.3431 C   0  0  0  0  0  0  0  0  0  0  0  0
   12.4560   -7.7783   21.8313 C   0  0  1  0  0  0  0  0  0  0  0  0
   12.6835   -8.9431   21.0531 O   0  0  0  0  0  0  0  0  0  0  0  0
   12.8066   -6.5923   20.9663 C   0  0  1  0  0  0  0  0  0  0  0  0
   13.2344   -5.5110   21.7438 O   0  0  0  0  0  0  0  0  0  0  0  0
   13.9155   -7.1583   20.1327 C   0  0  1  0  0  0  0  0  0  0  0  0
   15.1426   -6.9910   20.8171 O   0  0  0  0  0  0  0  0  0  0  0  0
   13.5739   -8.6373   20.0049 C   0  0  2  0  0  0  0  0  0  0  0  0
    7.9199   -2.3401   21.1254 O   0  0  0  0  0  0  0  0  0  0  0  0
   14.1872   -9.7428   14.8804 N   0  0  0  0  0  0  0  0  0  0  0  0
   15.1759   -9.5019   15.8233 C   0  0  0  0  0  0  0  0  0  0  0  0
   14.8481   -9.2084   17.1416 N   0  0  0  0  0  0  0  0  0  0  0  0
   13.5535   -9.1772   17.5069 C   0  0  0  0  0  0  0  0  0  0  0  0
   12.5490   -9.4332   16.5694 C   0  0  0  0  0  0  0  0  0  0  0  0
   12.8598   -9.7055   15.2498 C   0  0  0  0  0  0  0  0  0  0  0  0
   11.9038   -9.9367   14.3626 N   0  0  0  0  0  0  0  0  0  0  0  0
   11.3683   -9.3529   17.1926 N   0  0  0  0  0  0  0  0  0  0  0  0
   11.5956   -9.0579   18.4916 C   0  0  0  0  0  0  0  0  0  0  0  0
   12.9471   -8.9497   18.7066 N   0  0  0  0  0  0  0  0  0  0  0  0
  2  1  1  6  0  0  0
  2  3  1  0  0  0  0
  2  5  1  0  0  0  0
  3  4  1  0  0  0  0
  3 17  1  0  0  0  0
  5  6  1  0  0  0  0
  7  6  1  1  0  0  0
  7  8  1  0  0  0  0
  7  9  1  0  0  0  0
 10  9  1  6  0  0  0
 10 11  1  0  0  0  0
 10 12  1  0  0  0  0
 11 16  1  0  0  0  0
 12 13  1  1  0  0  0
 12 14  1  0  0  0  0
 14 15  1  1  0  0  0
 14 16  1  0  0  0  0
 16 27  1  6  0  0  0
 18 19  2  0  0  0  0
 18 23  1  0  0  0  0
 19 20  1  0  0  0  0
 20 21  2  0  0  0  0
 21 22  1  0  0  0  0
 21 27  1  0  0  0  0
 22 23  2  0  0  0  0
 22 25  1  0  0  0  0
 23 24  1  0  0  0  0
 25 26  2  0  0  0  0
 26 27  1  0  0  0  0
M  END
>  <CHROM.1>
120.48252742,-61.30330836,176.22348430,-178.00947448,-153.84731053,-58.39565985
-159.01001529,11.30932687,-7.34794985,19.74665287,2.27141666,-0.31474408
1.05431538

>  <Name>
ligand

>  <RI>
0

>  <Rbt.Current_Directory>
/home/itssahil/PROJECTS/Mol_Feturizer/Test_systems_manuscript/rnas/2ydh

>  <Rbt.Executable>
rbdock ($Id: //depot/dev/client3/rdock/2013.1/src/exe/rbdock.cxx#4 $)

>  <Rbt.Library>
libRbt.so (2013.1, Build901 2013/11/27)

>  <Rbt.Parameter_File>
/export/apps/rDock/src/rDock_2013.1_src/data/scripts/dock_solv.prm

>  <Rbt.Receptor>
prm/blind_docking_100.prm

>  <SCORE>
-11.8855

>  <SCORE.INTER>
-11.0849

>  <SCORE.INTER.CONST>
1

>  <SCORE.INTER.POLAR>
0

>  <SCORE.INTER.ROT>
7

>  <SCORE.INTER.SOLV>
8.62674

>  <SCORE.INTER.VDW>
-18.5322

>  <SCORE.INTER.norm>
-0.410553

>  <SCORE.INTRA>
-0.800534

>  <SCORE.INTRA.DIHEDRAL>
-3.80634

>  <SCORE.INTRA.DIHEDRAL.0>
9.75037

>  <SCORE.INTRA.POLAR>
0

>  <SCORE.INTRA.POLAR.0>
0

>  <SCORE.INTRA.REPUL>
0

>  <SCORE.INTRA.REPUL.0>
0

>  <SCORE.INTRA.SOLV>
-0.61179

>  <SCORE.INTRA.SOLV.lig_0>
-48.4279

>  <SCORE.INTRA.VDW>
1.40853

>  <SCORE.INTRA.VDW.0>
-4.69037

>  <SCORE.INTRA.norm>
-0.0296494

>  <SCORE.RESTR>
0

>  <SCORE.RESTR.CAVITY>
0

>  <SCORE.RESTR.norm>
0

>  <SCORE.SYSTEM>
0

>  <SCORE.SYSTEM.CONST>
0

>  <SCORE.SYSTEM.DIHEDRAL>
0

>  <SCORE.SYSTEM.SOLV>
0

>  <SCORE.SYSTEM.norm>
0

>  <SCORE.heavy>
27

>  <SCORE.norm>
-0.440202

>  <RMSD>
12.802

$$$$
ligand
 OpenBabel02271912153D
libRbt.so/2013.1/901 2013/11/27
 27 29  0  0  0  0  0  0  0  0999 V2000
    9.3062  -12.0941   15.3057 N   0  0  0  0  0  0  0  0  0  0  0  0
    9.7084  -11.9973   16.7429 C   0  0  2  0  0  0  0  0  0  0  0  0
    8.6990  -12.7314   17.6533 C   0  0  0  0  0  0  0  0  0  0  0  0
    7.5113  -12.8380   17.3328 O   0  0  0  0  0  0  0  0  0  0  0  0
    9.8656  -10.5300   17.1279 C   0  0  0  0  0  0  0  0  0  0  0  0
   11.0637   -9.8384   16.4992 C   0  0  0  0  0  0  0  0  0  0  0  0
   11.0182   -8.0308   16.6645 S   0  0  2  0  0  0  0  0  0  0  0  0
    9.7349   -7.6133   15.4503 C   0  0  0  0  0  0  0  0  0  0  0  0
   12.5082   -7.4064   15.8709 C   0  0  0  0  0  0  0  0  0  0  0  0
   13.6436   -7.4125   16.8767 C   0  0  1  0  0  0  0  0  0  0  0  0
   13.2695   -6.8463   18.1231 O   0  0  0  0  0  0  0  0  0  0  0  0
   14.1274   -8.8149   17.1546 C   0  0  1  0  0  0  0  0  0  0  0  0
   15.0700   -9.2201   16.2038 O   0  0  0  0  0  0  0  0  0  0  0  0
   14.7363   -8.6481   18.5135 C   0  0  1  0  0  0  0  0  0  0  0  0
   16.0830   -8.2377   18.3715 O   0  0  0  0  0  0  0  0  0  0  0  0
   13.9094   -7.5469   19.1646 C   0  0  2  0  0  0  0  0  0  0  0  0
    9.0299  -13.2384   18.7409 O   0  0  0  0  0  0  0  0  0  0  0  0
   11.5817   -7.2904   23.8948 N   0  0  0  0  0  0  0  0  0  0  0  0
   12.5902   -6.4778   23.3973 C   0  0  0  0  0  0  0  0  0  0  0  0
   13.1113   -6.6851   22.1257 N   0  0  0  0  0  0  0  0  0  0  0  0
   12.6144   -7.6767   21.3641 C   0  0  0  0  0  0  0  0  0  0  0  0
   11.5879   -8.4923   21.8485 C   0  0  0  0  0  0  0  0  0  0  0  0
   11.0747   -8.3111   23.1196 C   0  0  0  0  0  0  0  0  0  0  0  0
   10.1094   -9.0936   23.5783 N   0  0  0  0  0  0  0  0  0  0  0  0
   11.2753   -9.3774   20.8956 N   0  0  0  0  0  0  0  0  0  0  0  0
   12.0684   -9.1446   19.8265 C   0  0  0  0  0  0  0  0  0  0  0  0
   12.9033   -8.0891   20.0971 N   0  0  0  0  0  0  0  0  0  0  0  0
  2  1  1  6  0  0  0
  2  3  1  0  0  0  0
  2  5  1  0  0  0  0
  3  4  1  0  0  0  0
  3 17  1  0  0  0  0
  5  6  1  0  0  0  0
  7  6  1  6  0  0  0
  7  8  1  0  0  0  0
  7  9  1  0  0  0  0
 10  9  1  6  0  0  0
 10 11  1  0  0  0  0
 10 12  1  0  0  0  0
 11 16  1  0  0  0  0
 12 13  1  6  0  0  0
 12 14  1  0  0  0  0
 14 15  1  6  0  0  0
 14 16  1  0  0  0  0
 16 27  1  1  0  0  0
 18 19  2  0  0  0  0
 18 23  1  0  0  0  0
 19 20  1  0  0  0  0
 20 21  2  0  0  0  0
 21 22  1  0  0  0  0
 21 27  1  0  0  0  0
 22 23  2  0  0  0  0
 22 25  1  0  0  0  0
 23 24  1  0  0  0  0
 25 26  2  0  0  0  0
 26 27  1  0  0  0  0
M  END
>  <CHROM.1>
-28.87596380,-69.96318124,166.95457500,-73.95444199,-86.51660713,-47.31205026
-108.10416462,11.74706614,-9.01095654,18.76159531,2.19863978,-0.66728764
-1.78744266

>  <Name>
ligand

>  <RI>
0

>  <Rbt.Current_Directory>
/home/itssahil/PROJECTS/Mol_Feturizer/Test_systems_manuscript/rnas/2ydh

>  <Rbt.Executable>
rbdock ($Id: //depot/dev/client3/rdock/2013.1/src/exe/rbdock.cxx#4 $)

>  <Rbt.Library>
libRbt.so (2013.1, Build901 2013/11/27)

>  <Rbt.Parameter_File>
/export/apps/rDock/src/rDock_2013.1_src/data/scripts/dock_solv.prm

>  <Rbt.Receptor>
prm/blind_docking_40.prm

>  <SCORE>
-16.2408

>  <SCORE.INTER>
-15.2458

>  <SCORE.INTER.CONST>
1

>  <SCORE.INTER.POLAR>
0

>  <SCORE.INTER.ROT>
7

>  <SCORE.INTER.SOLV>
15.2434

>  <SCORE.INTER.VDW>
-23.5117

>  <SCORE.INTER.norm>
-0.56466

>  <SCORE.INTRA>
-0.995038

>  <SCORE.INTRA.DIHEDRAL>
-3.98523

>  <SCORE.INTRA.DIHEDRAL.0>
9.75037

>  <SCORE.INTRA.POLAR>
0

>  <SCORE.INTRA.POLAR.0>
0

>  <SCORE.INTRA.REPUL>
0

>  <SCORE.INTRA.REPUL.0>
0

>  <SCORE.INTRA.SOLV>
-0.423585

>  <SCORE.INTRA.SOLV.lig_0>
-48.4279

>  <SCORE.INTRA.VDW>
1.20937

>  <SCORE.INTRA.VDW.0>
-4.69037

>  <SCORE.INTRA.norm>
-0.0368533

>  <SCORE.RESTR>
0

>  <SCORE.RESTR.CAVITY>
0

>  <SCORE.RESTR.norm>
0

>  <SCORE.SYSTEM>
0

>  <SCORE.SYSTEM.CONST>
0

>  <SCORE.SYSTEM.DIHEDRAL>
0

>  <SCORE.SYSTEM.SOLV>
0

>  <SCORE.SYSTEM.norm>
0

>  <SCORE.heavy>
27

>  <SCORE.norm>
-0.601513

>  <RMSD>
12.811

$$$$
ligand
 OpenBabel02271912153D
libRbt.so/2013.1/901 2013/11/27
 27 29  0  0  0  0  0  0  0  0999 V2000
    6.4350   -4.4222   19.6012 N   0  0  0  0  0  0  0  0  0  0  0  0
    7.1788   -5.0254   20.7500 C   0  0  2  0  0  0  0  0  0  0  0  0
    8.0371   -3.9648   21.4747 C   0  0  0  0  0  0  0  0  0  0  0  0
    9.0692   -3.5209   20.9624 O   0  0  0  0  0  0  0  0  0  0  0  0
    8.0169   -6.1980   20.2519 C   0  0  0  0  0  0  0  0  0  0  0  0
    8.8361   -6.8895   21.3289 C   0  0  0  0  0  0  0  0  0  0  0  0
    9.7558   -8.3308   20.7176 S   0  0  2  0  0  0  0  0  0  0  0  0
    8.4438   -9.5853   20.6997 C   0  0  0  0  0  0  0  0  0  0  0  0
   10.7953   -8.8889   22.0770 C   0  0  0  0  0  0  0  0  0  0  0  0
   12.1755   -8.2782   21.9269 C   0  0  1  0  0  0  0  0  0  0  0  0
   12.8956   -8.8231   20.8321 O   0  0  0  0  0  0  0  0  0  0  0  0
   12.0986   -6.7869   21.7082 C   0  0  1  0  0  0  0  0  0  0  0  0
   12.0127   -6.1031   22.9255 O   0  0  0  0  0  0  0  0  0  0  0  0
   13.3985   -6.5283   21.0093 C   0  0  1  0  0  0  0  0  0  0  0  0
   14.4094   -6.3100   21.9749 O   0  0  0  0  0  0  0  0  0  0  0  0
   13.6708   -7.8105   20.2332 C   0  0  2  0  0  0  0  0  0  0  0  0
    7.7357   -3.5179   22.5966 O   0  0  0  0  0  0  0  0  0  0  0  0
   10.9367   -9.6530   16.1115 N   0  0  0  0  0  0  0  0  0  0  0  0
   10.9620  -10.1497   17.4066 C   0  0  0  0  0  0  0  0  0  0  0  0
   11.7515   -9.5549   18.3835 N   0  0  0  0  0  0  0  0  0  0  0  0
   12.4848   -8.4718   18.0681 C   0  0  0  0  0  0  0  0  0  0  0  0
   12.4558   -7.9530   16.7705 C   0  0  0  0  0  0  0  0  0  0  0  0
   11.6915   -8.5473   15.7834 C   0  0  0  0  0  0  0  0  0  0  0  0
   11.6758   -8.0585   14.5524 N   0  0  0  0  0  0  0  0  0  0  0  0
   13.2543   -6.8806   16.7336 N   0  0  0  0  0  0  0  0  0  0  0  0
   13.7828   -6.7049   17.9648 C   0  0  0  0  0  0  0  0  0  0  0  0
   13.3127   -7.6807   18.8081 N   0  0  0  0  0  0  0  0  0  0  0  0
  2  1  1  6  0  0  0
  2  3  1  0  0  0  0
  2  5  1  0  0  0  0
  3  4  1  0  0  0  0
  3 17  1  0  0  0  0
  5  6  1  0  0  0  0
  7  6  1  1  0  0  0
  7  8  1  0  0  0  0
  7  9  1  0  0  0  0
 10  9  1  6  0  0  0
 10 11  1  0  0  0  0
 10 12  1  0  0  0  0
 11 16  1  0  0  0  0
 12 13  1  1  0  0  0
 12 14  1  0  0  0  0
 14 15  1  1  0  0  0
 14 16  1  0  0  0  0
 16 27  1  6  0  0  0
 18 19  2  0  0  0  0
 18 23  1  0  0  0  0
 19 20  1  0  0  0  0
 20 21  2  0  0  0  0
 21 22  1  0  0  0  0
 21 27  1  0  0  0  0
 22 23  2  0  0  0  0
 22 25  1  0  0  0  0
 23 24  1  0  0  0  0
 25 26  2  0  0  0  0
 26 27  1  0  0  0  0
M  END
>  <CHROM.1>
-72.97843001,179.36683951,177.10624832,-80.06682057,-95.18982704,-70.21699383
-7.03720596,10.92460337,-7.21843565,19.83297429,2.28151197,-0.36326102,1.16851154

>  <Name>
ligand

>  <RI>
0

>  <Rbt.Current_Directory>
/home/itssahil/PROJECTS/Mol_Feturizer/Test_systems_manuscript/rnas/2ydh

>  <Rbt.Executable>
rbdock ($Id: //depot/dev/client3/rdock/2013.1/src/exe/rbdock.cxx#4 $)

>  <Rbt.Library>
libRbt.so (2013.1, Build901 2013/11/27)

>  <Rbt.Parameter_File>
/export/apps/rDock/src/rDock_2013.1_src/data/scripts/dock_solv.prm

>  <Rbt.Receptor>
prm/blind_docking_80.prm

>  <SCORE>
-13.2424

>  <SCORE.INTER>
-12.2287

>  <SCORE.INTER.CONST>
1

>  <SCORE.INTER.POLAR>
0

>  <SCORE.INTER.ROT>
7

>  <SCORE.INTER.SOLV>
10.9899

>  <SCORE.INTER.VDW>
-20.0825

>  <SCORE.INTER.norm>
-0.452916

>  <SCORE.INTRA>
-1.01364

>  <SCORE.INTRA.DIHEDRAL>
-3.85266

>  <SCORE.INTRA.DIHEDRAL.0>
9.75037

>  <SCORE.INTRA.POLAR>
0

>  <SCORE.INTRA.POLAR.0>
0

>  <SCORE.INTRA.REPUL>
0

>  <SCORE.INTRA.REPUL.0>
0

>  <SCORE.INTRA.SOLV>
-1.15017

>  <SCORE.INTRA.SOLV.lig_0>
-48.4279

>  <SCORE.INTRA.VDW>
1.48777

>  <SCORE.INTRA.VDW.0>
-4.69037

>  <SCORE.INTRA.norm>
-0.0375422

>  <SCORE.RESTR>
0

>  <SCORE.RESTR.CAVITY>
0

>  <SCORE.RESTR.norm>
0

>  <SCORE.SYSTEM>
0

>  <SCORE.SYSTEM.CONST>
0

>  <SCORE.SYSTEM.DIHEDRAL>
0

>  <SCORE.SYSTEM.SOLV>
0

>  <SCORE.SYSTEM.norm>
0

>  <SCORE.heavy>
27

>  <SCORE.norm>
-0.490458

>  <RMSD>
12.852

$$$$
ligand
 OpenBabel02271912153D
libRbt.so/2013.1/901 2013/11/27
 27 29  0  0  0  0  0  0  0  0999 V2000
    7.2942   -5.4420   23.7806 N   0  0  0  0  0  0  0  0  0  0  0  0
    7.7351   -6.6767   24.5002 C   0  0  2  0  0  0  0  0  0  0  0  0
    8.3594   -6.3289   25.8698 C   0  0  0  0  0  0  0  0  0  0  0  0
    8.1831   -7.0538   26.8537 O   0  0  0  0  0  0  0  0  0  0  0  0
    8.6963   -7.4635   23.6154 C   0  0  0  0  0  0  0  0  0  0  0  0
    9.8876   -6.6648   23.1135 C   0  0  0  0  0  0  0  0  0  0  0  0
   11.0787   -7.6642   22.1756 S   0  0  2  0  0  0  0  0  0  0  0  0
   11.9196   -8.5408   23.5247 C   0  0  0  0  0  0  0  0  0  0  0  0
   12.3572   -6.5336   21.6034 C   0  0  0  0  0  0  0  0  0  0  0  0
   13.4967   -7.3373   21.0065 C   0  0  1  0  0  0  0  0  0  0  0  0
   13.0594   -8.2361   19.9990 O   0  0  0  0  0  0  0  0  0  0  0  0
   14.5356   -6.4402   20.3791 C   0  0  1  0  0  0  0  0  0  0  0  0
   15.4546   -5.9902   21.3329 O   0  0  0  0  0  0  0  0  0  0  0  0
   15.1646   -7.3724   19.3889 C   0  0  1  0  0  0  0  0  0  0  0  0
   16.2045   -8.0916   20.0242 O   0  0  0  0  0  0  0  0  0  0  0  0
   14.0356   -8.3122   18.9860 C   0  0  2  0  0  0  0  0  0  0  0  0
    9.0559   -5.3122   26.0449 O   0  0  0  0  0  0  0  0  0  0  0  0
   10.7449   -9.5323   15.0437 N   0  0  0  0  0  0  0  0  0  0  0  0
   11.0051  -10.2650   16.1927 C   0  0  0  0  0  0  0  0  0  0  0  0
   11.9175   -9.8103   17.1373 N   0  0  0  0  0  0  0  0  0  0  0  0
   12.5399   -8.6341   16.9388 C   0  0  0  0  0  0  0  0  0  0  0  0
   12.2746   -7.8796   15.7925 C   0  0  0  0  0  0  0  0  0  0  0  0
   11.3853   -8.3299   14.8342 C   0  0  0  0  0  0  0  0  0  0  0  0
   11.1455   -7.6165   13.7442 N   0  0  0  0  0  0  0  0  0  0  0  0
   13.0076   -6.7624   15.8512 N   0  0  0  0  0  0  0  0  0  0  0  0
   13.7233   -6.7865   16.9973 C   0  0  0  0  0  0  0  0  0  0  0  0
   13.4423   -7.9390   17.6881 N   0  0  0  0  0  0  0  0  0  0  0  0
  2  1  1  6  0  0  0
  2  3  1  0  0  0  0
  2  5  1  0  0  0  0
  3  4  1  0  0  0  0
  3 17  1  0  0  0  0
  5  6  1  0  0  0  0
  7  6  1  1  0  0  0
  7  8  1  0  0  0  0
  7  9  1  0  0  0  0
 10  9  1  6  0  0  0
 10 11  1  0  0  0  0
 10 12  1  0  0  0  0
 11 16  1  0  0  0  0
 12 13  1  1  0  0  0
 12 14  1  0  0  0  0
 14 15  1  1  0  0  0
 14 16  1  0  0  0  0
 16 27  1  6  0  0  0
 18 19  2  0  0  0  0
 18 23  1  0  0  0  0
 19 20  1  0  0  0  0
 20 21  2  0  0  0  0
 21 22  1  0  0  0  0
 21 27  1  0  0  0  0
 22 23  2  0  0  0  0
 22 25  1  0  0  0  0
 23 24  1  0  0  0  0
 25 26  2  0  0  0  0
 26 27  1  0  0  0  0
M  END
>  <CHROM.1>
143.24681906,54.39224590,175.36647787,-76.56813320,170.91719560,53.77536341
-70.40492579,11.74230801,-7.50133327,20.32746884,1.97693351,0.06765169,1.34995203

>  <Name>
ligand

>  <RI>
0

>  <Rbt.Current_Directory>
/home/itssahil/PROJECTS/Mol_Feturizer/Test_systems_manuscript/rnas/2ydh

>  <Rbt.Executable>
rbdock ($Id: //depot/dev/client3/rdock/2013.1/src/exe/rbdock.cxx#4 $)

>  <Rbt.Library>
libRbt.so (2013.1, Build901 2013/11/27)

>  <Rbt.Parameter_File>
/export/apps/rDock/src/rDock_2013.1_src/data/scripts/dock_solv.prm

>  <Rbt.Receptor>
prm/blind_docking_60.prm

>  <SCORE>
-14.4073

>  <SCORE.INTER>
-13.8752

>  <SCORE.INTER.CONST>
1

>  <SCORE.INTER.POLAR>
0

>  <SCORE.INTER.ROT>
7

>  <SCORE.INTER.SOLV>
12.9931

>  <SCORE.INTER.VDW>
-21.8478

>  <SCORE.INTER.norm>
-0.513896

>  <SCORE.INTRA>
-0.532077

>  <SCORE.INTRA.DIHEDRAL>
-6.07648

>  <SCORE.INTRA.DIHEDRAL.0>
9.75037

>  <SCORE.INTRA.POLAR>
0

>  <SCORE.INTRA.POLAR.0>
0

>  <SCORE.INTRA.REPUL>
0

>  <SCORE.INTRA.REPUL.0>
0

>  <SCORE.INTRA.SOLV>
-0.790405

>  <SCORE.INTRA.SOLV.lig_0>
-48.4279

>  <SCORE.INTRA.VDW>
2.90137

>  <SCORE.INTRA.VDW.0>
-4.69037

>  <SCORE.INTRA.norm>
-0.0197066

>  <SCORE.RESTR>
0

>  <SCORE.RESTR.CAVITY>
0

>  <SCORE.RESTR.norm>
0

>  <SCORE.SYSTEM>
0

>  <SCORE.SYSTEM.CONST>
0

>  <SCORE.SYSTEM.DIHEDRAL>
0

>  <SCORE.SYSTEM.SOLV>
0

>  <SCORE.SYSTEM.norm>
0

>  <SCORE.heavy>
27

>  <SCORE.norm>
-0.533603

>  <RMSD>
13.048

$$$$
ligand
 OpenBabel02271912153D
libRbt.so/2013.1/901 2013/11/27
 27 29  0  0  0  0  0  0  0  0999 V2000
   12.7576   -9.9291   13.6590 N   0  0  0  0  0  0  0  0  0  0  0  0
   12.0443  -10.5463   14.8196 C   0  0  2  0  0  0  0  0  0  0  0  0
   10.6857  -11.1397   14.3853 C   0  0  0  0  0  0  0  0  0  0  0  0
   10.0856  -11.9488   15.0993 O   0  0  0  0  0  0  0  0  0  0  0  0
   11.8893   -9.5109   15.9284 C   0  0  0  0  0  0  0  0  0  0  0  0
   13.2007   -8.9752   16.4783 C   0  0  0  0  0  0  0  0  0  0  0  0
   12.9788   -7.7605   17.8096 S   0  0  2  0  0  0  0  0  0  0  0  0
   14.7079   -7.3838   18.2140 C   0  0  0  0  0  0  0  0  0  0  0  0
   12.4427   -8.6824   19.2596 C   0  0  0  0  0  0  0  0  0  0  0  0
   10.9592   -8.4492   19.4730 C   0  0  1  0  0  0  0  0  0  0  0  0
   10.1838   -8.8035   18.3384 O   0  0  0  0  0  0  0  0  0  0  0  0
   10.4354   -9.2553   20.6366 C   0  0  1  0  0  0  0  0  0  0  0  0
   10.6368   -8.5826   21.8464 O   0  0  0  0  0  0  0  0  0  0  0  0
    8.9822   -9.3595   20.2870 C   0  0  1  0  0  0  0  0  0  0  0  0
    8.3002   -8.2285   20.7950 O   0  0  0  0  0  0  0  0  0  0  0  0
    8.9595   -9.3558   18.7639 C   0  0  2  0  0  0  0  0  0  0  0  0
   10.1419  -10.8383   13.3070 O   0  0  0  0  0  0  0  0  0  0  0  0
    5.8520  -12.8920   16.3771 N   0  0  0  0  0  0  0  0  0  0  0  0
    5.5387  -11.5893   16.7369 C   0  0  0  0  0  0  0  0  0  0  0  0
    6.4713  -10.7823   17.3775 N   0  0  0  0  0  0  0  0  0  0  0  0
    7.6990  -11.2698   17.6329 C   0  0  0  0  0  0  0  0  0  0  0  0
    8.0314  -12.5757   17.2615 C   0  0  0  0  0  0  0  0  0  0  0  0
    7.1067  -13.3968   16.6427 C   0  0  0  0  0  0  0  0  0  0  0  0
    7.4230  -14.6373   16.3025 N   0  0  0  0  0  0  0  0  0  0  0  0
    9.3019  -12.7981   17.6156 N   0  0  0  0  0  0  0  0  0  0  0  0
    9.7816  -11.6754   18.1947 C   0  0  0  0  0  0  0  0  0  0  0  0
    8.8020  -10.7139   18.2101 N   0  0  0  0  0  0  0  0  0  0  0  0
  2  1  1  6  0  0  0
  2  3  1  0  0  0  0
  2  5  1  0  0  0  0
  3  4  1  0  0  0  0
  3 17  1  0  0  0  0
  5  6  1  0  0  0  0
  7  6  1  6  0  0  0
  7  8  1  0  0  0  0
  7  9  1  0  0  0  0
 10  9  1  6  0  0  0
 10 11  1  0  0  0  0
 10 12  1  0  0  0  0
 11 16  1  0  0  0  0
 12 13  1  1  0  0  0
 12 14  1  0  0  0  0
 14 15  1  1  0  0  0
 14 16  1  0  0  0  0
 16 27  1  6  0  0  0
 18 19  2  0  0  0  0
 18 23  1  0  0  0  0
 19 20  1  0  0  0  0
 20 21  2  0  0  0  0
 21 22  1  0  0  0  0
 21 27  1  0  0  0  0
 22 23  2  0  0  0  0
 22 25  1  0  0  0  0
 23 24  1  0  0  0  0
 25 26  2  0  0  0  0
 26 27  1  0  0  0  0
M  END
>  <CHROM.1>
163.28086447,-61.14189886,-179.30336765,179.15211696,-104.88733204,56.76834109
-135.27067905,10.03568324,-10.22691854,17.49296703,-0.55900864,-0.52110498
-2.04542852

>  <Name>
ligand

>  <RI>
0

>  <Rbt.Current_Directory>
/home/itssahil/PROJECTS/Mol_Feturizer/Test_systems_manuscript/rnas/2ydh

>  <Rbt.Executable>
rbdock ($Id: //depot/dev/client3/rdock/2013.1/src/exe/rbdock.cxx#4 $)

>  <Rbt.Library>
libRbt.so (2013.1, Build901 2013/11/27)

>  <Rbt.Parameter_File>
/export/apps/rDock/src/rDock_2013.1_src/data/scripts/dock_solv.prm

>  <Rbt.Receptor>
prm/blind_docking_100.prm

>  <SCORE>
-15.1119

>  <SCORE.INTER>
-13.3896

>  <SCORE.INTER.CONST>
1

>  <SCORE.INTER.POLAR>
0

>  <SCORE.INTER.ROT>
7

>  <SCORE.INTER.SOLV>
12.3651

>  <SCORE.INTER.VDW>
-21.3147

>  <SCORE.INTER.norm>
-0.495911

>  <SCORE.INTRA>
-1.7223

>  <SCORE.INTRA.DIHEDRAL>
-3.51

>  <SCORE.INTRA.DIHEDRAL.0>
9.75037

>  <SCORE.INTRA.POLAR>
0

>  <SCORE.INTRA.POLAR.0>
0

>  <SCORE.INTRA.REPUL>
0

>  <SCORE.INTRA.REPUL.0>
0

>  <SCORE.INTRA.SOLV>
-0.69163

>  <SCORE.INTRA.SOLV.lig_0>
-48.4279

>  <SCORE.INTRA.VDW>
0.378514

>  <SCORE.INTRA.VDW.0>
-4.69037

>  <SCORE.INTRA.norm>
-0.0637889

>  <SCORE.RESTR>
0

>  <SCORE.RESTR.CAVITY>
0

>  <SCORE.RESTR.norm>
0

>  <SCORE.SYSTEM>
0

>  <SCORE.SYSTEM.CONST>
0

>  <SCORE.SYSTEM.DIHEDRAL>
0

>  <SCORE.SYSTEM.SOLV>
0

>  <SCORE.SYSTEM.norm>
0

>  <SCORE.heavy>
27

>  <SCORE.norm>
-0.559699

>  <RMSD>
13.134

$$$$
ligand
 OpenBabel02271912153D
libRbt.so/2013.1/901 2013/11/27
 27 29  0  0  0  0  0  0  0  0999 V2000
   10.7284   -7.4245   22.6110 N   0  0  0  0  0  0  0  0  0  0  0  0
   12.2035   -7.3803   22.3682 C   0  0  2  0  0  0  0  0  0  0  0  0
   12.6429   -5.9863   21.8680 C   0  0  0  0  0  0  0  0  0  0  0  0
   13.8329   -5.7280   21.6633 O   0  0  0  0  0  0  0  0  0  0  0  0
   12.5904   -8.4872   21.3932 C   0  0  0  0  0  0  0  0  0  0  0  0
   11.9107   -8.3983   20.0370 C   0  0  0  0  0  0  0  0  0  0  0  0
   12.7779   -9.3226   18.7368 S   0  0  2  0  0  0  0  0  0  0  0  0
   14.0236   -8.1033   18.2298 C   0  0  0  0  0  0  0  0  0  0  0  0
   11.6783   -9.3559   17.3121 C   0  0  0  0  0  0  0  0  0  0  0  0
   10.7799  -10.5740   17.4094 C   0  0  1  0  0  0  0  0  0  0  0  0
    9.9727  -10.5630   18.5767 O   0  0  0  0  0  0  0  0  0  0  0  0
    9.8470  -10.6679   16.2267 C   0  0  1  0  0  0  0  0  0  0  0  0
   10.4658  -11.3061   15.1467 O   0  0  0  0  0  0  0  0  0  0  0  0
    8.7323  -11.4884   16.8004 C   0  0  1  0  0  0  0  0  0  0  0  0
    9.0357  -12.8611   16.6391 O   0  0  0  0  0  0  0  0  0  0  0  0
    8.7123  -11.1171   18.2776 C   0  0  2  0  0  0  0  0  0  0  0  0
   11.8294   -5.0683   21.6558 O   0  0  0  0  0  0  0  0  0  0  0  0
    6.8848   -7.3463   21.4869 N   0  0  0  0  0  0  0  0  0  0  0  0
    8.0690   -8.0600   21.6002 C   0  0  0  0  0  0  0  0  0  0  0  0
    8.4032   -9.0394   20.6725 N   0  0  0  0  0  0  0  0  0  0  0  0
    7.5724   -9.2814   19.6423 C   0  0  0  0  0  0  0  0  0  0  0  0
    6.3837   -8.5582   19.5090 C   0  0  0  0  0  0  0  0  0  0  0  0
    6.0283   -7.5959   20.4362 C   0  0  0  0  0  0  0  0  0  0  0  0
    4.8955   -6.9209   20.3116 N   0  0  0  0  0  0  0  0  0  0  0  0
    5.7601   -8.9831   18.4046 N   0  0  0  0  0  0  0  0  0  0  0  0
    6.5174   -9.9474   17.8365 C   0  0  0  0  0  0  0  0  0  0  0  0
    7.6492  -10.1429   18.5884 N   0  0  0  0  0  0  0  0  0  0  0  0
  2  1  1  6  0  0  0
  2  3  1  0  0  0  0
  2  5  1  0  0  0  0
  3  4  1  0  0  0  0
  3 17  1  0  0  0  0
  5  6  1  0  0  0  0
  7  6  1  1  0  0  0
  7  8  1  0  0  0  0
  7  9  1  0  0  0  0
 10  9  1  6  0  0  0
 10 11  1  0  0  0  0
 10 12  1  0  0  0  0
 11 16  1  0  0  0  0
 12 13  1  6  0  0  0
 12 14  1  0  0  0  0
 14 15  1  1  0  0  0
 14 16  1  0  0  0  0
 16 27  1  6  0  0  0
 18 19  2  0  0  0  0
 18 23  1  0  0  0  0
 19 20  1  0  0  0  0
 20 21  2  0  0  0  0
 21 22  1  0  0  0  0
 21 27  1  0  0  0  0
 22 23  2  0  0  0  0
 22 25  1  0  0  0  0
 23 24  1  0  0  0  0
 25 26  2  0  0  0  0
 26 27  1  0  0  0  0
M  END
>  <CHROM.1>
176.91894070,59.74097637,159.82550420,-84.15818664,-89.19687290,60.59535277
-38.92904525,9.86886251,-8.90468972,19.32843633,0.80604347,0.06030209,0.84163242

>  <Name>
ligand

>  <RI>
0

>  <Rbt.Current_Directory>
/home/itssahil/PROJECTS/Mol_Feturizer/Test_systems_manuscript/rnas/2ydh

>  <Rbt.Executable>
rbdock ($Id: //depot/dev/client3/rdock/2013.1/src/exe/rbdock.cxx#4 $)

>  <Rbt.Library>
libRbt.so (2013.1, Build901 2013/11/27)

>  <Rbt.Parameter_File>
/export/apps/rDock/src/rDock_2013.1_src/data/scripts/dock_solv.prm

>  <Rbt.Receptor>
prm/blind_docking_40.prm

>  <SCORE>
-16.6727

>  <SCORE.INTER>
-16.7827

>  <SCORE.INTER.CONST>
1

>  <SCORE.INTER.POLAR>
0

>  <SCORE.INTER.ROT>
7

>  <SCORE.INTER.SOLV>
10.1156

>  <SCORE.INTER.VDW>
-22.827

>  <SCORE.INTER.norm>
-0.621582

>  <SCORE.INTRA>
0.109999

>  <SCORE.INTRA.DIHEDRAL>
-3.18988

>  <SCORE.INTRA.DIHEDRAL.0>
9.75037

>  <SCORE.INTRA.POLAR>
0

>  <SCORE.INTRA.POLAR.0>
0

>  <SCORE.INTRA.REPUL>
0

>  <SCORE.INTRA.REPUL.0>
0

>  <SCORE.INTRA.SOLV>
0.174028

>  <SCORE.INTRA.SOLV.lig_0>
-48.4279

>  <SCORE.INTRA.VDW>
1.61793

>  <SCORE.INTRA.VDW.0>
-4.69037

>  <SCORE.INTRA.norm>
0.00407404

>  <SCORE.RESTR>
0

>  <SCORE.RESTR.CAVITY>
0

>  <SCORE.RESTR.norm>
0

>  <SCORE.SYSTEM>
0

>  <SCORE.SYSTEM.CONST>
0

>  <SCORE.SYSTEM.DIHEDRAL>
0

>  <SCORE.SYSTEM.SOLV>
0

>  <SCORE.SYSTEM.norm>
0

>  <SCORE.heavy>
27

>  <SCORE.norm>
-0.617508

>  <RMSD>
13.142

$$$$
ligand
 OpenBabel02271912153D
libRbt.so/2013.1/901 2013/11/27
 27 29  0  0  0  0  0  0  0  0999 V2000
    7.5050   -3.7075   21.9683 N   0  0  0  0  0  0  0  0  0  0  0  0
    6.4267   -4.6909   21.6411 C   0  0  2  0  0  0  0  0  0  0  0  0
    5.6561   -5.1138   22.9115 C   0  0  0  0  0  0  0  0  0  0  0  0
    6.2518   -5.5270   23.9110 O   0  0  0  0  0  0  0  0  0  0  0  0
    7.0340   -5.8863   20.9146 C   0  0  0  0  0  0  0  0  0  0  0  0
    6.0203   -6.9051   20.4210 C   0  0  0  0  0  0  0  0  0  0  0  0
    6.5976   -7.8556   18.9857 S   0  0  2  0  0  0  0  0  0  0  0  0
    5.2481   -9.0574   18.8122 C   0  0  0  0  0  0  0  0  0  0  0  0
    7.9523   -8.8884   19.5669 C   0  0  0  0  0  0  0  0  0  0  0  0
    8.7918   -9.3175   18.3787 C   0  0  1  0  0  0  0  0  0  0  0  0
    9.5494   -8.2486   17.8332 O   0  0  0  0  0  0  0  0  0  0  0  0
    9.7679  -10.4049   18.7562 C   0  0  1  0  0  0  0  0  0  0  0  0
    9.1671  -11.6664   18.6895 O   0  0  0  0  0  0  0  0  0  0  0  0
   10.8208  -10.2279   17.7050 C   0  0  1  0  0  0  0  0  0  0  0  0
   10.4645  -10.9790   16.5599 O   0  0  0  0  0  0  0  0  0  0  0  0
   10.7956   -8.7371   17.3934 C   0  0  2  0  0  0  0  0  0  0  0  0
    4.4145   -5.0639   22.9843 O   0  0  0  0  0  0  0  0  0  0  0  0
   13.0373   -7.2299   21.9279 N   0  0  0  0  0  0  0  0  0  0  0  0
   11.8936   -7.9964   21.7575 C   0  0  0  0  0  0  0  0  0  0  0  0
   11.4197   -8.2978   20.4862 N   0  0  0  0  0  0  0  0  0  0  0  0
   12.0937   -7.8535   19.4099 C   0  0  0  0  0  0  0  0  0  0  0  0
   13.2558   -7.0933   19.5688 C   0  0  0  0  0  0  0  0  0  0  0  0
   13.7268   -6.7680   20.8275 C   0  0  0  0  0  0  0  0  0  0  0  0
   14.8225   -6.0380   20.9729 N   0  0  0  0  0  0  0  0  0  0  0  0
   13.7287   -6.7975   18.3531 N   0  0  0  0  0  0  0  0  0  0  0  0
   12.9051   -7.3482   17.4341 C   0  0  0  0  0  0  0  0  0  0  0  0
   11.8867   -8.0121   18.0716 N   0  0  0  0  0  0  0  0  0  0  0  0
  2  1  1  1  0  0  0
  2  3  1  0  0  0  0
  2  5  1  0  0  0  0
  3  4  1  0  0  0  0
  3 17  1  0  0  0  0
  5  6  1  0  0  0  0
  7  6  1  1  0  0  0
  7  8  1  0  0  0  0
  7  9  1  0  0  0  0
 10  9  1  1  0  0  0
 10 11  1  0  0  0  0
 10 12  1  0  0  0  0
 11 16  1  0  0  0  0
 12 13  1  6  0  0  0
 12 14  1  0  0  0  0
 14 15  1  6  0  0  0
 14 16  1  0  0  0  0
 16 27  1  1  0  0  0
 18 19  2  0  0  0  0
 18 23  1  0  0  0  0
 19 20  1  0  0  0  0
 20 21  2  0  0  0  0
 21 22  1  0  0  0  0
 21 27  1  0  0  0  0
 22 23  2  0  0  0  0
 22 25  1  0  0  0  0
 23 24  1  0  0  0  0
 25 26  2  0  0  0  0
 26 27  1  0  0  0  0
M  END
>  <CHROM.1>
-52.09943112,-175.01935987,153.74095927,173.88404785,-159.80225290,71.33693772
54.92574855,9.42316757,-7.65566989,19.82080791,-2.61245574,-0.06300825,-2.38443615

>  <Name>
ligand

>  <RI>
0

>  <Rbt.Current_Directory>
/home/itssahil/PROJECTS/Mol_Feturizer/Test_systems_manuscript/rnas/2ydh

>  <Rbt.Executable>
rbdock ($Id: //depot/dev/client3/rdock/2013.1/src/exe/rbdock.cxx#4 $)

>  <Rbt.Library>
libRbt.so (2013.1, Build901 2013/11/27)

>  <Rbt.Parameter_File>
/export/apps/rDock/src/rDock_2013.1_src/data/scripts/dock_solv.prm

>  <Rbt.Receptor>
prm/blind_docking_80.prm

>  <SCORE>
-11.3689

>  <SCORE.INTER>
-10.9038

>  <SCORE.INTER.CONST>
1

>  <SCORE.INTER.POLAR>
0

>  <SCORE.INTER.ROT>
7

>  <SCORE.INTER.SOLV>
15.1667

>  <SCORE.INTER.VDW>
-20.5915

>  <SCORE.INTER.norm>
-0.403845

>  <SCORE.INTRA>
-0.465128

>  <SCORE.INTRA.DIHEDRAL>
-2.03223

>  <SCORE.INTRA.DIHEDRAL.0>
9.75037

>  <SCORE.INTRA.POLAR>
0

>  <SCORE.INTRA.POLAR.0>
0

>  <SCORE.INTRA.REPUL>
0

>  <SCORE.INTRA.REPUL.0>
0

>  <SCORE.INTRA.SOLV>
-1.56187

>  <SCORE.INTRA.SOLV.lig_0>
-48.4279

>  <SCORE.INTRA.VDW>
1.33192

>  <SCORE.INTRA.VDW.0>
-4.69037

>  <SCORE.INTRA.norm>
-0.017227

>  <SCORE.RESTR>
0

>  <SCORE.RESTR.CAVITY>
0

>  <SCORE.RESTR.norm>
0

>  <SCORE.SYSTEM>
0

>  <SCORE.SYSTEM.CONST>
0

>  <SCORE.SYSTEM.DIHEDRAL>
0

>  <SCORE.SYSTEM.SOLV>
0

>  <SCORE.SYSTEM.norm>
0

>  <SCORE.heavy>
27

>  <SCORE.norm>
-0.421072

>  <RMSD>
13.159

$$$$
ligand
 OpenBabel02271912153D
libRbt.so/2013.1/901 2013/11/27
 27 29  0  0  0  0  0  0  0  0999 V2000
    8.1611   -2.4256   23.1743 N   0  0  0  0  0  0  0  0  0  0  0  0
    7.4452   -3.4809   22.3930 C   0  0  2  0  0  0  0  0  0  0  0  0
    6.4916   -4.2920   23.2983 C   0  0  0  0  0  0  0  0  0  0  0  0
    5.2661   -4.1898   23.1872 O   0  0  0  0  0  0  0  0  0  0  0  0
    8.4649   -4.3717   21.6912 C   0  0  0  0  0  0  0  0  0  0  0  0
    9.5534   -4.9196   22.5989 C   0  0  0  0  0  0  0  0  0  0  0  0
   10.6277   -6.1334   21.7806 S   0  0  2  0  0  0  0  0  0  0  0  0
    9.6717   -7.6555   22.0350 C   0  0  0  0  0  0  0  0  0  0  0  0
   12.0382   -6.3854   22.8701 C   0  0  0  0  0  0  0  0  0  0  0  0
   13.1279   -7.1144   22.1074 C   0  0  1  0  0  0  0  0  0  0  0  0
   12.6588   -8.3043   21.4923 O   0  0  0  0  0  0  0  0  0  0  0  0
   13.7097   -6.2507   21.0150 C   0  0  1  0  0  0  0  0  0  0  0  0
   14.7200   -5.4213   21.5131 O   0  0  0  0  0  0  0  0  0  0  0  0
   14.2467   -7.2896   20.0783 C   0  0  1  0  0  0  0  0  0  0  0  0
   15.5612   -7.6347   20.4721 O   0  0  0  0  0  0  0  0  0  0  0  0
   13.3087   -8.4769   20.2542 C   0  0  2  0  0  0  0  0  0  0  0  0
    6.9082   -5.0720   24.1742 O   0  0  0  0  0  0  0  0  0  0  0  0
   11.9631   -7.2607   15.2975 N   0  0  0  0  0  0  0  0  0  0  0  0
   13.1380   -6.9422   15.9629 C   0  0  0  0  0  0  0  0  0  0  0  0
   13.3365   -7.3267   17.2836 N   0  0  0  0  0  0  0  0  0  0  0  0
   12.3811   -8.0333   17.9144 C   0  0  0  0  0  0  0  0  0  0  0  0
   11.1995   -8.3734   17.2497 C   0  0  0  0  0  0  0  0  0  0  0  0
   10.9796   -7.9792   15.9427 C   0  0  0  0  0  0  0  0  0  0  0  0
    9.8535   -8.2946   15.3204 N   0  0  0  0  0  0  0  0  0  0  0  0
   10.4370   -9.0793   18.0918 N   0  0  0  0  0  0  0  0  0  0  0  0
   11.0998   -9.1977   19.2635 C   0  0  0  0  0  0  0  0  0  0  0  0
   12.3111   -8.5585   19.1707 N   0  0  0  0  0  0  0  0  0  0  0  0
  2  1  1  1  0  0  0
  2  3  1  0  0  0  0
  2  5  1  0  0  0  0
  3  4  1  0  0  0  0
  3 17  1  0  0  0  0
  5  6  1  0  0  0  0
  7  6  1  1  0  0  0
  7  8  1  0  0  0  0
  7  9  1  0  0  0  0
 10  9  1  6  0  0  0
 10 11  1  0  0  0  0
 10 12  1  0  0  0  0
 11 16  1  0  0  0  0
 12 13  1  1  0  0  0
 12 14  1  0  0  0  0
 14 15  1  1  0  0  0
 14 16  1  0  0  0  0
 16 27  1  6  0  0  0
 18 19  2  0  0  0  0
 18 23  1  0  0  0  0
 19 20  1  0  0  0  0
 20 21  2  0  0  0  0
 21 22  1  0  0  0  0
 21 27  1  0  0  0  0
 22 23  2  0  0  0  0
 22 25  1  0  0  0  0
 23 24  1  0  0  0  0
 25 26  2  0  0  0  0
 26 27  1  0  0  0  0
M  END
>  <CHROM.1>
110.34927256,51.13992050,172.93301487,-85.88450900,-166.22225885,-52.71003725
141.25114803,11.02561272,-6.62436812,20.38372011,-2.28623949,0.26001179,-1.94460433

>  <Name>
ligand

>  <RI>
0

>  <Rbt.Current_Directory>
/home/itssahil/PROJECTS/Mol_Feturizer/Test_systems_manuscript/rnas/2ydh

>  <Rbt.Executable>
rbdock ($Id: //depot/dev/client3/rdock/2013.1/src/exe/rbdock.cxx#4 $)

>  <Rbt.Library>
libRbt.so (2013.1, Build901 2013/11/27)

>  <Rbt.Parameter_File>
/export/apps/rDock/src/rDock_2013.1_src/data/scripts/dock_solv.prm

>  <Rbt.Receptor>
prm/blind_docking_40.prm

>  <SCORE>
-14.0873

>  <SCORE.INTER>
-13.8712

>  <SCORE.INTER.CONST>
1

>  <SCORE.INTER.POLAR>
0

>  <SCORE.INTER.ROT>
7

>  <SCORE.INTER.SOLV>
15.093

>  <SCORE.INTER.VDW>
-22.5451

>  <SCORE.INTER.norm>
-0.513748

>  <SCORE.INTRA>
-0.21609

>  <SCORE.INTRA.DIHEDRAL>
-3.78053

>  <SCORE.INTRA.DIHEDRAL.0>
9.75037

>  <SCORE.INTRA.POLAR>
0

>  <SCORE.INTRA.POLAR.0>
0

>  <SCORE.INTRA.REPUL>
0

>  <SCORE.INTRA.REPUL.0>
0

>  <SCORE.INTRA.SOLV>
-0.545342

>  <SCORE.INTRA.SOLV.lig_0>
-48.4279

>  <SCORE.INTRA.VDW>
1.94685

>  <SCORE.INTRA.VDW.0>
-4.69037

>  <SCORE.INTRA.norm>
-0.00800334

>  <SCORE.RESTR>
0

>  <SCORE.RESTR.CAVITY>
0

>  <SCORE.RESTR.norm>
0

>  <SCORE.SYSTEM>
0

>  <SCORE.SYSTEM.CONST>
0

>  <SCORE.SYSTEM.DIHEDRAL>
0

>  <SCORE.SYSTEM.SOLV>
0

>  <SCORE.SYSTEM.norm>
0

>  <SCORE.heavy>
27

>  <SCORE.norm>
-0.521752

>  <RMSD>
13.260

$$$$
ligand
 OpenBabel02271912153D
libRbt.so/2013.1/901 2013/11/27
 27 29  0  0  0  0  0  0  0  0999 V2000
   12.1192   -7.8301   14.1688 N   0  0  0  0  0  0  0  0  0  0  0  0
   13.2016   -8.3840   15.0396 C   0  0  2  0  0  0  0  0  0  0  0  0
   13.1025   -9.9225   15.1388 C   0  0  0  0  0  0  0  0  0  0  0  0
   14.0252  -10.6473   14.7540 O   0  0  0  0  0  0  0  0  0  0  0  0
   13.1418   -7.7165   16.4095 C   0  0  0  0  0  0  0  0  0  0  0  0
   14.2930   -8.0732   17.3350 C   0  0  0  0  0  0  0  0  0  0  0  0
   14.2710   -7.1491   18.8979 S   0  0  2  0  0  0  0  0  0  0  0  0
   15.7781   -7.7838   19.6862 C   0  0  0  0  0  0  0  0  0  0  0  0
   12.9761   -7.8841   19.9092 C   0  0  0  0  0  0  0  0  0  0  0  0
   12.8908   -7.1342   21.2248 C   0  0  1  0  0  0  0  0  0  0  0  0
   12.4428   -5.7975   21.0613 O   0  0  0  0  0  0  0  0  0  0  0  0
   11.9378   -7.8066   22.1828 C   0  0  1  0  0  0  0  0  0  0  0  0
   12.5762   -8.8277   22.8945 O   0  0  0  0  0  0  0  0  0  0  0  0
   11.5569   -6.6587   23.0672 C   0  0  1  0  0  0  0  0  0  0  0  0
   12.4982   -6.5501   24.1181 O   0  0  0  0  0  0  0  0  0  0  0  0
   11.6319   -5.4400   22.1565 C   0  0  2  0  0  0  0  0  0  0  0  0
   12.0989  -10.4965   15.6000 O   0  0  0  0  0  0  0  0  0  0  0  0
    8.5028   -1.5612   20.4178 N   0  0  0  0  0  0  0  0  0  0  0  0
    9.8392   -1.4785   20.7809 C   0  0  0  0  0  0  0  0  0  0  0  0
   10.5253   -2.5980   21.2363 N   0  0  0  0  0  0  0  0  0  0  0  0
    9.8852   -3.7793   21.3062 C   0  0  0  0  0  0  0  0  0  0  0  0
    8.5431   -3.8784   20.9288 C   0  0  0  0  0  0  0  0  0  0  0  0
    7.8422   -2.7686   20.4941 C   0  0  0  0  0  0  0  0  0  0  0  0
    6.5673   -2.8653   20.1479 N   0  0  0  0  0  0  0  0  0  0  0  0
    8.1614   -5.1513   21.0805 N   0  0  0  0  0  0  0  0  0  0  0  0
    9.2187   -5.8576   21.5380 C   0  0  0  0  0  0  0  0  0  0  0  0
   10.2996   -5.0233   21.6798 N   0  0  0  0  0  0  0  0  0  0  0  0
  2  1  1  6  0  0  0
  2  3  1  0  0  0  0
  2  5  1  0  0  0  0
  3  4  1  0  0  0  0
  3 17  1  0  0  0  0
  5  6  1  0  0  0  0
  7  6  1  6  0  0  0
  7  8  1  0  0  0  0
  7  9  1  0  0  0  0
 10  9  1  6  0  0  0
 10 11  1  0  0  0  0
 10 12  1  0  0  0  0
 11 16  1  0  0  0  0
 12 13  1  1  0  0  0
 12 14  1  0  0  0  0
 14 15  1  1  0  0  0
 14 16  1  0  0  0  0
 16 27  1  6  0  0  0
 18 19  2  0  0  0  0
 18 23  1  0  0  0  0
 19 20  1  0  0  0  0
 20 21  2  0  0  0  0
 21 22  1  0  0  0  0
 21 27  1  0  0  0  0
 22 23  2  0  0  0  0
 22 25  1  0  0  0  0
 23 24  1  0  0  0  0
 25 26  2  0  0  0  0
 26 27  1  0  0  0  0
M  END
>  <CHROM.1>
119.29151416,-173.10254814,174.83531935,-178.20124261,-178.94125985,66.56429977
-88.62155649,11.69512124,-6.40324506,19.68758326,0.80968840,0.76300203,-1.79043520

>  <Name>
ligand

>  <RI>
0

>  <Rbt.Current_Directory>
/home/itssahil/PROJECTS/Mol_Feturizer/Test_systems_manuscript/rnas/2ydh

>  <Rbt.Executable>
rbdock ($Id: //depot/dev/client3/rdock/2013.1/src/exe/rbdock.cxx#4 $)

>  <Rbt.Library>
libRbt.so (2013.1, Build901 2013/11/27)

>  <Rbt.Parameter_File>
/export/apps/rDock/src/rDock_2013.1_src/data/scripts/dock_solv.prm

>  <Rbt.Receptor>
prm/blind_docking_100.prm

>  <SCORE>
-17.8415

>  <SCORE.INTER>
-16.4506

>  <SCORE.INTER.CONST>
1

>  <SCORE.INTER.POLAR>
0

>  <SCORE.INTER.ROT>
7

>  <SCORE.INTER.SOLV>
15.4183

>  <SCORE.INTER.VDW>
-24.3732

>  <SCORE.INTER.norm>
-0.609281

>  <SCORE.INTRA>
-1.39677

>  <SCORE.INTRA.DIHEDRAL>
-5.85574

>  <SCORE.INTRA.DIHEDRAL.0>
9.75037

>  <SCORE.INTRA.POLAR>
0

>  <SCORE.INTRA.POLAR.0>
0

>  <SCORE.INTRA.REPUL>
0

>  <SCORE.INTRA.REPUL.0>
0

>  <SCORE.INTRA.SOLV>
-1.59338

>  <SCORE.INTRA.SOLV.lig_0>
-48.4279

>  <SCORE.INTRA.VDW>
2.32779

>  <SCORE.INTRA.VDW.0>
-4.69037

>  <SCORE.INTRA.norm>
-0.0517324

>  <SCORE.RESTR>
0.00590248

>  <SCORE.RESTR.CAVITY>
0.00590248

>  <SCORE.RESTR.norm>
0.00021861

>  <SCORE.SYSTEM>
0

>  <SCORE.SYSTEM.CONST>
0

>  <SCORE.SYSTEM.DIHEDRAL>
0

>  <SCORE.SYSTEM.SOLV>
0

>  <SCORE.SYSTEM.norm>
0

>  <SCORE.heavy>
27

>  <SCORE.norm>
-0.660795

>  <RMSD>
13.277

$$$$
ligand
 OpenBabel02271912153D
libRbt.so/2013.1/901 2013/11/27
 27 29  0  0  0  0  0  0  0  0999 V2000
    7.0026   -3.4618   22.0699 N   0  0  0  0  0  0  0  0  0  0  0  0
    8.3924   -3.8846   22.4257 C   0  0  2  0  0  0  0  0  0  0  0  0
    9.4278   -3.2513   21.4700 C   0  0  0  0  0  0  0  0  0  0  0  0
   10.5682   -3.7138   21.3681 O   0  0  0  0  0  0  0  0  0  0  0  0
    8.4736   -5.4075   22.4308 C   0  0  0  0  0  0  0  0  0  0  0  0
    9.7846   -5.9668   22.9574 C   0  0  0  0  0  0  0  0  0  0  0  0
    9.8214   -7.7814   23.0115 S   0  0  2  0  0  0  0  0  0  0  0  0
    8.7569   -8.0976   24.4477 C   0  0  0  0  0  0  0  0  0  0  0  0
   11.4458   -8.2422   23.6351 C   0  0  0  0  0  0  0  0  0  0  0  0
   12.4267   -8.2802   22.4788 C   0  0  1  0  0  0  0  0  0  0  0  0
   12.0563   -9.2197   21.4817 O   0  0  0  0  0  0  0  0  0  0  0  0
   12.5347   -6.9355   21.8020 C   0  0  1  0  0  0  0  0  0  0  0  0
   13.4580   -6.1144   22.4578 O   0  0  0  0  0  0  0  0  0  0  0  0
   13.0074   -7.3342   20.4373 C   0  0  1  0  0  0  0  0  0  0  0  0
   14.4199   -7.4184   20.4415 O   0  0  0  0  0  0  0  0  0  0  0  0
   12.3924   -8.7095   20.2121 C   0  0  2  0  0  0  0  0  0  0  0  0
    9.1665   -2.2550   20.7711 O   0  0  0  0  0  0  0  0  0  0  0  0
   10.2445   -7.4000   15.5720 N   0  0  0  0  0  0  0  0  0  0  0  0
   11.5696   -7.2727   15.9626 C   0  0  0  0  0  0  0  0  0  0  0  0
   11.9779   -7.6536   17.2353 N   0  0  0  0  0  0  0  0  0  0  0  0
   11.0754   -8.1695   18.0895 C   0  0  0  0  0  0  0  0  0  0  0  0
    9.7405   -8.3168   17.7021 C   0  0  0  0  0  0  0  0  0  0  0  0
    9.3161   -7.9224   16.4466 C   0  0  0  0  0  0  0  0  0  0  0  0
    8.0478   -8.0538   16.0880 N   0  0  0  0  0  0  0  0  0  0  0  0
    9.0688   -8.8601   18.7232 N   0  0  0  0  0  0  0  0  0  0  0  0
    9.9363   -9.0625   19.7394 C   0  0  0  0  0  0  0  0  0  0  0  0
   11.1882   -8.6441   19.3625 N   0  0  0  0  0  0  0  0  0  0  0  0
  2  1  1  6  0  0  0
  2  3  1  0  0  0  0
  2  5  1  0  0  0  0
  3  4  1  0  0  0  0
  3 17  1  0  0  0  0
  5  6  1  0  0  0  0
  7  6  1  1  0  0  0
  7  8  1  0  0  0  0
  7  9  1  0  0  0  0
 10  9  1  1  0  0  0
 10 11  1  0  0  0  0
 10 12  1  0  0  0  0
 11 16  1  0  0  0  0
 12 13  1  1  0  0  0
 12 14  1  0  0  0  0
 14 15  1  1  0  0  0
 14 16  1  0  0  0  0
 16 27  1  6  0  0  0
 18 19  2  0  0  0  0
 18 23  1  0  0  0  0
 19 20  1  0  0  0  0
 20 21  2  0  0  0  0
 21 22  1  0  0  0  0
 21 27  1  0  0  0  0
 22 23  2  0  0  0  0
 22 25  1  0  0  0  0
 23 24  1  0  0  0  0
 25 26  2  0  0  0  0
 26 27  1  0  0  0  0
M  END
>  <CHROM.1>
-161.71760108,-172.24813516,177.69227672,-74.50272724,-85.10714548,-60.16462800
177.51559901,10.55919436,-6.93998273,20.53672307,1.80374387,-0.80270629,1.28747604

>  <Name>
ligand

>  <RI>
0

>  <Rbt.Current_Directory>
/home/itssahil/PROJECTS/Mol_Feturizer/Test_systems_manuscript/rnas/2ydh

>  <Rbt.Executable>
rbdock ($Id: //depot/dev/client3/rdock/2013.1/src/exe/rbdock.cxx#4 $)

>  <Rbt.Library>
libRbt.so (2013.1, Build901 2013/11/27)

>  <Rbt.Parameter_File>
/export/apps/rDock/src/rDock_2013.1_src/data/scripts/dock_solv.prm

>  <Rbt.Receptor>
prm/blind_docking_60.prm

>  <SCORE>
-12.9134

>  <SCORE.INTER>
-11.926

>  <SCORE.INTER.CONST>
1

>  <SCORE.INTER.POLAR>
0

>  <SCORE.INTER.ROT>
7

>  <SCORE.INTER.SOLV>
11.1737

>  <SCORE.INTER.VDW>
-19.9419

>  <SCORE.INTER.norm>
-0.441702

>  <SCORE.INTRA>
-0.987446

>  <SCORE.INTRA.DIHEDRAL>
-5.43954

>  <SCORE.INTRA.DIHEDRAL.0>
9.75037

>  <SCORE.INTRA.POLAR>
0

>  <SCORE.INTRA.POLAR.0>
0

>  <SCORE.INTRA.REPUL>
0

>  <SCORE.INTRA.REPUL.0>
0

>  <SCORE.INTRA.SOLV>
-1.18175

>  <SCORE.INTRA.SOLV.lig_0>
-48.4279

>  <SCORE.INTRA.VDW>
2.3232

>  <SCORE.INTRA.VDW.0>
-4.69037

>  <SCORE.INTRA.norm>
-0.0365721

>  <SCORE.RESTR>
0

>  <SCORE.RESTR.CAVITY>
0

>  <SCORE.RESTR.norm>
0

>  <SCORE.SYSTEM>
0

>  <SCORE.SYSTEM.CONST>
0

>  <SCORE.SYSTEM.DIHEDRAL>
0

>  <SCORE.SYSTEM.SOLV>
0

>  <SCORE.SYSTEM.norm>
0

>  <SCORE.heavy>
27

>  <SCORE.norm>
-0.478274

>  <RMSD>
13.391

$$$$
ligand
 OpenBabel02271912153D
libRbt.so/2013.1/901 2013/11/27
 27 29  0  0  0  0  0  0  0  0999 V2000
   14.6025   -7.9069   14.0979 N   0  0  0  0  0  0  0  0  0  0  0  0
   13.2213   -8.1896   14.5970 C   0  0  2  0  0  0  0  0  0  0  0  0
   12.1583   -7.5102   13.7054 C   0  0  0  0  0  0  0  0  0  0  0  0
   12.4632   -6.5965   12.9328 O   0  0  0  0  0  0  0  0  0  0  0  0
   13.1098   -7.7546   16.0544 C   0  0  0  0  0  0  0  0  0  0  0  0
   14.2115   -8.2852   16.9565 C   0  0  0  0  0  0  0  0  0  0  0  0
   14.1773   -7.5739   18.6268 S   0  0  2  0  0  0  0  0  0  0  0  0
   15.8115   -8.0734   19.2395 C   0  0  0  0  0  0  0  0  0  0  0  0
   13.0742   -8.6096   19.6018 C   0  0  0  0  0  0  0  0  0  0  0  0
   13.0510   -8.0994   21.0300 C   0  0  1  0  0  0  0  0  0  0  0  0
   12.6642   -6.7366   21.1148 O   0  0  0  0  0  0  0  0  0  0  0  0
   12.0862   -8.8875   21.8821 C   0  0  1  0  0  0  0  0  0  0  0  0
   12.6891  -10.0445   22.3866 O   0  0  0  0  0  0  0  0  0  0  0  0
   11.7781   -7.8973   22.9635 C   0  0  1  0  0  0  0  0  0  0  0  0
   12.7442   -8.0160   23.9906 O   0  0  0  0  0  0  0  0  0  0  0  0
   11.8931   -6.5420   22.2778 C   0  0  2  0  0  0  0  0  0  0  0  0
   10.9593   -7.8438   13.7276 O   0  0  0  0  0  0  0  0  0  0  0  0
    6.8749   -7.4486   20.9162 N   0  0  0  0  0  0  0  0  0  0  0  0
    7.8632   -8.3817   21.1942 C   0  0  0  0  0  0  0  0  0  0  0  0
    9.1510   -7.9791   21.5271 N   0  0  0  0  0  0  0  0  0  0  0  0
    9.4327   -6.6654   21.5975 C   0  0  0  0  0  0  0  0  0  0  0  0
    8.4415   -5.7157   21.3344 C   0  0  0  0  0  0  0  0  0  0  0  0
    7.1616   -6.1020   20.9813 C   0  0  0  0  0  0  0  0  0  0  0  0
    6.2285   -5.1982   20.7223 N   0  0  0  0  0  0  0  0  0  0  0  0
    8.9789   -4.5004   21.4871 N   0  0  0  0  0  0  0  0  0  0  0  0
   10.2744   -4.6529   21.8402 C   0  0  0  0  0  0  0  0  0  0  0  0
   10.5730   -5.9905   21.9184 N   0  0  0  0  0  0  0  0  0  0  0  0
  2  1  1  6  0  0  0
  2  3  1  0  0  0  0
  2  5  1  0  0  0  0
  3  4  1  0  0  0  0
  3 17  1  0  0  0  0
  5  6  1  0  0  0  0
  7  6  1  6  0  0  0
  7  8  1  0  0  0  0
  7  9  1  0  0  0  0
 10  9  1  6  0  0  0
 10 11  1  0  0  0  0
 10 12  1  0  0  0  0
 11 16  1  0  0  0  0
 12 13  1  1  0  0  0
 12 14  1  0  0  0  0
 14 15  1  1  0  0  0
 14 16  1  0  0  0  0
 16 27  1  6  0  0  0
 18 19  2  0  0  0  0
 18 23  1  0  0  0  0
 19 20  1  0  0  0  0
 20 21  2  0  0  0  0
 21 22  1  0  0  0  0
 21 27  1  0  0  0  0
 22 23  2  0  0  0  0
 22 25  1  0  0  0  0
 23 24  1  0  0  0  0
 25 26  2  0  0  0  0
 26 27  1  0  0  0  0
M  END
>  <CHROM.1>
-17.34413454,-50.71736990,172.28454893,-165.99910152,177.55324993,56.79487901
88.74241682,11.54126557,-7.34896393,19.48864600,-1.03896369,-0.33082520,1.62450726

>  <Name>
ligand

>  <RI>
0

>  <Rbt.Current_Directory>
/home/itssahil/PROJECTS/Mol_Feturizer/Test_systems_manuscript/rnas/2ydh

>  <Rbt.Executable>
rbdock ($Id: //depot/dev/client3/rdock/2013.1/src/exe/rbdock.cxx#4 $)

>  <Rbt.Library>
libRbt.so (2013.1, Build901 2013/11/27)

>  <Rbt.Parameter_File>
/export/apps/rDock/src/rDock_2013.1_src/data/scripts/dock_solv.prm

>  <Rbt.Receptor>
prm/blind_docking_100.prm

>  <SCORE>
-14.6822

>  <SCORE.INTER>
-14.0957

>  <SCORE.INTER.CONST>
1

>  <SCORE.INTER.POLAR>
0

>  <SCORE.INTER.ROT>
7

>  <SCORE.INTER.SOLV>
8.97323

>  <SCORE.INTER.VDW>
-20.6549

>  <SCORE.INTER.norm>
-0.522063

>  <SCORE.INTRA>
-0.586506

>  <SCORE.INTRA.DIHEDRAL>
-4.89205

>  <SCORE.INTRA.DIHEDRAL.0>
9.75037

>  <SCORE.INTRA.POLAR>
0

>  <SCORE.INTRA.POLAR.0>
0

>  <SCORE.INTRA.REPUL>
0

>  <SCORE.INTRA.REPUL.0>
0

>  <SCORE.INTRA.SOLV>
-0.708619

>  <SCORE.INTRA.SOLV.lig_0>
-48.4279

>  <SCORE.INTRA.VDW>
2.21383

>  <SCORE.INTRA.VDW.0>
-4.69037

>  <SCORE.INTRA.norm>
-0.0217224

>  <SCORE.RESTR>
0

>  <SCORE.RESTR.CAVITY>
0

>  <SCORE.RESTR.norm>
0

>  <SCORE.SYSTEM>
0

>  <SCORE.SYSTEM.CONST>
0

>  <SCORE.SYSTEM.DIHEDRAL>
0

>  <SCORE.SYSTEM.SOLV>
0

>  <SCORE.SYSTEM.norm>
0

>  <SCORE.heavy>
27

>  <SCORE.norm>
-0.543785

>  <RMSD>
13.442

$$$$
ligand
 OpenBabel02271912153D
libRbt.so/2013.1/901 2013/11/27
 27 29  0  0  0  0  0  0  0  0999 V2000
   10.3615   -8.3625   16.1170 N   0  0  0  0  0  0  0  0  0  0  0  0
   11.7326   -7.9006   16.4954 C   0  0  2  0  0  0  0  0  0  0  0  0
   12.5020   -7.3750   15.2632 C   0  0  0  0  0  0  0  0  0  0  0  0
   13.5485   -6.7322   15.3911 O   0  0  0  0  0  0  0  0  0  0  0  0
   12.4753   -9.0350   17.1935 C   0  0  0  0  0  0  0  0  0  0  0  0
   13.8206   -8.6407   17.7798 C   0  0  0  0  0  0  0  0  0  0  0  0
   13.6908   -7.4226   19.1202 S   0  0  2  0  0  0  0  0  0  0  0  0
   15.3847   -7.4569   19.7722 C   0  0  0  0  0  0  0  0  0  0  0  0
   12.7599   -8.2135   20.4423 C   0  0  0  0  0  0  0  0  0  0  0  0
   12.6047   -7.2354   21.5911 C   0  0  1  0  0  0  0  0  0  0  0  0
   12.1135   -5.9728   21.1684 O   0  0  0  0  0  0  0  0  0  0  0  0
   11.6467   -7.7567   22.6344 C   0  0  1  0  0  0  0  0  0  0  0  0
   12.2989   -8.5991   23.5409 O   0  0  0  0  0  0  0  0  0  0  0  0
   11.1956   -6.4809   23.2778 C   0  0  1  0  0  0  0  0  0  0  0  0
   12.0979   -6.1384   24.3125 O   0  0  0  0  0  0  0  0  0  0  0  0
   11.2551   -5.4516   22.1565 C   0  0  2  0  0  0  0  0  0  0  0  0
   12.1054   -7.5674   14.0991 O   0  0  0  0  0  0  0  0  0  0  0  0
    7.7785   -1.9243   20.3314 N   0  0  0  0  0  0  0  0  0  0  0  0
    9.0534   -1.6863   20.8242 C   0  0  0  0  0  0  0  0  0  0  0  0
    9.8468   -2.7306   21.2841 N   0  0  0  0  0  0  0  0  0  0  0  0
    9.3744   -3.9892   21.2310 C   0  0  0  0  0  0  0  0  0  0  0  0
    8.0975   -4.2432   20.7225 C   0  0  0  0  0  0  0  0  0  0  0  0
    7.2891   -3.2118   20.2813 C   0  0  0  0  0  0  0  0  0  0  0  0
    6.0754   -3.4564   19.8104 N   0  0  0  0  0  0  0  0  0  0  0  0
    7.8857   -5.5630   20.7706 N   0  0  0  0  0  0  0  0  0  0  0  0
    8.9873   -6.1489   21.2895 C   0  0  0  0  0  0  0  0  0  0  0  0
    9.9244   -5.1878   21.5770 N   0  0  0  0  0  0  0  0  0  0  0  0
  2  1  1  6  0  0  0
  2  3  1  0  0  0  0
  2  5  1  0  0  0  0
  3  4  1  0  0  0  0
  3 17  1  0  0  0  0
  5  6  1  0  0  0  0
  7  6  1  6  0  0  0
  7  8  1  0  0  0  0
  7  9  1  0  0  0  0
 10  9  1  6  0  0  0
 10 11  1  0  0  0  0
 10 12  1  0  0  0  0
 11 16  1  0  0  0  0
 12 13  1  1  0  0  0
 12 14  1  0  0  0  0
 14 15  1  1  0  0  0
 14 16  1  0  0  0  0
 16 27  1  6  0  0  0
 18 19  2  0  0  0  0
 18 23  1  0  0  0  0
 19 20  1  0  0  0  0
 20 21  2  0  0  0  0
 21 22  1  0  0  0  0
 21 27  1  0  0  0  0
 22 23  2  0  0  0  0
 22 25  1  0  0  0  0
 23 24  1  0  0  0  0
 25 26  2  0  0  0  0
 26 27  1  0  0  0  0
M  END
>  <CHROM.1>
166.91114850,-172.88516789,64.48920691,169.13832461,-179.40725429,50.47764162
-104.27278552,11.17961781,-6.22027088,19.88265415,0.70327005,0.69327855,-1.66065263

>  <Name>
ligand

>  <RI>
0

>  <Rbt.Current_Directory>
/home/itssahil/PROJECTS/Mol_Feturizer/Test_systems_manuscript/rnas/2ydh

>  <Rbt.Executable>
rbdock ($Id: //depot/dev/client3/rdock/2013.1/src/exe/rbdock.cxx#4 $)

>  <Rbt.Library>
libRbt.so (2013.1, Build901 2013/11/27)

>  <Rbt.Parameter_File>
/export/apps/rDock/src/rDock_2013.1_src/data/scripts/dock_solv.prm

>  <Rbt.Receptor>
prm/blind_docking_80.prm

>  <SCORE>
-17.0267

>  <SCORE.INTER>
-15.5043

>  <SCORE.INTER.CONST>
1

>  <SCORE.INTER.POLAR>
0

>  <SCORE.INTER.ROT>
7

>  <SCORE.INTER.SOLV>
12.9616

>  <SCORE.INTER.VDW>
-22.9234

>  <SCORE.INTER.norm>
-0.574233

>  <SCORE.INTRA>
-1.52246

>  <SCORE.INTRA.DIHEDRAL>
-5.89761

>  <SCORE.INTRA.DIHEDRAL.0>
9.75037

>  <SCORE.INTRA.POLAR>
0

>  <SCORE.INTRA.POLAR.0>
0

>  <SCORE.INTRA.REPUL>
0

>  <SCORE.INTRA.REPUL.0>
0

>  <SCORE.INTRA.SOLV>
-1.43547

>  <SCORE.INTRA.SOLV.lig_0>
-48.4279

>  <SCORE.INTRA.VDW>
2.14408

>  <SCORE.INTRA.VDW.0>
-4.69037

>  <SCORE.INTRA.norm>
-0.0563874

>  <SCORE.RESTR>
0

>  <SCORE.RESTR.CAVITY>
0

>  <SCORE.RESTR.norm>
0

>  <SCORE.SYSTEM>
0

>  <SCORE.SYSTEM.CONST>
0

>  <SCORE.SYSTEM.DIHEDRAL>
0

>  <SCORE.SYSTEM.SOLV>
0

>  <SCORE.SYSTEM.norm>
0

>  <SCORE.heavy>
27

>  <SCORE.norm>
-0.63062

>  <RMSD>
13.447

$$$$
ligand
 OpenBabel02271912153D
libRbt.so/2013.1/901 2013/11/27
 27 29  0  0  0  0  0  0  0  0999 V2000
    8.5955   -0.7832   20.0269 N   0  0  0  0  0  0  0  0  0  0  0  0
    8.7559   -1.4165   21.3722 C   0  0  2  0  0  0  0  0  0  0  0  0
   10.0233   -0.8945   22.0848 C   0  0  0  0  0  0  0  0  0  0  0  0
   10.0402   -0.7152   23.3064 O   0  0  0  0  0  0  0  0  0  0  0  0
    8.7678   -2.9339   21.2203 C   0  0  0  0  0  0  0  0  0  0  0  0
    8.7004   -3.6990   22.5315 C   0  0  0  0  0  0  0  0  0  0  0  0
    8.8557   -5.4961   22.3234 S   0  0  2  0  0  0  0  0  0  0  0  0
    8.6138   -6.0557   24.0333 C   0  0  0  0  0  0  0  0  0  0  0  0
   10.6041   -5.8316   22.0586 C   0  0  0  0  0  0  0  0  0  0  0  0
   10.8536   -7.3180   22.2290 C   0  0  1  0  0  0  0  0  0  0  0  0
   10.2155   -8.0952   21.2276 O   0  0  0  0  0  0  0  0  0  0  0  0
   12.3267   -7.6410   22.1688 C   0  0  1  0  0  0  0  0  0  0  0  0
   12.9303   -7.4745   23.4196 O   0  0  0  0  0  0  0  0  0  0  0  0
   12.2918   -9.0789   21.7488 C   0  0  1  0  0  0  0  0  0  0  0  0
   12.1845   -9.8960   22.8991 O   0  0  0  0  0  0  0  0  0  0  0  0
   11.0350   -9.1921   20.8956 C   0  0  2  0  0  0  0  0  0  0  0  0
   11.0715   -0.6283   21.4685 O   0  0  0  0  0  0  0  0  0  0  0  0
   13.6702   -6.9571   16.9057 N   0  0  0  0  0  0  0  0  0  0  0  0
   13.6992   -6.6058   18.2475 C   0  0  0  0  0  0  0  0  0  0  0  0
   12.9297   -7.2901   19.1808 N   0  0  0  0  0  0  0  0  0  0  0  0
   12.1625   -8.3182   18.7751 C   0  0  0  0  0  0  0  0  0  0  0  0
   12.1366   -8.6912   17.4283 C   0  0  0  0  0  0  0  0  0  0  0  0
   12.8806   -8.0058   16.4856 C   0  0  0  0  0  0  0  0  0  0  0  0
   12.8443   -8.3562   15.2087 N   0  0  0  0  0  0  0  0  0  0  0  0
   11.3136   -9.7381   17.3025 N   0  0  0  0  0  0  0  0  0  0  0  0
   10.8228  -10.0386   18.5252 C   0  0  0  0  0  0  0  0  0  0  0  0
   11.3424   -9.1706   19.4530 N   0  0  0  0  0  0  0  0  0  0  0  0
  2  1  1  6  0  0  0
  2  3  1  0  0  0  0
  2  5  1  0  0  0  0
  3  4  1  0  0  0  0
  3 17  1  0  0  0  0
  5  6  1  0  0  0  0
  7  6  1  1  0  0  0
  7  8  1  0  0  0  0
  7  9  1  0  0  0  0
 10  9  1  6  0  0  0
 10 11  1  0  0  0  0
 10 12  1  0  0  0  0
 11 16  1  0  0  0  0
 12 13  1  1  0  0  0
 12 14  1  0  0  0  0
 14 15  1  1  0  0  0
 14 16  1  0  0  0  0
 16 27  1  6  0  0  0
 18 19  2  0  0  0  0
 18 23  1  0  0  0  0
 19 20  1  0  0  0  0
 20 21  2  0  0  0  0
 21 22  1  0  0  0  0
 21 27  1  0  0  0  0
 22 23  2  0  0  0  0
 22 25  1  0  0  0  0
 23 24  1  0  0  0  0
 25 26  2  0  0  0  0
 26 27  1  0  0  0  0
M  END
>  <CHROM.1>
143.72461667,-170.63167805,-175.20262699,-176.14127485,165.72750927,65.94672932
71.74465510,10.96742591,-6.21357430,20.65266335,-2.73439322,-1.17311546,2.50543306

>  <Name>
ligand

>  <RI>
0

>  <Rbt.Current_Directory>
/home/itssahil/PROJECTS/Mol_Feturizer/Test_systems_manuscript/rnas/2ydh

>  <Rbt.Executable>
rbdock ($Id: //depot/dev/client3/rdock/2013.1/src/exe/rbdock.cxx#4 $)

>  <Rbt.Library>
libRbt.so (2013.1, Build901 2013/11/27)

>  <Rbt.Parameter_File>
/export/apps/rDock/src/rDock_2013.1_src/data/scripts/dock_solv.prm

>  <Rbt.Receptor>
prm/blind_docking_100.prm

>  <SCORE>
-16.3832

>  <SCORE.INTER>
-14.5653

>  <SCORE.INTER.CONST>
1

>  <SCORE.INTER.POLAR>
0

>  <SCORE.INTER.ROT>
7

>  <SCORE.INTER.SOLV>
10.8844

>  <SCORE.INTER.VDW>
-21.605

>  <SCORE.INTER.norm>
-0.539457

>  <SCORE.INTRA>
-1.81784

>  <SCORE.INTRA.DIHEDRAL>
-5.70862

>  <SCORE.INTRA.DIHEDRAL.0>
9.75037

>  <SCORE.INTRA.POLAR>
0

>  <SCORE.INTRA.POLAR.0>
0

>  <SCORE.INTRA.REPUL>
0

>  <SCORE.INTRA.REPUL.0>
0

>  <SCORE.INTRA.SOLV>
-1.4987

>  <SCORE.INTRA.SOLV.lig_0>
-48.4279

>  <SCORE.INTRA.VDW>
1.78583

>  <SCORE.INTRA.VDW.0>
-4.69037

>  <SCORE.INTRA.norm>
-0.0673272

>  <SCORE.RESTR>
0

>  <SCORE.RESTR.CAVITY>
0

>  <SCORE.RESTR.norm>
0

>  <SCORE.SYSTEM>
0

>  <SCORE.SYSTEM.CONST>
0

>  <SCORE.SYSTEM.DIHEDRAL>
0

>  <SCORE.SYSTEM.SOLV>
0

>  <SCORE.SYSTEM.norm>
0

>  <SCORE.heavy>
27

>  <SCORE.norm>
-0.606784

>  <RMSD>
13.466

$$$$
ligand
 OpenBabel02271912153D
libRbt.so/2013.1/901 2013/11/27
 27 29  0  0  0  0  0  0  0  0999 V2000
    6.2893   -8.5265   19.2976 N   0  0  0  0  0  0  0  0  0  0  0  0
    7.6064   -8.0010   19.7729 C   0  0  2  0  0  0  0  0  0  0  0  0
    8.5788   -9.1551   20.1032 C   0  0  0  0  0  0  0  0  0  0  0  0
    8.2608  -10.0515   20.8906 O   0  0  0  0  0  0  0  0  0  0  0  0
    7.3836   -7.0798   20.9676 C   0  0  0  0  0  0  0  0  0  0  0  0
    8.6199   -6.3179   21.4151 C   0  0  0  0  0  0  0  0  0  0  0  0
    9.7734   -7.3280   22.3876 S   0  0  2  0  0  0  0  0  0  0  0  0
    9.3404   -6.8070   24.0719 C   0  0  0  0  0  0  0  0  0  0  0  0
   11.4032   -6.5952   22.1715 C   0  0  0  0  0  0  0  0  0  0  0  0
   12.0481   -7.1813   20.9301 C   0  0  1  0  0  0  0  0  0  0  0  0
   13.0163   -6.3148   20.3591 O   0  0  0  0  0  0  0  0  0  0  0  0
   12.7447   -8.4854   21.2332 C   0  0  1  0  0  0  0  0  0  0  0  0
   11.8491   -9.5587   21.1810 O   0  0  0  0  0  0  0  0  0  0  0  0
   13.7526   -8.5405   20.1259 C   0  0  1  0  0  0  0  0  0  0  0  0
   13.1633   -9.1470   18.9914 O   0  0  0  0  0  0  0  0  0  0  0  0
   14.0792   -7.0804   19.8403 C   0  0  2  0  0  0  0  0  0  0  0  0
    9.7156   -9.2316   19.6020 O   0  0  0  0  0  0  0  0  0  0  0  0
   19.3236   -7.6073   20.1181 N   0  0  0  0  0  0  0  0  0  0  0  0
   18.4442   -8.2772   19.2799 C   0  0  0  0  0  0  0  0  0  0  0  0
   17.0772   -8.0340   19.3391 N   0  0  0  0  0  0  0  0  0  0  0  0
   16.6077   -7.1220   20.2099 C   0  0  0  0  0  0  0  0  0  0  0  0
   17.4855   -6.4298   21.0489 C   0  0  0  0  0  0  0  0  0  0  0  0
   18.8455   -6.6770   21.0156 C   0  0  0  0  0  0  0  0  0  0  0  0
   19.6722   -6.0262   21.8204 N   0  0  0  0  0  0  0  0  0  0  0  0
   16.7670   -5.5838   21.7953 N   0  0  0  0  0  0  0  0  0  0  0  0
   15.4667   -5.7179   21.4524 C   0  0  0  0  0  0  0  0  0  0  0  0
   15.3489   -6.6653   20.4660 N   0  0  0  0  0  0  0  0  0  0  0  0
  2  1  1  1  0  0  0
  2  3  1  0  0  0  0
  2  5  1  0  0  0  0
  3  4  1  0  0  0  0
  3 17  1  0  0  0  0
  5  6  1  0  0  0  0
  7  6  1  6  0  0  0
  7  8  1  0  0  0  0
  7  9  1  0  0  0  0
 10  9  1  1  0  0  0
 10 11  1  0  0  0  0
 10 12  1  0  0  0  0
 11 16  1  0  0  0  0
 12 13  1  6  0  0  0
 12 14  1  0  0  0  0
 14 15  1  6  0  0  0
 14 16  1  0  0  0  0
 16 27  1  1  0  0  0
 18 19  2  0  0  0  0
 18 23  1  0  0  0  0
 19 20  1  0  0  0  0
 20 21  2  0  0  0  0
 21 22  1  0  0  0  0
 21 27  1  0  0  0  0
 22 23  2  0  0  0  0
 22 25  1  0  0  0  0
 23 24  1  0  0  0  0
 25 26  2  0  0  0  0
 26 27  1  0  0  0  0
M  END
>  <CHROM.1>
-54.40097120,-171.30799935,-78.03015976,-99.53568410,-87.09192211,154.73123268
-177.55170205,12.77727510,-7.56598690,20.81943140,-3.08286536,0.11591529
0.81627739

>  <Name>
ligand

>  <RI>
0

>  <Rbt.Current_Directory>
/home/itssahil/PROJECTS/Mol_Feturizer/Test_systems_manuscript/rnas/2ydh

>  <Rbt.Executable>
rbdock ($Id: //depot/dev/client3/rdock/2013.1/src/exe/rbdock.cxx#4 $)

>  <Rbt.Library>
libRbt.so (2013.1, Build901 2013/11/27)

>  <Rbt.Parameter_File>
/export/apps/rDock/src/rDock_2013.1_src/data/scripts/dock_solv.prm

>  <Rbt.Receptor>
prm/blind_docking_40.prm

>  <SCORE>
-17.5049

>  <SCORE.INTER>
-17.4655

>  <SCORE.INTER.CONST>
1

>  <SCORE.INTER.POLAR>
0

>  <SCORE.INTER.ROT>
7

>  <SCORE.INTER.SOLV>
15.1089

>  <SCORE.INTER.VDW>
-24.9466

>  <SCORE.INTER.norm>
-0.64687

>  <SCORE.INTRA>
-0.0501669

>  <SCORE.INTRA.DIHEDRAL>
0.308609

>  <SCORE.INTRA.DIHEDRAL.0>
9.75037

>  <SCORE.INTRA.POLAR>
0

>  <SCORE.INTRA.POLAR.0>
0

>  <SCORE.INTRA.REPUL>
0

>  <SCORE.INTRA.REPUL.0>
0

>  <SCORE.INTRA.SOLV>
-1.0714

>  <SCORE.INTRA.SOLV.lig_0>
-48.4279

>  <SCORE.INTRA.VDW>
0.331229

>  <SCORE.INTRA.VDW.0>
-4.69037

>  <SCORE.INTRA.norm>
-0.00185803

>  <SCORE.RESTR>
0.0107814

>  <SCORE.RESTR.CAVITY>
0.0107814

>  <SCORE.RESTR.norm>
0.00039931

>  <SCORE.SYSTEM>
0

>  <SCORE.SYSTEM.CONST>
0

>  <SCORE.SYSTEM.DIHEDRAL>
0

>  <SCORE.SYSTEM.SOLV>
0

>  <SCORE.SYSTEM.norm>
0

>  <SCORE.heavy>
27

>  <SCORE.norm>
-0.648329

>  <RMSD>
13.477

$$$$
ligand
 OpenBabel02271912153D
libRbt.so/2013.1/901 2013/11/27
 27 29  0  0  0  0  0  0  0  0999 V2000
    6.4088   -7.8670   20.1822 N   0  0  0  0  0  0  0  0  0  0  0  0
    7.7932   -7.4839   19.7659 C   0  0  2  0  0  0  0  0  0  0  0  0
    8.1630   -8.1244   18.4095 C   0  0  0  0  0  0  0  0  0  0  0  0
    8.8233   -7.5044   17.5703 O   0  0  0  0  0  0  0  0  0  0  0  0
    8.7775   -7.8647   20.8667 C   0  0  0  0  0  0  0  0  0  0  0  0
    8.5806   -7.1164   22.1745 C   0  0  0  0  0  0  0  0  0  0  0  0
    9.8957   -7.4298   23.3866 S   0  0  2  0  0  0  0  0  0  0  0  0
    9.3263   -6.4071   24.7741 C   0  0  0  0  0  0  0  0  0  0  0  0
   11.3432   -6.5240   22.8172 C   0  0  0  0  0  0  0  0  0  0  0  0
   11.7983   -7.1026   21.4910 C   0  0  1  0  0  0  0  0  0  0  0  0
   12.6990   -6.2472   20.8045 O   0  0  0  0  0  0  0  0  0  0  0  0
   12.4993   -8.4261   21.6774 C   0  0  1  0  0  0  0  0  0  0  0  0
   11.5803   -9.4791   21.7338 O   0  0  0  0  0  0  0  0  0  0  0  0
   13.3446   -8.4837   20.4416 C   0  0  1  0  0  0  0  0  0  0  0  0
   12.5915   -9.0583   19.3905 O   0  0  0  0  0  0  0  0  0  0  0  0
   13.6628   -7.0261   20.1342 C   0  0  2  0  0  0  0  0  0  0  0  0
    7.8129   -9.2783   18.1008 O   0  0  0  0  0  0  0  0  0  0  0  0
   18.8756   -7.7822   19.7970 N   0  0  0  0  0  0  0  0  0  0  0  0
   17.8734   -8.4390   19.0978 C   0  0  0  0  0  0  0  0  0  0  0  0
   16.5351   -8.1318   19.3122 N   0  0  0  0  0  0  0  0  0  0  0  0
   16.2137   -7.1707   20.1971 C   0  0  0  0  0  0  0  0  0  0  0  0
   17.2152   -6.4913   20.8964 C   0  0  0  0  0  0  0  0  0  0  0  0
   18.5497   -6.8013   20.7088 C   0  0  0  0  0  0  0  0  0  0  0  0
   19.4947   -6.1623   21.3819 N   0  0  0  0  0  0  0  0  0  0  0  0
   16.6289   -5.5888   21.6906 N   0  0  0  0  0  0  0  0  0  0  0  0
   15.2921   -5.6750   21.5127 C   0  0  0  0  0  0  0  0  0  0  0  0
   15.0156   -6.6486   20.5854 N   0  0  0  0  0  0  0  0  0  0  0  0
  2  1  1  1  0  0  0
  2  3  1  0  0  0  0
  2  5  1  0  0  0  0
  3  4  1  0  0  0  0
  3 17  1  0  0  0  0
  5  6  1  0  0  0  0
  7  6  1  6  0  0  0
  7  8  1  0  0  0  0
  7  9  1  0  0  0  0
 10  9  1  1  0  0  0
 10 11  1  0  0  0  0
 10 12  1  0  0  0  0
 11 16  1  0  0  0  0
 12 13  1  6  0  0  0
 12 14  1  0  0  0  0
 14 15  1  6  0  0  0
 14 16  1  0  0  0  0
 16 27  1  1  0  0  0
 18 19  2  0  0  0  0
 18 23  1  0  0  0  0
 19 20  1  0  0  0  0
 20 21  2  0  0  0  0
 21 22  1  0  0  0  0
 21 27  1  0  0  0  0
 22 23  2  0  0  0  0
 22 25  1  0  0  0  0
 23 24  1  0  0  0  0
 25 26  2  0  0  0  0
 26 27  1  0  0  0  0
M  END
>  <CHROM.1>
141.69331046,-64.36808873,-172.40074823,-179.65968802,-64.28846773,164.58300929
179.11755802,12.57333457,-7.44532691,20.82231441,-3.12810164,0.09112278,1.22615630

>  <Name>
ligand

>  <RI>
0

>  <Rbt.Current_Directory>
/home/itssahil/PROJECTS/Mol_Feturizer/Test_systems_manuscript/rnas/2ydh

>  <Rbt.Executable>
rbdock ($Id: //depot/dev/client3/rdock/2013.1/src/exe/rbdock.cxx#4 $)

>  <Rbt.Library>
libRbt.so (2013.1, Build901 2013/11/27)

>  <Rbt.Parameter_File>
/export/apps/rDock/src/rDock_2013.1_src/data/scripts/dock_solv.prm

>  <Rbt.Receptor>
prm/blind_docking_40.prm

>  <SCORE>
-17.9487

>  <SCORE.INTER>
-16.7049

>  <SCORE.INTER.CONST>
1

>  <SCORE.INTER.POLAR>
0

>  <SCORE.INTER.ROT>
7

>  <SCORE.INTER.SOLV>
15.2933

>  <SCORE.INTER.VDW>
-24.5011

>  <SCORE.INTER.norm>
-0.618702

>  <SCORE.INTRA>
-1.2438

>  <SCORE.INTRA.DIHEDRAL>
-5.42545

>  <SCORE.INTRA.DIHEDRAL.0>
9.75037

>  <SCORE.INTRA.POLAR>
0

>  <SCORE.INTRA.POLAR.0>
0

>  <SCORE.INTRA.REPUL>
0

>  <SCORE.INTRA.REPUL.0>
0

>  <SCORE.INTRA.SOLV>
-0.389094

>  <SCORE.INTRA.SOLV.lig_0>
-48.4279

>  <SCORE.INTRA.VDW>
1.66348

>  <SCORE.INTRA.VDW.0>
-4.69037

>  <SCORE.INTRA.norm>
-0.0460666

>  <SCORE.RESTR>
0

>  <SCORE.RESTR.CAVITY>
0

>  <SCORE.RESTR.norm>
0

>  <SCORE.SYSTEM>
0

>  <SCORE.SYSTEM.CONST>
0

>  <SCORE.SYSTEM.DIHEDRAL>
0

>  <SCORE.SYSTEM.SOLV>
0

>  <SCORE.SYSTEM.norm>
0

>  <SCORE.heavy>
27

>  <SCORE.norm>
-0.664768

>  <RMSD>
13.514

$$$$
ligand
 OpenBabel02271912153D
libRbt.so/2013.1/901 2013/11/27
 27 29  0  0  0  0  0  0  0  0999 V2000
    6.6440   -8.9373   16.5431 N   0  0  0  0  0  0  0  0  0  0  0  0
    6.4808   -9.9846   17.5982 C   0  0  2  0  0  0  0  0  0  0  0  0
    5.2919  -10.9171   17.2765 C   0  0  0  0  0  0  0  0  0  0  0  0
    5.4707  -12.1091   17.0082 O   0  0  0  0  0  0  0  0  0  0  0  0
    6.3310   -9.3139   18.9596 C   0  0  0  0  0  0  0  0  0  0  0  0
    7.5848   -8.6162   19.4598 C   0  0  0  0  0  0  0  0  0  0  0  0
    7.3891   -7.8819   21.1089 S   0  0  2  0  0  0  0  0  0  0  0  0
    6.1561   -6.5956   20.7611 C   0  0  0  0  0  0  0  0  0  0  0  0
    8.8732   -6.9110   21.4164 C   0  0  0  0  0  0  0  0  0  0  0  0
    9.9609   -7.8253   21.9472 C   0  0  1  0  0  0  0  0  0  0  0  0
   10.1859   -8.9475   21.1081 O   0  0  0  0  0  0  0  0  0  0  0  0
   11.2774   -7.0990   22.0780 C   0  0  1  0  0  0  0  0  0  0  0  0
   11.3591   -6.4205   23.2985 O   0  0  0  0  0  0  0  0  0  0  0  0
   12.2468   -8.2391   22.0031 C   0  0  1  0  0  0  0  0  0  0  0  0
   12.4391   -8.7709   23.3002 O   0  0  0  0  0  0  0  0  0  0  0  0
   11.5598   -9.2598   21.1051 C   0  0  2  0  0  0  0  0  0  0  0  0
    4.1140  -10.5149   17.2675 O   0  0  0  0  0  0  0  0  0  0  0  0
   15.6713   -8.5002   17.8838 N   0  0  0  0  0  0  0  0  0  0  0  0
   15.6514   -8.4306   19.2692 C   0  0  0  0  0  0  0  0  0  0  0  0
   14.4748   -8.6445   19.9774 N   0  0  0  0  0  0  0  0  0  0  0  0
   13.3470   -8.9411   19.3063 C   0  0  0  0  0  0  0  0  0  0  0  0
   13.3579   -9.0290   17.9114 C   0  0  0  0  0  0  0  0  0  0  0  0
   14.5164   -8.7978   17.1928 C   0  0  0  0  0  0  0  0  0  0  0  0
   14.5192   -8.8715   15.8702 N   0  0  0  0  0  0  0  0  0  0  0  0
   12.1239   -9.3471   17.5052 N   0  0  0  0  0  0  0  0  0  0  0  0
   11.3370   -9.4652   18.5974 C   0  0  0  0  0  0  0  0  0  0  0  0
   12.0803   -9.2214   19.7255 N   0  0  0  0  0  0  0  0  0  0  0  0
  2  1  1  6  0  0  0
  2  3  1  0  0  0  0
  2  5  1  0  0  0  0
  3  4  1  0  0  0  0
  3 17  1  0  0  0  0
  5  6  1  0  0  0  0
  7  6  1  6  0  0  0
  7  8  1  0  0  0  0
  7  9  1  0  0  0  0
 10  9  1  6  0  0  0
 10 11  1  0  0  0  0
 10 12  1  0  0  0  0
 11 16  1  0  0  0  0
 12 13  1  1  0  0  0
 12 14  1  0  0  0  0
 14 15  1  1  0  0  0
 14 16  1  0  0  0  0
 16 27  1  6  0  0  0
 18 19  2  0  0  0  0
 18 23  1  0  0  0  0
 19 20  1  0  0  0  0
 20 21  2  0  0  0  0
 21 22  1  0  0  0  0
 21 27  1  0  0  0  0
 22 23  2  0  0  0  0
 22 25  1  0  0  0  0
 23 24  1  0  0  0  0
 25 26  2  0  0  0  0
 26 27  1  0  0  0  0
M  END
>  <CHROM.1>
113.68859095,-68.30140938,-177.87266103,-65.68332257,-83.92358407,53.29919932
151.82282615,10.13776756,-8.75529456,19.58380856,-2.96013580,0.06772744,1.14529138

>  <Name>
ligand

>  <RI>
0

>  <Rbt.Current_Directory>
/home/itssahil/PROJECTS/Mol_Feturizer/Test_systems_manuscript/rnas/2ydh

>  <Rbt.Executable>
rbdock ($Id: //depot/dev/client3/rdock/2013.1/src/exe/rbdock.cxx#4 $)

>  <Rbt.Library>
libRbt.so (2013.1, Build901 2013/11/27)

>  <Rbt.Parameter_File>
/export/apps/rDock/src/rDock_2013.1_src/data/scripts/dock_solv.prm

>  <Rbt.Receptor>
prm/blind_docking_80.prm

>  <SCORE>
-14.53

>  <SCORE.INTER>
-13.7242

>  <SCORE.INTER.CONST>
1

>  <SCORE.INTER.POLAR>
0

>  <SCORE.INTER.ROT>
7

>  <SCORE.INTER.SOLV>
8.44144

>  <SCORE.INTER.VDW>
-20.23

>  <SCORE.INTER.norm>
-0.508304

>  <SCORE.INTRA>
-0.805815

>  <SCORE.INTRA.DIHEDRAL>
-5.48254

>  <SCORE.INTRA.DIHEDRAL.0>
9.75037

>  <SCORE.INTRA.POLAR>
0

>  <SCORE.INTRA.POLAR.0>
0

>  <SCORE.INTRA.REPUL>
0

>  <SCORE.INTRA.REPUL.0>
0

>  <SCORE.INTRA.SOLV>
-0.862161

>  <SCORE.INTRA.SOLV.lig_0>
-48.4279

>  <SCORE.INTRA.VDW>
2.36653

>  <SCORE.INTRA.VDW.0>
-4.69037

>  <SCORE.INTRA.norm>
-0.029845

>  <SCORE.RESTR>
0

>  <SCORE.RESTR.CAVITY>
0

>  <SCORE.RESTR.norm>
0

>  <SCORE.SYSTEM>
0

>  <SCORE.SYSTEM.CONST>
0

>  <SCORE.SYSTEM.DIHEDRAL>
0

>  <SCORE.SYSTEM.SOLV>
0

>  <SCORE.SYSTEM.norm>
0

>  <SCORE.heavy>
27

>  <SCORE.norm>
-0.538149

>  <RMSD>
13.586

$$$$
ligand
 OpenBabel02271912153D
libRbt.so/2013.1/901 2013/11/27
 27 29  0  0  0  0  0  0  0  0999 V2000
   18.2163   -9.0160   18.2251 N   0  0  0  0  0  0  0  0  0  0  0  0
   17.8529   -7.8248   19.0531 C   0  0  2  0  0  0  0  0  0  0  0  0
   18.9346   -7.5372   20.1180 C   0  0  0  0  0  0  0  0  0  0  0  0
   19.0629   -6.4115   20.6089 O   0  0  0  0  0  0  0  0  0  0  0  0
   16.4781   -8.0409   19.6766 C   0  0  0  0  0  0  0  0  0  0  0  0
   15.3200   -7.9463   18.6973 C   0  0  0  0  0  0  0  0  0  0  0  0
   13.7193   -8.3864   19.4328 S   0  0  2  0  0  0  0  0  0  0  0  0
   12.5823   -7.7768   18.1557 C   0  0  0  0  0  0  0  0  0  0  0  0
   13.4369   -7.2239   20.7777 C   0  0  0  0  0  0  0  0  0  0  0  0
   12.1390   -7.5819   21.4762 C   0  0  1  0  0  0  0  0  0  0  0  0
   11.0172   -7.5109   20.6098 O   0  0  0  0  0  0  0  0  0  0  0  0
   12.1804   -8.9840   22.0333 C   0  0  1  0  0  0  0  0  0  0  0  0
   12.7775   -9.0059   23.2981 O   0  0  0  0  0  0  0  0  0  0  0  0
   10.7204   -9.3149   22.0956 C   0  0  1  0  0  0  0  0  0  0  0  0
   10.1948   -8.8659   23.3303 O   0  0  0  0  0  0  0  0  0  0  0  0
   10.1072   -8.5345   20.9401 C   0  0  2  0  0  0  0  0  0  0  0  0
   19.7208   -8.4136   20.5217 O   0  0  0  0  0  0  0  0  0  0  0  0
    6.6474  -10.5626   17.5086 N   0  0  0  0  0  0  0  0  0  0  0  0
    6.3918   -9.7038   18.5677 C   0  0  0  0  0  0  0  0  0  0  0  0
    7.4190   -9.2668   19.3956 N   0  0  0  0  0  0  0  0  0  0  0  0
    8.6789   -9.6703   19.1508 C   0  0  0  0  0  0  0  0  0  0  0  0
    8.9510  -10.5234   18.0776 C   0  0  0  0  0  0  0  0  0  0  0  0
    7.9361  -10.9830   17.2587 C   0  0  0  0  0  0  0  0  0  0  0  0
    8.1975  -11.8001   16.2494 N   0  0  0  0  0  0  0  0  0  0  0  0
   10.2684  -10.7536   18.0530 N   0  0  0  0  0  0  0  0  0  0  0  0
   10.8353  -10.0719   19.0728 C   0  0  0  0  0  0  0  0  0  0  0  0
    9.8644   -9.3894   19.7628 N   0  0  0  0  0  0  0  0  0  0  0  0
  2  1  1  1  0  0  0
  2  3  1  0  0  0  0
  2  5  1  0  0  0  0
  3  4  1  0  0  0  0
  3 17  1  0  0  0  0
  5  6  1  0  0  0  0
  7  6  1  6  0  0  0
  7  8  1  0  0  0  0
  7  9  1  0  0  0  0
 10  9  1  6  0  0  0
 10 11  1  0  0  0  0
 10 12  1  0  0  0  0
 11 16  1  0  0  0  0
 12 13  1  1  0  0  0
 12 14  1  0  0  0  0
 14 15  1  1  0  0  0
 14 16  1  0  0  0  0
 16 27  1  6  0  0  0
 18 19  2  0  0  0  0
 18 23  1  0  0  0  0
 19 20  1  0  0  0  0
 20 21  2  0  0  0  0
 21 22  1  0  0  0  0
 21 27  1  0  0  0  0
 22 23  2  0  0  0  0
 22 25  1  0  0  0  0
 23 24  1  0  0  0  0
 25 26  2  0  0  0  0
 26 27  1  0  0  0  0
M  END
>  <CHROM.1>
156.95996928,-72.36632190,173.69027222,166.67960650,-177.38760480,-60.89118653
-122.38723892,12.39438664,-8.85961199,19.75532666,-0.19140992,-0.18782266
-1.88046291

>  <Name>
ligand

>  <RI>
0

>  <Rbt.Current_Directory>
/home/itssahil/PROJECTS/Mol_Feturizer/Test_systems_manuscript/rnas/2ydh

>  <Rbt.Executable>
rbdock ($Id: //depot/dev/client3/rdock/2013.1/src/exe/rbdock.cxx#4 $)

>  <Rbt.Library>
libRbt.so (2013.1, Build901 2013/11/27)

>  <Rbt.Parameter_File>
/export/apps/rDock/src/rDock_2013.1_src/data/scripts/dock_solv.prm

>  <Rbt.Receptor>
prm/blind_docking_100.prm

>  <SCORE>
-16.3014

>  <SCORE.INTER>
-15.6114

>  <SCORE.INTER.CONST>
1

>  <SCORE.INTER.POLAR>
0

>  <SCORE.INTER.ROT>
7

>  <SCORE.INTER.SOLV>
14.1712

>  <SCORE.INTER.VDW>
-23.398

>  <SCORE.INTER.norm>
-0.5782

>  <SCORE.INTRA>
-0.68995

>  <SCORE.INTRA.DIHEDRAL>
-5.5446

>  <SCORE.INTRA.DIHEDRAL.0>
9.75037

>  <SCORE.INTRA.POLAR>
0

>  <SCORE.INTRA.POLAR.0>
0

>  <SCORE.INTRA.REPUL>
0

>  <SCORE.INTRA.REPUL.0>
0

>  <SCORE.INTRA.SOLV>
-0.661951

>  <SCORE.INTRA.SOLV.lig_0>
-48.4279

>  <SCORE.INTRA.VDW>
2.41333

>  <SCORE.INTRA.VDW.0>
-4.69037

>  <SCORE.INTRA.norm>
-0.0255537

>  <SCORE.RESTR>
0

>  <SCORE.RESTR.CAVITY>
0

>  <SCORE.RESTR.norm>
0

>  <SCORE.SYSTEM>
0

>  <SCORE.SYSTEM.CONST>
0

>  <SCORE.SYSTEM.DIHEDRAL>
0

>  <SCORE.SYSTEM.SOLV>
0

>  <SCORE.SYSTEM.norm>
0

>  <SCORE.heavy>
27

>  <SCORE.norm>
-0.603754

>  <RMSD>
13.610

$$$$
ligand
 OpenBabel02271912153D
libRbt.so/2013.1/901 2013/11/27
 27 29  0  0  0  0  0  0  0  0999 V2000
   13.7198   -8.2008   14.4479 N   0  0  0  0  0  0  0  0  0  0  0  0
   14.6359   -8.0894   15.6248 C   0  0  2  0  0  0  0  0  0  0  0  0
   15.4772   -9.3735   15.7978 C   0  0  0  0  0  0  0  0  0  0  0  0
   16.5211   -9.3681   16.4573 O   0  0  0  0  0  0  0  0  0  0  0  0
   13.8213   -7.7656   16.8727 C   0  0  0  0  0  0  0  0  0  0  0  0
   14.6524   -7.3843   18.0863 C   0  0  0  0  0  0  0  0  0  0  0  0
   13.6505   -6.9955   19.5499 S   0  0  2  0  0  0  0  0  0  0  0  0
   14.9401   -6.4551   20.7076 C   0  0  0  0  0  0  0  0  0  0  0  0
   13.1432   -8.5714   20.2563 C   0  0  0  0  0  0  0  0  0  0  0  0
   12.0145   -8.3314   21.2408 C   0  0  1  0  0  0  0  0  0  0  0  0
   10.8674   -7.7653   20.6261 O   0  0  0  0  0  0  0  0  0  0  0  0
   11.5752   -9.6156   21.9008 C   0  0  1  0  0  0  0  0  0  0  0  0
   12.3757   -9.9118   23.0090 O   0  0  0  0  0  0  0  0  0  0  0  0
   10.1715   -9.2729   22.2974 C   0  0  1  0  0  0  0  0  0  0  0  0
   10.1867   -8.6529   23.5693 O   0  0  0  0  0  0  0  0  0  0  0  0
    9.7077   -8.2894   21.2307 C   0  0  2  0  0  0  0  0  0  0  0  0
   15.1497  -10.4583   15.2827 O   0  0  0  0  0  0  0  0  0  0  0  0
    4.9148   -8.8752   19.0991 N   0  0  0  0  0  0  0  0  0  0  0  0
    5.2808   -8.0582   20.1589 C   0  0  0  0  0  0  0  0  0  0  0  0
    6.5931   -8.0269   20.6154 N   0  0  0  0  0  0  0  0  0  0  0  0
    7.5207   -8.7870   20.0054 C   0  0  0  0  0  0  0  0  0  0  0  0
    7.1672   -9.6026   18.9268 C   0  0  0  0  0  0  0  0  0  0  0  0
    5.8613   -9.6598   18.4759 C   0  0  0  0  0  0  0  0  0  0  0  0
    5.5290  -10.4426   17.4603 N   0  0  0  0  0  0  0  0  0  0  0  0
    8.2685  -10.2325   18.5033 N   0  0  0  0  0  0  0  0  0  0  0  0
    9.3041   -9.8388   19.2769 C   0  0  0  0  0  0  0  0  0  0  0  0
    8.8599   -8.9375   20.2123 N   0  0  0  0  0  0  0  0  0  0  0  0
  2  1  1  6  0  0  0
  2  3  1  0  0  0  0
  2  5  1  0  0  0  0
  3  4  1  0  0  0  0
  3 17  1  0  0  0  0
  5  6  1  0  0  0  0
  7  6  1  6  0  0  0
  7  8  1  0  0  0  0
  7  9  1  0  0  0  0
 10  9  1  6  0  0  0
 10 11  1  0  0  0  0
 10 12  1  0  0  0  0
 11 16  1  0  0  0  0
 12 13  1  1  0  0  0
 12 14  1  0  0  0  0
 14 15  1  1  0  0  0
 14 16  1  0  0  0  0
 16 27  1  6  0  0  0
 18 19  2  0  0  0  0
 18 23  1  0  0  0  0
 19 20  1  0  0  0  0
 20 21  2  0  0  0  0
 21 22  1  0  0  0  0
 21 27  1  0  0  0  0
 22 23  2  0  0  0  0
 22 25  1  0  0  0  0
 23 24  1  0  0  0  0
 25 26  2  0  0  0  0
 26 27  1  0  0  0  0
M  END
>  <CHROM.1>
160.40296017,-169.68727575,179.63916170,-175.08995020,-164.86978330,61.51880382
-131.76803382,11.07311918,-8.68651221,19.27855266,0.31966639,-0.13901696
-1.72275043

>  <Name>
ligand

>  <RI>
0

>  <Rbt.Current_Directory>
/home/itssahil/PROJECTS/Mol_Feturizer/Test_systems_manuscript/rnas/2ydh

>  <Rbt.Executable>
rbdock ($Id: //depot/dev/client3/rdock/2013.1/src/exe/rbdock.cxx#4 $)

>  <Rbt.Library>
libRbt.so (2013.1, Build901 2013/11/27)

>  <Rbt.Parameter_File>
/export/apps/rDock/src/rDock_2013.1_src/data/scripts/dock_solv.prm

>  <Rbt.Receptor>
prm/blind_docking_80.prm

>  <SCORE>
-16.7222

>  <SCORE.INTER>
-15.5928

>  <SCORE.INTER.CONST>
1

>  <SCORE.INTER.POLAR>
0

>  <SCORE.INTER.ROT>
7

>  <SCORE.INTER.SOLV>
13.2049

>  <SCORE.INTER.VDW>
-23.0635

>  <SCORE.INTER.norm>
-0.577512

>  <SCORE.INTRA>
-1.12938

>  <SCORE.INTRA.DIHEDRAL>
-4.54257

>  <SCORE.INTRA.DIHEDRAL.0>
9.75037

>  <SCORE.INTRA.POLAR>
0

>  <SCORE.INTRA.POLAR.0>
0

>  <SCORE.INTRA.REPUL>
0

>  <SCORE.INTRA.REPUL.0>
0

>  <SCORE.INTRA.SOLV>
-1.5861

>  <SCORE.INTRA.SOLV.lig_0>
-48.4279

>  <SCORE.INTRA.VDW>
1.93495

>  <SCORE.INTRA.VDW.0>
-4.69037

>  <SCORE.INTRA.norm>
-0.0418289

>  <SCORE.RESTR>
0

>  <SCORE.RESTR.CAVITY>
0

>  <SCORE.RESTR.norm>
0

>  <SCORE.SYSTEM>
0

>  <SCORE.SYSTEM.CONST>
0

>  <SCORE.SYSTEM.DIHEDRAL>
0

>  <SCORE.SYSTEM.SOLV>
0

>  <SCORE.SYSTEM.norm>
0

>  <SCORE.heavy>
27

>  <SCORE.norm>
-0.619341

>  <RMSD>
13.668

$$$$
ligand
 OpenBabel02271912153D
libRbt.so/2013.1/901 2013/11/27
 27 29  0  0  0  0  0  0  0  0999 V2000
    7.9348  -13.7310   17.3145 N   0  0  0  0  0  0  0  0  0  0  0  0
    8.0516  -12.2516   17.1283 C   0  0  2  0  0  0  0  0  0  0  0  0
    8.1295  -11.8844   15.6297 C   0  0  0  0  0  0  0  0  0  0  0  0
    8.4283  -12.7296   14.7806 O   0  0  0  0  0  0  0  0  0  0  0  0
    9.2564  -11.7359   17.9080 C   0  0  0  0  0  0  0  0  0  0  0  0
    9.3767  -10.2217   17.9531 C   0  0  0  0  0  0  0  0  0  0  0  0
    8.2184   -9.4433   19.1147 S   0  0  2  0  0  0  0  0  0  0  0  0
    6.6929   -9.4582   18.1306 C   0  0  0  0  0  0  0  0  0  0  0  0
    8.6292   -7.6912   19.1504 C   0  0  0  0  0  0  0  0  0  0  0  0
    8.1340   -7.0938   20.4537 C   0  0  1  0  0  0  0  0  0  0  0  0
    8.6836   -5.8102   20.7075 O   0  0  0  0  0  0  0  0  0  0  0  0
    6.6325   -6.9410   20.4557 C   0  0  1  0  0  0  0  0  0  0  0  0
    6.0061   -8.1277   20.8508 O   0  0  0  0  0  0  0  0  0  0  0  0
    6.4531   -5.8481   21.4648 C   0  0  1  0  0  0  0  0  0  0  0  0
    6.3723   -6.4184   22.7573 O   0  0  0  0  0  0  0  0  0  0  0  0
    7.7133   -5.0027   21.3331 C   0  0  2  0  0  0  0  0  0  0  0  0
    7.9031  -10.7333   15.2139 O   0  0  0  0  0  0  0  0  0  0  0  0
    7.0848   -2.8225   16.5675 N   0  0  0  0  0  0  0  0  0  0  0  0
    7.2949   -4.1599   16.8706 C   0  0  0  0  0  0  0  0  0  0  0  0
    7.4569   -4.5763   18.1866 N   0  0  0  0  0  0  0  0  0  0  0  0
    7.3893   -3.6686   19.1774 C   0  0  0  0  0  0  0  0  0  0  0  0
    7.1629   -2.3205   18.8857 C   0  0  0  0  0  0  0  0  0  0  0  0
    7.0212   -1.8891   17.5797 C   0  0  0  0  0  0  0  0  0  0  0  0
    6.8177   -0.6088   17.3075 N   0  0  0  0  0  0  0  0  0  0  0  0
    7.1280   -1.6455   20.0399 N   0  0  0  0  0  0  0  0  0  0  0  0
    7.3219   -2.5235   21.0487 C   0  0  0  0  0  0  0  0  0  0  0  0
    7.4813   -3.7855   20.5327 N   0  0  0  0  0  0  0  0  0  0  0  0
  2  1  1  6  0  0  0
  2  3  1  0  0  0  0
  2  5  1  0  0  0  0
  3  4  1  0  0  0  0
  3 17  1  0  0  0  0
  5  6  1  0  0  0  0
  7  6  1  6  0  0  0
  7  8  1  0  0  0  0
  7  9  1  0  0  0  0
 10  9  1  6  0  0  0
 10 11  1  0  0  0  0
 10 12  1  0  0  0  0
 11 16  1  0  0  0  0
 12 13  1  1  0  0  0
 12 14  1  0  0  0  0
 14 15  1  1  0  0  0
 14 16  1  0  0  0  0
 16 27  1  6  0  0  0
 18 19  2  0  0  0  0
 18 23  1  0  0  0  0
 19 20  1  0  0  0  0
 20 21  2  0  0  0  0
 21 22  1  0  0  0  0
 21 27  1  0  0  0  0
 22 23  2  0  0  0  0
 22 25  1  0  0  0  0
 23 24  1  0  0  0  0
 25 26  2  0  0  0  0
 26 27  1  0  0  0  0
M  END
>  <CHROM.1>
-18.31419011,-172.17859924,76.43736745,-79.51361278,-156.96783142,166.04481525
40.92545444,7.61719547,-7.02815349,18.77751853,0.46682049,-1.43658859,2.31496472

>  <Name>
ligand

>  <RI>
0

>  <Rbt.Current_Directory>
/home/itssahil/PROJECTS/Mol_Feturizer/Test_systems_manuscript/rnas/2ydh

>  <Rbt.Executable>
rbdock ($Id: //depot/dev/client3/rdock/2013.1/src/exe/rbdock.cxx#4 $)

>  <Rbt.Library>
libRbt.so (2013.1, Build901 2013/11/27)

>  <Rbt.Parameter_File>
/export/apps/rDock/src/rDock_2013.1_src/data/scripts/dock_solv.prm

>  <Rbt.Receptor>
prm/blind_docking_40.prm

>  <SCORE>
-8.8143

>  <SCORE.INTER>
-8.55027

>  <SCORE.INTER.CONST>
1

>  <SCORE.INTER.POLAR>
0

>  <SCORE.INTER.ROT>
7

>  <SCORE.INTER.SOLV>
9.73575

>  <SCORE.INTER.VDW>
-17.2121

>  <SCORE.INTER.norm>
-0.316677

>  <SCORE.INTRA>
-0.26403

>  <SCORE.INTRA.DIHEDRAL>
-2.12992

>  <SCORE.INTRA.DIHEDRAL.0>
9.75037

>  <SCORE.INTRA.POLAR>
0

>  <SCORE.INTRA.POLAR.0>
0

>  <SCORE.INTRA.REPUL>
0

>  <SCORE.INTRA.REPUL.0>
0

>  <SCORE.INTRA.SOLV>
-0.878191

>  <SCORE.INTRA.SOLV.lig_0>
-48.4279

>  <SCORE.INTRA.VDW>
1.24002

>  <SCORE.INTRA.VDW.0>
-4.69037

>  <SCORE.INTRA.norm>
-0.00977889

>  <SCORE.RESTR>
0

>  <SCORE.RESTR.CAVITY>
0

>  <SCORE.RESTR.norm>
0

>  <SCORE.SYSTEM>
0

>  <SCORE.SYSTEM.CONST>
0

>  <SCORE.SYSTEM.DIHEDRAL>
0

>  <SCORE.SYSTEM.SOLV>
0

>  <SCORE.SYSTEM.norm>
0

>  <SCORE.heavy>
27

>  <SCORE.norm>
-0.326456

>  <RMSD>
13.726

$$$$
ligand
 OpenBabel02271912153D
libRbt.so/2013.1/901 2013/11/27
 27 29  0  0  0  0  0  0  0  0999 V2000
    7.0318   -0.6949   20.6839 N   0  0  0  0  0  0  0  0  0  0  0  0
    8.3145   -1.2474   21.2190 C   0  0  2  0  0  0  0  0  0  0  0  0
    9.5220   -0.7447   20.3970 C   0  0  0  0  0  0  0  0  0  0  0  0
    9.4056   -0.4601   19.2012 O   0  0  0  0  0  0  0  0  0  0  0  0
    8.2368   -2.7701   21.2505 C   0  0  0  0  0  0  0  0  0  0  0  0
    9.5278   -3.4586   21.6611 C   0  0  0  0  0  0  0  0  0  0  0  0
    9.3720   -5.2635   21.7833 S   0  0  2  0  0  0  0  0  0  0  0  0
    8.5399   -5.4222   23.3889 C   0  0  0  0  0  0  0  0  0  0  0  0
   11.0178   -5.8961   22.1452 C   0  0  0  0  0  0  0  0  0  0  0  0
   10.9468   -7.4041   22.2911 C   0  0  1  0  0  0  0  0  0  0  0  0
   10.3024   -8.0276   21.1910 O   0  0  0  0  0  0  0  0  0  0  0  0
   12.3231   -8.0136   22.4017 C   0  0  1  0  0  0  0  0  0  0  0  0
   12.7820   -7.9845   23.7228 O   0  0  0  0  0  0  0  0  0  0  0  0
   12.0609   -9.4109   21.9288 C   0  0  1  0  0  0  0  0  0  0  0  0
   11.6486  -10.2029   23.0266 O   0  0  0  0  0  0  0  0  0  0  0  0
   10.9264   -9.2620   20.9233 C   0  0  2  0  0  0  0  0  0  0  0  0
   10.6554   -0.6098   20.8937 O   0  0  0  0  0  0  0  0  0  0  0  0
   10.4935  -11.2523   16.0539 N   0  0  0  0  0  0  0  0  0  0  0  0
    9.7264  -11.5567   17.1691 C   0  0  0  0  0  0  0  0  0  0  0  0
    9.9773  -10.9511   18.3945 N   0  0  0  0  0  0  0  0  0  0  0  0
   10.9667  -10.0443   18.4905 C   0  0  0  0  0  0  0  0  0  0  0  0
   11.7365   -9.7181   17.3705 C   0  0  0  0  0  0  0  0  0  0  0  0
   11.5118  -10.3284   16.1502 C   0  0  0  0  0  0  0  0  0  0  0  0
   12.2512  -10.0239   15.0942 N   0  0  0  0  0  0  0  0  0  0  0  0
   12.6296   -8.7916   17.7352 N   0  0  0  0  0  0  0  0  0  0  0  0
   12.4461   -8.5213   19.0465 C   0  0  0  0  0  0  0  0  0  0  0  0
   11.4146   -9.2863   19.5315 N   0  0  0  0  0  0  0  0  0  0  0  0
  2  1  1  6  0  0  0
  2  3  1  0  0  0  0
  2  5  1  0  0  0  0
  3  4  1  0  0  0  0
  3 17  1  0  0  0  0
  5  6  1  0  0  0  0
  7  6  1  1  0  0  0
  7  8  1  0  0  0  0
  7  9  1  0  0  0  0
 10  9  1  6  0  0  0
 10 11  1  0  0  0  0
 10 12  1  0  0  0  0
 11 16  1  0  0  0  0
 12 13  1  1  0  0  0
 12 14  1  0  0  0  0
 14 15  1  1  0  0  0
 14 16  1  0  0  0  0
 16 27  1  6  0  0  0
 18 19  2  0  0  0  0
 18 23  1  0  0  0  0
 19 20  1  0  0  0  0
 20 21  2  0  0  0  0
 21 22  1  0  0  0  0
 21 27  1  0  0  0  0
 22 23  2  0  0  0  0
 22 25  1  0  0  0  0
 23 24  1  0  0  0  0
 25 26  2  0  0  0  0
 26 27  1  0  0  0  0
M  END
>  <CHROM.1>
-29.05165070,174.86502975,176.57918545,-78.21739465,178.71857892,51.65837654
-111.94721074,10.51547891,-6.76996379,20.28150240,2.54510634,-1.25458039
1.28465692

>  <Name>
ligand

>  <RI>
0

>  <Rbt.Current_Directory>
/home/itssahil/PROJECTS/Mol_Feturizer/Test_systems_manuscript/rnas/2ydh

>  <Rbt.Executable>
rbdock ($Id: //depot/dev/client3/rdock/2013.1/src/exe/rbdock.cxx#4 $)

>  <Rbt.Library>
libRbt.so (2013.1, Build901 2013/11/27)

>  <Rbt.Parameter_File>
/export/apps/rDock/src/rDock_2013.1_src/data/scripts/dock_solv.prm

>  <Rbt.Receptor>
prm/blind_docking_60.prm

>  <SCORE>
-13.3661

>  <SCORE.INTER>
-12.297

>  <SCORE.INTER.CONST>
1

>  <SCORE.INTER.POLAR>
0

>  <SCORE.INTER.ROT>
7

>  <SCORE.INTER.SOLV>
15.6616

>  <SCORE.INTER.VDW>
-21.6852

>  <SCORE.INTER.norm>
-0.455446

>  <SCORE.INTRA>
-1.06911

>  <SCORE.INTRA.DIHEDRAL>
-5.84157

>  <SCORE.INTRA.DIHEDRAL.0>
9.75037

>  <SCORE.INTRA.POLAR>
0

>  <SCORE.INTRA.POLAR.0>
0

>  <SCORE.INTRA.REPUL>
0

>  <SCORE.INTRA.REPUL.0>
0

>  <SCORE.INTRA.SOLV>
-1.55079

>  <SCORE.INTRA.SOLV.lig_0>
-48.4279

>  <SCORE.INTRA.VDW>
2.62707

>  <SCORE.INTRA.VDW.0>
-4.69037

>  <SCORE.INTRA.norm>
-0.0395966

>  <SCORE.RESTR>
0

>  <SCORE.RESTR.CAVITY>
0

>  <SCORE.RESTR.norm>
0

>  <SCORE.SYSTEM>
0

>  <SCORE.SYSTEM.CONST>
0

>  <SCORE.SYSTEM.DIHEDRAL>
0

>  <SCORE.SYSTEM.SOLV>
0

>  <SCORE.SYSTEM.norm>
0

>  <SCORE.heavy>
27

>  <SCORE.norm>
-0.495042

>  <RMSD>
13.745

$$$$
ligand
 OpenBabel02271912153D
libRbt.so/2013.1/901 2013/11/27
 27 29  0  0  0  0  0  0  0  0999 V2000
   12.9002   -8.1254   14.8215 N   0  0  0  0  0  0  0  0  0  0  0  0
   14.3233   -8.3344   15.2310 C   0  0  2  0  0  0  0  0  0  0  0  0
   14.8850   -9.6464   14.6394 C   0  0  0  0  0  0  0  0  0  0  0  0
   16.0607   -9.7281   14.2712 O   0  0  0  0  0  0  0  0  0  0  0  0
   14.4231   -8.3030   16.7524 C   0  0  0  0  0  0  0  0  0  0  0  0
   14.3037   -6.9167   17.3632 C   0  0  0  0  0  0  0  0  0  0  0  0
   14.4557   -6.9133   19.1726 S   0  0  2  0  0  0  0  0  0  0  0  0
   15.9878   -7.8639   19.3840 C   0  0  0  0  0  0  0  0  0  0  0  0
   13.2117   -8.0567   19.7930 C   0  0  0  0  0  0  0  0  0  0  0  0
   13.0181   -7.8183   21.2784 C   0  0  1  0  0  0  0  0  0  0  0  0
   12.5114   -6.5229   21.5601 O   0  0  0  0  0  0  0  0  0  0  0  0
   12.0514   -8.8116   21.8756 C   0  0  1  0  0  0  0  0  0  0  0  0
   12.7026   -9.9979   22.2292 O   0  0  0  0  0  0  0  0  0  0  0  0
   11.5654   -8.0582   23.0761 C   0  0  1  0  0  0  0  0  0  0  0  0
   12.4427   -8.2969   24.1604 O   0  0  0  0  0  0  0  0  0  0  0  0
   11.6260   -6.5959   22.6536 C   0  0  2  0  0  0  0  0  0  0  0  0
   14.1865  -10.6676   14.5029 O   0  0  0  0  0  0  0  0  0  0  0  0
    6.6962   -7.6277   21.0753 N   0  0  0  0  0  0  0  0  0  0  0  0
    7.7060   -8.5352   21.3605 C   0  0  0  0  0  0  0  0  0  0  0  0
    8.9657   -8.1002   21.7544 N   0  0  0  0  0  0  0  0  0  0  0  0
    9.1981   -6.7806   21.8773 C   0  0  0  0  0  0  0  0  0  0  0  0
    8.1842   -5.8572   21.6074 C   0  0  0  0  0  0  0  0  0  0  0  0
    6.9325   -6.2750   21.1941 C   0  0  0  0  0  0  0  0  0  0  0  0
    5.9782   -5.3955   20.9289 N   0  0  0  0  0  0  0  0  0  0  0  0
    8.6724   -4.6300   21.8188 N   0  0  0  0  0  0  0  0  0  0  0  0
    9.9586   -4.7498   22.2156 C   0  0  0  0  0  0  0  0  0  0  0  0
   10.3013   -6.0782   22.2624 N   0  0  0  0  0  0  0  0  0  0  0  0
  2  1  1  1  0  0  0
  2  3  1  0  0  0  0
  2  5  1  0  0  0  0
  3  4  1  0  0  0  0
  3 17  1  0  0  0  0
  5  6  1  0  0  0  0
  7  6  1  6  0  0  0
  7  8  1  0  0  0  0
  7  9  1  0  0  0  0
 10  9  1  6  0  0  0
 10 11  1  0  0  0  0
 10 12  1  0  0  0  0
 11 16  1  0  0  0  0
 12 13  1  1  0  0  0
 12 14  1  0  0  0  0
 14 15  1  1  0  0  0
 14 16  1  0  0  0  0
 16 27  1  6  0  0  0
 18 19  2  0  0  0  0
 18 23  1  0  0  0  0
 19 20  1  0  0  0  0
 20 21  2  0  0  0  0
 21 22  1  0  0  0  0
 21 27  1  0  0  0  0
 22 23  2  0  0  0  0
 22 25  1  0  0  0  0
 23 24  1  0  0  0  0
 25 26  2  0  0  0  0
 26 27  1  0  0  0  0
M  END
>  <CHROM.1>
144.18155361,-74.44403627,-178.99757977,50.77097371,-164.34875015,63.49999926
98.16888100,11.84979564,-7.60246854,19.87693409,0.79958990,0.23362737,-1.70016014

>  <Name>
ligand

>  <RI>
0

>  <Rbt.Current_Directory>
/home/itssahil/PROJECTS/Mol_Feturizer/Test_systems_manuscript/rnas/2ydh

>  <Rbt.Executable>
rbdock ($Id: //depot/dev/client3/rdock/2013.1/src/exe/rbdock.cxx#4 $)

>  <Rbt.Library>
libRbt.so (2013.1, Build901 2013/11/27)

>  <Rbt.Parameter_File>
/export/apps/rDock/src/rDock_2013.1_src/data/scripts/dock_solv.prm

>  <Rbt.Receptor>
prm/blind_docking_60.prm

>  <SCORE>
-13.9035

>  <SCORE.INTER>
-14.1813

>  <SCORE.INTER.CONST>
1

>  <SCORE.INTER.POLAR>
0

>  <SCORE.INTER.ROT>
7

>  <SCORE.INTER.SOLV>
9.94177

>  <SCORE.INTER.VDW>
-21.0348

>  <SCORE.INTER.norm>
-0.525233

>  <SCORE.INTRA>
0.277737

>  <SCORE.INTRA.DIHEDRAL>
-4.42863

>  <SCORE.INTRA.DIHEDRAL.0>
9.75037

>  <SCORE.INTRA.POLAR>
0

>  <SCORE.INTRA.POLAR.0>
0

>  <SCORE.INTRA.REPUL>
0

>  <SCORE.INTRA.REPUL.0>
0

>  <SCORE.INTRA.SOLV>
-0.992674

>  <SCORE.INTRA.SOLV.lig_0>
-48.4279

>  <SCORE.INTRA.VDW>
2.98839

>  <SCORE.INTRA.VDW.0>
-4.69037

>  <SCORE.INTRA.norm>
0.0102865

>  <SCORE.RESTR>
0

>  <SCORE.RESTR.CAVITY>
0

>  <SCORE.RESTR.norm>
0

>  <SCORE.SYSTEM>
0

>  <SCORE.SYSTEM.CONST>
0

>  <SCORE.SYSTEM.DIHEDRAL>
0

>  <SCORE.SYSTEM.SOLV>
0

>  <SCORE.SYSTEM.norm>
0

>  <SCORE.heavy>
27

>  <SCORE.norm>
-0.514946

>  <RMSD>
13.760

$$$$
ligand
 OpenBabel02271912153D
libRbt.so/2013.1/901 2013/11/27
 27 29  0  0  0  0  0  0  0  0999 V2000
    7.5839  -14.9291   21.5376 N   0  0  0  0  0  0  0  0  0  0  0  0
    7.7953  -16.0559   20.5773 C   0  0  2  0  0  0  0  0  0  0  0  0
    9.2691  -16.5191   20.5795 C   0  0  0  0  0  0  0  0  0  0  0  0
    9.6257  -17.5151   19.9428 O   0  0  0  0  0  0  0  0  0  0  0  0
    7.3299  -15.6325   19.1882 C   0  0  0  0  0  0  0  0  0  0  0  0
    8.0683  -14.4348   18.6141 C   0  0  0  0  0  0  0  0  0  0  0  0
    7.1135  -13.5371   17.3573 S   0  0  2  0  0  0  0  0  0  0  0  0
    7.2925  -14.6532   15.9368 C   0  0  0  0  0  0  0  0  0  0  0  0
    8.1178  -12.1282   16.8611 C   0  0  0  0  0  0  0  0  0  0  0  0
    7.9367  -11.0116   17.8716 C   0  0  1  0  0  0  0  0  0  0  0  0
    8.9438  -11.0141   18.8717 O   0  0  0  0  0  0  0  0  0  0  0  0
    7.9737   -9.6561   17.2092 C   0  0  1  0  0  0  0  0  0  0  0  0
    6.7149   -9.3048   16.7105 O   0  0  0  0  0  0  0  0  0  0  0  0
    8.3874   -8.7839   18.3551 C   0  0  1  0  0  0  0  0  0  0  0  0
    7.2350   -8.3769   19.0683 O   0  0  0  0  0  0  0  0  0  0  0  0
    9.2585   -9.6857   19.2201 C   0  0  2  0  0  0  0  0  0  0  0  0
   10.1538  -15.9211   21.2193 O   0  0  0  0  0  0  0  0  0  0  0  0
   13.6495   -7.1721   20.7232 N   0  0  0  0  0  0  0  0  0  0  0  0
   12.3866   -7.0929   21.2917 C   0  0  0  0  0  0  0  0  0  0  0  0
   11.3209   -7.8132   20.7655 N   0  0  0  0  0  0  0  0  0  0  0  0
   11.5267   -8.6110   19.7018 C   0  0  0  0  0  0  0  0  0  0  0  0
   12.7980   -8.7108   19.1296 C   0  0  0  0  0  0  0  0  0  0  0  0
   13.8625   -7.9836   19.6296 C   0  0  0  0  0  0  0  0  0  0  0  0
   15.0631   -8.0732   19.0771 N   0  0  0  0  0  0  0  0  0  0  0  0
   12.7279   -9.5716   18.1083 N   0  0  0  0  0  0  0  0  0  0  0  0
   11.4559  -10.0193   18.0198 C   0  0  0  0  0  0  0  0  0  0  0  0
   10.6965   -9.4374   19.0042 N   0  0  0  0  0  0  0  0  0  0  0  0
  2  1  1  1  0  0  0
  2  3  1  0  0  0  0
  2  5  1  0  0  0  0
  3  4  1  0  0  0  0
  3 17  1  0  0  0  0
  5  6  1  0  0  0  0
  7  6  1  1  0  0  0
  7  8  1  0  0  0  0
  7  9  1  0  0  0  0
 10  9  1  6  0  0  0
 10 11  1  0  0  0  0
 10 12  1  0  0  0  0
 11 16  1  0  0  0  0
 12 13  1  1  0  0  0
 12 14  1  0  0  0  0
 14 15  1  1  0  0  0
 14 16  1  0  0  0  0
 16 27  1  6  0  0  0
 18 19  2  0  0  0  0
 18 23  1  0  0  0  0
 19 20  1  0  0  0  0
 20 21  2  0  0  0  0
 21 22  1  0  0  0  0
 21 27  1  0  0  0  0
 22 23  2  0  0  0  0
 22 25  1  0  0  0  0
 23 24  1  0  0  0  0
 25 26  2  0  0  0  0
 26 27  1  0  0  0  0
M  END
>  <CHROM.1>
173.55968613,60.66530312,-156.12012360,-76.24894118,-81.94023731,94.94989181
-147.65571591,9.58078715,-11.43785467,18.95859058,-2.19899966,-0.53222821
-0.29226883

>  <Name>
ligand

>  <RI>
0

>  <Rbt.Current_Directory>
/home/itssahil/PROJECTS/Mol_Feturizer/Test_systems_manuscript/rnas/2ydh

>  <Rbt.Executable>
rbdock ($Id: //depot/dev/client3/rdock/2013.1/src/exe/rbdock.cxx#4 $)

>  <Rbt.Library>
libRbt.so (2013.1, Build901 2013/11/27)

>  <Rbt.Parameter_File>
/export/apps/rDock/src/rDock_2013.1_src/data/scripts/dock_solv.prm

>  <Rbt.Receptor>
prm/blind_docking_80.prm

>  <SCORE>
-15.9378

>  <SCORE.INTER>
-17.4314

>  <SCORE.INTER.CONST>
1

>  <SCORE.INTER.POLAR>
0

>  <SCORE.INTER.ROT>
7

>  <SCORE.INTER.SOLV>
13.303

>  <SCORE.INTER.VDW>
-24.3219

>  <SCORE.INTER.norm>
-0.645609

>  <SCORE.INTRA>
1.49367

>  <SCORE.INTRA.DIHEDRAL>
-0.663617

>  <SCORE.INTRA.DIHEDRAL.0>
9.75037

>  <SCORE.INTRA.POLAR>
0

>  <SCORE.INTRA.POLAR.0>
0

>  <SCORE.INTRA.REPUL>
0

>  <SCORE.INTRA.REPUL.0>
0

>  <SCORE.INTRA.SOLV>
-0.747214

>  <SCORE.INTRA.SOLV.lig_0>
-48.4279

>  <SCORE.INTRA.VDW>
2.19909

>  <SCORE.INTRA.VDW.0>
-4.69037

>  <SCORE.INTRA.norm>
0.0553212

>  <SCORE.RESTR>
0

>  <SCORE.RESTR.CAVITY>
0

>  <SCORE.RESTR.norm>
0

>  <SCORE.SYSTEM>
0

>  <SCORE.SYSTEM.CONST>
0

>  <SCORE.SYSTEM.DIHEDRAL>
0

>  <SCORE.SYSTEM.SOLV>
0

>  <SCORE.SYSTEM.norm>
0

>  <SCORE.heavy>
27

>  <SCORE.norm>
-0.590287

>  <RMSD>
13.807

$$$$
ligand
 OpenBabel02271912153D
libRbt.so/2013.1/901 2013/11/27
 27 29  0  0  0  0  0  0  0  0999 V2000
    9.1314   -0.8217   21.4308 N   0  0  0  0  0  0  0  0  0  0  0  0
    8.2832   -1.4500   22.4902 C   0  0  2  0  0  0  0  0  0  0  0  0
    8.4944   -0.7574   23.8548 C   0  0  0  0  0  0  0  0  0  0  0  0
    9.4366   -1.0693   24.5894 O   0  0  0  0  0  0  0  0  0  0  0  0
    8.5771   -2.9451   22.5548 C   0  0  0  0  0  0  0  0  0  0  0  0
    8.2246   -3.7118   21.2911 C   0  0  0  0  0  0  0  0  0  0  0  0
    8.6185   -5.4815   21.3911 S   0  0  2  0  0  0  0  0  0  0  0  0
    7.7310   -5.9394   22.9071 C   0  0  0  0  0  0  0  0  0  0  0  0
   10.3384   -5.5946   21.9101 C   0  0  0  0  0  0  0  0  0  0  0  0
   10.6924   -7.0524   22.1337 C   0  0  1  0  0  0  0  0  0  0  0  0
   10.4554   -7.8523   20.9856 O   0  0  0  0  0  0  0  0  0  0  0  0
   12.1482   -7.2177   22.4959 C   0  0  1  0  0  0  0  0  0  0  0  0
   12.3491   -7.0381   23.8685 O   0  0  0  0  0  0  0  0  0  0  0  0
   12.3938   -8.6339   22.0728 C   0  0  1  0  0  0  0  0  0  0  0  0
   12.0554   -9.5020   23.1378 O   0  0  0  0  0  0  0  0  0  0  0  0
   11.4519   -8.8441   20.8942 C   0  0  2  0  0  0  0  0  0  0  0  0
    7.7317    0.1322   24.2748 O   0  0  0  0  0  0  0  0  0  0  0  0
   11.2537   -7.5321   15.7856 N   0  0  0  0  0  0  0  0  0  0  0  0
   10.2359   -7.4522   16.7248 C   0  0  0  0  0  0  0  0  0  0  0  0
   10.4448   -7.8534   18.0390 N   0  0  0  0  0  0  0  0  0  0  0  0
   11.6578   -8.3069   18.4041 C   0  0  0  0  0  0  0  0  0  0  0  0
   12.6954   -8.3777   17.4703 C   0  0  0  0  0  0  0  0  0  0  0  0
   12.4958   -8.0020   16.1547 C   0  0  0  0  0  0  0  0  0  0  0  0
   13.4793   -8.0812   15.2709 N   0  0  0  0  0  0  0  0  0  0  0  0
   13.7836   -8.8442   18.0926 N   0  0  0  0  0  0  0  0  0  0  0  0
   13.4669   -9.0668   19.3873 C   0  0  0  0  0  0  0  0  0  0  0  0
   12.1522   -8.7344   19.6005 N   0  0  0  0  0  0  0  0  0  0  0  0
  2  1  1  6  0  0  0
  2  3  1  0  0  0  0
  2  5  1  0  0  0  0
  3  4  1  0  0  0  0
  3 17  1  0  0  0  0
  5  6  1  0  0  0  0
  7  6  1  1  0  0  0
  7  8  1  0  0  0  0
  7  9  1  0  0  0  0
 10  9  1  6  0  0  0
 10 11  1  0  0  0  0
 10 12  1  0  0  0  0
 11 16  1  0  0  0  0
 12 13  1  1  0  0  0
 12 14  1  0  0  0  0
 14 15  1  1  0  0  0
 14 16  1  0  0  0  0
 16 27  1  6  0  0  0
 18 19  2  0  0  0  0
 18 23  1  0  0  0  0
 19 20  1  0  0  0  0
 20 21  2  0  0  0  0
 21 22  1  0  0  0  0
 21 27  1  0  0  0  0
 22 23  2  0  0  0  0
 22 25  1  0  0  0  0
 23 24  1  0  0  0  0
 25 26  2  0  0  0  0
 26 27  1  0  0  0  0
M  END
>  <CHROM.1>
-83.45584794,-63.46011735,178.83242921,54.24896839,174.93343992,56.46495502
-31.05002237,10.59118272,-6.05773557,20.79133119,2.60918729,-1.06780877,1.64276788

>  <Name>
ligand

>  <RI>
0

>  <Rbt.Current_Directory>
/home/itssahil/PROJECTS/Mol_Feturizer/Test_systems_manuscript/rnas/2ydh

>  <Rbt.Executable>
rbdock ($Id: //depot/dev/client3/rdock/2013.1/src/exe/rbdock.cxx#4 $)

>  <Rbt.Library>
libRbt.so (2013.1, Build901 2013/11/27)

>  <Rbt.Parameter_File>
/export/apps/rDock/src/rDock_2013.1_src/data/scripts/dock_solv.prm

>  <Rbt.Receptor>
prm/blind_docking_80.prm

>  <SCORE>
-13.1018

>  <SCORE.INTER>
-12.8947

>  <SCORE.INTER.CONST>
1

>  <SCORE.INTER.POLAR>
0

>  <SCORE.INTER.ROT>
7

>  <SCORE.INTER.SOLV>
9.74992

>  <SCORE.INTER.VDW>
-20.1131

>  <SCORE.INTER.norm>
-0.477582

>  <SCORE.INTRA>
-0.207064

>  <SCORE.INTRA.DIHEDRAL>
-6.61563

>  <SCORE.INTRA.DIHEDRAL.0>
9.75037

>  <SCORE.INTRA.POLAR>
0

>  <SCORE.INTRA.POLAR.0>
0

>  <SCORE.INTRA.REPUL>
0

>  <SCORE.INTRA.REPUL.0>
0

>  <SCORE.INTRA.SOLV>
-0.868733

>  <SCORE.INTRA.SOLV.lig_0>
-48.4279

>  <SCORE.INTRA.VDW>
3.53512

>  <SCORE.INTRA.VDW.0>
-4.69037

>  <SCORE.INTRA.norm>
-0.00766902

>  <SCORE.RESTR>
0

>  <SCORE.RESTR.CAVITY>
0

>  <SCORE.RESTR.norm>
0

>  <SCORE.SYSTEM>
0

>  <SCORE.SYSTEM.CONST>
0

>  <SCORE.SYSTEM.DIHEDRAL>
0

>  <SCORE.SYSTEM.SOLV>
0

>  <SCORE.SYSTEM.norm>
0

>  <SCORE.heavy>
27

>  <SCORE.norm>
-0.485251

>  <RMSD>
13.819

$$$$
ligand
 OpenBabel02271912153D
libRbt.so/2013.1/901 2013/11/27
 27 29  0  0  0  0  0  0  0  0999 V2000
    8.7210   -1.1721   20.8886 N   0  0  0  0  0  0  0  0  0  0  0  0
    8.1895   -1.5267   22.2408 C   0  0  2  0  0  0  0  0  0  0  0  0
    8.7385   -0.5697   23.3222 C   0  0  0  0  0  0  0  0  0  0  0  0
    9.9405   -0.2924   23.3778 O   0  0  0  0  0  0  0  0  0  0  0  0
    8.5148   -2.9847   22.5473 C   0  0  0  0  0  0  0  0  0  0  0  0
    7.8312   -3.9883   21.6337 C   0  0  0  0  0  0  0  0  0  0  0  0
    8.3474   -5.7027   21.9358 S   0  0  2  0  0  0  0  0  0  0  0  0
    7.9103   -5.8826   23.6886 C   0  0  0  0  0  0  0  0  0  0  0  0
   10.1465   -5.6931   21.9930 C   0  0  0  0  0  0  0  0  0  0  0  0
   10.6391   -7.0964   22.2910 C   0  0  1  0  0  0  0  0  0  0  0  0
   10.2124   -8.0404   21.3210 O   0  0  0  0  0  0  0  0  0  0  0  0
   12.1466   -7.1550   22.3330 C   0  0  1  0  0  0  0  0  0  0  0  0
   12.6293   -6.7999   23.5970 O   0  0  0  0  0  0  0  0  0  0  0  0
   12.3898   -8.6009   22.0246 C   0  0  1  0  0  0  0  0  0  0  0  0
   12.3516   -9.3450   23.2276 O   0  0  0  0  0  0  0  0  0  0  0  0
   11.2301   -8.9934   21.1183 C   0  0  2  0  0  0  0  0  0  0  0  0
    8.0057   -0.0445   24.1804 O   0  0  0  0  0  0  0  0  0  0  0  0
   14.2527   -7.0124   17.2714 N   0  0  0  0  0  0  0  0  0  0  0  0
   14.2288   -6.6457   18.6091 C   0  0  0  0  0  0  0  0  0  0  0  0
   13.3575   -7.2589   19.5015 N   0  0  0  0  0  0  0  0  0  0  0  0
   12.5415   -8.2336   19.0605 C   0  0  0  0  0  0  0  0  0  0  0  0
   12.5671   -8.6222   17.7181 C   0  0  0  0  0  0  0  0  0  0  0  0
   13.4137   -8.0062   16.8149 C   0  0  0  0  0  0  0  0  0  0  0  0
   13.4266   -8.3705   15.5414 N   0  0  0  0  0  0  0  0  0  0  0  0
   11.6779   -9.6077   17.5535 N   0  0  0  0  0  0  0  0  0  0  0  0
   11.0953   -9.8547   18.7476 C   0  0  0  0  0  0  0  0  0  0  0  0
   11.6224   -9.0143   19.6964 N   0  0  0  0  0  0  0  0  0  0  0  0
  2  1  1  6  0  0  0
  2  3  1  0  0  0  0
  2  5  1  0  0  0  0
  3  4  1  0  0  0  0
  3 17  1  0  0  0  0
  5  6  1  0  0  0  0
  7  6  1  1  0  0  0
  7  8  1  0  0  0  0
  7  9  1  0  0  0  0
 10  9  1  6  0  0  0
 10 11  1  0  0  0  0
 10 12  1  0  0  0  0
 11 16  1  0  0  0  0
 12 13  1  1  0  0  0
 12 14  1  0  0  0  0
 14 15  1  1  0  0  0
 14 16  1  0  0  0  0
 16 27  1  6  0  0  0
 18 19  2  0  0  0  0
 18 23  1  0  0  0  0
 19 20  1  0  0  0  0
 20 21  2  0  0  0  0
 21 22  1  0  0  0  0
 21 27  1  0  0  0  0
 22 23  2  0  0  0  0
 22 25  1  0  0  0  0
 23 24  1  0  0  0  0
 25 26  2  0  0  0  0
 26 27  1  0  0  0  0
M  END
>  <CHROM.1>
-47.05342375,-64.82555601,175.16410868,57.85442585,178.09135229,58.92213627
86.54106026,10.79542773,-6.08080800,20.98148892,-2.75742628,-1.04097144,2.59283416

>  <Name>
ligand

>  <RI>
0

>  <Rbt.Current_Directory>
/home/itssahil/PROJECTS/Mol_Feturizer/Test_systems_manuscript/rnas/2ydh

>  <Rbt.Executable>
rbdock ($Id: //depot/dev/client3/rdock/2013.1/src/exe/rbdock.cxx#4 $)

>  <Rbt.Library>
libRbt.so (2013.1, Build901 2013/11/27)

>  <Rbt.Parameter_File>
/export/apps/rDock/src/rDock_2013.1_src/data/scripts/dock_solv.prm

>  <Rbt.Receptor>
prm/blind_docking_80.prm

>  <SCORE>
-14.1126

>  <SCORE.INTER>
-13.1931

>  <SCORE.INTER.CONST>
1

>  <SCORE.INTER.POLAR>
0

>  <SCORE.INTER.ROT>
7

>  <SCORE.INTER.SOLV>
8.76448

>  <SCORE.INTER.VDW>
-19.9836

>  <SCORE.INTER.norm>
-0.488635

>  <SCORE.INTRA>
-0.919453

>  <SCORE.INTRA.DIHEDRAL>
-6.40463

>  <SCORE.INTRA.DIHEDRAL.0>
9.75037

>  <SCORE.INTRA.POLAR>
0

>  <SCORE.INTRA.POLAR.0>
0

>  <SCORE.INTRA.REPUL>
0

>  <SCORE.INTRA.REPUL.0>
0

>  <SCORE.INTRA.SOLV>
-0.868244

>  <SCORE.INTRA.SOLV.lig_0>
-48.4279

>  <SCORE.INTRA.VDW>
2.71698

>  <SCORE.INTRA.VDW.0>
-4.69037

>  <SCORE.INTRA.norm>
-0.0340538

>  <SCORE.RESTR>
0

>  <SCORE.RESTR.CAVITY>
0

>  <SCORE.RESTR.norm>
0

>  <SCORE.SYSTEM>
0

>  <SCORE.SYSTEM.CONST>
0

>  <SCORE.SYSTEM.DIHEDRAL>
0

>  <SCORE.SYSTEM.SOLV>
0

>  <SCORE.SYSTEM.norm>
0

>  <SCORE.heavy>
27

>  <SCORE.norm>
-0.522689

>  <RMSD>
13.846

$$$$
ligand
 OpenBabel02271912153D
libRbt.so/2013.1/901 2013/11/27
 27 29  0  0  0  0  0  0  0  0999 V2000
    8.7376   -7.6744   23.4053 N   0  0  0  0  0  0  0  0  0  0  0  0
    9.8642   -7.4031   22.4599 C   0  0  2  0  0  0  0  0  0  0  0  0
    9.7319   -6.0007   21.8254 C   0  0  0  0  0  0  0  0  0  0  0  0
   10.6945   -5.2288   21.7779 O   0  0  0  0  0  0  0  0  0  0  0  0
    9.9196   -8.5053   21.4073 C   0  0  0  0  0  0  0  0  0  0  0  0
   10.9895   -8.3099   20.3461 C   0  0  0  0  0  0  0  0  0  0  0  0
   11.0846   -9.6821   19.1607 S   0  0  2  0  0  0  0  0  0  0  0  0
   12.1790   -8.9653   17.9021 C   0  0  0  0  0  0  0  0  0  0  0  0
    9.5022   -9.7295   18.3043 C   0  0  0  0  0  0  0  0  0  0  0  0
    9.7061  -10.3175   16.9211 C   0  0  1  0  0  0  0  0  0  0  0  0
   10.0764  -11.6869   16.9611 O   0  0  0  0  0  0  0  0  0  0  0  0
    8.4498  -10.2225   16.0901 C   0  0  1  0  0  0  0  0  0  0  0  0
    8.3544   -8.9762   15.4622 O   0  0  0  0  0  0  0  0  0  0  0  0
    8.6674  -11.3317   15.1067 C   0  0  1  0  0  0  0  0  0  0  0  0
    9.4046  -10.8372   14.0047 O   0  0  0  0  0  0  0  0  0  0  0  0
    9.4847  -12.3621   15.8752 C   0  0  2  0  0  0  0  0  0  0  0  0
    8.6616   -5.5864   21.3437 O   0  0  0  0  0  0  0  0  0  0  0  0
    7.8912  -15.2993   19.9609 N   0  0  0  0  0  0  0  0  0  0  0  0
    8.7854  -14.2386   19.9727 C   0  0  0  0  0  0  0  0  0  0  0  0
    9.1149  -13.5704   18.7995 N   0  0  0  0  0  0  0  0  0  0  0  0
    8.5419  -13.9493   17.6427 C   0  0  0  0  0  0  0  0  0  0  0  0
    7.6281  -15.0066   17.6206 C   0  0  0  0  0  0  0  0  0  0  0  0
    7.3071  -15.6941   18.7765 C   0  0  0  0  0  0  0  0  0  0  0  0
    6.4487  -16.7026   18.7487 N   0  0  0  0  0  0  0  0  0  0  0  0
    7.2047  -15.1640   16.3616 N   0  0  0  0  0  0  0  0  0  0  0  0
    7.8189  -14.2395   15.5908 C   0  0  0  0  0  0  0  0  0  0  0  0
    8.6495  -13.4729   16.3698 N   0  0  0  0  0  0  0  0  0  0  0  0
  2  1  1  1  0  0  0
  2  3  1  0  0  0  0
  2  5  1  0  0  0  0
  3  4  1  0  0  0  0
  3 17  1  0  0  0  0
  5  6  1  0  0  0  0
  7  6  1  1  0  0  0
  7  8  1  0  0  0  0
  7  9  1  0  0  0  0
 10  9  1  1  0  0  0
 10 11  1  0  0  0  0
 10 12  1  0  0  0  0
 11 16  1  0  0  0  0
 12 13  1  6  0  0  0
 12 14  1  0  0  0  0
 14 15  1  6  0  0  0
 14 16  1  0  0  0  0
 16 27  1  1  0  0  0
 18 19  2  0  0  0  0
 18 23  1  0  0  0  0
 19 20  1  0  0  0  0
 20 21  2  0  0  0  0
 21 22  1  0  0  0  0
 21 27  1  0  0  0  0
 22 23  2  0  0  0  0
 22 25  1  0  0  0  0
 23 24  1  0  0  0  0
 25 26  2  0  0  0  0
 26 27  1  0  0  0  0
M  END
>  <CHROM.1>
132.44102054,177.40408897,176.98547744,169.02218724,152.31798140,66.91175440
-7.88852007,9.20268532,-10.92326955,18.48053780,0.76123487,1.23765523,1.28600162

>  <Name>
ligand

>  <RI>
0

>  <Rbt.Current_Directory>
/home/itssahil/PROJECTS/Mol_Feturizer/Test_systems_manuscript/rnas/2ydh

>  <Rbt.Executable>
rbdock ($Id: //depot/dev/client3/rdock/2013.1/src/exe/rbdock.cxx#4 $)

>  <Rbt.Library>
libRbt.so (2013.1, Build901 2013/11/27)

>  <Rbt.Parameter_File>
/export/apps/rDock/src/rDock_2013.1_src/data/scripts/dock_solv.prm

>  <Rbt.Receptor>
prm/blind_docking_100.prm

>  <SCORE>
-11.1347

>  <SCORE.INTER>
-10.6498

>  <SCORE.INTER.CONST>
1

>  <SCORE.INTER.POLAR>
0

>  <SCORE.INTER.ROT>
7

>  <SCORE.INTER.SOLV>
19.6187

>  <SCORE.INTER.VDW>
-21.9061

>  <SCORE.INTER.norm>
-0.394437

>  <SCORE.INTRA>
-0.484861

>  <SCORE.INTRA.DIHEDRAL>
-5.31038

>  <SCORE.INTRA.DIHEDRAL.0>
9.75037

>  <SCORE.INTRA.POLAR>
0

>  <SCORE.INTRA.POLAR.0>
0

>  <SCORE.INTRA.REPUL>
0

>  <SCORE.INTRA.REPUL.0>
0

>  <SCORE.INTRA.SOLV>
-1.49097

>  <SCORE.INTRA.SOLV.lig_0>
-48.4279

>  <SCORE.INTRA.VDW>
2.91581

>  <SCORE.INTRA.VDW.0>
-4.69037

>  <SCORE.INTRA.norm>
-0.0179578

>  <SCORE.RESTR>
0

>  <SCORE.RESTR.CAVITY>
0

>  <SCORE.RESTR.norm>
0

>  <SCORE.SYSTEM>
0

>  <SCORE.SYSTEM.CONST>
0

>  <SCORE.SYSTEM.DIHEDRAL>
0

>  <SCORE.SYSTEM.SOLV>
0

>  <SCORE.SYSTEM.norm>
0

>  <SCORE.heavy>
27

>  <SCORE.norm>
-0.412395

>  <RMSD>
13.857

$$$$
ligand
 OpenBabel02271912153D
libRbt.so/2013.1/901 2013/11/27
 27 29  0  0  0  0  0  0  0  0999 V2000
   12.3296   -8.4823   22.7310 N   0  0  0  0  0  0  0  0  0  0  0  0
   12.7891   -7.3403   21.8816 C   0  0  2  0  0  0  0  0  0  0  0  0
   12.2311   -5.9983   22.4055 C   0  0  0  0  0  0  0  0  0  0  0  0
   12.1061   -5.7884   23.6158 O   0  0  0  0  0  0  0  0  0  0  0  0
   12.3959   -7.5970   20.4307 C   0  0  0  0  0  0  0  0  0  0  0  0
   13.0461   -8.8217   19.8090 C   0  0  0  0  0  0  0  0  0  0  0  0
   12.2896   -9.3149   18.2337 S   0  0  2  0  0  0  0  0  0  0  0  0
   12.5315   -7.8045   17.2560 C   0  0  0  0  0  0  0  0  0  0  0  0
   10.5092   -9.3140   18.4982 C   0  0  0  0  0  0  0  0  0  0  0  0
    9.8241   -9.8428   17.2526 C   0  0  1  0  0  0  0  0  0  0  0  0
   10.1698  -11.1903   16.9718 O   0  0  0  0  0  0  0  0  0  0  0  0
    8.3215   -9.7892   17.3840 C   0  0  1  0  0  0  0  0  0  0  0  0
    7.8294   -8.5295   17.0266 O   0  0  0  0  0  0  0  0  0  0  0  0
    7.9068  -10.8509   16.4115 C   0  0  1  0  0  0  0  0  0  0  0  0
    7.7901  -10.2795   15.1222 O   0  0  0  0  0  0  0  0  0  0  0  0
    9.0474  -11.8600   16.4459 C   0  0  2  0  0  0  0  0  0  0  0  0
   11.8809   -5.0797   21.6420 O   0  0  0  0  0  0  0  0  0  0  0  0
    6.7833  -16.6129   16.8229 N   0  0  0  0  0  0  0  0  0  0  0  0
    6.8533  -15.7897   15.7085 C   0  0  0  0  0  0  0  0  0  0  0  0
    7.4778  -14.5499   15.7757 N   0  0  0  0  0  0  0  0  0  0  0  0
    8.0366  -14.1560   16.9344 C   0  0  0  0  0  0  0  0  0  0  0  0
    7.9857  -14.9832   18.0599 C   0  0  0  0  0  0  0  0  0  0  0  0
    7.3492  -16.2098   18.0133 C   0  0  0  0  0  0  0  0  0  0  0  0
    7.2941  -16.9856   19.0856 N   0  0  0  0  0  0  0  0  0  0  0  0
    8.6217  -14.3638   19.0603 N   0  0  0  0  0  0  0  0  0  0  0  0
    9.0739  -13.1757   18.6019 C   0  0  0  0  0  0  0  0  0  0  0  0
    8.7242  -13.0312   17.2824 N   0  0  0  0  0  0  0  0  0  0  0  0
  2  1  1  1  0  0  0
  2  3  1  0  0  0  0
  2  5  1  0  0  0  0
  3  4  1  0  0  0  0
  3 17  1  0  0  0  0
  5  6  1  0  0  0  0
  7  6  1  1  0  0  0
  7  8  1  0  0  0  0
  7  9  1  0  0  0  0
 10  9  1  1  0  0  0
 10 11  1  0  0  0  0
 10 12  1  0  0  0  0
 11 16  1  0  0  0  0
 12 13  1  6  0  0  0
 12 14  1  0  0  0  0
 14 15  1  6  0  0  0
 14 16  1  0  0  0  0
 16 27  1  1  0  0  0
 18 19  2  0  0  0  0
 18 23  1  0  0  0  0
 19 20  1  0  0  0  0
 20 21  2  0  0  0  0
 21 22  1  0  0  0  0
 21 27  1  0  0  0  0
 22 23  2  0  0  0  0
 22 25  1  0  0  0  0
 23 24  1  0  0  0  0
 25 26  2  0  0  0  0
 26 27  1  0  0  0  0
M  END
>  <CHROM.1>
36.29467488,-63.00686710,167.05636649,58.86028075,-174.81701135,63.06675740
-156.86635586,9.84454203,-10.80799456,18.47139423,-0.26408339,1.06574273
2.34750800

>  <Name>
ligand

>  <RI>
0

>  <Rbt.Current_Directory>
/home/itssahil/PROJECTS/Mol_Feturizer/Test_systems_manuscript/rnas/2ydh

>  <Rbt.Executable>
rbdock ($Id: //depot/dev/client3/rdock/2013.1/src/exe/rbdock.cxx#4 $)

>  <Rbt.Library>
libRbt.so (2013.1, Build901 2013/11/27)

>  <Rbt.Parameter_File>
/export/apps/rDock/src/rDock_2013.1_src/data/scripts/dock_solv.prm

>  <Rbt.Receptor>
prm/blind_docking_100.prm

>  <SCORE>
-19.5001

>  <SCORE.INTER>
-19.5847

>  <SCORE.INTER.CONST>
1

>  <SCORE.INTER.POLAR>
0

>  <SCORE.INTER.ROT>
7

>  <SCORE.INTER.SOLV>
15.1659

>  <SCORE.INTER.VDW>
-26.3784

>  <SCORE.INTER.norm>
-0.725359

>  <SCORE.INTRA>
0.084598

>  <SCORE.INTRA.DIHEDRAL>
-5.48875

>  <SCORE.INTRA.DIHEDRAL.0>
9.75037

>  <SCORE.INTRA.POLAR>
0

>  <SCORE.INTRA.POLAR.0>
0

>  <SCORE.INTRA.REPUL>
0

>  <SCORE.INTRA.REPUL.0>
0

>  <SCORE.INTRA.SOLV>
-0.871617

>  <SCORE.INTRA.SOLV.lig_0>
-48.4279

>  <SCORE.INTRA.VDW>
3.26478

>  <SCORE.INTRA.VDW.0>
-4.69037

>  <SCORE.INTRA.norm>
0.00313326

>  <SCORE.RESTR>
0

>  <SCORE.RESTR.CAVITY>
0

>  <SCORE.RESTR.norm>
0

>  <SCORE.SYSTEM>
0

>  <SCORE.SYSTEM.CONST>
0

>  <SCORE.SYSTEM.DIHEDRAL>
0

>  <SCORE.SYSTEM.SOLV>
0

>  <SCORE.SYSTEM.norm>
0

>  <SCORE.heavy>
27

>  <SCORE.norm>
-0.722226

>  <RMSD>
13.864

$$$$
ligand
 OpenBabel02271912153D
libRbt.so/2013.1/901 2013/11/27
 27 29  0  0  0  0  0  0  0  0999 V2000
    7.1557   -5.2110   22.9710 N   0  0  0  0  0  0  0  0  0  0  0  0
    8.2242   -6.1076   23.5105 C   0  0  2  0  0  0  0  0  0  0  0  0
    7.8351   -6.6631   24.8986 C   0  0  0  0  0  0  0  0  0  0  0  0
    8.2831   -7.7404   25.3029 O   0  0  0  0  0  0  0  0  0  0  0  0
    9.5491   -5.3533   23.5460 C   0  0  0  0  0  0  0  0  0  0  0  0
   10.7373   -6.1875   23.9948 C   0  0  0  0  0  0  0  0  0  0  0  0
   11.1115   -7.5662   22.8740 S   0  0  2  0  0  0  0  0  0  0  0  0
   12.4949   -8.3483   23.7515 C   0  0  0  0  0  0  0  0  0  0  0  0
   11.9288   -6.8515   21.4384 C   0  0  0  0  0  0  0  0  0  0  0  0
   12.4691   -7.9709   20.5690 C   0  0  1  0  0  0  0  0  0  0  0  0
   11.5659   -9.0602   20.4608 O   0  0  0  0  0  0  0  0  0  0  0  0
   12.7551   -7.4917   19.1666 C   0  0  1  0  0  0  0  0  0  0  0  0
   14.0267   -6.9153   19.0810 O   0  0  0  0  0  0  0  0  0  0  0  0
   12.6670   -8.7747   18.3977 C   0  0  1  0  0  0  0  0  0  0  0  0
   13.9303   -9.4119   18.4115 O   0  0  0  0  0  0  0  0  0  0  0  0
   11.6436   -9.6036   19.1632 C   0  0  2  0  0  0  0  0  0  0  0  0
    7.0578   -6.0616   25.6623 O   0  0  0  0  0  0  0  0  0  0  0  0
    7.5547  -12.2821   17.1720 N   0  0  0  0  0  0  0  0  0  0  0  0
    8.7149  -12.7943   17.7344 C   0  0  0  0  0  0  0  0  0  0  0  0
    9.7130  -11.9492   18.2046 N   0  0  0  0  0  0  0  0  0  0  0  0
    9.5383  -10.6173   18.1281 C   0  0  0  0  0  0  0  0  0  0  0  0
    8.3670  -10.0895   17.5775 C   0  0  0  0  0  0  0  0  0  0  0  0
    7.3751  -10.9182   17.0864 C   0  0  0  0  0  0  0  0  0  0  0  0
    6.2716  -10.4131   16.5555 N   0  0  0  0  0  0  0  0  0  0  0  0
    8.4446   -8.7554   17.6359 N   0  0  0  0  0  0  0  0  0  0  0  0
    9.6239   -8.4256   18.2073 C   0  0  0  0  0  0  0  0  0  0  0  0
   10.3146   -9.5689   18.5241 N   0  0  0  0  0  0  0  0  0  0  0  0
  2  1  1  1  0  0  0
  2  3  1  0  0  0  0
  2  5  1  0  0  0  0
  3  4  1  0  0  0  0
  3 17  1  0  0  0  0
  5  6  1  0  0  0  0
  7  6  1  1  0  0  0
  7  8  1  0  0  0  0
  7  9  1  0  0  0  0
 10  9  1  1  0  0  0
 10 11  1  0  0  0  0
 10 12  1  0  0  0  0
 11 16  1  0  0  0  0
 12 13  1  1  0  0  0
 12 14  1  0  0  0  0
 14 15  1  1  0  0  0
 14 16  1  0  0  0  0
 16 27  1  6  0  0  0
 18 19  2  0  0  0  0
 18 23  1  0  0  0  0
 19 20  1  0  0  0  0
 20 21  2  0  0  0  0
 21 22  1  0  0  0  0
 21 27  1  0  0  0  0
 22 23  2  0  0  0  0
 22 25  1  0  0  0  0
 23 24  1  0  0  0  0
 25 26  2  0  0  0  0
 26 27  1  0  0  0  0
M  END
>  <CHROM.1>
153.42636389,-176.31685069,63.34320724,-177.63093980,170.85574447,41.10084890
-115.84936636,10.08376288,-8.46068180,20.57900585,1.58683972,0.17312115,1.00505458

>  <Name>
ligand

>  <RI>
0

>  <Rbt.Current_Directory>
/home/itssahil/PROJECTS/Mol_Feturizer/Test_systems_manuscript/rnas/2ydh

>  <Rbt.Executable>
rbdock ($Id: //depot/dev/client3/rdock/2013.1/src/exe/rbdock.cxx#4 $)

>  <Rbt.Library>
libRbt.so (2013.1, Build901 2013/11/27)

>  <Rbt.Parameter_File>
/export/apps/rDock/src/rDock_2013.1_src/data/scripts/dock_solv.prm

>  <Rbt.Receptor>
prm/blind_docking_100.prm

>  <SCORE>
-12.3499

>  <SCORE.INTER>
-11.2439

>  <SCORE.INTER.CONST>
1

>  <SCORE.INTER.POLAR>
0

>  <SCORE.INTER.ROT>
7

>  <SCORE.INTER.SOLV>
10.8152

>  <SCORE.INTER.VDW>
-19.3677

>  <SCORE.INTER.norm>
-0.416442

>  <SCORE.INTRA>
-1.10596

>  <SCORE.INTRA.DIHEDRAL>
-5.17617

>  <SCORE.INTRA.DIHEDRAL.0>
9.75037

>  <SCORE.INTRA.POLAR>
0

>  <SCORE.INTRA.POLAR.0>
0

>  <SCORE.INTRA.REPUL>
0

>  <SCORE.INTRA.REPUL.0>
0

>  <SCORE.INTRA.SOLV>
-1.41279

>  <SCORE.INTRA.SOLV.lig_0>
-48.4279

>  <SCORE.INTRA.VDW>
2.18852

>  <SCORE.INTRA.VDW.0>
-4.69037

>  <SCORE.INTRA.norm>
-0.0409614

>  <SCORE.RESTR>
0

>  <SCORE.RESTR.CAVITY>
0

>  <SCORE.RESTR.norm>
0

>  <SCORE.SYSTEM>
0

>  <SCORE.SYSTEM.CONST>
0

>  <SCORE.SYSTEM.DIHEDRAL>
0

>  <SCORE.SYSTEM.SOLV>
0

>  <SCORE.SYSTEM.norm>
0

>  <SCORE.heavy>
27

>  <SCORE.norm>
-0.457404

>  <RMSD>
14.024

$$$$
ligand
 OpenBabel02271912153D
libRbt.so/2013.1/901 2013/11/27
 27 29  0  0  0  0  0  0  0  0999 V2000
    9.4230  -10.5546   15.7618 N   0  0  0  0  0  0  0  0  0  0  0  0
    8.7588  -11.6336   16.5563 C   0  0  2  0  0  0  0  0  0  0  0  0
    8.4416  -12.8600   15.6719 C   0  0  0  0  0  0  0  0  0  0  0  0
    8.1595  -12.7288   14.4770 O   0  0  0  0  0  0  0  0  0  0  0  0
    7.5096  -11.0730   17.2279 C   0  0  0  0  0  0  0  0  0  0  0  0
    7.7731   -9.9325   18.1969 C   0  0  0  0  0  0  0  0  0  0  0  0
    6.2636   -9.2818   18.9682 S   0  0  2  0  0  0  0  0  0  0  0  0
    5.4392   -8.5459   17.5279 C   0  0  0  0  0  0  0  0  0  0  0  0
    6.7548   -7.8273   19.9078 C   0  0  0  0  0  0  0  0  0  0  0  0
    7.4927   -8.2713   21.1563 C   0  0  1  0  0  0  0  0  0  0  0  0
    8.5278   -9.2008   20.8752 O   0  0  0  0  0  0  0  0  0  0  0  0
    8.1288   -7.1017   21.8671 C   0  0  1  0  0  0  0  0  0  0  0  0
    7.2161   -6.4753   22.7224 O   0  0  0  0  0  0  0  0  0  0  0  0
    9.2289   -7.7837   22.6218 C   0  0  1  0  0  0  0  0  0  0  0  0
    8.7278   -8.2356   23.8655 O   0  0  0  0  0  0  0  0  0  0  0  0
    9.6139   -8.9655   21.7412 C   0  0  2  0  0  0  0  0  0  0  0  0
    8.4500  -14.0221   16.1177 O   0  0  0  0  0  0  0  0  0  0  0  0
   14.1556   -6.3162   21.2800 N   0  0  0  0  0  0  0  0  0  0  0  0
   13.2289   -6.2437   22.3098 C   0  0  0  0  0  0  0  0  0  0  0  0
   12.0648   -7.0022   22.2766 N   0  0  0  0  0  0  0  0  0  0  0  0
   11.8477   -7.8301   21.2385 C   0  0  0  0  0  0  0  0  0  0  0  0
   12.7813   -7.9231   20.2024 C   0  0  0  0  0  0  0  0  0  0  0  0
   13.9335   -7.1587   20.2119 C   0  0  0  0  0  0  0  0  0  0  0  0
   14.8100   -7.2422   19.2223 N   0  0  0  0  0  0  0  0  0  0  0  0
   12.3312   -8.8181   19.3163 N   0  0  0  0  0  0  0  0  0  0  0  0
   11.1471   -9.2940   19.7608 C   0  0  0  0  0  0  0  0  0  0  0  0
   10.8329   -8.6955   20.9556 N   0  0  0  0  0  0  0  0  0  0  0  0
  2  1  1  6  0  0  0
  2  3  1  0  0  0  0
  2  5  1  0  0  0  0
  3  4  1  0  0  0  0
  3 17  1  0  0  0  0
  5  6  1  0  0  0  0
  7  6  1  6  0  0  0
  7  8  1  0  0  0  0
  7  9  1  0  0  0  0
 10  9  1  6  0  0  0
 10 11  1  0  0  0  0
 10 12  1  0  0  0  0
 11 16  1  0  0  0  0
 12 13  1  1  0  0  0
 12 14  1  0  0  0  0
 14 15  1  1  0  0  0
 14 16  1  0  0  0  0
 16 27  1  6  0  0  0
 18 19  2  0  0  0  0
 18 23  1  0  0  0  0
 19 20  1  0  0  0  0
 20 21  2  0  0  0  0
 21 22  1  0  0  0  0
 21 27  1  0  0  0  0
 22 23  2  0  0  0  0
 22 25  1  0  0  0  0
 23 24  1  0  0  0  0
 25 26  2  0  0  0  0
 26 27  1  0  0  0  0
M  END
>  <CHROM.1>
-32.32120380,-60.87380450,179.57294621,-66.91151731,-73.83257466,50.23001003
143.96108211,9.47858090,-8.98660435,19.64302210,-2.13223406,0.10760554,0.93874879

>  <Name>
ligand

>  <RI>
0

>  <Rbt.Current_Directory>
/home/itssahil/PROJECTS/Mol_Feturizer/Test_systems_manuscript/rnas/2ydh

>  <Rbt.Executable>
rbdock ($Id: //depot/dev/client3/rdock/2013.1/src/exe/rbdock.cxx#4 $)

>  <Rbt.Library>
libRbt.so (2013.1, Build901 2013/11/27)

>  <Rbt.Parameter_File>
/export/apps/rDock/src/rDock_2013.1_src/data/scripts/dock_solv.prm

>  <Rbt.Receptor>
prm/blind_docking_100.prm

>  <SCORE>
-16.1928

>  <SCORE.INTER>
-15.2652

>  <SCORE.INTER.CONST>
1

>  <SCORE.INTER.POLAR>
0

>  <SCORE.INTER.ROT>
7

>  <SCORE.INTER.SOLV>
9.94629

>  <SCORE.INTER.VDW>
-21.7589

>  <SCORE.INTER.norm>
-0.565376

>  <SCORE.INTRA>
-0.927591

>  <SCORE.INTRA.DIHEDRAL>
-6.26942

>  <SCORE.INTRA.DIHEDRAL.0>
9.75037

>  <SCORE.INTRA.POLAR>
0

>  <SCORE.INTRA.POLAR.0>
0

>  <SCORE.INTRA.REPUL>
0

>  <SCORE.INTRA.REPUL.0>
0

>  <SCORE.INTRA.SOLV>
-0.733517

>  <SCORE.INTRA.SOLV.lig_0>
-48.4279

>  <SCORE.INTRA.VDW>
2.57388

>  <SCORE.INTRA.VDW.0>
-4.69037

>  <SCORE.INTRA.norm>
-0.0343552

>  <SCORE.RESTR>
0

>  <SCORE.RESTR.CAVITY>
0

>  <SCORE.RESTR.norm>
0

>  <SCORE.SYSTEM>
0

>  <SCORE.SYSTEM.CONST>
0

>  <SCORE.SYSTEM.DIHEDRAL>
0

>  <SCORE.SYSTEM.SOLV>
0

>  <SCORE.SYSTEM.norm>
0

>  <SCORE.heavy>
27

>  <SCORE.norm>
-0.599732

>  <RMSD>
14.068

$$$$
ligand
 OpenBabel02271912153D
libRbt.so/2013.1/901 2013/11/27
 27 29  0  0  0  0  0  0  0  0999 V2000
    7.8488   -2.3898   23.0111 N   0  0  0  0  0  0  0  0  0  0  0  0
    8.6109   -3.5430   22.4402 C   0  0  2  0  0  0  0  0  0  0  0  0
    8.4162   -3.6352   20.9104 C   0  0  0  0  0  0  0  0  0  0  0  0
    8.5459   -4.7088   20.3145 O   0  0  0  0  0  0  0  0  0  0  0  0
    8.1940   -4.8272   23.1493 C   0  0  0  0  0  0  0  0  0  0  0  0
    9.1687   -5.9816   22.9868 C   0  0  0  0  0  0  0  0  0  0  0  0
    8.5321   -7.5555   23.6307 S   0  0  2  0  0  0  0  0  0  0  0  0
    8.3880   -7.1635   25.3974 C   0  0  0  0  0  0  0  0  0  0  0  0
    9.9110   -8.7122   23.6104 C   0  0  0  0  0  0  0  0  0  0  0  0
   10.1404   -9.1830   22.1869 C   0  0  1  0  0  0  0  0  0  0  0  0
    8.9271   -9.4232   21.4910 O   0  0  0  0  0  0  0  0  0  0  0  0
   10.9159   -8.1650   21.3869 C   0  0  1  0  0  0  0  0  0  0  0  0
   12.2932   -8.3178   21.5777 O   0  0  0  0  0  0  0  0  0  0  0  0
   10.5000   -8.5149   19.9906 C   0  0  1  0  0  0  0  0  0  0  0  0
   11.3562   -9.5243   19.4903 O   0  0  0  0  0  0  0  0  0  0  0  0
    9.0807   -9.0468   20.1420 C   0  0  2  0  0  0  0  0  0  0  0  0
    8.1288   -2.6436   20.2151 O   0  0  0  0  0  0  0  0  0  0  0  0
    7.4861   -5.2875   16.7977 N   0  0  0  0  0  0  0  0  0  0  0  0
    8.6296   -6.0689   16.7173 C   0  0  0  0  0  0  0  0  0  0  0  0
    8.9175   -7.0146   17.6942 N   0  0  0  0  0  0  0  0  0  0  0  0
    8.0629   -7.1833   18.7195 C   0  0  0  0  0  0  0  0  0  0  0  0
    6.8999   -6.4125   18.8034 C   0  0  0  0  0  0  0  0  0  0  0  0
    6.6115   -5.4534   17.8501 C   0  0  0  0  0  0  0  0  0  0  0  0
    5.5136   -4.7178   17.9398 N   0  0  0  0  0  0  0  0  0  0  0  0
    6.2303   -6.7881   19.8987 N   0  0  0  0  0  0  0  0  0  0  0  0
    6.9310   -7.7713   20.5057 C   0  0  0  0  0  0  0  0  0  0  0  0
    8.0697   -8.0335   19.7853 N   0  0  0  0  0  0  0  0  0  0  0  0
  2  1  1  1  0  0  0
  2  3  1  0  0  0  0
  2  5  1  0  0  0  0
  3  4  1  0  0  0  0
  3 17  1  0  0  0  0
  5  6  1  0  0  0  0
  7  6  1  6  0  0  0
  7  8  1  0  0  0  0
  7  9  1  0  0  0  0
 10  9  1  1  0  0  0
 10 11  1  0  0  0  0
 10 12  1  0  0  0  0
 11 16  1  0  0  0  0
 12 13  1  6  0  0  0
 12 14  1  0  0  0  0
 14 15  1  1  0  0  0
 14 16  1  0  0  0  0
 16 27  1  1  0  0  0
 18 19  2  0  0  0  0
 18 23  1  0  0  0  0
 19 20  1  0  0  0  0
 20 21  2  0  0  0  0
 21 22  1  0  0  0  0
 21 27  1  0  0  0  0
 22 23  2  0  0  0  0
 22 25  1  0  0  0  0
 23 24  1  0  0  0  0
 25 26  2  0  0  0  0
 26 27  1  0  0  0  0
M  END
>  <CHROM.1>
-154.71584224,-161.87182957,-171.50763326,-64.21876402,-76.63876383,-40.32449351
162.55014905,8.64734674,-6.65102906,20.81318151,2.67922738,1.06381398,-1.94014387

>  <Name>
ligand

>  <RI>
0

>  <Rbt.Current_Directory>
/home/itssahil/PROJECTS/Mol_Feturizer/Test_systems_manuscript/rnas/2ydh

>  <Rbt.Executable>
rbdock ($Id: //depot/dev/client3/rdock/2013.1/src/exe/rbdock.cxx#4 $)

>  <Rbt.Library>
libRbt.so (2013.1, Build901 2013/11/27)

>  <Rbt.Parameter_File>
/export/apps/rDock/src/rDock_2013.1_src/data/scripts/dock_solv.prm

>  <Rbt.Receptor>
prm/blind_docking_40.prm

>  <SCORE>
-10.3119

>  <SCORE.INTER>
-8.34774

>  <SCORE.INTER.CONST>
1

>  <SCORE.INTER.POLAR>
0

>  <SCORE.INTER.ROT>
7

>  <SCORE.INTER.SOLV>
10.3504

>  <SCORE.INTER.VDW>
-17.282

>  <SCORE.INTER.norm>
-0.309175

>  <SCORE.INTRA>
-1.96418

>  <SCORE.INTRA.DIHEDRAL>
-3.73199

>  <SCORE.INTRA.DIHEDRAL.0>
9.75037

>  <SCORE.INTRA.POLAR>
0

>  <SCORE.INTRA.POLAR.0>
0

>  <SCORE.INTRA.REPUL>
0

>  <SCORE.INTRA.REPUL.0>
0

>  <SCORE.INTRA.SOLV>
-1.09676

>  <SCORE.INTRA.SOLV.lig_0>
-48.4279

>  <SCORE.INTRA.VDW>
0.450195

>  <SCORE.INTRA.VDW.0>
-4.69037

>  <SCORE.INTRA.norm>
-0.0727474

>  <SCORE.RESTR>
0

>  <SCORE.RESTR.CAVITY>
0

>  <SCORE.RESTR.norm>
0

>  <SCORE.SYSTEM>
0

>  <SCORE.SYSTEM.CONST>
0

>  <SCORE.SYSTEM.DIHEDRAL>
0

>  <SCORE.SYSTEM.SOLV>
0

>  <SCORE.SYSTEM.norm>
0

>  <SCORE.heavy>
27

>  <SCORE.norm>
-0.381923

>  <RMSD>
14.107

$$$$
ligand
 OpenBabel02271912153D
libRbt.so/2013.1/901 2013/11/27
 27 29  0  0  0  0  0  0  0  0999 V2000
    6.4836   -3.4309   19.8186 N   0  0  0  0  0  0  0  0  0  0  0  0
    6.6148   -3.6734   21.2885 C   0  0  2  0  0  0  0  0  0  0  0  0
    7.0000   -2.3762   22.0338 C   0  0  0  0  0  0  0  0  0  0  0  0
    7.4578   -1.4035   21.4263 O   0  0  0  0  0  0  0  0  0  0  0  0
    7.6214   -4.7934   21.5299 C   0  0  0  0  0  0  0  0  0  0  0  0
    7.2340   -6.1308   20.9213 C   0  0  0  0  0  0  0  0  0  0  0  0
    8.5290   -7.3938   21.0788 S   0  0  2  0  0  0  0  0  0  0  0  0
    7.6748   -8.8402   20.3905 C   0  0  0  0  0  0  0  0  0  0  0  0
    8.6289   -7.8093   22.8273 C   0  0  0  0  0  0  0  0  0  0  0  0
   10.0296   -8.3006   23.1393 C   0  0  1  0  0  0  0  0  0  0  0  0
   10.4270   -9.3778   22.3052 O   0  0  0  0  0  0  0  0  0  0  0  0
   11.0514   -7.2038   22.9632 C   0  0  1  0  0  0  0  0  0  0  0  0
   11.1523   -6.4196   24.1171 O   0  0  0  0  0  0  0  0  0  0  0  0
   12.2949   -8.0023   22.7161 C   0  0  1  0  0  0  0  0  0  0  0  0
   12.8927   -8.3265   23.9570 O   0  0  0  0  0  0  0  0  0  0  0  0
   11.8012   -9.2624   22.0170 C   0  0  2  0  0  0  0  0  0  0  0  0
    6.8739   -2.2540   23.2661 O   0  0  0  0  0  0  0  0  0  0  0  0
   15.0916   -8.4010   17.9809 N   0  0  0  0  0  0  0  0  0  0  0  0
   15.3764   -8.3469   19.3375 C   0  0  0  0  0  0  0  0  0  0  0  0
   14.3877   -8.5875   20.2842 N   0  0  0  0  0  0  0  0  0  0  0  0
   13.1439   -8.8951   19.8736 C   0  0  0  0  0  0  0  0  0  0  0  0
   12.8484   -8.9676   18.5094 C   0  0  0  0  0  0  0  0  0  0  0  0
   13.8169   -8.7097   17.5568 C   0  0  0  0  0  0  0  0  0  0  0  0
   13.5294   -8.7690   16.2651 N   0  0  0  0  0  0  0  0  0  0  0  0
   11.5596   -9.3012   18.3803 N   0  0  0  0  0  0  0  0  0  0  0  0
   11.0343   -9.4440   19.6171 C   0  0  0  0  0  0  0  0  0  0  0  0
   12.0045   -9.2004   20.5573 N   0  0  0  0  0  0  0  0  0  0  0  0
  2  1  1  6  0  0  0
  2  3  1  0  0  0  0
  2  5  1  0  0  0  0
  3  4  1  0  0  0  0
  3 17  1  0  0  0  0
  5  6  1  0  0  0  0
  7  6  1  1  0  0  0
  7  8  1  0  0  0  0
  7  9  1  0  0  0  0
 10  9  1  6  0  0  0
 10 11  1  0  0  0  0
 10 12  1  0  0  0  0
 11 16  1  0  0  0  0
 12 13  1  1  0  0  0
 12 14  1  0  0  0  0
 14 15  1  1  0  0  0
 14 16  1  0  0  0  0
 16 27  1  6  0  0  0
 18 19  2  0  0  0  0
 18 23  1  0  0  0  0
 19 20  1  0  0  0  0
 20 21  2  0  0  0  0
 21 22  1  0  0  0  0
 21 27  1  0  0  0  0
 22 23  2  0  0  0  0
 22 25  1  0  0  0  0
 23 24  1  0  0  0  0
 25 26  2  0  0  0  0
 26 27  1  0  0  0  0
M  END
>  <CHROM.1>
-16.83599417,-61.37472090,174.04592225,175.44298398,-153.20402405,-54.65288319
169.49800986,10.44146560,-7.12400635,20.97996310,3.00411579,-0.73240886,1.81265262

>  <Name>
ligand

>  <RI>
0

>  <Rbt.Current_Directory>
/home/itssahil/PROJECTS/Mol_Feturizer/Test_systems_manuscript/rnas/2ydh

>  <Rbt.Executable>
rbdock ($Id: //depot/dev/client3/rdock/2013.1/src/exe/rbdock.cxx#4 $)

>  <Rbt.Library>
libRbt.so (2013.1, Build901 2013/11/27)

>  <Rbt.Parameter_File>
/export/apps/rDock/src/rDock_2013.1_src/data/scripts/dock_solv.prm

>  <Rbt.Receptor>
prm/blind_docking_60.prm

>  <SCORE>
-13.4898

>  <SCORE.INTER>
-12.8363

>  <SCORE.INTER.CONST>
1

>  <SCORE.INTER.POLAR>
0

>  <SCORE.INTER.ROT>
7

>  <SCORE.INTER.SOLV>
10.3579

>  <SCORE.INTER.VDW>
-20.2769

>  <SCORE.INTER.norm>
-0.47542

>  <SCORE.INTRA>
-0.65347

>  <SCORE.INTRA.DIHEDRAL>
-3.77288

>  <SCORE.INTRA.DIHEDRAL.0>
9.75037

>  <SCORE.INTRA.POLAR>
0

>  <SCORE.INTRA.POLAR.0>
0

>  <SCORE.INTRA.REPUL>
0

>  <SCORE.INTRA.REPUL.0>
0

>  <SCORE.INTRA.SOLV>
-0.600507

>  <SCORE.INTRA.SOLV.lig_0>
-48.4279

>  <SCORE.INTRA.VDW>
1.53322

>  <SCORE.INTRA.VDW.0>
-4.69037

>  <SCORE.INTRA.norm>
-0.0242026

>  <SCORE.RESTR>
0

>  <SCORE.RESTR.CAVITY>
0

>  <SCORE.RESTR.norm>
0

>  <SCORE.SYSTEM>
0

>  <SCORE.SYSTEM.CONST>
0

>  <SCORE.SYSTEM.DIHEDRAL>
0

>  <SCORE.SYSTEM.SOLV>
0

>  <SCORE.SYSTEM.norm>
0

>  <SCORE.heavy>
27

>  <SCORE.norm>
-0.499623

>  <RMSD>
14.143

$$$$
ligand
 OpenBabel02271912153D
libRbt.so/2013.1/901 2013/11/27
 27 29  0  0  0  0  0  0  0  0999 V2000
   15.2927   -8.3741   19.4669 N   0  0  0  0  0  0  0  0  0  0  0  0
   13.8433   -8.2770   19.1113 C   0  0  2  0  0  0  0  0  0  0  0  0
   13.6165   -7.2523   17.9777 C   0  0  0  0  0  0  0  0  0  0  0  0
   14.5077   -6.4674   17.6396 O   0  0  0  0  0  0  0  0  0  0  0  0
   13.0364   -7.9379   20.3601 C   0  0  0  0  0  0  0  0  0  0  0  0
   13.3998   -6.6104   21.0040 C   0  0  0  0  0  0  0  0  0  0  0  0
   12.2489   -6.1093   22.3161 S   0  0  2  0  0  0  0  0  0  0  0  0
   12.4773   -7.4655   23.5010 C   0  0  0  0  0  0  0  0  0  0  0  0
   10.5909   -6.4270   21.6915 C   0  0  0  0  0  0  0  0  0  0  0  0
    9.5782   -5.8457   22.6595 C   0  0  1  0  0  0  0  0  0  0  0  0
    9.5536   -4.4269   22.6344 O   0  0  0  0  0  0  0  0  0  0  0  0
    8.1798   -6.3186   22.3456 C   0  0  1  0  0  0  0  0  0  0  0  0
    7.9220   -7.5581   22.9404 O   0  0  0  0  0  0  0  0  0  0  0  0
    7.3591   -5.2223   22.9535 C   0  0  1  0  0  0  0  0  0  0  0  0
    7.1267   -5.5182   24.3176 O   0  0  0  0  0  0  0  0  0  0  0  0
    8.2302   -3.9800   22.8186 C   0  0  2  0  0  0  0  0  0  0  0  0
   12.5371   -7.1671   17.3636 O   0  0  0  0  0  0  0  0  0  0  0  0
    7.1353   -3.6371   17.6666 N   0  0  0  0  0  0  0  0  0  0  0  0
    7.5144   -4.7630   18.3830 C   0  0  0  0  0  0  0  0  0  0  0  0
    7.7834   -4.6853   19.7443 N   0  0  0  0  0  0  0  0  0  0  0  0
    7.6547   -3.5035   20.3745 C   0  0  0  0  0  0  0  0  0  0  0  0
    7.2586   -2.3653   19.6665 C   0  0  0  0  0  0  0  0  0  0  0  0
    7.0084   -2.4236   18.3078 C   0  0  0  0  0  0  0  0  0  0  0  0
    6.6439   -1.3399   17.6391 N   0  0  0  0  0  0  0  0  0  0  0  0
    7.1970   -1.3419   20.5254 N   0  0  0  0  0  0  0  0  0  0  0  0
    7.5380   -1.7979   21.7509 C   0  0  0  0  0  0  0  0  0  0  0  0
    7.8210   -3.1392   21.6777 N   0  0  0  0  0  0  0  0  0  0  0  0
  2  1  1  1  0  0  0
  2  3  1  0  0  0  0
  2  5  1  0  0  0  0
  3  4  1  0  0  0  0
  3 17  1  0  0  0  0
  5  6  1  0  0  0  0
  7  6  1  6  0  0  0
  7  8  1  0  0  0  0
  7  9  1  0  0  0  0
 10  9  1  6  0  0  0
 10 11  1  0  0  0  0
 10 12  1  0  0  0  0
 11 16  1  0  0  0  0
 12 13  1  1  0  0  0
 12 14  1  0  0  0  0
 14 15  1  1  0  0  0
 14 16  1  0  0  0  0
 16 27  1  6  0  0  0
 18 19  2  0  0  0  0
 18 23  1  0  0  0  0
 19 20  1  0  0  0  0
 20 21  2  0  0  0  0
 21 22  1  0  0  0  0
 21 27  1  0  0  0  0
 22 23  2  0  0  0  0
 22 25  1  0  0  0  0
 23 24  1  0  0  0  0
 25 26  2  0  0  0  0
 26 27  1  0  0  0  0
M  END
>  <CHROM.1>
-12.80585257,61.17632954,170.55079556,62.29922583,-171.94675092,71.34728326
65.44299441,9.92532835,-5.29580726,20.73867445,-0.10680024,0.58786511,-1.21962202

>  <Name>
ligand

>  <RI>
0

>  <Rbt.Current_Directory>
/home/itssahil/PROJECTS/Mol_Feturizer/Test_systems_manuscript/rnas/2ydh

>  <Rbt.Executable>
rbdock ($Id: //depot/dev/client3/rdock/2013.1/src/exe/rbdock.cxx#4 $)

>  <Rbt.Library>
libRbt.so (2013.1, Build901 2013/11/27)

>  <Rbt.Parameter_File>
/export/apps/rDock/src/rDock_2013.1_src/data/scripts/dock_solv.prm

>  <Rbt.Receptor>
prm/blind_docking_100.prm

>  <SCORE>
-15.9412

>  <SCORE.INTER>
-15.3185

>  <SCORE.INTER.CONST>
1

>  <SCORE.INTER.POLAR>
0

>  <SCORE.INTER.ROT>
7

>  <SCORE.INTER.SOLV>
11.9676

>  <SCORE.INTER.VDW>
-22.4682

>  <SCORE.INTER.norm>
-0.567351

>  <SCORE.INTRA>
-0.622715

>  <SCORE.INTRA.DIHEDRAL>
-5.02047

>  <SCORE.INTRA.DIHEDRAL.0>
9.75037

>  <SCORE.INTRA.POLAR>
0

>  <SCORE.INTRA.POLAR.0>
0

>  <SCORE.INTRA.REPUL>
0

>  <SCORE.INTRA.REPUL.0>
0

>  <SCORE.INTRA.SOLV>
-0.839489

>  <SCORE.INTRA.SOLV.lig_0>
-48.4279

>  <SCORE.INTRA.VDW>
2.30727

>  <SCORE.INTRA.VDW.0>
-4.69037

>  <SCORE.INTRA.norm>
-0.0230635

>  <SCORE.RESTR>
0

>  <SCORE.RESTR.CAVITY>
0

>  <SCORE.RESTR.norm>
0

>  <SCORE.SYSTEM>
0

>  <SCORE.SYSTEM.CONST>
0

>  <SCORE.SYSTEM.DIHEDRAL>
0

>  <SCORE.SYSTEM.SOLV>
0

>  <SCORE.SYSTEM.norm>
0

>  <SCORE.heavy>
27

>  <SCORE.norm>
-0.590415

>  <RMSD>
14.167

$$$$
ligand
 OpenBabel02271912153D
libRbt.so/2013.1/901 2013/11/27
 27 29  0  0  0  0  0  0  0  0999 V2000
   13.8950   -7.3204   14.1520 N   0  0  0  0  0  0  0  0  0  0  0  0
   12.7965   -7.8646   15.0086 C   0  0  2  0  0  0  0  0  0  0  0  0
   11.4122   -7.5802   14.3845 C   0  0  0  0  0  0  0  0  0  0  0  0
   10.3859   -7.6056   15.0705 O   0  0  0  0  0  0  0  0  0  0  0  0
   12.9193   -7.2908   16.4162 C   0  0  0  0  0  0  0  0  0  0  0  0
   14.2036   -7.6626   17.1384 C   0  0  0  0  0  0  0  0  0  0  0  0
   14.2290   -7.1358   18.8759 S   0  0  2  0  0  0  0  0  0  0  0  0
   15.7511   -7.9413   19.4502 C   0  0  0  0  0  0  0  0  0  0  0  0
   12.9551   -8.0883   19.7183 C   0  0  0  0  0  0  0  0  0  0  0  0
   13.0501   -7.8302   21.2099 C   0  0  1  0  0  0  0  0  0  0  0  0
   12.7537   -6.4844   21.5493 O   0  0  0  0  0  0  0  0  0  0  0  0
   12.0923   -8.7032   21.9834 C   0  0  1  0  0  0  0  0  0  0  0  0
   12.6524   -9.9584   22.2429 O   0  0  0  0  0  0  0  0  0  0  0  0
   11.9120   -7.8990   23.2347 C   0  0  1  0  0  0  0  0  0  0  0  0
   12.9296   -8.2405   24.1567 O   0  0  0  0  0  0  0  0  0  0  0  0
   12.0682   -6.4537   22.7798 C   0  0  2  0  0  0  0  0  0  0  0  0
   11.2677   -7.3208   13.1757 O   0  0  0  0  0  0  0  0  0  0  0  0
    7.0182   -6.0341   24.2564 N   0  0  0  0  0  0  0  0  0  0  0  0
    7.9811   -6.9002   24.7536 C   0  0  0  0  0  0  0  0  0  0  0  0
    9.2744   -6.8971   24.2448 N   0  0  0  0  0  0  0  0  0  0  0  0
    9.5964   -6.0276   23.2699 C   0  0  0  0  0  0  0  0  0  0  0  0
    8.6389   -5.1397   22.7714 C   0  0  0  0  0  0  0  0  0  0  0  0
    7.3429   -5.1462   23.2534 C   0  0  0  0  0  0  0  0  0  0  0  0
    6.4362   -4.3102   22.7701 N   0  0  0  0  0  0  0  0  0  0  0  0
    9.2200   -4.3865   21.8310 N   0  0  0  0  0  0  0  0  0  0  0  0
   10.5117   -4.7683   21.7227 C   0  0  0  0  0  0  0  0  0  0  0  0
   10.7651   -5.7831   22.6118 N   0  0  0  0  0  0  0  0  0  0  0  0
  2  1  1  6  0  0  0
  2  3  1  0  0  0  0
  2  5  1  0  0  0  0
  3  4  1  0  0  0  0
  3 17  1  0  0  0  0
  5  6  1  0  0  0  0
  7  6  1  6  0  0  0
  7  8  1  0  0  0  0
  7  9  1  0  0  0  0
 10  9  1  6  0  0  0
 10 11  1  0  0  0  0
 10 12  1  0  0  0  0
 11 16  1  0  0  0  0
 12 13  1  1  0  0  0
 12 14  1  0  0  0  0
 14 15  1  1  0  0  0
 14 16  1  0  0  0  0
 16 27  1  6  0  0  0
 18 19  2  0  0  0  0
 18 23  1  0  0  0  0
 19 20  1  0  0  0  0
 20 21  2  0  0  0  0
 21 22  1  0  0  0  0
 21 27  1  0  0  0  0
 22 23  2  0  0  0  0
 22 25  1  0  0  0  0
 23 24  1  0  0  0  0
 25 26  2  0  0  0  0
 26 27  1  0  0  0  0
M  END
>  <CHROM.1>
-159.93192755,-62.40947110,-172.97063722,172.18959044,172.48893268,65.13728681
147.75858533,11.47719954,-6.97590841,20.29591492,1.07847248,0.42405061,-1.53670635

>  <Name>
ligand

>  <RI>
0

>  <Rbt.Current_Directory>
/home/itssahil/PROJECTS/Mol_Feturizer/Test_systems_manuscript/rnas/2ydh

>  <Rbt.Executable>
rbdock ($Id: //depot/dev/client3/rdock/2013.1/src/exe/rbdock.cxx#4 $)

>  <Rbt.Library>
libRbt.so (2013.1, Build901 2013/11/27)

>  <Rbt.Parameter_File>
/export/apps/rDock/src/rDock_2013.1_src/data/scripts/dock_solv.prm

>  <Rbt.Receptor>
prm/blind_docking_80.prm

>  <SCORE>
-16.6074

>  <SCORE.INTER>
-15.8412

>  <SCORE.INTER.CONST>
1

>  <SCORE.INTER.POLAR>
0

>  <SCORE.INTER.ROT>
7

>  <SCORE.INTER.SOLV>
13.8165

>  <SCORE.INTER.VDW>
-23.433

>  <SCORE.INTER.norm>
-0.58671

>  <SCORE.INTRA>
-0.76622

>  <SCORE.INTRA.DIHEDRAL>
-6.42702

>  <SCORE.INTRA.DIHEDRAL.0>
9.75037

>  <SCORE.INTRA.POLAR>
0

>  <SCORE.INTRA.POLAR.0>
0

>  <SCORE.INTRA.REPUL>
0

>  <SCORE.INTRA.REPUL.0>
0

>  <SCORE.INTRA.SOLV>
-0.86607

>  <SCORE.INTRA.SOLV.lig_0>
-48.4279

>  <SCORE.INTRA.VDW>
2.88033

>  <SCORE.INTRA.VDW.0>
-4.69037

>  <SCORE.INTRA.norm>
-0.0283785

>  <SCORE.RESTR>
0

>  <SCORE.RESTR.CAVITY>
0

>  <SCORE.RESTR.norm>
0

>  <SCORE.SYSTEM>
0

>  <SCORE.SYSTEM.CONST>
0

>  <SCORE.SYSTEM.DIHEDRAL>
0

>  <SCORE.SYSTEM.SOLV>
0

>  <SCORE.SYSTEM.norm>
0

>  <SCORE.heavy>
27

>  <SCORE.norm>
-0.615089

>  <RMSD>
14.178

$$$$
ligand
 OpenBabel02271912153D
libRbt.so/2013.1/901 2013/11/27
 27 29  0  0  0  0  0  0  0  0999 V2000
    8.6315   -5.6563   24.7803 N   0  0  0  0  0  0  0  0  0  0  0  0
    7.9530   -6.9885   24.8182 C   0  0  2  0  0  0  0  0  0  0  0  0
    8.1530   -7.6753   26.1876 C   0  0  0  0  0  0  0  0  0  0  0  0
    8.3040   -8.8979   26.2720 O   0  0  0  0  0  0  0  0  0  0  0  0
    8.4605   -7.8491   23.6661 C   0  0  0  0  0  0  0  0  0  0  0  0
    9.9459   -8.1648   23.7220 C   0  0  0  0  0  0  0  0  0  0  0  0
   10.5044   -9.2355   22.3660 S   0  0  2  0  0  0  0  0  0  0  0  0
   12.2653   -9.4049   22.7735 C   0  0  0  0  0  0  0  0  0  0  0  0
   10.5543   -8.2075   20.8894 C   0  0  0  0  0  0  0  0  0  0  0  0
   11.1280   -9.0173   19.7424 C   0  0  1  0  0  0  0  0  0  0  0  0
   10.4377  -10.2410   19.5415 O   0  0  0  0  0  0  0  0  0  0  0  0
   11.0646   -8.2543   18.4418 C   0  0  1  0  0  0  0  0  0  0  0  0
   12.1712   -7.4108   18.2983 O   0  0  0  0  0  0  0  0  0  0  0  0
   11.0794   -9.3744   17.4468 C   0  0  1  0  0  0  0  0  0  0  0  0
   12.4206   -9.7164   17.1526 O   0  0  0  0  0  0  0  0  0  0  0  0
   10.3811  -10.5237   18.1624 C   0  0  2  0  0  0  0  0  0  0  0  0
    8.1655   -7.0376   27.2565 O   0  0  0  0  0  0  0  0  0  0  0  0
    6.8821  -12.8314   14.9546 N   0  0  0  0  0  0  0  0  0  0  0  0
    8.2537  -13.0334   15.0041 C   0  0  0  0  0  0  0  0  0  0  0  0
    9.0461  -12.3315   15.9046 N   0  0  0  0  0  0  0  0  0  0  0  0
    8.4676  -11.4593   16.7500 C   0  0  0  0  0  0  0  0  0  0  0  0
    7.0847  -11.2584   16.7200 C   0  0  0  0  0  0  0  0  0  0  0  0
    6.2869  -11.9341   15.8150 C   0  0  0  0  0  0  0  0  0  0  0  0
    4.9782  -11.7321   15.7830 N   0  0  0  0  0  0  0  0  0  0  0  0
    6.7743  -10.3612   17.6622 N   0  0  0  0  0  0  0  0  0  0  0  0
    7.9147   -9.9926   18.2865 C   0  0  0  0  0  0  0  0  0  0  0  0
    8.9761  -10.6677   17.7368 N   0  0  0  0  0  0  0  0  0  0  0  0
  2  1  1  1  0  0  0
  2  3  1  0  0  0  0
  2  5  1  0  0  0  0
  3  4  1  0  0  0  0
  3 17  1  0  0  0  0
  5  6  1  0  0  0  0
  7  6  1  1  0  0  0
  7  8  1  0  0  0  0
  7  9  1  0  0  0  0
 10  9  1  1  0  0  0
 10 11  1  0  0  0  0
 10 12  1  0  0  0  0
 11 16  1  0  0  0  0
 12 13  1  6  0  0  0
 12 14  1  0  0  0  0
 14 15  1  1  0  0  0
 14 16  1  0  0  0  0
 16 27  1  6  0  0  0
 18 19  2  0  0  0  0
 18 23  1  0  0  0  0
 19 20  1  0  0  0  0
 20 21  2  0  0  0  0
 21 22  1  0  0  0  0
 21 27  1  0  0  0  0
 22 23  2  0  0  0  0
 22 25  1  0  0  0  0
 23 24  1  0  0  0  0
 25 26  2  0  0  0  0
 26 27  1  0  0  0  0
M  END
>  <CHROM.1>
-143.52333237,62.56900656,178.10006476,-179.19704829,175.22638903,53.87425229
-148.51291413,9.25265563,-9.53053735,20.08289619,1.47004701,0.28589758,1.18960650

>  <Name>
ligand

>  <RI>
0

>  <Rbt.Current_Directory>
/home/itssahil/PROJECTS/Mol_Feturizer/Test_systems_manuscript/rnas/2ydh

>  <Rbt.Executable>
rbdock ($Id: //depot/dev/client3/rdock/2013.1/src/exe/rbdock.cxx#4 $)

>  <Rbt.Library>
libRbt.so (2013.1, Build901 2013/11/27)

>  <Rbt.Parameter_File>
/export/apps/rDock/src/rDock_2013.1_src/data/scripts/dock_solv.prm

>  <Rbt.Receptor>
prm/blind_docking_80.prm

>  <SCORE>
-12.7501

>  <SCORE.INTER>
-11.9289

>  <SCORE.INTER.CONST>
1

>  <SCORE.INTER.POLAR>
0

>  <SCORE.INTER.ROT>
7

>  <SCORE.INTER.SOLV>
17.8275

>  <SCORE.INTER.VDW>
-22.1617

>  <SCORE.INTER.norm>
-0.441809

>  <SCORE.INTRA>
-0.821294

>  <SCORE.INTRA.DIHEDRAL>
-6.3907

>  <SCORE.INTRA.DIHEDRAL.0>
9.75037

>  <SCORE.INTRA.POLAR>
0

>  <SCORE.INTRA.POLAR.0>
0

>  <SCORE.INTRA.REPUL>
0

>  <SCORE.INTRA.REPUL.0>
0

>  <SCORE.INTRA.SOLV>
-0.881106

>  <SCORE.INTRA.SOLV.lig_0>
-48.4279

>  <SCORE.INTRA.VDW>
2.81461

>  <SCORE.INTRA.VDW.0>
-4.69037

>  <SCORE.INTRA.norm>
-0.0304183

>  <SCORE.RESTR>
0

>  <SCORE.RESTR.CAVITY>
0

>  <SCORE.RESTR.norm>
0

>  <SCORE.SYSTEM>
0

>  <SCORE.SYSTEM.CONST>
0

>  <SCORE.SYSTEM.DIHEDRAL>
0

>  <SCORE.SYSTEM.SOLV>
0

>  <SCORE.SYSTEM.norm>
0

>  <SCORE.heavy>
27

>  <SCORE.norm>
-0.472228

>  <RMSD>
14.188

$$$$
ligand
 OpenBabel02271912153D
libRbt.so/2013.1/901 2013/11/27
 27 29  0  0  0  0  0  0  0  0999 V2000
    7.9397  -14.8002   18.9635 N   0  0  0  0  0  0  0  0  0  0  0  0
    7.4794  -14.5221   17.5680 C   0  0  2  0  0  0  0  0  0  0  0  0
    6.9823  -15.8124   16.8791 C   0  0  0  0  0  0  0  0  0  0  0  0
    6.6682  -15.8176   15.6850 O   0  0  0  0  0  0  0  0  0  0  0  0
    8.6050  -13.8526   16.7867 C   0  0  0  0  0  0  0  0  0  0  0  0
    9.1517  -12.5880   17.4279 C   0  0  0  0  0  0  0  0  0  0  0  0
    7.9986  -11.1874   17.3513 S   0  0  2  0  0  0  0  0  0  0  0  0
    7.7000  -11.0939   15.5630 C   0  0  0  0  0  0  0  0  0  0  0  0
    8.9738   -9.7044   17.6506 C   0  0  0  0  0  0  0  0  0  0  0  0
    8.0696   -8.4904   17.5548 C   0  0  1  0  0  0  0  0  0  0  0  0
    7.1985   -8.3714   18.6688 O   0  0  0  0  0  0  0  0  0  0  0  0
    8.8681   -7.2120   17.4783 C   0  0  1  0  0  0  0  0  0  0  0  0
    9.2506   -6.9352   16.1616 O   0  0  0  0  0  0  0  0  0  0  0  0
    7.8740   -6.2173   17.9953 C   0  0  1  0  0  0  0  0  0  0  0  0
    7.0775   -5.7555   16.9208 O   0  0  0  0  0  0  0  0  0  0  0  0
    7.0278   -7.0089   18.9841 C   0  0  2  0  0  0  0  0  0  0  0  0
    6.8713  -16.8920   17.4887 O   0  0  0  0  0  0  0  0  0  0  0  0
    9.0843   -3.6901   22.5359 N   0  0  0  0  0  0  0  0  0  0  0  0
    8.8615   -3.4608   21.1859 C   0  0  0  0  0  0  0  0  0  0  0  0
    8.3206   -4.4506   20.3739 N   0  0  0  0  0  0  0  0  0  0  0  0
    7.9931   -5.6388   20.9135 C   0  0  0  0  0  0  0  0  0  0  0  0
    8.1988   -5.8764   22.2754 C   0  0  0  0  0  0  0  0  0  0  0  0
    8.7557   -4.9083   23.0906 C   0  0  0  0  0  0  0  0  0  0  0  0
    8.9588   -5.1421   24.3785 N   0  0  0  0  0  0  0  0  0  0  0  0
    7.7789   -7.1165   22.5492 N   0  0  0  0  0  0  0  0  0  0  0  0
    7.3131   -7.6666   21.4061 C   0  0  0  0  0  0  0  0  0  0  0  0
    7.4336   -6.7621   20.3806 N   0  0  0  0  0  0  0  0  0  0  0  0
  2  1  1  1  0  0  0
  2  3  1  0  0  0  0
  2  5  1  0  0  0  0
  3  4  1  0  0  0  0
  3 17  1  0  0  0  0
  5  6  1  0  0  0  0
  7  6  1  6  0  0  0
  7  8  1  0  0  0  0
  7  9  1  0  0  0  0
 10  9  1  1  0  0  0
 10 11  1  0  0  0  0
 10 12  1  0  0  0  0
 11 16  1  0  0  0  0
 12 13  1  6  0  0  0
 12 14  1  0  0  0  0
 14 15  1  6  0  0  0
 14 16  1  0  0  0  0
 16 27  1  1  0  0  0
 18 19  2  0  0  0  0
 18 23  1  0  0  0  0
 19 20  1  0  0  0  0
 20 21  2  0  0  0  0
 21 22  1  0  0  0  0
 21 27  1  0  0  0  0
 22 23  2  0  0  0  0
 22 25  1  0  0  0  0
 23 24  1  0  0  0  0
 25 26  2  0  0  0  0
 26 27  1  0  0  0  0
M  END
>  <CHROM.1>
-173.69193990,-55.37628033,-70.97062354,-55.93678740,178.19938340,72.82124683
147.72233064,8.00108656,-9.13751552,18.86031873,2.75205134,-1.48745239,-1.52308702

>  <Name>
ligand

>  <RI>
0

>  <Rbt.Current_Directory>
/home/itssahil/PROJECTS/Mol_Feturizer/Test_systems_manuscript/rnas/2ydh

>  <Rbt.Executable>
rbdock ($Id: //depot/dev/client3/rdock/2013.1/src/exe/rbdock.cxx#4 $)

>  <Rbt.Library>
libRbt.so (2013.1, Build901 2013/11/27)

>  <Rbt.Parameter_File>
/export/apps/rDock/src/rDock_2013.1_src/data/scripts/dock_solv.prm

>  <Rbt.Receptor>
prm/blind_docking_80.prm

>  <SCORE>
-9.26025

>  <SCORE.INTER>
-9.64109

>  <SCORE.INTER.CONST>
1

>  <SCORE.INTER.POLAR>
0

>  <SCORE.INTER.ROT>
7

>  <SCORE.INTER.SOLV>
11.2846

>  <SCORE.INTER.VDW>
-18.4556

>  <SCORE.INTER.norm>
-0.357078

>  <SCORE.INTRA>
0.380844

>  <SCORE.INTRA.DIHEDRAL>
-5.18551

>  <SCORE.INTRA.DIHEDRAL.0>
9.75037

>  <SCORE.INTRA.POLAR>
0

>  <SCORE.INTRA.POLAR.0>
0

>  <SCORE.INTRA.REPUL>
0

>  <SCORE.INTRA.REPUL.0>
0

>  <SCORE.INTRA.SOLV>
-0.272655

>  <SCORE.INTRA.SOLV.lig_0>
-48.4279

>  <SCORE.INTRA.VDW>
3.10993

>  <SCORE.INTRA.VDW.0>
-4.69037

>  <SCORE.INTRA.norm>
0.0141053

>  <SCORE.RESTR>
0

>  <SCORE.RESTR.CAVITY>
0

>  <SCORE.RESTR.norm>
0

>  <SCORE.SYSTEM>
0

>  <SCORE.SYSTEM.CONST>
0

>  <SCORE.SYSTEM.DIHEDRAL>
0

>  <SCORE.SYSTEM.SOLV>
0

>  <SCORE.SYSTEM.norm>
0

>  <SCORE.heavy>
27

>  <SCORE.norm>
-0.342972

>  <RMSD>
14.194

$$$$
ligand
 OpenBabel02271912153D
libRbt.so/2013.1/901 2013/11/27
 27 29  0  0  0  0  0  0  0  0999 V2000
    7.4990   -2.6815   22.6809 N   0  0  0  0  0  0  0  0  0  0  0  0
    7.5587   -3.9422   21.8786 C   0  0  2  0  0  0  0  0  0  0  0  0
    7.2843   -3.6635   20.3841 C   0  0  0  0  0  0  0  0  0  0  0  0
    6.6512   -2.6653   20.0272 O   0  0  0  0  0  0  0  0  0  0  0  0
    6.5835   -4.9602   22.4602 C   0  0  0  0  0  0  0  0  0  0  0  0
    6.5599   -6.2956   21.7355 C   0  0  0  0  0  0  0  0  0  0  0  0
    8.1719   -7.1310   21.7160 S   0  0  2  0  0  0  0  0  0  0  0  0
    7.7373   -8.6832   20.8808 C   0  0  0  0  0  0  0  0  0  0  0  0
    8.4834   -7.6819   23.4011 C   0  0  0  0  0  0  0  0  0  0  0  0
    9.9412   -8.0805   23.5294 C   0  0  1  0  0  0  0  0  0  0  0  0
   10.2909   -9.1505   22.6651 O   0  0  0  0  0  0  0  0  0  0  0  0
   10.8595   -6.9284   23.2018 C   0  0  1  0  0  0  0  0  0  0  0  0
   11.0637   -6.1135   24.3203 O   0  0  0  0  0  0  0  0  0  0  0  0
   12.1068   -7.6558   22.8016 C   0  0  1  0  0  0  0  0  0  0  0  0
   12.8836   -7.9151   23.9556 O   0  0  0  0  0  0  0  0  0  0  0  0
   11.6046   -8.9590   22.1934 C   0  0  2  0  0  0  0  0  0  0  0  0
    7.6785   -4.4249   19.4817 O   0  0  0  0  0  0  0  0  0  0  0  0
   13.8289   -7.1482   17.7626 N   0  0  0  0  0  0  0  0  0  0  0  0
   14.2143   -6.8988   19.0718 C   0  0  0  0  0  0  0  0  0  0  0  0
   13.5099   -7.4436   20.1388 N   0  0  0  0  0  0  0  0  0  0  0  0
   12.4523   -8.2380   19.8927 C   0  0  0  0  0  0  0  0  0  0  0  0
   12.0636   -8.5089   18.5777 C   0  0  0  0  0  0  0  0  0  0  0  0
   12.7421   -7.9565   17.5070 C   0  0  0  0  0  0  0  0  0  0  0  0
   12.3633   -8.2074   16.2627 N   0  0  0  0  0  0  0  0  0  0  0  0
   11.0056   -9.3263   18.6168 N   0  0  0  0  0  0  0  0  0  0  0  0
   10.7168   -9.5815   19.9120 C   0  0  0  0  0  0  0  0  0  0  0  0
   11.6075   -8.9181   20.7189 N   0  0  0  0  0  0  0  0  0  0  0  0
  2  1  1  1  0  0  0
  2  3  1  0  0  0  0
  2  5  1  0  0  0  0
  3  4  1  0  0  0  0
  3 17  1  0  0  0  0
  5  6  1  0  0  0  0
  7  6  1  1  0  0  0
  7  8  1  0  0  0  0
  7  9  1  0  0  0  0
 10  9  1  6  0  0  0
 10 11  1  0  0  0  0
 10 12  1  0  0  0  0
 11 16  1  0  0  0  0
 12 13  1  1  0  0  0
 12 14  1  0  0  0  0
 14 15  1  1  0  0  0
 14 16  1  0  0  0  0
 16 27  1  6  0  0  0
 18 19  2  0  0  0  0
 18 23  1  0  0  0  0
 19 20  1  0  0  0  0
 20 21  2  0  0  0  0
 21 22  1  0  0  0  0
 21 27  1  0  0  0  0
 22 23  2  0  0  0  0
 22 25  1  0  0  0  0
 23 24  1  0  0  0  0
 25 26  2  0  0  0  0
 26 27  1  0  0  0  0
M  END
>  <CHROM.1>
-23.47622389,-179.48367003,59.13015088,176.81331141,-166.31448116,-61.11958374
149.81323404,10.11582677,-6.97596293,21.04957679,2.95538600,-0.65588576,1.85228916

>  <Name>
ligand

>  <RI>
0

>  <Rbt.Current_Directory>
/home/itssahil/PROJECTS/Mol_Feturizer/Test_systems_manuscript/rnas/2ydh

>  <Rbt.Executable>
rbdock ($Id: //depot/dev/client3/rdock/2013.1/src/exe/rbdock.cxx#4 $)

>  <Rbt.Library>
libRbt.so (2013.1, Build901 2013/11/27)

>  <Rbt.Parameter_File>
/export/apps/rDock/src/rDock_2013.1_src/data/scripts/dock_solv.prm

>  <Rbt.Receptor>
prm/blind_docking_80.prm

>  <SCORE>
-14.0093

>  <SCORE.INTER>
-12.1423

>  <SCORE.INTER.CONST>
1

>  <SCORE.INTER.POLAR>
0

>  <SCORE.INTER.ROT>
7

>  <SCORE.INTER.SOLV>
11.331

>  <SCORE.INTER.VDW>
-20.1385

>  <SCORE.INTER.norm>
-0.449714

>  <SCORE.INTRA>
-1.86701

>  <SCORE.INTRA.DIHEDRAL>
-5.46531

>  <SCORE.INTRA.DIHEDRAL.0>
9.75037

>  <SCORE.INTRA.POLAR>
0

>  <SCORE.INTRA.POLAR.0>
0

>  <SCORE.INTRA.REPUL>
0

>  <SCORE.INTRA.REPUL.0>
0

>  <SCORE.INTRA.SOLV>
-1.1639

>  <SCORE.INTRA.SOLV.lig_0>
-48.4279

>  <SCORE.INTRA.VDW>
1.44759

>  <SCORE.INTRA.VDW.0>
-4.69037

>  <SCORE.INTRA.norm>
-0.0691486

>  <SCORE.RESTR>
0

>  <SCORE.RESTR.CAVITY>
0

>  <SCORE.RESTR.norm>
0

>  <SCORE.SYSTEM>
0

>  <SCORE.SYSTEM.CONST>
0

>  <SCORE.SYSTEM.DIHEDRAL>
0

>  <SCORE.SYSTEM.SOLV>
0

>  <SCORE.SYSTEM.norm>
0

>  <SCORE.heavy>
27

>  <SCORE.norm>
-0.518862

>  <RMSD>
14.203

$$$$
ligand
 OpenBabel02271912153D
libRbt.so/2013.1/901 2013/11/27
 27 29  0  0  0  0  0  0  0  0999 V2000
    6.9224   -6.3737   16.9024 N   0  0  0  0  0  0  0  0  0  0  0  0
    8.1735   -6.4728   17.7158 C   0  0  2  0  0  0  0  0  0  0  0  0
    9.1786   -7.4539   17.0724 C   0  0  0  0  0  0  0  0  0  0  0  0
    8.7999   -8.5155   16.5681 O   0  0  0  0  0  0  0  0  0  0  0  0
    7.8192   -6.8707   19.1448 C   0  0  0  0  0  0  0  0  0  0  0  0
    6.9280   -5.8782   19.8727 C   0  0  0  0  0  0  0  0  0  0  0  0
    6.5165   -6.3895   21.5657 S   0  0  2  0  0  0  0  0  0  0  0  0
    5.4686   -5.0034   22.0912 C   0  0  0  0  0  0  0  0  0  0  0  0
    8.0011   -6.1372   22.5517 C   0  0  0  0  0  0  0  0  0  0  0  0
    8.5363   -7.4860   22.9934 C   0  0  1  0  0  0  0  0  0  0  0  0
    8.9017   -8.3116   21.8984 O   0  0  0  0  0  0  0  0  0  0  0  0
    9.7606   -7.3363   23.8632 C   0  0  1  0  0  0  0  0  0  0  0  0
    9.4061   -7.1255   25.1998 O   0  0  0  0  0  0  0  0  0  0  0  0
   10.4247   -8.6640   23.6609 C   0  0  1  0  0  0  0  0  0  0  0  0
    9.9043   -9.5906   24.5952 O   0  0  0  0  0  0  0  0  0  0  0  0
   10.0413   -9.0652   22.2423 C   0  0  2  0  0  0  0  0  0  0  0  0
   10.4017   -7.2259   17.0373 O   0  0  0  0  0  0  0  0  0  0  0  0
   12.0104   -9.7722   17.3965 N   0  0  0  0  0  0  0  0  0  0  0  0
   10.8181  -10.2613   17.9104 C   0  0  0  0  0  0  0  0  0  0  0  0
   10.4447   -9.9959   19.2225 N   0  0  0  0  0  0  0  0  0  0  0  0
   11.2450   -9.2383   19.9944 C   0  0  0  0  0  0  0  0  0  0  0  0
   12.4413   -8.7273   19.4833 C   0  0  0  0  0  0  0  0  0  0  0  0
   12.8356   -9.0010   18.1865 C   0  0  0  0  0  0  0  0  0  0  0  0
   13.9756   -8.5235   17.7100 N   0  0  0  0  0  0  0  0  0  0  0  0
   13.0297   -8.0063   20.4440 N   0  0  0  0  0  0  0  0  0  0  0  0
   12.2427   -8.0436   21.5419 C   0  0  0  0  0  0  0  0  0  0  0  0
   11.1275   -8.8001   21.2801 N   0  0  0  0  0  0  0  0  0  0  0  0
  2  1  1  6  0  0  0
  2  3  1  0  0  0  0
  2  5  1  0  0  0  0
  3  4  1  0  0  0  0
  3 17  1  0  0  0  0
  5  6  1  0  0  0  0
  7  6  1  6  0  0  0
  7  8  1  0  0  0  0
  7  9  1  0  0  0  0
 10  9  1  6  0  0  0
 10 11  1  0  0  0  0
 10 12  1  0  0  0  0
 11 16  1  0  0  0  0
 12 13  1  1  0  0  0
 12 14  1  0  0  0  0
 14 15  1  1  0  0  0
 14 16  1  0  0  0  0
 16 27  1  6  0  0  0
 18 19  2  0  0  0  0
 18 23  1  0  0  0  0
 19 20  1  0  0  0  0
 20 21  2  0  0  0  0
 21 22  1  0  0  0  0
 21 27  1  0  0  0  0
 22 23  2  0  0  0  0
 22 25  1  0  0  0  0
 23 24  1  0  0  0  0
 25 26  2  0  0  0  0
 26 27  1  0  0  0  0
M  END
>  <CHROM.1>
-40.50027788,-61.36288056,179.57118791,-179.73899842,-112.66314435,61.48650245
-74.27290455,9.60969292,-7.83751976,20.40048387,0.90373252,0.49781697,-1.54877169

>  <Name>
ligand

>  <RI>
0

>  <Rbt.Current_Directory>
/home/itssahil/PROJECTS/Mol_Feturizer/Test_systems_manuscript/rnas/2ydh

>  <Rbt.Executable>
rbdock ($Id: //depot/dev/client3/rdock/2013.1/src/exe/rbdock.cxx#4 $)

>  <Rbt.Library>
libRbt.so (2013.1, Build901 2013/11/27)

>  <Rbt.Parameter_File>
/export/apps/rDock/src/rDock_2013.1_src/data/scripts/dock_solv.prm

>  <Rbt.Receptor>
prm/blind_docking_80.prm

>  <SCORE>
-10.5537

>  <SCORE.INTER>
-9.21487

>  <SCORE.INTER.CONST>
1

>  <SCORE.INTER.POLAR>
0

>  <SCORE.INTER.ROT>
7

>  <SCORE.INTER.SOLV>
9.65752

>  <SCORE.INTER.VDW>
-17.6291

>  <SCORE.INTER.norm>
-0.341292

>  <SCORE.INTRA>
-1.33887

>  <SCORE.INTRA.DIHEDRAL>
-2.7521

>  <SCORE.INTRA.DIHEDRAL.0>
9.75037

>  <SCORE.INTRA.POLAR>
0

>  <SCORE.INTRA.POLAR.0>
0

>  <SCORE.INTRA.REPUL>
0

>  <SCORE.INTRA.REPUL.0>
0

>  <SCORE.INTRA.SOLV>
-0.642764

>  <SCORE.INTRA.SOLV.lig_0>
-48.4279

>  <SCORE.INTRA.VDW>
0.358561

>  <SCORE.INTRA.VDW.0>
-4.69037

>  <SCORE.INTRA.norm>
-0.0495878

>  <SCORE.RESTR>
0

>  <SCORE.RESTR.CAVITY>
0

>  <SCORE.RESTR.norm>
0

>  <SCORE.SYSTEM>
0

>  <SCORE.SYSTEM.CONST>
0

>  <SCORE.SYSTEM.DIHEDRAL>
0

>  <SCORE.SYSTEM.SOLV>
0

>  <SCORE.SYSTEM.norm>
0

>  <SCORE.heavy>
27

>  <SCORE.norm>
-0.390879

>  <RMSD>
14.229

$$$$
ligand
 OpenBabel02271912153D
libRbt.so/2013.1/901 2013/11/27
 27 29  0  0  0  0  0  0  0  0999 V2000
    5.9247   -2.9478   19.4913 N   0  0  0  0  0  0  0  0  0  0  0  0
    5.9518   -3.7586   20.7477 C   0  0  2  0  0  0  0  0  0  0  0  0
    6.4246   -2.9085   21.9478 C   0  0  0  0  0  0  0  0  0  0  0  0
    7.1932   -1.9549   21.7906 O   0  0  0  0  0  0  0  0  0  0  0  0
    6.8264   -4.9901   20.5378 C   0  0  0  0  0  0  0  0  0  0  0  0
    6.9524   -5.8887   21.7567 C   0  0  0  0  0  0  0  0  0  0  0  0
    8.3804   -7.0076   21.6799 S   0  0  2  0  0  0  0  0  0  0  0  0
    7.6654   -8.4048   20.7676 C   0  0  0  0  0  0  0  0  0  0  0  0
    8.5809   -7.6959   23.3309 C   0  0  0  0  0  0  0  0  0  0  0  0
   10.0037   -8.1975   23.4879 C   0  0  1  0  0  0  0  0  0  0  0  0
   10.3129   -9.2485   22.5857 O   0  0  0  0  0  0  0  0  0  0  0  0
   11.0072   -7.0964   23.2460 C   0  0  1  0  0  0  0  0  0  0  0  0
   11.2243   -6.3487   24.4081 O   0  0  0  0  0  0  0  0  0  0  0  0
   12.2173   -7.8876   22.8528 C   0  0  1  0  0  0  0  0  0  0  0  0
   12.9333   -8.2508   24.0180 O   0  0  0  0  0  0  0  0  0  0  0  0
   11.6525   -9.1249   22.1671 C   0  0  2  0  0  0  0  0  0  0  0  0
    6.0623   -3.1450   23.1149 O   0  0  0  0  0  0  0  0  0  0  0  0
   14.0179   -7.0877   17.9111 N   0  0  0  0  0  0  0  0  0  0  0  0
   14.3492   -6.8926   19.2441 C   0  0  0  0  0  0  0  0  0  0  0  0
   13.6126   -7.4940   20.2576 N   0  0  0  0  0  0  0  0  0  0  0  0
   12.5769   -8.2900   19.9354 C   0  0  0  0  0  0  0  0  0  0  0  0
   12.2428   -8.5063   18.5956 C   0  0  0  0  0  0  0  0  0  0  0  0
   12.9536   -7.8975   17.5777 C   0  0  0  0  0  0  0  0  0  0  0  0
   12.6263   -8.0969   16.3097 N   0  0  0  0  0  0  0  0  0  0  0  0
   11.1961   -9.3382   18.5571 N   0  0  0  0  0  0  0  0  0  0  0  0
   10.8618   -9.6553   19.8274 C   0  0  0  0  0  0  0  0  0  0  0  0
   11.7111   -9.0175   20.6970 N   0  0  0  0  0  0  0  0  0  0  0  0
  2  1  1  6  0  0  0
  2  3  1  0  0  0  0
  2  5  1  0  0  0  0
  3  4  1  0  0  0  0
  3 17  1  0  0  0  0
  5  6  1  0  0  0  0
  7  6  1  1  0  0  0
  7  8  1  0  0  0  0
  7  9  1  0  0  0  0
 10  9  1  6  0  0  0
 10 11  1  0  0  0  0
 10 12  1  0  0  0  0
 11 16  1  0  0  0  0
 12 13  1  1  0  0  0
 12 14  1  0  0  0  0
 14 15  1  1  0  0  0
 14 16  1  0  0  0  0
 16 27  1  6  0  0  0
 18 19  2  0  0  0  0
 18 23  1  0  0  0  0
 19 20  1  0  0  0  0
 20 21  2  0  0  0  0
 21 22  1  0  0  0  0
 21 27  1  0  0  0  0
 22 23  2  0  0  0  0
 22 25  1  0  0  0  0
 23 24  1  0  0  0  0
 25 26  2  0  0  0  0
 26 27  1  0  0  0  0
M  END
>  <CHROM.1>
-28.77554634,179.08604928,-161.05033479,-86.56564306,-158.69970840,-62.68128483
145.18865485,10.05270080,-6.89232678,21.10747511,3.03863531,-0.66133143,1.83100951

>  <Name>
ligand

>  <RI>
0

>  <Rbt.Current_Directory>
/home/itssahil/PROJECTS/Mol_Feturizer/Test_systems_manuscript/rnas/2ydh

>  <Rbt.Executable>
rbdock ($Id: //depot/dev/client3/rdock/2013.1/src/exe/rbdock.cxx#4 $)

>  <Rbt.Library>
libRbt.so (2013.1, Build901 2013/11/27)

>  <Rbt.Parameter_File>
/export/apps/rDock/src/rDock_2013.1_src/data/scripts/dock_solv.prm

>  <Rbt.Receptor>
prm/blind_docking_60.prm

>  <SCORE>
-12.1719

>  <SCORE.INTER>
-12.2332

>  <SCORE.INTER.CONST>
1

>  <SCORE.INTER.POLAR>
0

>  <SCORE.INTER.ROT>
7

>  <SCORE.INTER.SOLV>
11.8042

>  <SCORE.INTER.VDW>
-20.3569

>  <SCORE.INTER.norm>
-0.453083

>  <SCORE.INTRA>
0.0613309

>  <SCORE.INTRA.DIHEDRAL>
-2.29432

>  <SCORE.INTRA.DIHEDRAL.0>
9.75037

>  <SCORE.INTRA.POLAR>
0

>  <SCORE.INTRA.POLAR.0>
0

>  <SCORE.INTRA.REPUL>
0

>  <SCORE.INTRA.REPUL.0>
0

>  <SCORE.INTRA.SOLV>
-1.29485

>  <SCORE.INTRA.SOLV.lig_0>
-48.4279

>  <SCORE.INTRA.VDW>
1.85592

>  <SCORE.INTRA.VDW.0>
-4.69037

>  <SCORE.INTRA.norm>
0.00227152

>  <SCORE.RESTR>
0

>  <SCORE.RESTR.CAVITY>
0

>  <SCORE.RESTR.norm>
0

>  <SCORE.SYSTEM>
0

>  <SCORE.SYSTEM.CONST>
0

>  <SCORE.SYSTEM.DIHEDRAL>
0

>  <SCORE.SYSTEM.SOLV>
0

>  <SCORE.SYSTEM.norm>
0

>  <SCORE.heavy>
27

>  <SCORE.norm>
-0.450812

>  <RMSD>
14.286

$$$$
ligand
 OpenBabel02271912153D
libRbt.so/2013.1/901 2013/11/27
 27 29  0  0  0  0  0  0  0  0999 V2000
    5.9956   -4.6235   21.9046 N   0  0  0  0  0  0  0  0  0  0  0  0
    7.4494   -4.7885   22.2144 C   0  0  2  0  0  0  0  0  0  0  0  0
    8.3273   -4.2737   21.0521 C   0  0  0  0  0  0  0  0  0  0  0  0
    9.4584   -3.8234   21.2580 O   0  0  0  0  0  0  0  0  0  0  0  0
    7.7350   -6.2497   22.5446 C   0  0  0  0  0  0  0  0  0  0  0  0
    9.1790   -6.5408   22.9175 C   0  0  0  0  0  0  0  0  0  0  0  0
    9.4552   -8.2596   23.4338 S   0  0  2  0  0  0  0  0  0  0  0  0
    8.6833   -8.2463   25.0768 C   0  0  0  0  0  0  0  0  0  0  0  0
   11.2037   -8.3982   23.8376 C   0  0  0  0  0  0  0  0  0  0  0  0
   11.9998   -8.5204   22.5523 C   0  0  1  0  0  0  0  0  0  0  0  0
   11.5018   -9.5388   21.6985 O   0  0  0  0  0  0  0  0  0  0  0  0
   11.9784   -7.2328   21.7652 C   0  0  1  0  0  0  0  0  0  0  0  0
   12.9738   -6.3554   22.2078 O   0  0  0  0  0  0  0  0  0  0  0  0
   12.2479   -7.7350   20.3794 C   0  0  1  0  0  0  0  0  0  0  0  0
   13.6462   -7.8078   20.1758 O   0  0  0  0  0  0  0  0  0  0  0  0
   11.6328   -9.1283   20.3571 C   0  0  2  0  0  0  0  0  0  0  0  0
    7.9387   -4.2836   19.8696 O   0  0  0  0  0  0  0  0  0  0  0  0
    8.2092  -11.6388   17.2210 N   0  0  0  0  0  0  0  0  0  0  0  0
    9.4713  -12.0607   17.6132 C   0  0  0  0  0  0  0  0  0  0  0  0
   10.2628  -11.2710   18.4386 N   0  0  0  0  0  0  0  0  0  0  0  0
    9.7862  -10.0910   18.8755 C   0  0  0  0  0  0  0  0  0  0  0  0
    8.5102   -9.6622   18.4994 C   0  0  0  0  0  0  0  0  0  0  0  0
    7.7203  -10.4278   17.6616 C   0  0  0  0  0  0  0  0  0  0  0  0
    6.5160  -10.0120   17.2992 N   0  0  0  0  0  0  0  0  0  0  0  0
    8.2825   -8.4777   19.0774 N   0  0  0  0  0  0  0  0  0  0  0  0
    9.3710   -8.1475   19.8069 C   0  0  0  0  0  0  0  0  0  0  0  0
   10.3134   -9.1397   19.6975 N   0  0  0  0  0  0  0  0  0  0  0  0
  2  1  1  6  0  0  0
  2  3  1  0  0  0  0
  2  5  1  0  0  0  0
  3  4  1  0  0  0  0
  3 17  1  0  0  0  0
  5  6  1  0  0  0  0
  7  6  1  1  0  0  0
  7  8  1  0  0  0  0
  7  9  1  0  0  0  0
 10  9  1  1  0  0  0
 10 11  1  0  0  0  0
 10 12  1  0  0  0  0
 11 16  1  0  0  0  0
 12 13  1  1  0  0  0
 12 14  1  0  0  0  0
 14 15  1  1  0  0  0
 14 16  1  0  0  0  0
 16 27  1  1  0  0  0
 18 19  2  0  0  0  0
 18 23  1  0  0  0  0
 19 20  1  0  0  0  0
 20 21  2  0  0  0  0
 21 22  1  0  0  0  0
 21 27  1  0  0  0  0
 22 23  2  0  0  0  0
 22 25  1  0  0  0  0
 23 24  1  0  0  0  0
 25 26  2  0  0  0  0
 26 27  1  0  0  0  0
M  END
>  <CHROM.1>
151.02941824,-178.35336022,175.33431980,-73.46379197,-78.69849791,-51.33242025
-99.65189891,9.65660609,-7.96953591,20.83961279,1.54279683,-0.48516972,0.73126122

>  <Name>
ligand

>  <RI>
0

>  <Rbt.Current_Directory>
/home/itssahil/PROJECTS/Mol_Feturizer/Test_systems_manuscript/rnas/2ydh

>  <Rbt.Executable>
rbdock ($Id: //depot/dev/client3/rdock/2013.1/src/exe/rbdock.cxx#4 $)

>  <Rbt.Library>
libRbt.so (2013.1, Build901 2013/11/27)

>  <Rbt.Parameter_File>
/export/apps/rDock/src/rDock_2013.1_src/data/scripts/dock_solv.prm

>  <Rbt.Receptor>
prm/blind_docking_100.prm

>  <SCORE>
-13.9692

>  <SCORE.INTER>
-11.7183

>  <SCORE.INTER.CONST>
1

>  <SCORE.INTER.POLAR>
0

>  <SCORE.INTER.ROT>
7

>  <SCORE.INTER.SOLV>
9.36831

>  <SCORE.INTER.VDW>
-19.2016

>  <SCORE.INTER.norm>
-0.434011

>  <SCORE.INTRA>
-2.25088

>  <SCORE.INTRA.DIHEDRAL>
-5.85148

>  <SCORE.INTRA.DIHEDRAL.0>
9.75037

>  <SCORE.INTRA.POLAR>
0

>  <SCORE.INTRA.POLAR.0>
0

>  <SCORE.INTRA.REPUL>
0

>  <SCORE.INTRA.REPUL.0>
0

>  <SCORE.INTRA.SOLV>
-1.22213

>  <SCORE.INTRA.SOLV.lig_0>
-48.4279

>  <SCORE.INTRA.VDW>
1.28592

>  <SCORE.INTRA.VDW.0>
-4.69037

>  <SCORE.INTRA.norm>
-0.0833661

>  <SCORE.RESTR>
0

>  <SCORE.RESTR.CAVITY>
0

>  <SCORE.RESTR.norm>
0

>  <SCORE.SYSTEM>
0

>  <SCORE.SYSTEM.CONST>
0

>  <SCORE.SYSTEM.DIHEDRAL>
0

>  <SCORE.SYSTEM.SOLV>
0

>  <SCORE.SYSTEM.norm>
0

>  <SCORE.heavy>
27

>  <SCORE.norm>
-0.517377

>  <RMSD>
14.297

$$$$
ligand
 OpenBabel02271912153D
libRbt.so/2013.1/901 2013/11/27
 27 29  0  0  0  0  0  0  0  0999 V2000
    8.0633  -16.1592   20.9178 N   0  0  0  0  0  0  0  0  0  0  0  0
    7.7893  -16.7515   19.5721 C   0  0  2  0  0  0  0  0  0  0  0  0
    8.9621  -17.6436   19.1082 C   0  0  0  0  0  0  0  0  0  0  0  0
    9.8122  -18.0465   19.9081 O   0  0  0  0  0  0  0  0  0  0  0  0
    7.4906  -15.6346   18.5776 C   0  0  0  0  0  0  0  0  0  0  0  0
    8.6096  -14.6194   18.4155 C   0  0  0  0  0  0  0  0  0  0  0  0
    8.0811  -13.0944   17.5835 S   0  0  2  0  0  0  0  0  0  0  0  0
    8.1505  -13.6167   15.8462 C   0  0  0  0  0  0  0  0  0  0  0  0
    9.4643  -11.9475   17.6898 C   0  0  0  0  0  0  0  0  0  0  0  0
    9.0030  -10.5739   17.2416 C   0  0  1  0  0  0  0  0  0  0  0  0
    7.9597  -10.0582   18.0538 O   0  0  0  0  0  0  0  0  0  0  0  0
   10.1314   -9.5724   17.2813 C   0  0  1  0  0  0  0  0  0  0  0  0
   10.8868   -9.6179   16.1049 O   0  0  0  0  0  0  0  0  0  0  0  0
    9.3739   -8.2863   17.4130 C   0  0  1  0  0  0  0  0  0  0  0  0
    9.0328   -7.8143   16.1233 O   0  0  0  0  0  0  0  0  0  0  0  0
    8.1201   -8.6652   18.1906 C   0  0  2  0  0  0  0  0  0  0  0  0
    9.1065  -17.9890   17.9211 O   0  0  0  0  0  0  0  0  0  0  0  0
    8.1706   -4.8914   21.8804 N   0  0  0  0  0  0  0  0  0  0  0  0
    8.0215   -4.7393   20.5095 C   0  0  0  0  0  0  0  0  0  0  0  0
    8.0444   -5.8412   19.6629 N   0  0  0  0  0  0  0  0  0  0  0  0
    8.1946   -7.0712   20.1870 C   0  0  0  0  0  0  0  0  0  0  0  0
    8.3305   -7.2384   21.5680 C   0  0  0  0  0  0  0  0  0  0  0  0
    8.3310   -6.1495   22.4201 C   0  0  0  0  0  0  0  0  0  0  0  0
    8.4710   -6.3121   23.7272 N   0  0  0  0  0  0  0  0  0  0  0  0
    8.4489   -8.5469   21.8188 N   0  0  0  0  0  0  0  0  0  0  0  0
    8.3892   -9.2095   20.6425 C   0  0  0  0  0  0  0  0  0  0  0  0
    8.2267   -8.3100   19.6184 N   0  0  0  0  0  0  0  0  0  0  0  0
  2  1  1  1  0  0  0
  2  3  1  0  0  0  0
  2  5  1  0  0  0  0
  3  4  1  0  0  0  0
  3 17  1  0  0  0  0
  5  6  1  0  0  0  0
  7  6  1  1  0  0  0
  7  8  1  0  0  0  0
  7  9  1  0  0  0  0
 10  9  1  1  0  0  0
 10 11  1  0  0  0  0
 10 12  1  0  0  0  0
 11 16  1  0  0  0  0
 12 13  1  6  0  0  0
 12 14  1  0  0  0  0
 14 15  1  6  0  0  0
 14 16  1  0  0  0  0
 16 27  1  1  0  0  0
 18 19  2  0  0  0  0
 18 23  1  0  0  0  0
 19 20  1  0  0  0  0
 20 21  2  0  0  0  0
 21 22  1  0  0  0  0
 21 27  1  0  0  0  0
 22 23  2  0  0  0  0
 22 25  1  0  0  0  0
 23 24  1  0  0  0  0
 25 26  2  0  0  0  0
 26 27  1  0  0  0  0
M  END
>  <CHROM.1>
16.60854600,59.04459128,-164.88942783,-81.36683650,-169.72627684,60.90618866
-169.52223187,8.61433281,-10.91341306,19.02976445,1.43962597,-1.40034075
-3.07675852

>  <Name>
ligand

>  <RI>
0

>  <Rbt.Current_Directory>
/home/itssahil/PROJECTS/Mol_Feturizer/Test_systems_manuscript/rnas/2ydh

>  <Rbt.Executable>
rbdock ($Id: //depot/dev/client3/rdock/2013.1/src/exe/rbdock.cxx#4 $)

>  <Rbt.Library>
libRbt.so (2013.1, Build901 2013/11/27)

>  <Rbt.Parameter_File>
/export/apps/rDock/src/rDock_2013.1_src/data/scripts/dock_solv.prm

>  <Rbt.Receptor>
prm/blind_docking_100.prm

>  <SCORE>
-13.5487

>  <SCORE.INTER>
-13.4379

>  <SCORE.INTER.CONST>
1

>  <SCORE.INTER.POLAR>
0

>  <SCORE.INTER.ROT>
7

>  <SCORE.INTER.SOLV>
9.30387

>  <SCORE.INTER.VDW>
-20.3265

>  <SCORE.INTER.norm>
-0.497699

>  <SCORE.INTRA>
-0.110811

>  <SCORE.INTRA.DIHEDRAL>
-4.40784

>  <SCORE.INTRA.DIHEDRAL.0>
9.75037

>  <SCORE.INTRA.POLAR>
0

>  <SCORE.INTRA.POLAR.0>
0

>  <SCORE.INTRA.REPUL>
0

>  <SCORE.INTRA.REPUL.0>
0

>  <SCORE.INTRA.SOLV>
-0.821034

>  <SCORE.INTRA.SOLV.lig_0>
-48.4279

>  <SCORE.INTRA.VDW>
2.50362

>  <SCORE.INTRA.VDW.0>
-4.69037

>  <SCORE.INTRA.norm>
-0.00410413

>  <SCORE.RESTR>
0

>  <SCORE.RESTR.CAVITY>
0

>  <SCORE.RESTR.norm>
0

>  <SCORE.SYSTEM>
0

>  <SCORE.SYSTEM.CONST>
0

>  <SCORE.SYSTEM.DIHEDRAL>
0

>  <SCORE.SYSTEM.SOLV>
0

>  <SCORE.SYSTEM.norm>
0

>  <SCORE.heavy>
27

>  <SCORE.norm>
-0.501803

>  <RMSD>
14.347

$$$$
ligand
 OpenBabel02271912153D
libRbt.so/2013.1/901 2013/11/27
 27 29  0  0  0  0  0  0  0  0999 V2000
    6.6618   -6.6075   18.8526 N   0  0  0  0  0  0  0  0  0  0  0  0
    6.8528   -5.1264   18.7723 C   0  0  2  0  0  0  0  0  0  0  0  0
    7.3543   -4.7056   17.3729 C   0  0  0  0  0  0  0  0  0  0  0  0
    7.1814   -3.5578   16.9519 O   0  0  0  0  0  0  0  0  0  0  0  0
    7.7998   -4.6763   19.8796 C   0  0  0  0  0  0  0  0  0  0  0  0
    7.3002   -4.9541   21.2876 C   0  0  0  0  0  0  0  0  0  0  0  0
    8.4577   -4.4175   22.5795 S   0  0  2  0  0  0  0  0  0  0  0  0
    8.6245   -2.6562   22.1725 C   0  0  0  0  0  0  0  0  0  0  0  0
   10.0729   -5.0668   22.1217 C   0  0  0  0  0  0  0  0  0  0  0  0
   10.2942   -6.3881   22.8329 C   0  0  1  0  0  0  0  0  0  0  0  0
    9.2593   -7.3246   22.5757 O   0  0  0  0  0  0  0  0  0  0  0  0
   11.5909   -7.0331   22.4083 C   0  0  1  0  0  0  0  0  0  0  0  0
   12.6666   -6.5396   23.1540 O   0  0  0  0  0  0  0  0  0  0  0  0
   11.3115   -8.4737   22.7111 C   0  0  1  0  0  0  0  0  0  0  0  0
   11.6493   -8.7387   24.0594 O   0  0  0  0  0  0  0  0  0  0  0  0
    9.8100   -8.6192   22.4995 C   0  0  2  0  0  0  0  0  0  0  0  0
    7.9437   -5.4949   16.6120 O   0  0  0  0  0  0  0  0  0  0  0  0
   11.4720  -10.0526   17.6993 N   0  0  0  0  0  0  0  0  0  0  0  0
   12.2090   -9.4564   18.7122 C   0  0  0  0  0  0  0  0  0  0  0  0
   11.6167   -9.1247   19.9249 N   0  0  0  0  0  0  0  0  0  0  0  0
   10.3154   -9.4049   20.1206 C   0  0  0  0  0  0  0  0  0  0  0  0
    9.5662  -10.0192   19.1132 C   0  0  0  0  0  0  0  0  0  0  0  0
   10.1371  -10.3353   17.8941 C   0  0  0  0  0  0  0  0  0  0  0  0
    9.4202  -10.9075   16.9385 N   0  0  0  0  0  0  0  0  0  0  0  0
    8.3211  -10.1945   19.5691 N   0  0  0  0  0  0  0  0  0  0  0  0
    8.2617   -9.7139   20.8308 C   0  0  0  0  0  0  0  0  0  0  0  0
    9.4920   -9.2238   21.1921 N   0  0  0  0  0  0  0  0  0  0  0  0
  2  1  1  6  0  0  0
  2  3  1  0  0  0  0
  2  5  1  0  0  0  0
  3  4  1  0  0  0  0
  3 17  1  0  0  0  0
  5  6  1  0  0  0  0
  7  6  1  6  0  0  0
  7  8  1  0  0  0  0
  7  9  1  0  0  0  0
 10  9  1  6  0  0  0
 10 11  1  0  0  0  0
 10 12  1  0  0  0  0
 11 16  1  0  0  0  0
 12 13  1  1  0  0  0
 12 14  1  0  0  0  0
 14 15  1  1  0  0  0
 14 16  1  0  0  0  0
 16 27  1  6  0  0  0
 18 19  2  0  0  0  0
 18 23  1  0  0  0  0
 19 20  1  0  0  0  0
 20 21  2  0  0  0  0
 21 22  1  0  0  0  0
 21 27  1  0  0  0  0
 22 23  2  0  0  0  0
 22 25  1  0  0  0  0
 23 24  1  0  0  0  0
 25 26  2  0  0  0  0
 26 27  1  0  0  0  0
M  END
>  <CHROM.1>
156.95853188,-61.40948369,179.55019225,57.20205711,-94.83968217,55.45270142
104.88025573,9.41439716,-7.14271845,20.46653181,2.50734827,-0.94741273,0.83424896

>  <Name>
ligand

>  <RI>
0

>  <Rbt.Current_Directory>
/home/itssahil/PROJECTS/Mol_Feturizer/Test_systems_manuscript/rnas/2ydh

>  <Rbt.Executable>
rbdock ($Id: //depot/dev/client3/rdock/2013.1/src/exe/rbdock.cxx#4 $)

>  <Rbt.Library>
libRbt.so (2013.1, Build901 2013/11/27)

>  <Rbt.Parameter_File>
/export/apps/rDock/src/rDock_2013.1_src/data/scripts/dock_solv.prm

>  <Rbt.Receptor>
prm/blind_docking_40.prm

>  <SCORE>
-13.3099

>  <SCORE.INTER>
-13.1246

>  <SCORE.INTER.CONST>
1

>  <SCORE.INTER.POLAR>
0

>  <SCORE.INTER.ROT>
7

>  <SCORE.INTER.SOLV>
10.1471

>  <SCORE.INTER.VDW>
-20.3987

>  <SCORE.INTER.norm>
-0.486095

>  <SCORE.INTRA>
-0.185374

>  <SCORE.INTRA.DIHEDRAL>
-4.67506

>  <SCORE.INTRA.DIHEDRAL.0>
9.75037

>  <SCORE.INTRA.POLAR>
0

>  <SCORE.INTRA.POLAR.0>
0

>  <SCORE.INTRA.REPUL>
0

>  <SCORE.INTRA.REPUL.0>
0

>  <SCORE.INTRA.SOLV>
-0.770347

>  <SCORE.INTRA.SOLV.lig_0>
-48.4279

>  <SCORE.INTRA.VDW>
2.53733

>  <SCORE.INTRA.VDW.0>
-4.69037

>  <SCORE.INTRA.norm>
-0.0068657

>  <SCORE.RESTR>
0

>  <SCORE.RESTR.CAVITY>
0

>  <SCORE.RESTR.norm>
0

>  <SCORE.SYSTEM>
0

>  <SCORE.SYSTEM.CONST>
0

>  <SCORE.SYSTEM.DIHEDRAL>
0

>  <SCORE.SYSTEM.SOLV>
0

>  <SCORE.SYSTEM.norm>
0

>  <SCORE.heavy>
27

>  <SCORE.norm>
-0.49296

>  <RMSD>
14.368

$$$$
ligand
 OpenBabel02271912153D
libRbt.so/2013.1/901 2013/11/27
 27 29  0  0  0  0  0  0  0  0999 V2000
   12.3998   -9.2417   14.9796 N   0  0  0  0  0  0  0  0  0  0  0  0
   12.0151   -9.9093   16.2614 C   0  0  2  0  0  0  0  0  0  0  0  0
   10.6345  -10.5918   16.1401 C   0  0  0  0  0  0  0  0  0  0  0  0
   10.1370  -11.1986   17.0935 O   0  0  0  0  0  0  0  0  0  0  0  0
   12.0530   -8.8903   17.3953 C   0  0  0  0  0  0  0  0  0  0  0  0
   13.4508   -8.4775   17.8251 C   0  0  0  0  0  0  0  0  0  0  0  0
   13.4593   -7.3071   19.2133 S   0  0  2  0  0  0  0  0  0  0  0  0
   15.1939   -7.4180   19.7373 C   0  0  0  0  0  0  0  0  0  0  0  0
   12.6006   -8.1179   20.5717 C   0  0  0  0  0  0  0  0  0  0  0  0
   12.4085   -7.1221   21.6996 C   0  0  1  0  0  0  0  0  0  0  0  0
   11.6443   -5.9933   21.3047 O   0  0  0  0  0  0  0  0  0  0  0  0
   11.6980   -7.7490   22.8744 C   0  0  1  0  0  0  0  0  0  0  0  0
   12.6003   -8.4097   23.7146 O   0  0  0  0  0  0  0  0  0  0  0  0
   11.1005   -6.5416   23.5304 C   0  0  1  0  0  0  0  0  0  0  0  0
   12.0432   -5.9866   24.4279 O   0  0  0  0  0  0  0  0  0  0  0  0
   10.8313   -5.5813   22.3791 C   0  0  2  0  0  0  0  0  0  0  0  0
    9.9699  -10.5671   15.0879 O   0  0  0  0  0  0  0  0  0  0  0  0
    6.1265   -3.1897   22.4413 N   0  0  0  0  0  0  0  0  0  0  0  0
    7.3094   -2.7560   23.0221 C   0  0  0  0  0  0  0  0  0  0  0  0
    8.4704   -3.5140   22.9274 N   0  0  0  0  0  0  0  0  0  0  0  0
    8.4458   -4.6739   22.2460 C   0  0  0  0  0  0  0  0  0  0  0  0
    7.2638   -5.1138   21.6436 C   0  0  0  0  0  0  0  0  0  0  0  0
    6.0961   -4.3805   21.7478 C   0  0  0  0  0  0  0  0  0  0  0  0
    4.9758   -4.8070   21.1844 N   0  0  0  0  0  0  0  0  0  0  0  0
    7.5178   -6.2734   21.0272 N   0  0  0  0  0  0  0  0  0  0  0  0
    8.8206   -6.5769   21.2187 C   0  0  0  0  0  0  0  0  0  0  0  0
    9.4142   -5.5928   21.9694 N   0  0  0  0  0  0  0  0  0  0  0  0
  2  1  1  6  0  0  0
  2  3  1  0  0  0  0
  2  5  1  0  0  0  0
  3  4  1  0  0  0  0
  3 17  1  0  0  0  0
  5  6  1  0  0  0  0
  7  6  1  6  0  0  0
  7  8  1  0  0  0  0
  7  9  1  0  0  0  0
 10  9  1  6  0  0  0
 10 11  1  0  0  0  0
 10 12  1  0  0  0  0
 11 16  1  0  0  0  0
 12 13  1  1  0  0  0
 12 14  1  0  0  0  0
 14 15  1  1  0  0  0
 14 16  1  0  0  0  0
 16 27  1  6  0  0  0
 18 19  2  0  0  0  0
 18 23  1  0  0  0  0
 19 20  1  0  0  0  0
 20 21  2  0  0  0  0
 21 22  1  0  0  0  0
 21 27  1  0  0  0  0
 22 23  2  0  0  0  0
 22 25  1  0  0  0  0
 23 24  1  0  0  0  0
 25 26  2  0  0  0  0
 26 27  1  0  0  0  0
M  END
>  <CHROM.1>
-179.95004418,-72.82979704,-178.04481248,164.71739150,-172.39766557,60.01367252
-138.30706757,10.55622497,-6.97934027,20.41345845,1.01793405,0.30541965,-2.11394638

>  <Name>
ligand

>  <RI>
0

>  <Rbt.Current_Directory>
/home/itssahil/PROJECTS/Mol_Feturizer/Test_systems_manuscript/rnas/2ydh

>  <Rbt.Executable>
rbdock ($Id: //depot/dev/client3/rdock/2013.1/src/exe/rbdock.cxx#4 $)

>  <Rbt.Library>
libRbt.so (2013.1, Build901 2013/11/27)

>  <Rbt.Parameter_File>
/export/apps/rDock/src/rDock_2013.1_src/data/scripts/dock_solv.prm

>  <Rbt.Receptor>
prm/blind_docking_80.prm

>  <SCORE>
-13.8304

>  <SCORE.INTER>
-12.9549

>  <SCORE.INTER.CONST>
1

>  <SCORE.INTER.POLAR>
0

>  <SCORE.INTER.ROT>
7

>  <SCORE.INTER.SOLV>
11.5436

>  <SCORE.INTER.VDW>
-20.7512

>  <SCORE.INTER.norm>
-0.479813

>  <SCORE.INTRA>
-0.875475

>  <SCORE.INTRA.DIHEDRAL>
-5.2174

>  <SCORE.INTRA.DIHEDRAL.0>
9.75037

>  <SCORE.INTRA.POLAR>
0

>  <SCORE.INTRA.POLAR.0>
0

>  <SCORE.INTRA.REPUL>
0

>  <SCORE.INTRA.REPUL.0>
0

>  <SCORE.INTRA.SOLV>
-0.980139

>  <SCORE.INTRA.SOLV.lig_0>
-48.4279

>  <SCORE.INTRA.VDW>
2.2233

>  <SCORE.INTRA.VDW.0>
-4.69037

>  <SCORE.INTRA.norm>
-0.032425

>  <SCORE.RESTR>
0

>  <SCORE.RESTR.CAVITY>
0

>  <SCORE.RESTR.norm>
0

>  <SCORE.SYSTEM>
0

>  <SCORE.SYSTEM.CONST>
0

>  <SCORE.SYSTEM.DIHEDRAL>
0

>  <SCORE.SYSTEM.SOLV>
0

>  <SCORE.SYSTEM.norm>
0

>  <SCORE.heavy>
27

>  <SCORE.norm>
-0.512237

>  <RMSD>
14.399

$$$$
ligand
 OpenBabel02271912153D
libRbt.so/2013.1/901 2013/11/27
 27 29  0  0  0  0  0  0  0  0999 V2000
   12.8805   -9.2371   18.3518 N   0  0  0  0  0  0  0  0  0  0  0  0
   13.2115   -7.8864   18.9019 C   0  0  2  0  0  0  0  0  0  0  0  0
   14.5549   -7.3710   18.3393 C   0  0  0  0  0  0  0  0  0  0  0  0
   14.5973   -6.3977   17.5807 O   0  0  0  0  0  0  0  0  0  0  0  0
   13.2136   -7.9460   20.4257 C   0  0  0  0  0  0  0  0  0  0  0  0
   13.4971   -6.6180   21.1079 C   0  0  0  0  0  0  0  0  0  0  0  0
   12.3199   -6.2255   22.4334 S   0  0  2  0  0  0  0  0  0  0  0  0
   12.5469   -7.6605   23.5219 C   0  0  0  0  0  0  0  0  0  0  0  0
   10.6759   -6.5164   21.7607 C   0  0  0  0  0  0  0  0  0  0  0  0
    9.6405   -6.0808   22.7799 C   0  0  1  0  0  0  0  0  0  0  0  0
    9.6309   -4.6757   22.9795 O   0  0  0  0  0  0  0  0  0  0  0  0
    8.2474   -6.4775   22.3559 C   0  0  1  0  0  0  0  0  0  0  0  0
    7.9595   -7.7916   22.7391 O   0  0  0  0  0  0  0  0  0  0  0  0
    7.4199   -5.4793   23.1068 C   0  0  1  0  0  0  0  0  0  0  0  0
    7.1438   -5.9839   24.3996 O   0  0  0  0  0  0  0  0  0  0  0  0
    8.3071   -4.2442   23.1951 C   0  0  2  0  0  0  0  0  0  0  0  0
   15.6427   -7.9090   18.6162 O   0  0  0  0  0  0  0  0  0  0  0  0
    9.7980   -0.1688   20.1906 N   0  0  0  0  0  0  0  0  0  0  0  0
   10.5735   -0.9001   21.0785 C   0  0  0  0  0  0  0  0  0  0  0  0
   10.0242   -1.9446   21.8125 N   0  0  0  0  0  0  0  0  0  0  0  0
    8.7271   -2.2586   21.6418 C   0  0  0  0  0  0  0  0  0  0  0  0
    7.9395   -1.5390   20.7388 C   0  0  0  0  0  0  0  0  0  0  0  0
    8.4673   -0.4838   20.0178 C   0  0  0  0  0  0  0  0  0  0  0  0
    7.7140    0.2022   19.1713 N   0  0  0  0  0  0  0  0  0  0  0  0
    6.7080   -2.0608   20.7535 N   0  0  0  0  0  0  0  0  0  0  0  0
    6.6945   -3.0866   21.6331 C   0  0  0  0  0  0  0  0  0  0  0  0
    7.9408   -3.2275   22.1910 N   0  0  0  0  0  0  0  0  0  0  0  0
  2  1  1  6  0  0  0
  2  3  1  0  0  0  0
  2  5  1  0  0  0  0
  3  4  1  0  0  0  0
  3 17  1  0  0  0  0
  5  6  1  0  0  0  0
  7  6  1  6  0  0  0
  7  8  1  0  0  0  0
  7  9  1  0  0  0  0
 10  9  1  6  0  0  0
 10 11  1  0  0  0  0
 10 12  1  0  0  0  0
 11 16  1  0  0  0  0
 12 13  1  1  0  0  0
 12 14  1  0  0  0  0
 14 15  1  1  0  0  0
 14 16  1  0  0  0  0
 16 27  1  6  0  0  0
 18 19  2  0  0  0  0
 18 23  1  0  0  0  0
 19 20  1  0  0  0  0
 20 21  2  0  0  0  0
 21 22  1  0  0  0  0
 21 27  1  0  0  0  0
 22 23  2  0  0  0  0
 22 25  1  0  0  0  0
 23 24  1  0  0  0  0
 25 26  2  0  0  0  0
 26 27  1  0  0  0  0
M  END
>  <CHROM.1>
112.65158771,-178.25066298,131.70963080,58.48147719,-174.72465734,67.69728262
-35.90294133,10.38137158,-4.98340220,21.25227147,-0.49860466,0.62692808,-0.50884026

>  <Name>
ligand

>  <RI>
0

>  <Rbt.Current_Directory>
/home/itssahil/PROJECTS/Mol_Feturizer/Test_systems_manuscript/rnas/2ydh

>  <Rbt.Executable>
rbdock ($Id: //depot/dev/client3/rdock/2013.1/src/exe/rbdock.cxx#4 $)

>  <Rbt.Library>
libRbt.so (2013.1, Build901 2013/11/27)

>  <Rbt.Parameter_File>
/export/apps/rDock/src/rDock_2013.1_src/data/scripts/dock_solv.prm

>  <Rbt.Receptor>
prm/blind_docking_40.prm

>  <SCORE>
-13.915

>  <SCORE.INTER>
-15.7812

>  <SCORE.INTER.CONST>
1

>  <SCORE.INTER.POLAR>
0

>  <SCORE.INTER.ROT>
7

>  <SCORE.INTER.SOLV>
11.7856

>  <SCORE.INTER.VDW>
-22.716

>  <SCORE.INTER.norm>
-0.584488

>  <SCORE.INTRA>
1.86613

>  <SCORE.INTRA.DIHEDRAL>
-0.95795

>  <SCORE.INTRA.DIHEDRAL.0>
9.75037

>  <SCORE.INTRA.POLAR>
0

>  <SCORE.INTRA.POLAR.0>
0

>  <SCORE.INTRA.REPUL>
0

>  <SCORE.INTRA.REPUL.0>
0

>  <SCORE.INTRA.SOLV>
-1.5507

>  <SCORE.INTRA.SOLV.lig_0>
-48.4279

>  <SCORE.INTRA.VDW>
3.12045

>  <SCORE.INTRA.VDW.0>
-4.69037

>  <SCORE.INTRA.norm>
0.0691158

>  <SCORE.RESTR>
0

>  <SCORE.RESTR.CAVITY>
0

>  <SCORE.RESTR.norm>
0

>  <SCORE.SYSTEM>
0

>  <SCORE.SYSTEM.CONST>
0

>  <SCORE.SYSTEM.DIHEDRAL>
0

>  <SCORE.SYSTEM.SOLV>
0

>  <SCORE.SYSTEM.norm>
0

>  <SCORE.heavy>
27

>  <SCORE.norm>
-0.515372

>  <RMSD>
14.411

$$$$
ligand
 OpenBabel02271912153D
libRbt.so/2013.1/901 2013/11/27
 27 29  0  0  0  0  0  0  0  0999 V2000
    9.7474   -6.2719   22.6235 N   0  0  0  0  0  0  0  0  0  0  0  0
    9.6040   -5.0970   23.5376 C   0  0  2  0  0  0  0  0  0  0  0  0
    8.9391   -5.5075   24.8703 C   0  0  0  0  0  0  0  0  0  0  0  0
    9.3927   -5.1260   25.9536 O   0  0  0  0  0  0  0  0  0  0  0  0
    8.8287   -3.9929   22.8267 C   0  0  0  0  0  0  0  0  0  0  0  0
    7.4293   -4.3888   22.3861 C   0  0  0  0  0  0  0  0  0  0  0  0
    6.6023   -3.1152   21.3906 S   0  0  2  0  0  0  0  0  0  0  0  0
    5.0971   -4.0002   20.8939 C   0  0  0  0  0  0  0  0  0  0  0  0
    7.5089   -3.0092   19.8393 C   0  0  0  0  0  0  0  0  0  0  0  0
    6.6844   -2.2236   18.8375 C   0  0  1  0  0  0  0  0  0  0  0  0
    6.1902   -1.0065   19.3748 O   0  0  0  0  0  0  0  0  0  0  0  0
    7.4926   -1.8712   17.6126 C   0  0  1  0  0  0  0  0  0  0  0  0
    7.4824   -2.9176   16.6844 O   0  0  0  0  0  0  0  0  0  0  0  0
    6.7520   -0.6688   17.1119 C   0  0  1  0  0  0  0  0  0  0  0  0
    5.6993   -1.0911   16.2659 O   0  0  0  0  0  0  0  0  0  0  0  0
    6.1950   -0.0176   18.3712 C   0  0  2  0  0  0  0  0  0  0  0  0
    7.9314   -6.2368   24.9145 O   0  0  0  0  0  0  0  0  0  0  0  0
    8.7701    4.3997   17.0617 N   0  0  0  0  0  0  0  0  0  0  0  0
    8.0629    3.5474   16.2262 C   0  0  0  0  0  0  0  0  0  0  0  0
    7.4468    2.4067   16.7269 N   0  0  0  0  0  0  0  0  0  0  0  0
    7.5247    2.1402   18.0433 C   0  0  0  0  0  0  0  0  0  0  0  0
    8.2215    2.9995   18.8975 C   0  0  0  0  0  0  0  0  0  0  0  0
    8.8572    4.1264   18.4098 C   0  0  0  0  0  0  0  0  0  0  0  0
    9.5256    4.9319   19.2217 N   0  0  0  0  0  0  0  0  0  0  0  0
    8.1313    2.5135   20.1404 N   0  0  0  0  0  0  0  0  0  0  0  0
    7.3986    1.3788   20.0980 C   0  0  0  0  0  0  0  0  0  0  0  0
    7.0092    1.1336   18.8047 N   0  0  0  0  0  0  0  0  0  0  0  0
  2  1  1  6  0  0  0
  2  3  1  0  0  0  0
  2  5  1  0  0  0  0
  3  4  1  0  0  0  0
  3 17  1  0  0  0  0
  5  6  1  0  0  0  0
  7  6  1  1  0  0  0
  7  8  1  0  0  0  0
  7  9  1  0  0  0  0
 10  9  1  1  0  0  0
 10 11  1  0  0  0  0
 10 12  1  0  0  0  0
 11 16  1  0  0  0  0
 12 13  1  6  0  0  0
 12 14  1  0  0  0  0
 14 15  1  6  0  0  0
 14 16  1  0  0  0  0
 16 27  1  1  0  0  0
 18 19  2  0  0  0  0
 18 23  1  0  0  0  0
 19 20  1  0  0  0  0
 20 21  2  0  0  0  0
 21 22  1  0  0  0  0
 21 27  1  0  0  0  0
 22 23  2  0  0  0  0
 22 25  1  0  0  0  0
 23 24  1  0  0  0  0
 25 26  2  0  0  0  0
 26 27  1  0  0  0  0
M  END
>  <CHROM.1>
134.28715173,59.81091891,-173.85406086,173.38702031,166.22878642,48.71380779
163.28403283,7.64576668,-1.22569899,20.00917944,-1.47653643,-1.02794221,-0.56380972

>  <Name>
ligand

>  <RI>
0

>  <Rbt.Current_Directory>
/home/itssahil/PROJECTS/Mol_Feturizer/Test_systems_manuscript/rnas/2ydh

>  <Rbt.Executable>
rbdock ($Id: //depot/dev/client3/rdock/2013.1/src/exe/rbdock.cxx#4 $)

>  <Rbt.Library>
libRbt.so (2013.1, Build901 2013/11/27)

>  <Rbt.Parameter_File>
/export/apps/rDock/src/rDock_2013.1_src/data/scripts/dock_solv.prm

>  <Rbt.Receptor>
prm/blind_docking_60.prm

>  <SCORE>
-0.358042

>  <SCORE.INTER>
0.331728

>  <SCORE.INTER.CONST>
1

>  <SCORE.INTER.POLAR>
0

>  <SCORE.INTER.ROT>
7

>  <SCORE.INTER.SOLV>
13.0339

>  <SCORE.INTER.VDW>
-12.3901

>  <SCORE.INTER.norm>
0.0122862

>  <SCORE.INTRA>
-0.695872

>  <SCORE.INTRA.DIHEDRAL>
-6.00866

>  <SCORE.INTRA.DIHEDRAL.0>
9.75037

>  <SCORE.INTRA.POLAR>
0

>  <SCORE.INTRA.POLAR.0>
0

>  <SCORE.INTRA.REPUL>
0

>  <SCORE.INTRA.REPUL.0>
0

>  <SCORE.INTRA.SOLV>
-0.822595

>  <SCORE.INTRA.SOLV.lig_0>
-48.4279

>  <SCORE.INTRA.VDW>
2.71975

>  <SCORE.INTRA.VDW.0>
-4.69037

>  <SCORE.INTRA.norm>
-0.025773

>  <SCORE.RESTR>
0.00610199

>  <SCORE.RESTR.CAVITY>
0.00610199

>  <SCORE.RESTR.norm>
0.000226

>  <SCORE.SYSTEM>
0

>  <SCORE.SYSTEM.CONST>
0

>  <SCORE.SYSTEM.DIHEDRAL>
0

>  <SCORE.SYSTEM.SOLV>
0

>  <SCORE.SYSTEM.norm>
0

>  <SCORE.heavy>
27

>  <SCORE.norm>
-0.0132608

>  <RMSD>
14.464

$$$$
ligand
 OpenBabel02271912153D
libRbt.so/2013.1/901 2013/11/27
 27 29  0  0  0  0  0  0  0  0999 V2000
    4.0179  -11.3058   16.5697 N   0  0  0  0  0  0  0  0  0  0  0  0
    5.3901  -10.7436   16.3753 C   0  0  2  0  0  0  0  0  0  0  0  0
    6.4358  -11.8703   16.2216 C   0  0  0  0  0  0  0  0  0  0  0  0
    7.3808  -11.7604   15.4345 O   0  0  0  0  0  0  0  0  0  0  0  0
    5.7229   -9.8068   17.5318 C   0  0  0  0  0  0  0  0  0  0  0  0
    7.0038   -9.0101   17.3489 C   0  0  0  0  0  0  0  0  0  0  0  0
    7.3448   -7.8727   18.7225 S   0  0  2  0  0  0  0  0  0  0  0  0
    7.5248   -9.0465   20.0956 C   0  0  0  0  0  0  0  0  0  0  0  0
    5.7856   -7.0644   19.1169 C   0  0  0  0  0  0  0  0  0  0  0  0
    5.9809   -6.1810   20.3344 C   0  0  1  0  0  0  0  0  0  0  0  0
    7.1083   -5.3277   20.2124 O   0  0  0  0  0  0  0  0  0  0  0  0
    4.7807   -5.2977   20.5738 C   0  0  1  0  0  0  0  0  0  0  0  0
    3.8011   -5.9688   21.3133 O   0  0  0  0  0  0  0  0  0  0  0  0
    5.3975   -4.1733   21.3486 C   0  0  1  0  0  0  0  0  0  0  0  0
    5.3985   -4.5034   22.7246 O   0  0  0  0  0  0  0  0  0  0  0  0
    6.8235   -4.0887   20.8198 C   0  0  2  0  0  0  0  0  0  0  0  0
    6.3727  -12.9301   16.8713 O   0  0  0  0  0  0  0  0  0  0  0  0
    7.7568    1.0262   19.9113 N   0  0  0  0  0  0  0  0  0  0  0  0
    7.6980    0.3762   21.1355 C   0  0  0  0  0  0  0  0  0  0  0  0
    7.4258   -0.9847   21.2082 N   0  0  0  0  0  0  0  0  0  0  0  0
    7.2360   -1.6799   20.0719 C   0  0  0  0  0  0  0  0  0  0  0  0
    7.3078   -1.0390   18.8319 C   0  0  0  0  0  0  0  0  0  0  0  0
    7.5567    0.3183   18.7456 C   0  0  0  0  0  0  0  0  0  0  0  0
    7.6130    0.9233   17.5686 N   0  0  0  0  0  0  0  0  0  0  0  0
    7.0972   -1.9533   17.8786 N   0  0  0  0  0  0  0  0  0  0  0  0
    6.8981   -3.1487   18.4764 C   0  0  0  0  0  0  0  0  0  0  0  0
    6.9854   -2.9995   19.8382 N   0  0  0  0  0  0  0  0  0  0  0  0
  2  1  1  1  0  0  0
  2  3  1  0  0  0  0
  2  5  1  0  0  0  0
  3  4  1  0  0  0  0
  3 17  1  0  0  0  0
  5  6  1  0  0  0  0
  7  6  1  6  0  0  0
  7  8  1  0  0  0  0
  7  9  1  0  0  0  0
 10  9  1  6  0  0  0
 10 11  1  0  0  0  0
 10 12  1  0  0  0  0
 11 16  1  0  0  0  0
 12 13  1  1  0  0  0
 12 14  1  0  0  0  0
 14 15  1  1  0  0  0
 14 16  1  0  0  0  0
 16 27  1  6  0  0  0
 18 19  2  0  0  0  0
 18 23  1  0  0  0  0
 19 20  1  0  0  0  0
 20 21  2  0  0  0  0
 21 22  1  0  0  0  0
 21 27  1  0  0  0  0
 22 23  2  0  0  0  0
 22 25  1  0  0  0  0
 23 24  1  0  0  0  0
 25 26  2  0  0  0  0
 26 27  1  0  0  0  0
M  END
>  <CHROM.1>
142.36018074,-171.28371471,178.40975351,62.26140968,175.47205230,49.94124431
-156.61372644,6.53094741,-5.67422786,19.07106610,1.78951468,-1.12403420,-2.67102363

>  <Name>
ligand

>  <RI>
0

>  <Rbt.Current_Directory>
/home/itssahil/PROJECTS/Mol_Feturizer/Test_systems_manuscript/rnas/2ydh

>  <Rbt.Executable>
rbdock ($Id: //depot/dev/client3/rdock/2013.1/src/exe/rbdock.cxx#4 $)

>  <Rbt.Library>
libRbt.so (2013.1, Build901 2013/11/27)

>  <Rbt.Parameter_File>
/export/apps/rDock/src/rDock_2013.1_src/data/scripts/dock_solv.prm

>  <Rbt.Receptor>
prm/blind_docking_100.prm

>  <SCORE>
-7.41576

>  <SCORE.INTER>
-6.61312

>  <SCORE.INTER.CONST>
1

>  <SCORE.INTER.POLAR>
0

>  <SCORE.INTER.ROT>
7

>  <SCORE.INTER.SOLV>
10.8817

>  <SCORE.INTER.VDW>
-16.3027

>  <SCORE.INTER.norm>
-0.24493

>  <SCORE.INTRA>
-0.802644

>  <SCORE.INTRA.DIHEDRAL>
-5.81255

>  <SCORE.INTRA.DIHEDRAL.0>
9.75037

>  <SCORE.INTRA.POLAR>
0

>  <SCORE.INTRA.POLAR.0>
0

>  <SCORE.INTRA.REPUL>
0

>  <SCORE.INTRA.REPUL.0>
0

>  <SCORE.INTRA.SOLV>
-1.53743

>  <SCORE.INTRA.SOLV.lig_0>
-48.4279

>  <SCORE.INTRA.VDW>
2.87235

>  <SCORE.INTRA.VDW.0>
-4.69037

>  <SCORE.INTRA.norm>
-0.0297275

>  <SCORE.RESTR>
0

>  <SCORE.RESTR.CAVITY>
0

>  <SCORE.RESTR.norm>
0

>  <SCORE.SYSTEM>
0

>  <SCORE.SYSTEM.CONST>
0

>  <SCORE.SYSTEM.DIHEDRAL>
0

>  <SCORE.SYSTEM.SOLV>
0

>  <SCORE.SYSTEM.norm>
0

>  <SCORE.heavy>
27

>  <SCORE.norm>
-0.274658

>  <RMSD>
14.502

$$$$
ligand
 OpenBabel02271912153D
libRbt.so/2013.1/901 2013/11/27
 27 29  0  0  0  0  0  0  0  0999 V2000
   10.5732   -9.0688   17.4485 N   0  0  0  0  0  0  0  0  0  0  0  0
   11.6026   -8.2629   18.1747 C   0  0  2  0  0  0  0  0  0  0  0  0
   12.4114   -7.3827   17.1961 C   0  0  0  0  0  0  0  0  0  0  0  0
   13.3912   -6.7367   17.5799 O   0  0  0  0  0  0  0  0  0  0  0  0
   12.4997   -9.1951   18.9822 C   0  0  0  0  0  0  0  0  0  0  0  0
   13.4017   -8.4916   19.9824 C   0  0  0  0  0  0  0  0  0  0  0  0
   12.4927   -7.4590   21.1674 S   0  0  2  0  0  0  0  0  0  0  0  0
   13.7652   -6.2372   21.5957 C   0  0  0  0  0  0  0  0  0  0  0  0
   12.3609   -8.4170   22.6855 C   0  0  0  0  0  0  0  0  0  0  0  0
   11.3121   -7.7842   23.5800 C   0  0  1  0  0  0  0  0  0  0  0  0
   10.9293   -6.4908   23.1388 O   0  0  0  0  0  0  0  0  0  0  0  0
   10.0578   -8.6216   23.6380 C   0  0  1  0  0  0  0  0  0  0  0  0
   10.1669   -9.6255   24.6061 O   0  0  0  0  0  0  0  0  0  0  0  0
    9.0369   -7.5903   24.0108 C   0  0  1  0  0  0  0  0  0  0  0  0
    8.9922   -7.4694   25.4199 O   0  0  0  0  0  0  0  0  0  0  0  0
    9.5542   -6.3030   23.3817 C   0  0  2  0  0  0  0  0  0  0  0  0
   12.1140   -7.2802   15.9917 O   0  0  0  0  0  0  0  0  0  0  0  0
    6.6431   -7.9998   19.3192 N   0  0  0  0  0  0  0  0  0  0  0  0
    7.1102   -8.7366   20.3978 C   0  0  0  0  0  0  0  0  0  0  0  0
    7.8835   -8.1411   21.3871 N   0  0  0  0  0  0  0  0  0  0  0  0
    8.1641   -6.8280   21.3024 C   0  0  0  0  0  0  0  0  0  0  0  0
    7.6863   -6.0719   20.2283 C   0  0  0  0  0  0  0  0  0  0  0  0
    6.9338   -6.6557   19.2259 C   0  0  0  0  0  0  0  0  0  0  0  0
    6.4925   -5.9373   18.2043 N   0  0  0  0  0  0  0  0  0  0  0  0
    8.0938   -4.8089   20.3951 N   0  0  0  0  0  0  0  0  0  0  0  0
    8.8096   -4.7436   21.5394 C   0  0  0  0  0  0  0  0  0  0  0  0
    8.8600   -5.9869   22.1191 N   0  0  0  0  0  0  0  0  0  0  0  0
  2  1  1  6  0  0  0
  2  3  1  0  0  0  0
  2  5  1  0  0  0  0
  3  4  1  0  0  0  0
  3 17  1  0  0  0  0
  5  6  1  0  0  0  0
  7  6  1  6  0  0  0
  7  8  1  0  0  0  0
  7  9  1  0  0  0  0
 10  9  1  6  0  0  0
 10 11  1  0  0  0  0
 10 12  1  0  0  0  0
 11 16  1  0  0  0  0
 12 13  1  1  0  0  0
 12 14  1  0  0  0  0
 14 15  1  1  0  0  0
 14 16  1  0  0  0  0
 16 27  1  6  0  0  0
 18 19  2  0  0  0  0
 18 23  1  0  0  0  0
 19 20  1  0  0  0  0
 20 21  2  0  0  0  0
 21 22  1  0  0  0  0
 21 27  1  0  0  0  0
 22 23  2  0  0  0  0
 22 25  1  0  0  0  0
 23 24  1  0  0  0  0
 25 26  2  0  0  0  0
 26 27  1  0  0  0  0
M  END
>  <CHROM.1>
-173.16019620,-168.13129176,56.55152154,-153.77510383,-165.04396311,-12.48098604
97.90846070,10.24368621,-7.36645334,20.87529392,1.05660311,0.19803801,-1.50810674

>  <Name>
ligand

>  <RI>
0

>  <Rbt.Current_Directory>
/home/itssahil/PROJECTS/Mol_Feturizer/Test_systems_manuscript/rnas/2ydh

>  <Rbt.Executable>
rbdock ($Id: //depot/dev/client3/rdock/2013.1/src/exe/rbdock.cxx#4 $)

>  <Rbt.Library>
libRbt.so (2013.1, Build901 2013/11/27)

>  <Rbt.Parameter_File>
/export/apps/rDock/src/rDock_2013.1_src/data/scripts/dock_solv.prm

>  <Rbt.Receptor>
prm/blind_docking_100.prm

>  <SCORE>
-11.8771

>  <SCORE.INTER>
-14.8843

>  <SCORE.INTER.CONST>
1

>  <SCORE.INTER.POLAR>
0

>  <SCORE.INTER.ROT>
7

>  <SCORE.INTER.SOLV>
8.82133

>  <SCORE.INTER.VDW>
-21.13

>  <SCORE.INTER.norm>
-0.551269

>  <SCORE.INTRA>
3.00713

>  <SCORE.INTRA.DIHEDRAL>
2.51407

>  <SCORE.INTRA.DIHEDRAL.0>
9.75037

>  <SCORE.INTRA.POLAR>
0

>  <SCORE.INTRA.POLAR.0>
0

>  <SCORE.INTRA.REPUL>
0

>  <SCORE.INTRA.REPUL.0>
0

>  <SCORE.INTRA.SOLV>
-1.17059

>  <SCORE.INTRA.SOLV.lig_0>
-48.4279

>  <SCORE.INTRA.VDW>
2.33539

>  <SCORE.INTRA.VDW.0>
-4.69037

>  <SCORE.INTRA.norm>
0.111375

>  <SCORE.RESTR>
0

>  <SCORE.RESTR.CAVITY>
0

>  <SCORE.RESTR.norm>
0

>  <SCORE.SYSTEM>
0

>  <SCORE.SYSTEM.CONST>
0

>  <SCORE.SYSTEM.DIHEDRAL>
0

>  <SCORE.SYSTEM.SOLV>
0

>  <SCORE.SYSTEM.norm>
0

>  <SCORE.heavy>
27

>  <SCORE.norm>
-0.439894

>  <RMSD>
14.516

$$$$
ligand
 OpenBabel02271912153D
libRbt.so/2013.1/901 2013/11/27
 27 29  0  0  0  0  0  0  0  0999 V2000
    9.9713  -10.2423   15.8907 N   0  0  0  0  0  0  0  0  0  0  0  0
   10.3198  -10.9489   17.1619 C   0  0  2  0  0  0  0  0  0  0  0  0
    9.1294  -11.7895   17.6749 C   0  0  0  0  0  0  0  0  0  0  0  0
    7.9971  -11.3050   17.7621 O   0  0  0  0  0  0  0  0  0  0  0  0
   10.7901   -9.9310   18.1955 C   0  0  0  0  0  0  0  0  0  0  0  0
   12.2179   -9.4488   18.0007 C   0  0  0  0  0  0  0  0  0  0  0  0
   12.7036   -8.1496   19.1726 S   0  0  2  0  0  0  0  0  0  0  0  0
   14.5123   -8.2845   19.0949 C   0  0  0  0  0  0  0  0  0  0  0  0
   12.3465   -8.7851   20.8183 C   0  0  0  0  0  0  0  0  0  0  0  0
   12.2797   -7.6245   21.7926 C   0  0  1  0  0  0  0  0  0  0  0  0
   11.6088   -6.4972   21.2510 O   0  0  0  0  0  0  0  0  0  0  0  0
   11.5519   -8.0072   23.0582 C   0  0  1  0  0  0  0  0  0  0  0  0
   12.4162   -8.6225   23.9697 O   0  0  0  0  0  0  0  0  0  0  0  0
   11.0862   -6.6678   23.5419 C   0  0  1  0  0  0  0  0  0  0  0  0
   12.1022   -6.0808   24.3327 O   0  0  0  0  0  0  0  0  0  0  0  0
   10.8696   -5.8612   22.2679 C   0  0  2  0  0  0  0  0  0  0  0  0
    9.2553  -12.9773   18.0250 O   0  0  0  0  0  0  0  0  0  0  0  0
    6.5826   -8.3876   20.5079 N   0  0  0  0  0  0  0  0  0  0  0  0
    7.8439   -8.9147   20.7445 C   0  0  0  0  0  0  0  0  0  0  0  0
    8.8806   -8.1079   21.1981 N   0  0  0  0  0  0  0  0  0  0  0  0
    8.6474   -6.8027   21.4269 C   0  0  0  0  0  0  0  0  0  0  0  0
    7.3769   -6.2633   21.2068 C   0  0  0  0  0  0  0  0  0  0  0  0
    6.3418   -7.0496   20.7354 C   0  0  0  0  0  0  0  0  0  0  0  0
    5.1423   -6.5315   20.5179 N   0  0  0  0  0  0  0  0  0  0  0  0
    7.4163   -4.9641   21.5225 N   0  0  0  0  0  0  0  0  0  0  0  0
    8.6680   -4.6680   21.9368 C   0  0  0  0  0  0  0  0  0  0  0  0
    9.4454   -5.7984   21.8888 N   0  0  0  0  0  0  0  0  0  0  0  0
  2  1  1  6  0  0  0
  2  3  1  0  0  0  0
  2  5  1  0  0  0  0
  3  4  1  0  0  0  0
  3 17  1  0  0  0  0
  5  6  1  0  0  0  0
  7  6  1  6  0  0  0
  7  8  1  0  0  0  0
  7  9  1  0  0  0  0
 10  9  1  6  0  0  0
 10 11  1  0  0  0  0
 10 12  1  0  0  0  0
 11 16  1  0  0  0  0
 12 13  1  1  0  0  0
 12 14  1  0  0  0  0
 14 15  1  1  0  0  0
 14 16  1  0  0  0  0
 16 27  1  6  0  0  0
 18 19  2  0  0  0  0
 18 23  1  0  0  0  0
 19 20  1  0  0  0  0
 20 21  2  0  0  0  0
 21 22  1  0  0  0  0
 21 27  1  0  0  0  0
 22 23  2  0  0  0  0
 22 25  1  0  0  0  0
 23 24  1  0  0  0  0
 25 26  2  0  0  0  0
 26 27  1  0  0  0  0
M  END
>  <CHROM.1>
-48.92478142,-78.03624739,175.74898266,159.37332015,-161.10981103,40.84107575
49.25101656,10.11071549,-8.14823509,20.43905781,1.56909378,0.12090163,-2.32265389

>  <Name>
ligand

>  <RI>
0

>  <Rbt.Current_Directory>
/home/itssahil/PROJECTS/Mol_Feturizer/Test_systems_manuscript/rnas/2ydh

>  <Rbt.Executable>
rbdock ($Id: //depot/dev/client3/rdock/2013.1/src/exe/rbdock.cxx#4 $)

>  <Rbt.Library>
libRbt.so (2013.1, Build901 2013/11/27)

>  <Rbt.Parameter_File>
/export/apps/rDock/src/rDock_2013.1_src/data/scripts/dock_solv.prm

>  <Rbt.Receptor>
prm/blind_docking_80.prm

>  <SCORE>
-13.9389

>  <SCORE.INTER>
-13.6548

>  <SCORE.INTER.CONST>
1

>  <SCORE.INTER.POLAR>
0

>  <SCORE.INTER.ROT>
7

>  <SCORE.INTER.SOLV>
12.3214

>  <SCORE.INTER.VDW>
-21.477

>  <SCORE.INTER.norm>
-0.505732

>  <SCORE.INTRA>
-0.286357

>  <SCORE.INTRA.DIHEDRAL>
-1.86972

>  <SCORE.INTRA.DIHEDRAL.0>
9.75037

>  <SCORE.INTRA.POLAR>
0

>  <SCORE.INTRA.POLAR.0>
0

>  <SCORE.INTRA.REPUL>
0

>  <SCORE.INTRA.REPUL.0>
0

>  <SCORE.INTRA.SOLV>
-0.929053

>  <SCORE.INTRA.SOLV.lig_0>
-48.4279

>  <SCORE.INTRA.VDW>
1.11303

>  <SCORE.INTRA.VDW.0>
-4.69037

>  <SCORE.INTRA.norm>
-0.0106058

>  <SCORE.RESTR>
0.00221509

>  <SCORE.RESTR.CAVITY>
0.00221509

>  <SCORE.RESTR.norm>
8.20405e-05

>  <SCORE.SYSTEM>
0

>  <SCORE.SYSTEM.CONST>
0

>  <SCORE.SYSTEM.DIHEDRAL>
0

>  <SCORE.SYSTEM.SOLV>
0

>  <SCORE.SYSTEM.norm>
0

>  <SCORE.heavy>
27

>  <SCORE.norm>
-0.516255

>  <RMSD>
14.516

$$$$
ligand
 OpenBabel02271912153D
libRbt.so/2013.1/901 2013/11/27
 27 29  0  0  0  0  0  0  0  0999 V2000
    5.4730   -8.4405   16.1683 N   0  0  0  0  0  0  0  0  0  0  0  0
    6.4357   -9.3925   16.8035 C   0  0  2  0  0  0  0  0  0  0  0  0
    6.7958  -10.5448   15.8394 C   0  0  0  0  0  0  0  0  0  0  0  0
    7.8744  -10.5602   15.2386 O   0  0  0  0  0  0  0  0  0  0  0  0
    5.8513   -9.9047   18.1157 C   0  0  0  0  0  0  0  0  0  0  0  0
    5.6274   -8.8310   19.1674 C   0  0  0  0  0  0  0  0  0  0  0  0
    7.1578   -8.0028   19.6857 S   0  0  2  0  0  0  0  0  0  0  0  0
    8.0584   -9.3927   20.4291 C   0  0  0  0  0  0  0  0  0  0  0  0
    6.7392   -7.0085   21.1265 C   0  0  0  0  0  0  0  0  0  0  0  0
    8.0125   -6.4348   21.7182 C   0  0  1  0  0  0  0  0  0  0  0  0
    8.6842   -5.5628   20.8223 O   0  0  0  0  0  0  0  0  0  0  0  0
    7.7317   -5.6480   22.9751 C   0  0  1  0  0  0  0  0  0  0  0  0
    7.6812   -6.4867   24.0935 O   0  0  0  0  0  0  0  0  0  0  0  0
    8.9155   -4.7304   23.0141 C   0  0  1  0  0  0  0  0  0  0  0  0
    9.9811   -5.3756   23.6852 O   0  0  0  0  0  0  0  0  0  0  0  0
    9.2667   -4.5056   21.5490 C   0  0  2  0  0  0  0  0  0  0  0  0
    6.0235  -11.4964   15.6217 O   0  0  0  0  0  0  0  0  0  0  0  0
   10.0893    0.6570   20.8213 N   0  0  0  0  0  0  0  0  0  0  0  0
   10.9505   -0.2702   21.3901 C   0  0  0  0  0  0  0  0  0  0  0  0
   10.5772   -1.6021   21.5240 N   0  0  0  0  0  0  0  0  0  0  0  0
    9.3707   -1.9959   21.0774 C   0  0  0  0  0  0  0  0  0  0  0  0
    8.5004   -1.0741   20.4888 C   0  0  0  0  0  0  0  0  0  0  0  0
    8.8501    0.2582   20.3683 C   0  0  0  0  0  0  0  0  0  0  0  0
    8.0175    1.1302   19.8197 N   0  0  0  0  0  0  0  0  0  0  0  0
    7.3896   -1.7245   20.1252 N   0  0  0  0  0  0  0  0  0  0  0  0
    7.5323   -3.0253   20.4624 C   0  0  0  0  0  0  0  0  0  0  0  0
    8.7582   -3.2137   21.0506 N   0  0  0  0  0  0  0  0  0  0  0  0
  2  1  1  6  0  0  0
  2  3  1  0  0  0  0
  2  5  1  0  0  0  0
  3  4  1  0  0  0  0
  3 17  1  0  0  0  0
  5  6  1  0  0  0  0
  7  6  1  1  0  0  0
  7  8  1  0  0  0  0
  7  9  1  0  0  0  0
 10  9  1  6  0  0  0
 10 11  1  0  0  0  0
 10 12  1  0  0  0  0
 11 16  1  0  0  0  0
 12 13  1  1  0  0  0
 12 14  1  0  0  0  0
 14 15  1  1  0  0  0
 14 16  1  0  0  0  0
 16 27  1  6  0  0  0
 18 19  2  0  0  0  0
 18 23  1  0  0  0  0
 19 20  1  0  0  0  0
 20 21  2  0  0  0  0
 21 22  1  0  0  0  0
 21 27  1  0  0  0  0
 22 23  2  0  0  0  0
 22 25  1  0  0  0  0
 23 24  1  0  0  0  0
 25 26  2  0  0  0  0
 26 27  1  0  0  0  0
M  END
>  <CHROM.1>
102.85282119,-63.07188435,-61.82012182,-63.39110387,172.59269754,62.66403872
-152.65704809,7.95317921,-5.57215530,20.08448065,2.77103699,1.27571685,2.39498893

>  <Name>
ligand

>  <RI>
0

>  <Rbt.Current_Directory>
/home/itssahil/PROJECTS/Mol_Feturizer/Test_systems_manuscript/rnas/2ydh

>  <Rbt.Executable>
rbdock ($Id: //depot/dev/client3/rdock/2013.1/src/exe/rbdock.cxx#4 $)

>  <Rbt.Library>
libRbt.so (2013.1, Build901 2013/11/27)

>  <Rbt.Parameter_File>
/export/apps/rDock/src/rDock_2013.1_src/data/scripts/dock_solv.prm

>  <Rbt.Receptor>
prm/blind_docking_40.prm

>  <SCORE>
-14.2339

>  <SCORE.INTER>
-13.3215

>  <SCORE.INTER.CONST>
1

>  <SCORE.INTER.POLAR>
0

>  <SCORE.INTER.ROT>
7

>  <SCORE.INTER.SOLV>
8.49661

>  <SCORE.INTER.VDW>
-19.9799

>  <SCORE.INTER.norm>
-0.493389

>  <SCORE.INTRA>
-0.912348

>  <SCORE.INTRA.DIHEDRAL>
-6.64149

>  <SCORE.INTRA.DIHEDRAL.0>
9.75037

>  <SCORE.INTRA.POLAR>
0

>  <SCORE.INTRA.POLAR.0>
0

>  <SCORE.INTRA.REPUL>
0

>  <SCORE.INTRA.REPUL.0>
0

>  <SCORE.INTRA.SOLV>
-0.32893

>  <SCORE.INTRA.SOLV.lig_0>
-48.4279

>  <SCORE.INTRA.VDW>
2.57286

>  <SCORE.INTRA.VDW.0>
-4.69037

>  <SCORE.INTRA.norm>
-0.0337907

>  <SCORE.RESTR>
0

>  <SCORE.RESTR.CAVITY>
0

>  <SCORE.RESTR.norm>
0

>  <SCORE.SYSTEM>
0

>  <SCORE.SYSTEM.CONST>
0

>  <SCORE.SYSTEM.DIHEDRAL>
0

>  <SCORE.SYSTEM.SOLV>
0

>  <SCORE.SYSTEM.norm>
0

>  <SCORE.heavy>
27

>  <SCORE.norm>
-0.52718

>  <RMSD>
14.528

$$$$
ligand
 OpenBabel02271912153D
libRbt.so/2013.1/901 2013/11/27
 27 29  0  0  0  0  0  0  0  0999 V2000
   11.1974   -7.4091   23.5252 N   0  0  0  0  0  0  0  0  0  0  0  0
   10.9491   -8.7993   23.0331 C   0  0  2  0  0  0  0  0  0  0  0  0
   12.1959   -9.3674   22.3193 C   0  0  0  0  0  0  0  0  0  0  0  0
   12.6844  -10.4508   22.6543 O   0  0  0  0  0  0  0  0  0  0  0  0
    9.7195   -8.8060   22.1309 C   0  0  0  0  0  0  0  0  0  0  0  0
    9.7912   -7.8389   20.9610 C   0  0  0  0  0  0  0  0  0  0  0  0
    8.3693   -7.9626   19.8386 S   0  0  2  0  0  0  0  0  0  0  0  0
    7.0058   -7.5971   20.9800 C   0  0  0  0  0  0  0  0  0  0  0  0
    8.1281   -9.7156   19.5091 C   0  0  0  0  0  0  0  0  0  0  0  0
    9.0565  -10.1401   18.3873 C   0  0  1  0  0  0  0  0  0  0  0  0
    9.5318  -11.4678   18.5472 O   0  0  0  0  0  0  0  0  0  0  0  0
    8.3676  -10.0749   17.0460 C   0  0  1  0  0  0  0  0  0  0  0  0
    8.4331   -8.7851   16.5085 O   0  0  0  0  0  0  0  0  0  0  0  0
    9.1789  -11.0550   16.2548 C   0  0  1  0  0  0  0  0  0  0  0  0
   10.2909  -10.3875   15.6889 O   0  0  0  0  0  0  0  0  0  0  0  0
    9.6396  -12.0802   17.2830 C   0  0  2  0  0  0  0  0  0  0  0  0
   12.7623   -8.7650   21.3889 O   0  0  0  0  0  0  0  0  0  0  0  0
    7.5252  -16.1382   19.9136 N   0  0  0  0  0  0  0  0  0  0  0  0
    8.3075  -15.1106   20.4201 C   0  0  0  0  0  0  0  0  0  0  0  0
    8.8043  -14.1152   19.5872 N   0  0  0  0  0  0  0  0  0  0  0  0
    8.5038  -14.1431   18.2760 C   0  0  0  0  0  0  0  0  0  0  0  0
    7.7039  -15.1649   17.7566 C   0  0  0  0  0  0  0  0  0  0  0  0
    7.2205  -16.1734   18.5699 C   0  0  0  0  0  0  0  0  0  0  0  0
    6.4719  -17.1456   18.0710 N   0  0  0  0  0  0  0  0  0  0  0  0
    7.5511  -14.9478   16.4457 N   0  0  0  0  0  0  0  0  0  0  0  0
    8.2254  -13.8221   16.1227 C   0  0  0  0  0  0  0  0  0  0  0  0
    8.8194  -13.3058   17.2474 N   0  0  0  0  0  0  0  0  0  0  0  0
  2  1  1  6  0  0  0
  2  3  1  0  0  0  0
  2  5  1  0  0  0  0
  3  4  1  0  0  0  0
  3 17  1  0  0  0  0
  5  6  1  0  0  0  0
  7  6  1  1  0  0  0
  7  8  1  0  0  0  0
  7  9  1  0  0  0  0
 10  9  1  1  0  0  0
 10 11  1  0  0  0  0
 10 12  1  0  0  0  0
 11 16  1  0  0  0  0
 12 13  1  6  0  0  0
 12 14  1  0  0  0  0
 14 15  1  1  0  0  0
 14 16  1  0  0  0  0
 16 27  1  1  0  0  0
 18 19  2  0  0  0  0
 18 23  1  0  0  0  0
 19 20  1  0  0  0  0
 20 21  2  0  0  0  0
 21 22  1  0  0  0  0
 21 27  1  0  0  0  0
 22 23  2  0  0  0  0
 22 25  1  0  0  0  0
 23 24  1  0  0  0  0
 25 26  2  0  0  0  0
 26 27  1  0  0  0  0
M  END
>  <CHROM.1>
126.46440041,55.66493798,175.62272874,58.99249300,-83.93447936,145.62146153
-29.91400705,9.13714810,-11.23431042,19.24964595,-0.61797587,1.15821810,2.75226214

>  <Name>
ligand

>  <RI>
0

>  <Rbt.Current_Directory>
/home/itssahil/PROJECTS/Mol_Feturizer/Test_systems_manuscript/rnas/2ydh

>  <Rbt.Executable>
rbdock ($Id: //depot/dev/client3/rdock/2013.1/src/exe/rbdock.cxx#4 $)

>  <Rbt.Library>
libRbt.so (2013.1, Build901 2013/11/27)

>  <Rbt.Parameter_File>
/export/apps/rDock/src/rDock_2013.1_src/data/scripts/dock_solv.prm

>  <Rbt.Receptor>
prm/blind_docking_100.prm

>  <SCORE>
-12.6388

>  <SCORE.INTER>
-13.8207

>  <SCORE.INTER.CONST>
1

>  <SCORE.INTER.POLAR>
0

>  <SCORE.INTER.ROT>
7

>  <SCORE.INTER.SOLV>
17.007

>  <SCORE.INTER.VDW>
-23.1495

>  <SCORE.INTER.norm>
-0.511877

>  <SCORE.INTRA>
1.1819

>  <SCORE.INTRA.DIHEDRAL>
-2.4645

>  <SCORE.INTRA.DIHEDRAL.0>
9.75037

>  <SCORE.INTRA.POLAR>
0

>  <SCORE.INTRA.POLAR.0>
0

>  <SCORE.INTRA.REPUL>
0

>  <SCORE.INTRA.REPUL.0>
0

>  <SCORE.INTRA.SOLV>
-0.715588

>  <SCORE.INTRA.SOLV.lig_0>
-48.4279

>  <SCORE.INTRA.VDW>
2.77194

>  <SCORE.INTRA.VDW.0>
-4.69037

>  <SCORE.INTRA.norm>
0.043774

>  <SCORE.RESTR>
0

>  <SCORE.RESTR.CAVITY>
0

>  <SCORE.RESTR.norm>
0

>  <SCORE.SYSTEM>
0

>  <SCORE.SYSTEM.CONST>
0

>  <SCORE.SYSTEM.DIHEDRAL>
0

>  <SCORE.SYSTEM.SOLV>
0

>  <SCORE.SYSTEM.norm>
0

>  <SCORE.heavy>
27

>  <SCORE.norm>
-0.468103

>  <RMSD>
14.545

$$$$
ligand
 OpenBabel02271912153D
libRbt.so/2013.1/901 2013/11/27
 27 29  0  0  0  0  0  0  0  0999 V2000
    5.8233   -3.4476   21.5098 N   0  0  0  0  0  0  0  0  0  0  0  0
    6.5958   -3.0391   22.7235 C   0  0  2  0  0  0  0  0  0  0  0  0
    7.4067   -1.7511   22.4586 C   0  0  0  0  0  0  0  0  0  0  0  0
    7.6020   -1.3454   21.3089 O   0  0  0  0  0  0  0  0  0  0  0  0
    7.4850   -4.1942   23.1713 C   0  0  0  0  0  0  0  0  0  0  0  0
    6.7295   -5.4383   23.6081 C   0  0  0  0  0  0  0  0  0  0  0  0
    7.8087   -6.8697   23.8970 S   0  0  2  0  0  0  0  0  0  0  0  0
    8.8276   -6.2527   25.2670 C   0  0  0  0  0  0  0  0  0  0  0  0
    8.9859   -6.9063   22.5358 C   0  0  0  0  0  0  0  0  0  0  0  0
   10.1220   -7.8467   22.8900 C   0  0  1  0  0  0  0  0  0  0  0  0
   10.1691   -8.9858   22.0448 O   0  0  0  0  0  0  0  0  0  0  0  0
   11.4615   -7.1595   22.7822 C   0  0  1  0  0  0  0  0  0  0  0  0
   11.7691   -6.4684   23.9588 O   0  0  0  0  0  0  0  0  0  0  0  0
   12.3715   -8.3296   22.5637 C   0  0  1  0  0  0  0  0  0  0  0  0
   12.7671   -8.8506   23.8184 O   0  0  0  0  0  0  0  0  0  0  0  0
   11.5130   -9.3401   21.8138 C   0  0  2  0  0  0  0  0  0  0  0  0
    7.8996   -1.0738   23.3793 O   0  0  0  0  0  0  0  0  0  0  0  0
   15.0223   -8.6910   17.9251 N   0  0  0  0  0  0  0  0  0  0  0  0
   15.2389   -8.5934   19.2919 C   0  0  0  0  0  0  0  0  0  0  0  0
   14.1984   -8.7799   20.1941 N   0  0  0  0  0  0  0  0  0  0  0  0
   12.9707   -9.0774   19.7310 C   0  0  0  0  0  0  0  0  0  0  0  0
   12.7435   -9.1934   18.3568 C   0  0  0  0  0  0  0  0  0  0  0  0
   13.7645   -8.9895   17.4469 C   0  0  0  0  0  0  0  0  0  0  0  0
   13.5418   -9.0897   16.1451 N   0  0  0  0  0  0  0  0  0  0  0  0
   11.4560   -9.5058   18.1731 N   0  0  0  0  0  0  0  0  0  0  0  0
   10.8655   -9.5932   19.3855 C   0  0  0  0  0  0  0  0  0  0  0  0
   11.7916   -9.3351   20.3653 N   0  0  0  0  0  0  0  0  0  0  0  0
  2  1  1  6  0  0  0
  2  3  1  0  0  0  0
  2  5  1  0  0  0  0
  3  4  1  0  0  0  0
  3 17  1  0  0  0  0
  5  6  1  0  0  0  0
  7  6  1  6  0  0  0
  7  8  1  0  0  0  0
  7  9  1  0  0  0  0
 10  9  1  6  0  0  0
 10 11  1  0  0  0  0
 10 12  1  0  0  0  0
 11 16  1  0  0  0  0
 12 13  1  1  0  0  0
 12 14  1  0  0  0  0
 14 15  1  1  0  0  0
 14 16  1  0  0  0  0
 16 27  1  6  0  0  0
 18 19  2  0  0  0  0
 18 23  1  0  0  0  0
 19 20  1  0  0  0  0
 20 21  2  0  0  0  0
 21 22  1  0  0  0  0
 21 27  1  0  0  0  0
 22 23  2  0  0  0  0
 22 25  1  0  0  0  0
 23 24  1  0  0  0  0
 25 26  2  0  0  0  0
 26 27  1  0  0  0  0
M  END
>  <CHROM.1>
-15.44675849,-63.33914470,171.40865451,62.70603267,165.73371609,114.59287605
150.62512473,10.43212416,-6.89053526,21.57179396,3.07343388,-0.85014861,2.10995517

>  <Name>
ligand

>  <RI>
0

>  <Rbt.Current_Directory>
/home/itssahil/PROJECTS/Mol_Feturizer/Test_systems_manuscript/rnas/2ydh

>  <Rbt.Executable>
rbdock ($Id: //depot/dev/client3/rdock/2013.1/src/exe/rbdock.cxx#4 $)

>  <Rbt.Library>
libRbt.so (2013.1, Build901 2013/11/27)

>  <Rbt.Parameter_File>
/export/apps/rDock/src/rDock_2013.1_src/data/scripts/dock_solv.prm

>  <Rbt.Receptor>
prm/blind_docking_100.prm

>  <SCORE>
-10.9668

>  <SCORE.INTER>
-13.5019

>  <SCORE.INTER.CONST>
1

>  <SCORE.INTER.POLAR>
0

>  <SCORE.INTER.ROT>
7

>  <SCORE.INTER.SOLV>
13.6105

>  <SCORE.INTER.VDW>
-21.8048

>  <SCORE.INTER.norm>
-0.500072

>  <SCORE.INTRA>
2.53511

>  <SCORE.INTRA.DIHEDRAL>
-0.81709

>  <SCORE.INTRA.DIHEDRAL.0>
9.75037

>  <SCORE.INTRA.POLAR>
0

>  <SCORE.INTRA.POLAR.0>
0

>  <SCORE.INTRA.REPUL>
0

>  <SCORE.INTRA.REPUL.0>
0

>  <SCORE.INTRA.SOLV>
-0.682132

>  <SCORE.INTRA.SOLV.lig_0>
-48.4279

>  <SCORE.INTRA.VDW>
3.28472

>  <SCORE.INTRA.VDW.0>
-4.69037

>  <SCORE.INTRA.norm>
0.0938929

>  <SCORE.RESTR>
0

>  <SCORE.RESTR.CAVITY>
0

>  <SCORE.RESTR.norm>
0

>  <SCORE.SYSTEM>
0

>  <SCORE.SYSTEM.CONST>
0

>  <SCORE.SYSTEM.DIHEDRAL>
0

>  <SCORE.SYSTEM.SOLV>
0

>  <SCORE.SYSTEM.norm>
0

>  <SCORE.heavy>
27

>  <SCORE.norm>
-0.406179

>  <RMSD>
14.554

$$$$
ligand
 OpenBabel02271912153D
libRbt.so/2013.1/901 2013/11/27
 27 29  0  0  0  0  0  0  0  0999 V2000
    5.8761   -6.5046   19.3599 N   0  0  0  0  0  0  0  0  0  0  0  0
    7.1166   -7.2161   19.7976 C   0  0  2  0  0  0  0  0  0  0  0  0
    6.9256   -8.7483   19.7474 C   0  0  0  0  0  0  0  0  0  0  0  0
    7.7586   -9.5116   20.2456 O   0  0  0  0  0  0  0  0  0  0  0  0
    7.5141   -6.7334   21.1885 C   0  0  0  0  0  0  0  0  0  0  0  0
    7.6894   -5.2287   21.3072 C   0  0  0  0  0  0  0  0  0  0  0  0
    8.1584   -4.6895   22.9764 S   0  0  2  0  0  0  0  0  0  0  0  0
    6.7393   -5.2901   23.9360 C   0  0  0  0  0  0  0  0  0  0  0  0
    7.9204   -2.9059   23.0240 C   0  0  0  0  0  0  0  0  0  0  0  0
    9.0877   -2.2327   22.3276 C   0  0  1  0  0  0  0  0  0  0  0  0
    8.9609   -2.2488   20.9142 O   0  0  0  0  0  0  0  0  0  0  0  0
    9.2202   -0.7881   22.7440 C   0  0  1  0  0  0  0  0  0  0  0  0
    9.9577   -0.6705   23.9268 O   0  0  0  0  0  0  0  0  0  0  0  0
    9.9490   -0.2126   21.5681 C   0  0  1  0  0  0  0  0  0  0  0  0
   11.3417   -0.3710   21.7622 O   0  0  0  0  0  0  0  0  0  0  0  0
    9.4772   -1.0491   20.3858 C   0  0  2  0  0  0  0  0  0  0  0  0
    5.9388   -9.2786   19.2048 O   0  0  0  0  0  0  0  0  0  0  0  0
    7.7556    0.5605   15.6631 N   0  0  0  0  0  0  0  0  0  0  0  0
    8.9176   -0.1402   15.9518 C   0  0  0  0  0  0  0  0  0  0  0  0
    9.2389   -0.4806   17.2604 N   0  0  0  0  0  0  0  0  0  0  0  0
    8.3988   -0.1398   18.2546 C   0  0  0  0  0  0  0  0  0  0  0  0
    7.2176    0.5529   17.9744 C   0  0  0  0  0  0  0  0  0  0  0  0
    6.8958    0.9166   16.6798 C   0  0  0  0  0  0  0  0  0  0  0  0
    5.7806    1.5827   16.4206 N   0  0  0  0  0  0  0  0  0  0  0  0
    6.5684    0.7509   19.1270 N   0  0  0  0  0  0  0  0  0  0  0  0
    7.2996    0.2036   20.1230 C   0  0  0  0  0  0  0  0  0  0  0  0
    8.4375   -0.3584   19.5998 N   0  0  0  0  0  0  0  0  0  0  0  0
  2  1  1  1  0  0  0
  2  3  1  0  0  0  0
  2  5  1  0  0  0  0
  3  4  1  0  0  0  0
  3 17  1  0  0  0  0
  5  6  1  0  0  0  0
  7  6  1  6  0  0  0
  7  8  1  0  0  0  0
  7  9  1  0  0  0  0
 10  9  1  1  0  0  0
 10 11  1  0  0  0  0
 10 12  1  0  0  0  0
 11 16  1  0  0  0  0
 12 13  1  1  0  0  0
 12 14  1  0  0  0  0
 14 15  1  1  0  0  0
 14 16  1  0  0  0  0
 16 27  1  1  0  0  0
 18 19  2  0  0  0  0
 18 23  1  0  0  0  0
 19 20  1  0  0  0  0
 20 21  2  0  0  0  0
 21 22  1  0  0  0  0
 21 27  1  0  0  0  0
 22 23  2  0  0  0  0
 22 25  1  0  0  0  0
 23 24  1  0  0  0  0
 25 26  2  0  0  0  0
 26 27  1  0  0  0  0
M  END
>  <CHROM.1>
-169.63740024,-55.14257604,179.86107509,-60.08290236,-78.27654791,80.05664733
-112.73522282,8.02897314,-2.79751355,20.27230968,1.86797790,1.14847738,2.55102338

>  <Name>
ligand

>  <RI>
0

>  <Rbt.Current_Directory>
/home/itssahil/PROJECTS/Mol_Feturizer/Test_systems_manuscript/rnas/2ydh

>  <Rbt.Executable>
rbdock ($Id: //depot/dev/client3/rdock/2013.1/src/exe/rbdock.cxx#4 $)

>  <Rbt.Library>
libRbt.so (2013.1, Build901 2013/11/27)

>  <Rbt.Parameter_File>
/export/apps/rDock/src/rDock_2013.1_src/data/scripts/dock_solv.prm

>  <Rbt.Receptor>
prm/blind_docking_40.prm

>  <SCORE>
-11.7201

>  <SCORE.INTER>
-11.7113

>  <SCORE.INTER.CONST>
1

>  <SCORE.INTER.POLAR>
0

>  <SCORE.INTER.ROT>
7

>  <SCORE.INTER.SOLV>
8.47645

>  <SCORE.INTER.VDW>
-18.8997

>  <SCORE.INTER.norm>
-0.433754

>  <SCORE.INTRA>
-0.00877233

>  <SCORE.INTRA.DIHEDRAL>
-4.8388

>  <SCORE.INTRA.DIHEDRAL.0>
9.75037

>  <SCORE.INTRA.POLAR>
0

>  <SCORE.INTRA.POLAR.0>
0

>  <SCORE.INTRA.REPUL>
0

>  <SCORE.INTRA.REPUL.0>
0

>  <SCORE.INTRA.SOLV>
-0.815043

>  <SCORE.INTRA.SOLV.lig_0>
-48.4279

>  <SCORE.INTRA.VDW>
2.81815

>  <SCORE.INTRA.VDW.0>
-4.69037

>  <SCORE.INTRA.norm>
-0.000324901

>  <SCORE.RESTR>
0

>  <SCORE.RESTR.CAVITY>
0

>  <SCORE.RESTR.norm>
0

>  <SCORE.SYSTEM>
0

>  <SCORE.SYSTEM.CONST>
0

>  <SCORE.SYSTEM.DIHEDRAL>
0

>  <SCORE.SYSTEM.SOLV>
0

>  <SCORE.SYSTEM.norm>
0

>  <SCORE.heavy>
27

>  <SCORE.norm>
-0.434078

>  <RMSD>
14.581

$$$$
ligand
 OpenBabel02271912153D
libRbt.so/2013.1/901 2013/11/27
 27 29  0  0  0  0  0  0  0  0999 V2000
   10.9887   -7.6844   20.9669 N   0  0  0  0  0  0  0  0  0  0  0  0
   10.8898   -7.0633   22.3238 C   0  0  2  0  0  0  0  0  0  0  0  0
   11.9601   -7.6387   23.2778 C   0  0  0  0  0  0  0  0  0  0  0  0
   12.0725   -8.8562   23.4504 O   0  0  0  0  0  0  0  0  0  0  0  0
    9.4773   -7.2525   22.8665 C   0  0  0  0  0  0  0  0  0  0  0  0
    8.4321   -6.3507   22.2313 C   0  0  0  0  0  0  0  0  0  0  0  0
    8.5728   -4.6150   22.7455 S   0  0  2  0  0  0  0  0  0  0  0  0
    6.8334   -4.2217   23.0848 C   0  0  0  0  0  0  0  0  0  0  0  0
    8.8922   -3.6629   21.2517 C   0  0  0  0  0  0  0  0  0  0  0  0
    9.5353   -2.3435   21.6344 C   0  0  1  0  0  0  0  0  0  0  0  0
    9.8611   -1.5489   20.5046 O   0  0  0  0  0  0  0  0  0  0  0  0
    8.6232   -1.5178   22.5086 C   0  0  1  0  0  0  0  0  0  0  0  0
    8.7496   -1.8814   23.8534 O   0  0  0  0  0  0  0  0  0  0  0  0
    9.1436   -0.1370   22.2487 C   0  0  1  0  0  0  0  0  0  0  0  0
   10.2062    0.1346   23.1428 O   0  0  0  0  0  0  0  0  0  0  0  0
    9.6543   -0.1902   20.8146 C   0  0  2  0  0  0  0  0  0  0  0  0
   12.7456   -6.9115   23.9131 O   0  0  0  0  0  0  0  0  0  0  0  0
    7.8830    0.1400   15.8535 N   0  0  0  0  0  0  0  0  0  0  0  0
    8.9232   -0.6412   16.3356 C   0  0  0  0  0  0  0  0  0  0  0  0
    9.2796   -0.6048   17.6784 N   0  0  0  0  0  0  0  0  0  0  0  0
    8.5911    0.1862   18.5212 C   0  0  0  0  0  0  0  0  0  0  0  0
    7.5313    0.9664   18.0502 C   0  0  0  0  0  0  0  0  0  0  0  0
    7.1795    0.9563   16.7130 C   0  0  0  0  0  0  0  0  0  0  0  0
    6.1814    1.7057   16.2694 N   0  0  0  0  0  0  0  0  0  0  0  0
    7.0173    1.6385   19.0861 N   0  0  0  0  0  0  0  0  0  0  0  0
    7.7158    1.3057   20.1940 C   0  0  0  0  0  0  0  0  0  0  0  0
    8.6942    0.4012   19.8636 N   0  0  0  0  0  0  0  0  0  0  0  0
  2  1  1  6  0  0  0
  2  3  1  0  0  0  0
  2  5  1  0  0  0  0
  3  4  1  0  0  0  0
  3 17  1  0  0  0  0
  5  6  1  0  0  0  0
  7  6  1  6  0  0  0
  7  8  1  0  0  0  0
  7  9  1  0  0  0  0
 10  9  1  6  0  0  0
 10 11  1  0  0  0  0
 10 12  1  0  0  0  0
 11 16  1  0  0  0  0
 12 13  1  1  0  0  0
 12 14  1  0  0  0  0
 14 15  1  1  0  0  0
 14 16  1  0  0  0  0
 16 27  1  6  0  0  0
 18 19  2  0  0  0  0
 18 23  1  0  0  0  0
 19 20  1  0  0  0  0
 20 21  2  0  0  0  0
 21 22  1  0  0  0  0
 21 27  1  0  0  0  0
 22 23  2  0  0  0  0
 22 25  1  0  0  0  0
 23 24  1  0  0  0  0
 25 26  2  0  0  0  0
 26 27  1  0  0  0  0
M  END
>  <CHROM.1>
-53.56133384,-74.78273045,-72.32794327,-134.81177132,-158.46717358,178.03574008
-39.49944842,9.11665418,-2.62627294,20.91800462,-0.29777512,1.25441166,-1.83038076

>  <Name>
ligand

>  <RI>
0

>  <Rbt.Current_Directory>
/home/itssahil/PROJECTS/Mol_Feturizer/Test_systems_manuscript/rnas/2ydh

>  <Rbt.Executable>
rbdock ($Id: //depot/dev/client3/rdock/2013.1/src/exe/rbdock.cxx#4 $)

>  <Rbt.Library>
libRbt.so (2013.1, Build901 2013/11/27)

>  <Rbt.Parameter_File>
/export/apps/rDock/src/rDock_2013.1_src/data/scripts/dock_solv.prm

>  <Rbt.Receptor>
prm/blind_docking_80.prm

>  <SCORE>
-9.47408

>  <SCORE.INTER>
-12.4283

>  <SCORE.INTER.CONST>
1

>  <SCORE.INTER.POLAR>
0

>  <SCORE.INTER.ROT>
7

>  <SCORE.INTER.SOLV>
7.492

>  <SCORE.INTER.VDW>
-19.0496

>  <SCORE.INTER.norm>
-0.460309

>  <SCORE.INTRA>
2.95427

>  <SCORE.INTRA.DIHEDRAL>
1.06598

>  <SCORE.INTRA.DIHEDRAL.0>
9.75037

>  <SCORE.INTRA.POLAR>
0

>  <SCORE.INTRA.POLAR.0>
0

>  <SCORE.INTRA.REPUL>
0

>  <SCORE.INTRA.REPUL.0>
0

>  <SCORE.INTRA.SOLV>
-0.186743

>  <SCORE.INTRA.SOLV.lig_0>
-48.4279

>  <SCORE.INTRA.VDW>
2.51465

>  <SCORE.INTRA.VDW.0>
-4.69037

>  <SCORE.INTRA.norm>
0.109417

>  <SCORE.RESTR>
0

>  <SCORE.RESTR.CAVITY>
0

>  <SCORE.RESTR.norm>
0

>  <SCORE.SYSTEM>
0

>  <SCORE.SYSTEM.CONST>
0

>  <SCORE.SYSTEM.DIHEDRAL>
0

>  <SCORE.SYSTEM.SOLV>
0

>  <SCORE.SYSTEM.norm>
0

>  <SCORE.heavy>
27

>  <SCORE.norm>
-0.350892

>  <RMSD>
14.583

$$$$
ligand
 OpenBabel02271912153D
libRbt.so/2013.1/901 2013/11/27
 27 29  0  0  0  0  0  0  0  0999 V2000
    8.6014   -0.8572   20.5689 N   0  0  0  0  0  0  0  0  0  0  0  0
    9.2729   -1.4278   21.7772 C   0  0  2  0  0  0  0  0  0  0  0  0
   10.4757   -0.5588   22.2072 C   0  0  0  0  0  0  0  0  0  0  0  0
   11.2891   -0.1403   21.3778 O   0  0  0  0  0  0  0  0  0  0  0  0
    9.6794   -2.8708   21.4976 C   0  0  0  0  0  0  0  0  0  0  0  0
    8.5196   -3.8501   21.4283 C   0  0  0  0  0  0  0  0  0  0  0  0
    9.0151   -5.5724   21.7201 S   0  0  2  0  0  0  0  0  0  0  0  0
    7.3931   -6.3862   21.7696 C   0  0  0  0  0  0  0  0  0  0  0  0
    9.5406   -5.6697   23.4389 C   0  0  0  0  0  0  0  0  0  0  0  0
   10.3179   -6.9556   23.6461 C   0  0  1  0  0  0  0  0  0  0  0  0
    9.5704   -8.1073   23.2867 O   0  0  0  0  0  0  0  0  0  0  0  0
   11.5833   -6.9745   22.8237 C   0  0  1  0  0  0  0  0  0  0  0  0
   12.6275   -6.3261   23.4914 O   0  0  0  0  0  0  0  0  0  0  0  0
   11.8260   -8.4476   22.6978 C   0  0  1  0  0  0  0  0  0  0  0  0
   12.5737   -8.8920   23.8140 O   0  0  0  0  0  0  0  0  0  0  0  0
   10.4322   -9.0620   22.7114 C   0  0  2  0  0  0  0  0  0  0  0  0
   10.6817   -0.2483   23.3948 O   0  0  0  0  0  0  0  0  0  0  0  0
   11.6010   -9.7576   17.6115 N   0  0  0  0  0  0  0  0  0  0  0  0
   12.4605   -9.4015   18.6407 C   0  0  0  0  0  0  0  0  0  0  0  0
   11.9913   -9.2432   19.9393 N   0  0  0  0  0  0  0  0  0  0  0  0
   10.6888   -9.4575   20.1995 C   0  0  0  0  0  0  0  0  0  0  0  0
    9.8161   -9.8314   19.1737 C   0  0  0  0  0  0  0  0  0  0  0  0
   10.2649   -9.9718   17.8734 C   0  0  0  0  0  0  0  0  0  0  0  0
    9.4318  -10.3157   16.9027 N   0  0  0  0  0  0  0  0  0  0  0  0
    8.5979   -9.9920   19.7021 N   0  0  0  0  0  0  0  0  0  0  0  0
    8.6747   -9.7347   21.0265 C   0  0  0  0  0  0  0  0  0  0  0  0
    9.9664   -9.4057   21.3546 N   0  0  0  0  0  0  0  0  0  0  0  0
  2  1  1  6  0  0  0
  2  3  1  0  0  0  0
  2  5  1  0  0  0  0
  3  4  1  0  0  0  0
  3 17  1  0  0  0  0
  5  6  1  0  0  0  0
  7  6  1  1  0  0  0
  7  8  1  0  0  0  0
  7  9  1  0  0  0  0
 10  9  1  6  0  0  0
 10 11  1  0  0  0  0
 10 12  1  0  0  0  0
 11 16  1  0  0  0  0
 12 13  1  1  0  0  0
 12 14  1  0  0  0  0
 14 15  1  1  0  0  0
 14 16  1  0  0  0  0
 16 27  1  6  0  0  0
 18 19  2  0  0  0  0
 18 23  1  0  0  0  0
 19 20  1  0  0  0  0
 20 21  2  0  0  0  0
 21 22  1  0  0  0  0
 21 27  1  0  0  0  0
 22 23  2  0  0  0  0
 22 25  1  0  0  0  0
 23 24  1  0  0  0  0
 25 26  2  0  0  0  0
 26 27  1  0  0  0  0
M  END
>  <CHROM.1>
-45.28414755,-71.55118222,-158.34359128,173.23285004,-164.46503457,-56.91412920
131.09167414,10.20836071,-6.50174682,21.35555092,1.73892499,-1.17213919,0.43348253

>  <Name>
ligand

>  <RI>
0

>  <Rbt.Current_Directory>
/home/itssahil/PROJECTS/Mol_Feturizer/Test_systems_manuscript/rnas/2ydh

>  <Rbt.Executable>
rbdock ($Id: //depot/dev/client3/rdock/2013.1/src/exe/rbdock.cxx#4 $)

>  <Rbt.Library>
libRbt.so (2013.1, Build901 2013/11/27)

>  <Rbt.Parameter_File>
/export/apps/rDock/src/rDock_2013.1_src/data/scripts/dock_solv.prm

>  <Rbt.Receptor>
prm/blind_docking_40.prm

>  <SCORE>
-15.7015

>  <SCORE.INTER>
-15.4091

>  <SCORE.INTER.CONST>
1

>  <SCORE.INTER.POLAR>
0

>  <SCORE.INTER.ROT>
7

>  <SCORE.INTER.SOLV>
11.0212

>  <SCORE.INTER.VDW>
-22.2131

>  <SCORE.INTER.norm>
-0.570706

>  <SCORE.INTRA>
-0.292421

>  <SCORE.INTRA.DIHEDRAL>
-3.16019

>  <SCORE.INTRA.DIHEDRAL.0>
9.75037

>  <SCORE.INTRA.POLAR>
0

>  <SCORE.INTRA.POLAR.0>
0

>  <SCORE.INTRA.REPUL>
0

>  <SCORE.INTRA.REPUL.0>
0

>  <SCORE.INTRA.SOLV>
-0.682038

>  <SCORE.INTRA.SOLV.lig_0>
-48.4279

>  <SCORE.INTRA.VDW>
1.62869

>  <SCORE.INTRA.VDW.0>
-4.69037

>  <SCORE.INTRA.norm>
-0.0108304

>  <SCORE.RESTR>
0

>  <SCORE.RESTR.CAVITY>
0

>  <SCORE.RESTR.norm>
0

>  <SCORE.SYSTEM>
0

>  <SCORE.SYSTEM.CONST>
0

>  <SCORE.SYSTEM.DIHEDRAL>
0

>  <SCORE.SYSTEM.SOLV>
0

>  <SCORE.SYSTEM.norm>
0

>  <SCORE.heavy>
27

>  <SCORE.norm>
-0.581536

>  <RMSD>
14.644

$$$$
ligand
 OpenBabel02271912153D
libRbt.so/2013.1/901 2013/11/27
 27 29  0  0  0  0  0  0  0  0999 V2000
    8.6899    1.2169   21.9326 N   0  0  0  0  0  0  0  0  0  0  0  0
    9.4901    0.1497   22.6088 C   0  0  2  0  0  0  0  0  0  0  0  0
   10.7877   -0.1519   21.8265 C   0  0  0  0  0  0  0  0  0  0  0  0
   10.8274   -1.0481   20.9781 O   0  0  0  0  0  0  0  0  0  0  0  0
    8.6269   -1.0946   22.7882 C   0  0  0  0  0  0  0  0  0  0  0  0
    7.9907   -1.6101   21.5081 C   0  0  0  0  0  0  0  0  0  0  0  0
    7.4989   -3.3555   21.6025 S   0  0  2  0  0  0  0  0  0  0  0  0
    6.4092   -3.3207   23.0541 C   0  0  0  0  0  0  0  0  0  0  0  0
    8.9279   -4.2571   22.2230 C   0  0  0  0  0  0  0  0  0  0  0  0
    8.4933   -5.6518   22.6311 C   0  0  1  0  0  0  0  0  0  0  0  0
    7.9025   -6.3727   21.5609 O   0  0  0  0  0  0  0  0  0  0  0  0
    9.6603   -6.4711   23.1260 C   0  0  1  0  0  0  0  0  0  0  0  0
    9.9032   -6.2331   24.4828 O   0  0  0  0  0  0  0  0  0  0  0  0
    9.1632   -7.8630   22.8800 C   0  0  1  0  0  0  0  0  0  0  0  0
    8.4162   -8.2942   24.0017 O   0  0  0  0  0  0  0  0  0  0  0  0
    8.2626   -7.7313   21.6586 C   0  0  2  0  0  0  0  0  0  0  0  0
   11.8419    0.4823   22.0161 O   0  0  0  0  0  0  0  0  0  0  0  0
    9.1496   -6.9247   16.5184 N   0  0  0  0  0  0  0  0  0  0  0  0
    8.3524   -6.1762   17.3722 C   0  0  0  0  0  0  0  0  0  0  0  0
    8.2096   -6.5304   18.7085 N   0  0  0  0  0  0  0  0  0  0  0  0
    8.8705   -7.6035   19.1795 C   0  0  0  0  0  0  0  0  0  0  0  0
    9.6886   -8.3566   18.3326 C   0  0  0  0  0  0  0  0  0  0  0  0
    9.8231   -8.0283   16.9961 C   0  0  0  0  0  0  0  0  0  0  0  0
   10.5910   -8.7515   16.1949 N   0  0  0  0  0  0  0  0  0  0  0  0
   10.2311   -9.3462   19.0504 N   0  0  0  0  0  0  0  0  0  0  0  0
    9.7845   -9.2400   20.3214 C   0  0  0  0  0  0  0  0  0  0  0  0
    8.9422   -8.1607   20.4217 N   0  0  0  0  0  0  0  0  0  0  0  0
  2  1  1  6  0  0  0
  2  3  1  0  0  0  0
  2  5  1  0  0  0  0
  3  4  1  0  0  0  0
  3 17  1  0  0  0  0
  5  6  1  0  0  0  0
  7  6  1  1  0  0  0
  7  8  1  0  0  0  0
  7  9  1  0  0  0  0
 10  9  1  6  0  0  0
 10 11  1  0  0  0  0
 10 12  1  0  0  0  0
 11 16  1  0  0  0  0
 12 13  1  1  0  0  0
 12 14  1  0  0  0  0
 14 15  1  1  0  0  0
 14 16  1  0  0  0  0
 16 27  1  6  0  0  0
 18 19  2  0  0  0  0
 18 23  1  0  0  0  0
 19 20  1  0  0  0  0
 20 21  2  0  0  0  0
 21 22  1  0  0  0  0
 21 27  1  0  0  0  0
 22 23  2  0  0  0  0
 22 25  1  0  0  0  0
 23 24  1  0  0  0  0
 25 26  2  0  0  0  0
 26 27  1  0  0  0  0
M  END
>  <CHROM.1>
-92.76852503,54.30545183,158.89366231,56.17912246,166.89877963,58.13274874
-22.31719873,9.05328004,-5.05111208,21.00715156,-1.57163664,-1.34376709,-2.74553753

>  <Name>
ligand

>  <RI>
0

>  <Rbt.Current_Directory>
/home/itssahil/PROJECTS/Mol_Feturizer/Test_systems_manuscript/rnas/2ydh

>  <Rbt.Executable>
rbdock ($Id: //depot/dev/client3/rdock/2013.1/src/exe/rbdock.cxx#4 $)

>  <Rbt.Library>
libRbt.so (2013.1, Build901 2013/11/27)

>  <Rbt.Parameter_File>
/export/apps/rDock/src/rDock_2013.1_src/data/scripts/dock_solv.prm

>  <Rbt.Receptor>
prm/blind_docking_40.prm

>  <SCORE>
-10.2569

>  <SCORE.INTER>
-11.1134

>  <SCORE.INTER.CONST>
1

>  <SCORE.INTER.POLAR>
0

>  <SCORE.INTER.ROT>
7

>  <SCORE.INTER.SOLV>
7.87365

>  <SCORE.INTER.VDW>
-18.3002

>  <SCORE.INTER.norm>
-0.411608

>  <SCORE.INTRA>
0.85655

>  <SCORE.INTRA.DIHEDRAL>
-4.94043

>  <SCORE.INTRA.DIHEDRAL.0>
9.75037

>  <SCORE.INTRA.POLAR>
0

>  <SCORE.INTRA.POLAR.0>
0

>  <SCORE.INTRA.REPUL>
0

>  <SCORE.INTRA.REPUL.0>
0

>  <SCORE.INTRA.SOLV>
-0.780224

>  <SCORE.INTRA.SOLV.lig_0>
-48.4279

>  <SCORE.INTRA.VDW>
3.71687

>  <SCORE.INTRA.VDW.0>
-4.69037

>  <SCORE.INTRA.norm>
0.0317241

>  <SCORE.RESTR>
0

>  <SCORE.RESTR.CAVITY>
0

>  <SCORE.RESTR.norm>
0

>  <SCORE.SYSTEM>
0

>  <SCORE.SYSTEM.CONST>
0

>  <SCORE.SYSTEM.DIHEDRAL>
0

>  <SCORE.SYSTEM.SOLV>
0

>  <SCORE.SYSTEM.norm>
0

>  <SCORE.heavy>
27

>  <SCORE.norm>
-0.379884

>  <RMSD>
14.650

$$$$
ligand
 OpenBabel02271912153D
libRbt.so/2013.1/901 2013/11/27
 27 29  0  0  0  0  0  0  0  0999 V2000
   12.9410   -8.5415   24.1617 N   0  0  0  0  0  0  0  0  0  0  0  0
   11.8956   -8.0552   23.2091 C   0  0  2  0  0  0  0  0  0  0  0  0
   11.8301   -6.5118   23.1961 C   0  0  0  0  0  0  0  0  0  0  0  0
   11.4314   -5.8820   24.1805 O   0  0  0  0  0  0  0  0  0  0  0  0
   10.5524   -8.6827   23.5665 C   0  0  0  0  0  0  0  0  0  0  0  0
    9.4652   -8.4804   22.5244 C   0  0  0  0  0  0  0  0  0  0  0  0
    9.7517   -9.4177   20.9959 S   0  0  2  0  0  0  0  0  0  0  0  0
   10.7965   -8.2521   20.0764 C   0  0  0  0  0  0  0  0  0  0  0  0
    8.2121   -9.3620   20.0650 C   0  0  0  0  0  0  0  0  0  0  0  0
    8.4924   -9.7394   18.6229 C   0  0  1  0  0  0  0  0  0  0  0  0
    9.3314  -10.8786   18.5117 O   0  0  0  0  0  0  0  0  0  0  0  0
    7.2186  -10.0529   17.8766 C   0  0  1  0  0  0  0  0  0  0  0  0
    6.6282   -8.8876   17.3763 O   0  0  0  0  0  0  0  0  0  0  0  0
    7.7334  -10.9365   16.7816 C   0  0  1  0  0  0  0  0  0  0  0  0
    8.1454  -10.1333   15.6919 O   0  0  0  0  0  0  0  0  0  0  0  0
    8.9294  -11.6475   17.4017 C   0  0  2  0  0  0  0  0  0  0  0  0
   12.1665   -5.8396   22.2039 O   0  0  0  0  0  0  0  0  0  0  0  0
    6.8358  -16.3425   16.2046 N   0  0  0  0  0  0  0  0  0  0  0  0
    6.9518  -15.2287   15.3857 C   0  0  0  0  0  0  0  0  0  0  0  0
    7.5200  -14.0517   15.8585 N   0  0  0  0  0  0  0  0  0  0  0  0
    7.9790  -14.0034   17.1223 C   0  0  0  0  0  0  0  0  0  0  0  0
    7.8815  -15.1239   17.9521 C   0  0  0  0  0  0  0  0  0  0  0  0
    7.2993  -16.2945   17.5018 C   0  0  0  0  0  0  0  0  0  0  0  0
    7.1993  -17.3503   18.2955 N   0  0  0  0  0  0  0  0  0  0  0  0
    8.4197  -14.8124   19.1363 N   0  0  0  0  0  0  0  0  0  0  0  0
    8.8554  -13.5346   19.0792 C   0  0  0  0  0  0  0  0  0  0  0  0
    8.5947  -13.0174   17.8346 N   0  0  0  0  0  0  0  0  0  0  0  0
  2  1  1  1  0  0  0
  2  3  1  0  0  0  0
  2  5  1  0  0  0  0
  3  4  1  0  0  0  0
  3 17  1  0  0  0  0
  5  6  1  0  0  0  0
  7  6  1  1  0  0  0
  7  8  1  0  0  0  0
  7  9  1  0  0  0  0
 10  9  1  1  0  0  0
 10 11  1  0  0  0  0
 10 12  1  0  0  0  0
 11 16  1  0  0  0  0
 12 13  1  6  0  0  0
 12 14  1  0  0  0  0
 14 15  1  6  0  0  0
 14 16  1  0  0  0  0
 16 27  1  1  0  0  0
 18 19  2  0  0  0  0
 18 23  1  0  0  0  0
 19 20  1  0  0  0  0
 20 21  2  0  0  0  0
 21 22  1  0  0  0  0
 21 27  1  0  0  0  0
 22 23  2  0  0  0  0
 22 25  1  0  0  0  0
 23 24  1  0  0  0  0
 25 26  2  0  0  0  0
 26 27  1  0  0  0  0
M  END
>  <CHROM.1>
-67.77765697,-168.97668139,69.84721160,-86.66613495,162.67817057,45.22879297
169.12177041,9.07365556,-10.93306128,19.41310902,-0.67647717,1.06816381,2.98823497

>  <Name>
ligand

>  <RI>
0

>  <Rbt.Current_Directory>
/home/itssahil/PROJECTS/Mol_Feturizer/Test_systems_manuscript/rnas/2ydh

>  <Rbt.Executable>
rbdock ($Id: //depot/dev/client3/rdock/2013.1/src/exe/rbdock.cxx#4 $)

>  <Rbt.Library>
libRbt.so (2013.1, Build901 2013/11/27)

>  <Rbt.Parameter_File>
/export/apps/rDock/src/rDock_2013.1_src/data/scripts/dock_solv.prm

>  <Rbt.Receptor>
prm/blind_docking_80.prm

>  <SCORE>
-15.1854

>  <SCORE.INTER>
-15.1373

>  <SCORE.INTER.CONST>
1

>  <SCORE.INTER.POLAR>
0

>  <SCORE.INTER.ROT>
7

>  <SCORE.INTER.SOLV>
23.186

>  <SCORE.INTER.VDW>
-26.0869

>  <SCORE.INTER.norm>
-0.560642

>  <SCORE.INTRA>
-0.0499146

>  <SCORE.INTRA.DIHEDRAL>
-3.77177

>  <SCORE.INTRA.DIHEDRAL.0>
9.75037

>  <SCORE.INTRA.POLAR>
0

>  <SCORE.INTRA.POLAR.0>
0

>  <SCORE.INTRA.REPUL>
0

>  <SCORE.INTRA.REPUL.0>
0

>  <SCORE.INTRA.SOLV>
-1.28264

>  <SCORE.INTRA.SOLV.lig_0>
-48.4279

>  <SCORE.INTRA.VDW>
2.47729

>  <SCORE.INTRA.VDW.0>
-4.69037

>  <SCORE.INTRA.norm>
-0.00184869

>  <SCORE.RESTR>
0.00183407

>  <SCORE.RESTR.CAVITY>
0.00183407

>  <SCORE.RESTR.norm>
6.79284e-05

>  <SCORE.SYSTEM>
0

>  <SCORE.SYSTEM.CONST>
0

>  <SCORE.SYSTEM.DIHEDRAL>
0

>  <SCORE.SYSTEM.SOLV>
0

>  <SCORE.SYSTEM.norm>
0

>  <SCORE.heavy>
27

>  <SCORE.norm>
-0.562423

>  <RMSD>
14.661

$$$$
ligand
 OpenBabel02271912153D
libRbt.so/2013.1/901 2013/11/27
 27 29  0  0  0  0  0  0  0  0999 V2000
   12.1204   -7.4353   22.9369 N   0  0  0  0  0  0  0  0  0  0  0  0
   10.8297   -7.2322   22.2092 C   0  0  2  0  0  0  0  0  0  0  0  0
   10.8692   -7.8917   20.8127 C   0  0  0  0  0  0  0  0  0  0  0  0
    9.8731   -8.4497   20.3425 O   0  0  0  0  0  0  0  0  0  0  0  0
   10.5215   -5.7407   22.1299 C   0  0  0  0  0  0  0  0  0  0  0  0
    9.1784   -5.4073   21.5023 C   0  0  0  0  0  0  0  0  0  0  0  0
    8.8863   -3.6229   21.3360 S   0  0  2  0  0  0  0  0  0  0  0  0
    8.5691   -3.1705   23.0652 C   0  0  0  0  0  0  0  0  0  0  0  0
    7.2581   -3.4380   20.5912 C   0  0  0  0  0  0  0  0  0  0  0  0
    7.0320   -1.9766   20.2537 C   0  0  1  0  0  0  0  0  0  0  0  0
    7.4245   -1.1082   21.3054 O   0  0  0  0  0  0  0  0  0  0  0  0
    7.8098   -1.5665   19.0271 C   0  0  1  0  0  0  0  0  0  0  0  0
    7.1020   -1.8663   17.8584 O   0  0  0  0  0  0  0  0  0  0  0  0
    7.9364   -0.0893   19.2438 C   0  0  1  0  0  0  0  0  0  0  0  0
    6.7977    0.5577   18.7082 O   0  0  0  0  0  0  0  0  0  0  0  0
    7.9753    0.0676   20.7584 C   0  0  2  0  0  0  0  0  0  0  0  0
   11.8949   -7.8964   20.1076 O   0  0  0  0  0  0  0  0  0  0  0  0
   12.1213    3.2770   21.3660 N   0  0  0  0  0  0  0  0  0  0  0  0
   10.9009    3.5662   20.7729 C   0  0  0  0  0  0  0  0  0  0  0  0
    9.9073    2.5992   20.6773 N   0  0  0  0  0  0  0  0  0  0  0  0
   10.1304    1.3734   21.1851 C   0  0  0  0  0  0  0  0  0  0  0  0
   11.3503    1.0747   21.7986 C   0  0  0  0  0  0  0  0  0  0  0  0
   12.3555    2.0205   21.8817 C   0  0  0  0  0  0  0  0  0  0  0  0
   13.5139    1.7293   22.4543 N   0  0  0  0  0  0  0  0  0  0  0  0
   11.3029   -0.1928   22.2231 N   0  0  0  0  0  0  0  0  0  0  0  0
   10.0932   -0.7014   21.9002 C   0  0  0  0  0  0  0  0  0  0  0  0
    9.3496    0.2582   21.2593 N   0  0  0  0  0  0  0  0  0  0  0  0
  2  1  1  6  0  0  0
  2  3  1  0  0  0  0
  2  5  1  0  0  0  0
  3  4  1  0  0  0  0
  3 17  1  0  0  0  0
  5  6  1  0  0  0  0
  7  6  1  1  0  0  0
  7  8  1  0  0  0  0
  7  9  1  0  0  0  0
 10  9  1  1  0  0  0
 10 11  1  0  0  0  0
 10 12  1  0  0  0  0
 11 16  1  0  0  0  0
 12 13  1  6  0  0  0
 12 14  1  0  0  0  0
 14 15  1  1  0  0  0
 14 16  1  0  0  0  0
 16 27  1  1  0  0  0
 18 19  2  0  0  0  0
 18 23  1  0  0  0  0
 19 20  1  0  0  0  0
 20 21  2  0  0  0  0
 21 22  1  0  0  0  0
 21 27  1  0  0  0  0
 22 23  2  0  0  0  0
 22 25  1  0  0  0  0
 23 24  1  0  0  0  0
 25 26  2  0  0  0  0
 26 27  1  0  0  0  0
M  END
>  <CHROM.1>
142.55043971,-175.63121100,-176.64696370,-73.39651624,-172.44239669,-44.86542684
-166.35784080,9.65402752,-2.08155813,21.00915883,-1.55809186,-0.48444770
-0.03011422

>  <Name>
ligand

>  <RI>
0

>  <Rbt.Current_Directory>
/home/itssahil/PROJECTS/Mol_Feturizer/Test_systems_manuscript/rnas/2ydh

>  <Rbt.Executable>
rbdock ($Id: //depot/dev/client3/rdock/2013.1/src/exe/rbdock.cxx#4 $)

>  <Rbt.Library>
libRbt.so (2013.1, Build901 2013/11/27)

>  <Rbt.Parameter_File>
/export/apps/rDock/src/rDock_2013.1_src/data/scripts/dock_solv.prm

>  <Rbt.Receptor>
prm/blind_docking_60.prm

>  <SCORE>
-11.1626

>  <SCORE.INTER>
-10.3264

>  <SCORE.INTER.CONST>
1

>  <SCORE.INTER.POLAR>
0

>  <SCORE.INTER.ROT>
7

>  <SCORE.INTER.SOLV>
19.6539

>  <SCORE.INTER.VDW>
-21.7023

>  <SCORE.INTER.norm>
-0.382461

>  <SCORE.INTRA>
-0.842918

>  <SCORE.INTRA.DIHEDRAL>
-5.06463

>  <SCORE.INTRA.DIHEDRAL.0>
9.75037

>  <SCORE.INTRA.POLAR>
0

>  <SCORE.INTRA.POLAR.0>
0

>  <SCORE.INTRA.REPUL>
0

>  <SCORE.INTRA.REPUL.0>
0

>  <SCORE.INTRA.SOLV>
-1.30164

>  <SCORE.INTRA.SOLV.lig_0>
-48.4279

>  <SCORE.INTRA.VDW>
2.34022

>  <SCORE.INTRA.VDW.0>
-4.69037

>  <SCORE.INTRA.norm>
-0.0312192

>  <SCORE.RESTR>
0.00678384

>  <SCORE.RESTR.CAVITY>
0.00678384

>  <SCORE.RESTR.norm>
0.000251253

>  <SCORE.SYSTEM>
0

>  <SCORE.SYSTEM.CONST>
0

>  <SCORE.SYSTEM.DIHEDRAL>
0

>  <SCORE.SYSTEM.SOLV>
0

>  <SCORE.SYSTEM.norm>
0

>  <SCORE.heavy>
27

>  <SCORE.norm>
-0.413429

>  <RMSD>
14.662

$$$$
ligand
 OpenBabel02271912153D
libRbt.so/2013.1/901 2013/11/27
 27 29  0  0  0  0  0  0  0  0999 V2000
    8.6428   -7.1753   23.6370 N   0  0  0  0  0  0  0  0  0  0  0  0
    7.9045   -6.4583   22.5520 C   0  0  2  0  0  0  0  0  0  0  0  0
    6.6690   -5.7206   23.1141 C   0  0  0  0  0  0  0  0  0  0  0  0
    5.6559   -5.5581   22.4271 O   0  0  0  0  0  0  0  0  0  0  0  0
    7.5304   -7.4478   21.4535 C   0  0  0  0  0  0  0  0  0  0  0  0
    7.3311   -6.8223   20.0831 C   0  0  0  0  0  0  0  0  0  0  0  0
    6.6119   -7.9654   18.8694 S   0  0  2  0  0  0  0  0  0  0  0  0
    4.9998   -8.2991   19.6345 C   0  0  0  0  0  0  0  0  0  0  0  0
    7.4636   -9.5371   19.0791 C   0  0  0  0  0  0  0  0  0  0  0  0
    8.2886   -9.8217   17.8386 C   0  0  1  0  0  0  0  0  0  0  0  0
    9.0193  -11.0344   17.9373 O   0  0  0  0  0  0  0  0  0  0  0  0
    7.4191   -9.9274   16.6095 C   0  0  1  0  0  0  0  0  0  0  0  0
    7.1687   -8.6657   16.0598 O   0  0  0  0  0  0  0  0  0  0  0  0
    8.2794  -10.7685   15.7165 C   0  0  1  0  0  0  0  0  0  0  0  0
    9.1582   -9.9283   14.9928 O   0  0  0  0  0  0  0  0  0  0  0  0
    9.0610  -11.6581   16.6747 C   0  0  2  0  0  0  0  0  0  0  0  0
    6.6391   -5.2566   24.2687 O   0  0  0  0  0  0  0  0  0  0  0  0
    8.0151  -15.8968   19.6408 N   0  0  0  0  0  0  0  0  0  0  0  0
    8.6375  -14.7192   20.0287 C   0  0  0  0  0  0  0  0  0  0  0  0
    8.8541  -13.6929   19.1170 N   0  0  0  0  0  0  0  0  0  0  0  0
    8.4356  -13.8413   17.8469 C   0  0  0  0  0  0  0  0  0  0  0  0
    7.7937  -15.0171   17.4479 C   0  0  0  0  0  0  0  0  0  0  0  0
    7.5907  -16.0547   18.3390 C   0  0  0  0  0  0  0  0  0  0  0  0
    6.9916  -17.1713   17.9534 N   0  0  0  0  0  0  0  0  0  0  0  0
    7.4737  -14.8978   16.1547 N   0  0  0  0  0  0  0  0  0  0  0  0
    7.8899  -13.6854   15.7267 C   0  0  0  0  0  0  0  0  0  0  0  0
    8.4854  -13.0132   16.7649 N   0  0  0  0  0  0  0  0  0  0  0  0
  2  1  1  1  0  0  0
  2  3  1  0  0  0  0
  2  5  1  0  0  0  0
  3  4  1  0  0  0  0
  3 17  1  0  0  0  0
  5  6  1  0  0  0  0
  7  6  1  1  0  0  0
  7  8  1  0  0  0  0
  7  9  1  0  0  0  0
 10  9  1  1  0  0  0
 10 11  1  0  0  0  0
 10 12  1  0  0  0  0
 11 16  1  0  0  0  0
 12 13  1  6  0  0  0
 12 14  1  0  0  0  0
 14 15  1  1  0  0  0
 14 16  1  0  0  0  0
 16 27  1  1  0  0  0
 18 19  2  0  0  0  0
 18 23  1  0  0  0  0
 19 20  1  0  0  0  0
 20 21  2  0  0  0  0
 21 22  1  0  0  0  0
 21 27  1  0  0  0  0
 22 23  2  0  0  0  0
 22 25  1  0  0  0  0
 23 24  1  0  0  0  0
 25 26  2  0  0  0  0
 26 27  1  0  0  0  0
M  END
>  <CHROM.1>
-149.15914152,-155.12106196,-170.00360146,62.77735705,-113.17267862,178.62057836
-27.37423635,7.63170388,-10.47728031,18.91236807,2.92072835,1.44178253,-0.82343628

>  <Name>
ligand

>  <RI>
0

>  <Rbt.Current_Directory>
/home/itssahil/PROJECTS/Mol_Feturizer/Test_systems_manuscript/rnas/2ydh

>  <Rbt.Executable>
rbdock ($Id: //depot/dev/client3/rdock/2013.1/src/exe/rbdock.cxx#4 $)

>  <Rbt.Library>
libRbt.so (2013.1, Build901 2013/11/27)

>  <Rbt.Parameter_File>
/export/apps/rDock/src/rDock_2013.1_src/data/scripts/dock_solv.prm

>  <Rbt.Receptor>
prm/blind_docking_100.prm

>  <SCORE>
-9.63578

>  <SCORE.INTER>
-12.3659

>  <SCORE.INTER.CONST>
1

>  <SCORE.INTER.POLAR>
0

>  <SCORE.INTER.ROT>
7

>  <SCORE.INTER.SOLV>
13.7122

>  <SCORE.INTER.VDW>
-21.0813

>  <SCORE.INTER.norm>
-0.457995

>  <SCORE.INTRA>
2.73008

>  <SCORE.INTRA.DIHEDRAL>
-0.150126

>  <SCORE.INTRA.DIHEDRAL.0>
9.75037

>  <SCORE.INTRA.POLAR>
0

>  <SCORE.INTRA.POLAR.0>
0

>  <SCORE.INTRA.REPUL>
0

>  <SCORE.INTRA.REPUL.0>
0

>  <SCORE.INTRA.SOLV>
-1.23817

>  <SCORE.INTRA.SOLV.lig_0>
-48.4279

>  <SCORE.INTRA.VDW>
3.42423

>  <SCORE.INTRA.VDW.0>
-4.69037

>  <SCORE.INTRA.norm>
0.101114

>  <SCORE.RESTR>
0

>  <SCORE.RESTR.CAVITY>
0

>  <SCORE.RESTR.norm>
0

>  <SCORE.SYSTEM>
0

>  <SCORE.SYSTEM.CONST>
0

>  <SCORE.SYSTEM.DIHEDRAL>
0

>  <SCORE.SYSTEM.SOLV>
0

>  <SCORE.SYSTEM.norm>
0

>  <SCORE.heavy>
27

>  <SCORE.norm>
-0.356881

>  <RMSD>
14.678

$$$$
ligand
 OpenBabel02271912153D
libRbt.so/2013.1/901 2013/11/27
 27 29  0  0  0  0  0  0  0  0999 V2000
    8.6459  -17.2250   19.7847 N   0  0  0  0  0  0  0  0  0  0  0  0
    8.2202  -16.0018   20.5325 C   0  0  2  0  0  0  0  0  0  0  0  0
    6.7276  -16.0804   20.9230 C   0  0  0  0  0  0  0  0  0  0  0  0
    5.8444  -16.1274   20.0613 O   0  0  0  0  0  0  0  0  0  0  0  0
    8.5297  -14.7636   19.6977 C   0  0  0  0  0  0  0  0  0  0  0  0
    8.0185  -14.8237   18.2680 C   0  0  0  0  0  0  0  0  0  0  0  0
    7.8874  -13.1917   17.4827 S   0  0  2  0  0  0  0  0  0  0  0  0
    7.9749  -13.6533   15.7292 C   0  0  0  0  0  0  0  0  0  0  0  0
    9.4695  -12.3722   17.7382 C   0  0  0  0  0  0  0  0  0  0  0  0
    9.3120  -10.8919   17.4473 C   0  0  1  0  0  0  0  0  0  0  0  0
    8.3279  -10.2781   18.2652 O   0  0  0  0  0  0  0  0  0  0  0  0
   10.6038  -10.1446   17.6722 C   0  0  1  0  0  0  0  0  0  0  0  0
   11.4224  -10.2016   16.5394 O   0  0  0  0  0  0  0  0  0  0  0  0
   10.0965   -8.7584   17.9294 C   0  0  1  0  0  0  0  0  0  0  0  0
    9.9483   -8.0819   16.6955 O   0  0  0  0  0  0  0  0  0  0  0  0
    8.7392   -8.9697   18.5876 C   0  0  2  0  0  0  0  0  0  0  0  0
    6.3497  -16.0943   22.1089 O   0  0  0  0  0  0  0  0  0  0  0  0
   11.6357   -9.1753   22.9952 N   0  0  0  0  0  0  0  0  0  0  0  0
   12.0466   -9.4272   21.6943 C   0  0  0  0  0  0  0  0  0  0  0  0
   11.1512   -9.3437   20.6346 N   0  0  0  0  0  0  0  0  0  0  0  0
    9.8745   -8.9953   20.8772 C   0  0  0  0  0  0  0  0  0  0  0  0
    9.4523   -8.7244   22.1818 C   0  0  0  0  0  0  0  0  0  0  0  0
   10.3270   -8.8242   23.2481 C   0  0  0  0  0  0  0  0  0  0  0  0
    9.9195   -8.5771   24.4839 N   0  0  0  0  0  0  0  0  0  0  0  0
    8.1572   -8.3928   22.1393 N   0  0  0  0  0  0  0  0  0  0  0  0
    7.7504   -8.4430   20.8516 C   0  0  0  0  0  0  0  0  0  0  0  0
    8.8045   -8.8107   20.0527 N   0  0  0  0  0  0  0  0  0  0  0  0
  2  1  1  6  0  0  0
  2  3  1  0  0  0  0
  2  5  1  0  0  0  0
  3  4  1  0  0  0  0
  3 17  1  0  0  0  0
  5  6  1  0  0  0  0
  7  6  1  1  0  0  0
  7  8  1  0  0  0  0
  7  9  1  0  0  0  0
 10  9  1  1  0  0  0
 10 11  1  0  0  0  0
 10 12  1  0  0  0  0
 11 16  1  0  0  0  0
 12 13  1  6  0  0  0
 12 14  1  0  0  0  0
 14 15  1  6  0  0  0
 14 16  1  0  0  0  0
 16 27  1  1  0  0  0
 18 19  2  0  0  0  0
 18 23  1  0  0  0  0
 19 20  1  0  0  0  0
 20 21  2  0  0  0  0
 21 22  1  0  0  0  0
 21 27  1  0  0  0  0
 22 23  2  0  0  0  0
 22 25  1  0  0  0  0
 23 24  1  0  0  0  0
 25 26  2  0  0  0  0
 26 27  1  0  0  0  0
M  END
>  <CHROM.1>
-63.02822885,50.58030748,160.48626200,156.75698409,-164.85473417,58.53948773
92.37158760,8.99406983,-11.50338608,19.61666042,2.84925655,-1.18903592,-1.68818648

>  <Name>
ligand

>  <RI>
0

>  <Rbt.Current_Directory>
/home/itssahil/PROJECTS/Mol_Feturizer/Test_systems_manuscript/rnas/2ydh

>  <Rbt.Executable>
rbdock ($Id: //depot/dev/client3/rdock/2013.1/src/exe/rbdock.cxx#4 $)

>  <Rbt.Library>
libRbt.so (2013.1, Build901 2013/11/27)

>  <Rbt.Parameter_File>
/export/apps/rDock/src/rDock_2013.1_src/data/scripts/dock_solv.prm

>  <Rbt.Receptor>
prm/blind_docking_100.prm

>  <SCORE>
-16.4917

>  <SCORE.INTER>
-16.9809

>  <SCORE.INTER.CONST>
1

>  <SCORE.INTER.POLAR>
0

>  <SCORE.INTER.ROT>
7

>  <SCORE.INTER.SOLV>
17.1624

>  <SCORE.INTER.VDW>
-25.3081

>  <SCORE.INTER.norm>
-0.628922

>  <SCORE.INTRA>
0.489152

>  <SCORE.INTRA.DIHEDRAL>
-2.9078

>  <SCORE.INTRA.DIHEDRAL.0>
9.75037

>  <SCORE.INTRA.POLAR>
0

>  <SCORE.INTRA.POLAR.0>
0

>  <SCORE.INTRA.REPUL>
0

>  <SCORE.INTRA.REPUL.0>
0

>  <SCORE.INTRA.SOLV>
-0.784046

>  <SCORE.INTRA.SOLV.lig_0>
-48.4279

>  <SCORE.INTRA.VDW>
2.33508

>  <SCORE.INTRA.VDW.0>
-4.69037

>  <SCORE.INTRA.norm>
0.0181167

>  <SCORE.RESTR>
0

>  <SCORE.RESTR.CAVITY>
0

>  <SCORE.RESTR.norm>
0

>  <SCORE.SYSTEM>
0

>  <SCORE.SYSTEM.CONST>
0

>  <SCORE.SYSTEM.DIHEDRAL>
0

>  <SCORE.SYSTEM.SOLV>
0

>  <SCORE.SYSTEM.norm>
0

>  <SCORE.heavy>
27

>  <SCORE.norm>
-0.610805

>  <RMSD>
14.706

$$$$
ligand
 OpenBabel02271912153D
libRbt.so/2013.1/901 2013/11/27
 27 29  0  0  0  0  0  0  0  0999 V2000
    6.5695    3.0367   14.1926 N   0  0  0  0  0  0  0  0  0  0  0  0
    7.6164    1.9754   14.3123 C   0  0  2  0  0  0  0  0  0  0  0  0
    7.5946    1.0326   13.0886 C   0  0  0  0  0  0  0  0  0  0  0  0
    8.6010    0.8681   12.3923 O   0  0  0  0  0  0  0  0  0  0  0  0
    7.4240    1.2186   15.6222 C   0  0  0  0  0  0  0  0  0  0  0  0
    7.4724    2.0898   16.8663 C   0  0  0  0  0  0  0  0  0  0  0  0
    7.1055    1.1808   18.3947 S   0  0  2  0  0  0  0  0  0  0  0  0
    7.1269    2.5336   19.6051 C   0  0  0  0  0  0  0  0  0  0  0  0
    8.5984    0.2691   18.8190 C   0  0  0  0  0  0  0  0  0  0  0  0
    8.5315   -0.1371   20.2788 C   0  0  1  0  0  0  0  0  0  0  0  0
    7.4675   -1.0379   20.5448 O   0  0  0  0  0  0  0  0  0  0  0  0
    9.8057   -0.8132   20.7228 C   0  0  1  0  0  0  0  0  0  0  0  0
   10.7669    0.1272   21.1081 O   0  0  0  0  0  0  0  0  0  0  0  0
    9.3154   -1.6234   21.8839 C   0  0  1  0  0  0  0  0  0  0  0  0
    9.3574   -0.8296   23.0545 O   0  0  0  0  0  0  0  0  0  0  0  0
    7.8755   -1.9657   21.5235 C   0  0  2  0  0  0  0  0  0  0  0  0
    6.5737    0.4071   12.7484 O   0  0  0  0  0  0  0  0  0  0  0  0
    9.8262   -6.8628   21.2561 N   0  0  0  0  0  0  0  0  0  0  0  0
   10.3381   -5.7798   21.9558 C   0  0  0  0  0  0  0  0  0  0  0  0
    9.7093   -4.5412   21.9133 N   0  0  0  0  0  0  0  0  0  0  0  0
    8.5788   -4.4010   21.1974 C   0  0  0  0  0  0  0  0  0  0  0  0
    8.0450   -5.4886   20.5004 C   0  0  0  0  0  0  0  0  0  0  0  0
    8.6716   -6.7211   20.5166 C   0  0  0  0  0  0  0  0  0  0  0  0
    8.1678   -7.7460   19.8456 N   0  0  0  0  0  0  0  0  0  0  0  0
    6.9250   -5.0833   19.8918 N   0  0  0  0  0  0  0  0  0  0  0  0
    6.7340   -3.7779   20.1844 C   0  0  0  0  0  0  0  0  0  0  0  0
    7.7485   -3.3381   20.9980 N   0  0  0  0  0  0  0  0  0  0  0  0
  2  1  1  6  0  0  0
  2  3  1  0  0  0  0
  2  5  1  0  0  0  0
  3  4  1  0  0  0  0
  3 17  1  0  0  0  0
  5  6  1  0  0  0  0
  7  6  1  6  0  0  0
  7  8  1  0  0  0  0
  7  9  1  0  0  0  0
 10  9  1  6  0  0  0
 10 11  1  0  0  0  0
 10 12  1  0  0  0  0
 11 16  1  0  0  0  0
 12 13  1  1  0  0  0
 12 14  1  0  0  0  0
 14 15  1  1  0  0  0
 14 16  1  0  0  0  0
 16 27  1  6  0  0  0
 18 19  2  0  0  0  0
 18 23  1  0  0  0  0
 19 20  1  0  0  0  0
 20 21  2  0  0  0  0
 21 22  1  0  0  0  0
 21 27  1  0  0  0  0
 22 23  2  0  0  0  0
 22 25  1  0  0  0  0
 23 24  1  0  0  0  0
 25 26  2  0  0  0  0
 26 27  1  0  0  0  0
M  END
>  <CHROM.1>
122.91149478,-57.82933684,175.29254176,-175.79515664,161.68359238,64.12201146
141.88791331,8.18733174,-1.43515638,18.93495531,2.45076603,-1.36131807,0.08310609

>  <Name>
ligand

>  <RI>
0

>  <Rbt.Current_Directory>
/home/itssahil/PROJECTS/Mol_Feturizer/Test_systems_manuscript/rnas/2ydh

>  <Rbt.Executable>
rbdock ($Id: //depot/dev/client3/rdock/2013.1/src/exe/rbdock.cxx#4 $)

>  <Rbt.Library>
libRbt.so (2013.1, Build901 2013/11/27)

>  <Rbt.Parameter_File>
/export/apps/rDock/src/rDock_2013.1_src/data/scripts/dock_solv.prm

>  <Rbt.Receptor>
prm/blind_docking_40.prm

>  <SCORE>
-12.426

>  <SCORE.INTER>
-11.9793

>  <SCORE.INTER.CONST>
1

>  <SCORE.INTER.POLAR>
0

>  <SCORE.INTER.ROT>
7

>  <SCORE.INTER.SOLV>
6.52414

>  <SCORE.INTER.VDW>
-18.4276

>  <SCORE.INTER.norm>
-0.443676

>  <SCORE.INTRA>
-0.446711

>  <SCORE.INTRA.DIHEDRAL>
-5.84622

>  <SCORE.INTRA.DIHEDRAL.0>
9.75037

>  <SCORE.INTRA.POLAR>
0

>  <SCORE.INTRA.POLAR.0>
0

>  <SCORE.INTRA.REPUL>
0

>  <SCORE.INTRA.REPUL.0>
0

>  <SCORE.INTRA.SOLV>
-0.823339

>  <SCORE.INTRA.SOLV.lig_0>
-48.4279

>  <SCORE.INTRA.VDW>
2.88807

>  <SCORE.INTRA.VDW.0>
-4.69037

>  <SCORE.INTRA.norm>
-0.0165448

>  <SCORE.RESTR>
0

>  <SCORE.RESTR.CAVITY>
0

>  <SCORE.RESTR.norm>
0

>  <SCORE.SYSTEM>
0

>  <SCORE.SYSTEM.CONST>
0

>  <SCORE.SYSTEM.DIHEDRAL>
0

>  <SCORE.SYSTEM.SOLV>
0

>  <SCORE.SYSTEM.norm>
0

>  <SCORE.heavy>
27

>  <SCORE.norm>
-0.460221

>  <RMSD>
14.783

$$$$
ligand
 OpenBabel02271912153D
libRbt.so/2013.1/901 2013/11/27
 27 29  0  0  0  0  0  0  0  0999 V2000
   10.6442   -8.7032   23.3018 N   0  0  0  0  0  0  0  0  0  0  0  0
   10.7515   -7.3621   22.6486 C   0  0  2  0  0  0  0  0  0  0  0  0
   12.1387   -6.7305   22.9007 C   0  0  0  0  0  0  0  0  0  0  0  0
   12.6240   -5.9192   22.1064 O   0  0  0  0  0  0  0  0  0  0  0  0
    9.6173   -6.4676   23.1375 C   0  0  0  0  0  0  0  0  0  0  0  0
    9.4403   -5.1840   22.3437 C   0  0  0  0  0  0  0  0  0  0  0  0
    8.0858   -4.1414   22.9565 S   0  0  2  0  0  0  0  0  0  0  0  0
    6.6506   -5.1682   22.5304 C   0  0  0  0  0  0  0  0  0  0  0  0
    7.9294   -2.7723   21.7984 C   0  0  0  0  0  0  0  0  0  0  0  0
    9.1314   -1.8593   21.9471 C   0  0  1  0  0  0  0  0  0  0  0  0
    9.5897   -1.3557   20.7019 O   0  0  0  0  0  0  0  0  0  0  0  0
    8.8151   -0.6675   22.8175 C   0  0  1  0  0  0  0  0  0  0  0  0
    8.9783   -0.9757   24.1721 O   0  0  0  0  0  0  0  0  0  0  0  0
    9.8351    0.3203   22.3393 C   0  0  1  0  0  0  0  0  0  0  0  0
   11.0348    0.1380   23.0671 O   0  0  0  0  0  0  0  0  0  0  0  0
   10.0430   -0.0326   20.8721 C   0  0  2  0  0  0  0  0  0  0  0  0
   12.8258   -7.0103   23.9002 O   0  0  0  0  0  0  0  0  0  0  0  0
    7.6325    0.6980   16.2338 N   0  0  0  0  0  0  0  0  0  0  0  0
    8.2557   -0.4515   16.6973 C   0  0  0  0  0  0  0  0  0  0  0  0
    8.8622   -0.4796   17.9474 N   0  0  0  0  0  0  0  0  0  0  0  0
    8.8253    0.6199   18.7220 C   0  0  0  0  0  0  0  0  0  0  0  0
    8.1872    1.7793   18.2722 C   0  0  0  0  0  0  0  0  0  0  0  0
    7.5982    1.8281   17.0221 C   0  0  0  0  0  0  0  0  0  0  0  0
    7.0042    2.9327   16.5959 N   0  0  0  0  0  0  0  0  0  0  0  0
    8.2843    2.7062   19.2316 N   0  0  0  0  0  0  0  0  0  0  0  0
    8.9594    2.1686   20.2714 C   0  0  0  0  0  0  0  0  0  0  0  0
    9.2994    0.8721   19.9752 N   0  0  0  0  0  0  0  0  0  0  0  0
  2  1  1  1  0  0  0
  2  3  1  0  0  0  0
  2  5  1  0  0  0  0
  3  4  1  0  0  0  0
  3 17  1  0  0  0  0
  5  6  1  0  0  0  0
  7  6  1  6  0  0  0
  7  8  1  0  0  0  0
  7  9  1  0  0  0  0
 10  9  1  6  0  0  0
 10 11  1  0  0  0  0
 10 12  1  0  0  0  0
 11 16  1  0  0  0  0
 12 13  1  1  0  0  0
 12 14  1  0  0  0  0
 14 15  1  1  0  0  0
 14 16  1  0  0  0  0
 16 27  1  6  0  0  0
 18 19  2  0  0  0  0
 18 23  1  0  0  0  0
 19 20  1  0  0  0  0
 20 21  2  0  0  0  0
 21 22  1  0  0  0  0
 21 27  1  0  0  0  0
 22 23  2  0  0  0  0
 22 25  1  0  0  0  0
 23 24  1  0  0  0  0
 25 26  2  0  0  0  0
 26 27  1  0  0  0  0
M  END
>  <CHROM.1>
153.11007517,-167.97504379,-179.80110619,-68.10173158,-70.32851118,141.29149686
-34.45809043,9.28258458,-2.09245879,21.09876676,0.75690481,1.22482136,-2.90836250

>  <Name>
ligand

>  <RI>
0

>  <Rbt.Current_Directory>
/home/itssahil/PROJECTS/Mol_Feturizer/Test_systems_manuscript/rnas/2ydh

>  <Rbt.Executable>
rbdock ($Id: //depot/dev/client3/rdock/2013.1/src/exe/rbdock.cxx#4 $)

>  <Rbt.Library>
libRbt.so (2013.1, Build901 2013/11/27)

>  <Rbt.Parameter_File>
/export/apps/rDock/src/rDock_2013.1_src/data/scripts/dock_solv.prm

>  <Rbt.Receptor>
prm/blind_docking_80.prm

>  <SCORE>
-12.2296

>  <SCORE.INTER>
-12.6615

>  <SCORE.INTER.CONST>
1

>  <SCORE.INTER.POLAR>
0

>  <SCORE.INTER.ROT>
7

>  <SCORE.INTER.SOLV>
8.20641

>  <SCORE.INTER.VDW>
-19.4431

>  <SCORE.INTER.norm>
-0.468945

>  <SCORE.INTRA>
0.431884

>  <SCORE.INTRA.DIHEDRAL>
-2.36917

>  <SCORE.INTRA.DIHEDRAL.0>
9.75037

>  <SCORE.INTRA.POLAR>
0

>  <SCORE.INTRA.POLAR.0>
0

>  <SCORE.INTRA.REPUL>
0

>  <SCORE.INTRA.REPUL.0>
0

>  <SCORE.INTRA.SOLV>
-1.44585

>  <SCORE.INTRA.SOLV.lig_0>
-48.4279

>  <SCORE.INTRA.VDW>
2.33939

>  <SCORE.INTRA.VDW.0>
-4.69037

>  <SCORE.INTRA.norm>
0.0159957

>  <SCORE.RESTR>
0

>  <SCORE.RESTR.CAVITY>
0

>  <SCORE.RESTR.norm>
0

>  <SCORE.SYSTEM>
0

>  <SCORE.SYSTEM.CONST>
0

>  <SCORE.SYSTEM.DIHEDRAL>
0

>  <SCORE.SYSTEM.SOLV>
0

>  <SCORE.SYSTEM.norm>
0

>  <SCORE.heavy>
27

>  <SCORE.norm>
-0.452949

>  <RMSD>
14.789

$$$$
ligand
 OpenBabel02271912153D
libRbt.so/2013.1/901 2013/11/27
 27 29  0  0  0  0  0  0  0  0999 V2000
   11.6206    1.5462   23.7419 N   0  0  0  0  0  0  0  0  0  0  0  0
   11.9214    1.4259   22.2818 C   0  0  2  0  0  0  0  0  0  0  0  0
   12.4807    2.7513   21.7185 C   0  0  0  0  0  0  0  0  0  0  0  0
   11.7636    3.5241   21.0757 O   0  0  0  0  0  0  0  0  0  0  0  0
   10.6679    0.9722   21.5414 C   0  0  0  0  0  0  0  0  0  0  0  0
   10.1148   -0.3667   22.0003 C   0  0  0  0  0  0  0  0  0  0  0  0
    8.5310   -0.7945   21.2221 S   0  0  2  0  0  0  0  0  0  0  0  0
    8.4547   -2.5747   21.5694 C   0  0  0  0  0  0  0  0  0  0  0  0
    8.8103   -0.7670   19.4441 C   0  0  0  0  0  0  0  0  0  0  0  0
    7.4726   -0.8344   18.7325 C   0  0  1  0  0  0  0  0  0  0  0  0
    6.5774    0.1810   19.1589 O   0  0  0  0  0  0  0  0  0  0  0  0
    7.6334   -0.6846   17.2393 C   0  0  1  0  0  0  0  0  0  0  0  0
    7.9279   -1.9131   16.6387 O   0  0  0  0  0  0  0  0  0  0  0  0
    6.2773   -0.1799   16.8503 C   0  0  1  0  0  0  0  0  0  0  0  0
    5.4194   -1.2820   16.6228 O   0  0  0  0  0  0  0  0  0  0  0  0
    5.8102    0.6178   18.0610 C   0  0  2  0  0  0  0  0  0  0  0  0
   13.6661    3.0953   21.8793 O   0  0  0  0  0  0  0  0  0  0  0  0
    7.5899    5.2065   19.9678 N   0  0  0  0  0  0  0  0  0  0  0  0
    7.6523    3.9555   20.5643 C   0  0  0  0  0  0  0  0  0  0  0  0
    7.1206    2.8371   19.9334 N   0  0  0  0  0  0  0  0  0  0  0  0
    6.5558    2.9720   18.7197 C   0  0  0  0  0  0  0  0  0  0  0  0
    6.5006    4.2246   18.1020 C   0  0  0  0  0  0  0  0  0  0  0  0
    7.0064    5.3493   18.7273 C   0  0  0  0  0  0  0  0  0  0  0  0
    6.9419    6.5361   18.1425 N   0  0  0  0  0  0  0  0  0  0  0  0
    5.9078    4.0757   16.9123 N   0  0  0  0  0  0  0  0  0  0  0  0
    5.5905    2.7711   16.7588 C   0  0  0  0  0  0  0  0  0  0  0  0
    5.9895    2.0694   17.8691 N   0  0  0  0  0  0  0  0  0  0  0  0
  2  1  1  1  0  0  0
  2  3  1  0  0  0  0
  2  5  1  0  0  0  0
  3  4  1  0  0  0  0
  3 17  1  0  0  0  0
  5  6  1  0  0  0  0
  7  6  1  1  0  0  0
  7  8  1  0  0  0  0
  7  9  1  0  0  0  0
 10  9  1  1  0  0  0
 10 11  1  0  0  0  0
 10 12  1  0  0  0  0
 11 16  1  0  0  0  0
 12 13  1  6  0  0  0
 12 14  1  0  0  0  0
 14 15  1  1  0  0  0
 14 16  1  0  0  0  0
 16 27  1  6  0  0  0
 18 19  2  0  0  0  0
 18 23  1  0  0  0  0
 19 20  1  0  0  0  0
 20 21  2  0  0  0  0
 21 22  1  0  0  0  0
 21 27  1  0  0  0  0
 22 23  2  0  0  0  0
 22 25  1  0  0  0  0
 23 24  1  0  0  0  0
 25 26  2  0  0  0  0
 26 27  1  0  0  0  0
M  END
>  <CHROM.1>
-101.20093005,-59.53369413,174.00065113,163.13551291,-168.49959098,54.36283343
-12.98591075,8.28237657,1.46575226,19.56098864,-0.00653060,0.71200442,3.12151089

>  <Name>
ligand

>  <RI>
0

>  <Rbt.Current_Directory>
/home/itssahil/PROJECTS/Mol_Feturizer/Test_systems_manuscript/rnas/2ydh

>  <Rbt.Executable>
rbdock ($Id: //depot/dev/client3/rdock/2013.1/src/exe/rbdock.cxx#4 $)

>  <Rbt.Library>
libRbt.so (2013.1, Build901 2013/11/27)

>  <Rbt.Parameter_File>
/export/apps/rDock/src/rDock_2013.1_src/data/scripts/dock_solv.prm

>  <Rbt.Receptor>
prm/blind_docking_40.prm

>  <SCORE>
-12.5203

>  <SCORE.INTER>
-11.8844

>  <SCORE.INTER.CONST>
1

>  <SCORE.INTER.POLAR>
0

>  <SCORE.INTER.ROT>
7

>  <SCORE.INTER.SOLV>
9.86155

>  <SCORE.INTER.VDW>
-19.4768

>  <SCORE.INTER.norm>
-0.440163

>  <SCORE.INTRA>
-0.635951

>  <SCORE.INTRA.DIHEDRAL>
-5.18528

>  <SCORE.INTRA.DIHEDRAL.0>
9.75037

>  <SCORE.INTRA.POLAR>
0

>  <SCORE.INTRA.POLAR.0>
0

>  <SCORE.INTRA.REPUL>
0

>  <SCORE.INTRA.REPUL.0>
0

>  <SCORE.INTRA.SOLV>
-0.83315

>  <SCORE.INTRA.SOLV.lig_0>
-48.4279

>  <SCORE.INTRA.VDW>
2.37326

>  <SCORE.INTRA.VDW.0>
-4.69037

>  <SCORE.INTRA.norm>
-0.0235537

>  <SCORE.RESTR>
0

>  <SCORE.RESTR.CAVITY>
0

>  <SCORE.RESTR.norm>
0

>  <SCORE.SYSTEM>
0

>  <SCORE.SYSTEM.CONST>
0

>  <SCORE.SYSTEM.DIHEDRAL>
0

>  <SCORE.SYSTEM.SOLV>
0

>  <SCORE.SYSTEM.norm>
0

>  <SCORE.heavy>
27

>  <SCORE.norm>
-0.463716

>  <RMSD>
14.805

$$$$
ligand
 OpenBabel02271912153D
libRbt.so/2013.1/901 2013/11/27
 27 29  0  0  0  0  0  0  0  0999 V2000
    9.3950   -7.0890   24.7138 N   0  0  0  0  0  0  0  0  0  0  0  0
    9.6966   -7.6219   23.3493 C   0  0  2  0  0  0  0  0  0  0  0  0
   10.7424   -8.7571   23.4145 C   0  0  0  0  0  0  0  0  0  0  0  0
   11.7981   -8.6166   24.0395 O   0  0  0  0  0  0  0  0  0  0  0  0
   10.1475   -6.4785   22.4465 C   0  0  0  0  0  0  0  0  0  0  0  0
    9.0389   -5.5222   22.0396 C   0  0  0  0  0  0  0  0  0  0  0  0
    8.3416   -4.5947   23.4362 S   0  0  2  0  0  0  0  0  0  0  0  0
    6.7336   -5.4174   23.6181 C   0  0  0  0  0  0  0  0  0  0  0  0
    7.8708   -2.9803   22.7945 C   0  0  0  0  0  0  0  0  0  0  0  0
    9.1144   -2.2579   22.3127 C   0  0  1  0  0  0  0  0  0  0  0  0
    9.1433   -2.1059   20.9019 O   0  0  0  0  0  0  0  0  0  0  0  0
    9.2159   -0.8753   22.9093 C   0  0  1  0  0  0  0  0  0  0  0  0
    9.8204   -0.9140   24.1701 O   0  0  0  0  0  0  0  0  0  0  0  0
   10.0753   -0.1837   21.8953 C   0  0  1  0  0  0  0  0  0  0  0  0
   11.4365   -0.3964   22.2180 O   0  0  0  0  0  0  0  0  0  0  0  0
    9.7271   -0.8652   20.5782 C   0  0  2  0  0  0  0  0  0  0  0  0
   10.5748   -9.8502   22.8432 O   0  0  0  0  0  0  0  0  0  0  0  0
    7.9694    0.5178   15.7974 N   0  0  0  0  0  0  0  0  0  0  0  0
    8.9832   -0.3778   16.1051 C   0  0  0  0  0  0  0  0  0  0  0  0
    9.3401   -0.6251   17.4253 N   0  0  0  0  0  0  0  0  0  0  0  0
    8.6777    0.0010   18.4149 C   0  0  0  0  0  0  0  0  0  0  0  0
    7.6443    0.8941   18.1179 C   0  0  0  0  0  0  0  0  0  0  0  0
    7.2929    1.1658   16.8084 C   0  0  0  0  0  0  0  0  0  0  0  0
    6.3201    2.0212   16.5317 N   0  0  0  0  0  0  0  0  0  0  0  0
    7.1522    1.3591   19.2714 N   0  0  0  0  0  0  0  0  0  0  0  0
    7.8390    0.7869   20.2848 C   0  0  0  0  0  0  0  0  0  0  0  0
    8.7873   -0.0632   19.7723 N   0  0  0  0  0  0  0  0  0  0  0  0
  2  1  1  1  0  0  0
  2  3  1  0  0  0  0
  2  5  1  0  0  0  0
  3  4  1  0  0  0  0
  3 17  1  0  0  0  0
  5  6  1  0  0  0  0
  7  6  1  6  0  0  0
  7  8  1  0  0  0  0
  7  9  1  0  0  0  0
 10  9  1  6  0  0  0
 10 11  1  0  0  0  0
 10 12  1  0  0  0  0
 11 16  1  0  0  0  0
 12 13  1  1  0  0  0
 12 14  1  0  0  0  0
 14 15  1  1  0  0  0
 14 16  1  0  0  0  0
 16 27  1  1  0  0  0
 18 19  2  0  0  0  0
 18 23  1  0  0  0  0
 19 20  1  0  0  0  0
 20 21  2  0  0  0  0
 21 22  1  0  0  0  0
 21 27  1  0  0  0  0
 22 23  2  0  0  0  0
 22 25  1  0  0  0  0
 23 24  1  0  0  0  0
 25 26  2  0  0  0  0
 26 27  1  0  0  0  0
M  END
>  <CHROM.1>
-49.79253433,-72.01809358,65.24242659,-106.78705719,-63.19899399,111.50810562
-91.99589260,9.00616915,-2.74747112,21.18867825,-0.26721535,-1.37780086,0.69598666

>  <Name>
ligand

>  <RI>
0

>  <Rbt.Current_Directory>
/home/itssahil/PROJECTS/Mol_Feturizer/Test_systems_manuscript/rnas/2ydh

>  <Rbt.Executable>
rbdock ($Id: //depot/dev/client3/rdock/2013.1/src/exe/rbdock.cxx#4 $)

>  <Rbt.Library>
libRbt.so (2013.1, Build901 2013/11/27)

>  <Rbt.Parameter_File>
/export/apps/rDock/src/rDock_2013.1_src/data/scripts/dock_solv.prm

>  <Rbt.Receptor>
prm/blind_docking_40.prm

>  <SCORE>
-9.02829

>  <SCORE.INTER>
-12.8358

>  <SCORE.INTER.CONST>
1

>  <SCORE.INTER.POLAR>
0

>  <SCORE.INTER.ROT>
7

>  <SCORE.INTER.SOLV>
10.3346

>  <SCORE.INTER.VDW>
-20.2688

>  <SCORE.INTER.norm>
-0.475402

>  <SCORE.INTRA>
3.80755

>  <SCORE.INTRA.DIHEDRAL>
2.38163

>  <SCORE.INTRA.DIHEDRAL.0>
9.75037

>  <SCORE.INTRA.POLAR>
0

>  <SCORE.INTRA.POLAR.0>
0

>  <SCORE.INTRA.REPUL>
0

>  <SCORE.INTRA.REPUL.0>
0

>  <SCORE.INTRA.SOLV>
1.38507

>  <SCORE.INTRA.SOLV.lig_0>
-48.4279

>  <SCORE.INTRA.VDW>
1.9242

>  <SCORE.INTRA.VDW.0>
-4.69037

>  <SCORE.INTRA.norm>
0.141021

>  <SCORE.RESTR>
0

>  <SCORE.RESTR.CAVITY>
0

>  <SCORE.RESTR.norm>
0

>  <SCORE.SYSTEM>
0

>  <SCORE.SYSTEM.CONST>
0

>  <SCORE.SYSTEM.DIHEDRAL>
0

>  <SCORE.SYSTEM.SOLV>
0

>  <SCORE.SYSTEM.norm>
0

>  <SCORE.heavy>
27

>  <SCORE.norm>
-0.334381

>  <RMSD>
14.830

$$$$
ligand
 OpenBabel02271912153D
libRbt.so/2013.1/901 2013/11/27
 27 29  0  0  0  0  0  0  0  0999 V2000
   12.2680   -7.3745   23.0254 N   0  0  0  0  0  0  0  0  0  0  0  0
   10.9557   -7.7580   22.4190 C   0  0  2  0  0  0  0  0  0  0  0  0
   10.0417   -8.4429   23.4591 C   0  0  0  0  0  0  0  0  0  0  0  0
   10.4653   -9.3509   24.1808 O   0  0  0  0  0  0  0  0  0  0  0  0
   11.1992   -8.6415   21.2000 C   0  0  0  0  0  0  0  0  0  0  0  0
    9.9447   -9.0000   20.4210 C   0  0  0  0  0  0  0  0  0  0  0  0
   10.2642  -10.0978   19.0104 S   0  0  2  0  0  0  0  0  0  0  0  0
   11.0065   -8.9298   17.8355 C   0  0  0  0  0  0  0  0  0  0  0  0
    8.6670  -10.4347   18.2519 C   0  0  0  0  0  0  0  0  0  0  0  0
    8.8595  -11.4105   17.1068 C   0  0  1  0  0  0  0  0  0  0  0  0
    9.3447  -12.6712   17.5419 O   0  0  0  0  0  0  0  0  0  0  0  0
    7.5650  -11.6633   16.3732 C   0  0  1  0  0  0  0  0  0  0  0  0
    7.3385  -10.6847   15.3996 O   0  0  0  0  0  0  0  0  0  0  0  0
    7.8322  -13.0073   15.7672 C   0  0  1  0  0  0  0  0  0  0  0  0
    8.4771  -12.8341   14.5196 O   0  0  0  0  0  0  0  0  0  0  0  0
    8.7653  -13.6895   16.7592 C   0  0  2  0  0  0  0  0  0  0  0  0
    8.8495   -8.1198   23.6128 O   0  0  0  0  0  0  0  0  0  0  0  0
    7.7058  -15.3841   21.6443 N   0  0  0  0  0  0  0  0  0  0  0  0
    8.5258  -14.3302   21.2683 C   0  0  0  0  0  0  0  0  0  0  0  0
    8.7143  -14.0162   19.9276 N   0  0  0  0  0  0  0  0  0  0  0  0
    8.0759  -14.7356   18.9868 C   0  0  0  0  0  0  0  0  0  0  0  0
    7.2352  -15.7901   19.3540 C   0  0  0  0  0  0  0  0  0  0  0  0
    7.0550  -16.1271   20.6829 C   0  0  0  0  0  0  0  0  0  0  0  0
    6.2658  -17.1343   21.0253 N   0  0  0  0  0  0  0  0  0  0  0  0
    6.7226  -16.3209   18.2384 N   0  0  0  0  0  0  0  0  0  0  0  0
    7.2098  -15.6344   17.1814 C   0  0  0  0  0  0  0  0  0  0  0  0
    8.0483  -14.6429   17.6269 N   0  0  0  0  0  0  0  0  0  0  0  0
  2  1  1  1  0  0  0
  2  3  1  0  0  0  0
  2  5  1  0  0  0  0
  3  4  1  0  0  0  0
  3 17  1  0  0  0  0
  5  6  1  0  0  0  0
  7  6  1  1  0  0  0
  7  8  1  0  0  0  0
  7  9  1  0  0  0  0
 10  9  1  1  0  0  0
 10 11  1  0  0  0  0
 10 12  1  0  0  0  0
 11 16  1  0  0  0  0
 12 13  1  6  0  0  0
 12 14  1  0  0  0  0
 14 15  1  6  0  0  0
 14 16  1  0  0  0  0
 16 27  1  1  0  0  0
 18 19  2  0  0  0  0
 18 23  1  0  0  0  0
 19 20  1  0  0  0  0
 20 21  2  0  0  0  0
 21 22  1  0  0  0  0
 21 27  1  0  0  0  0
 22 23  2  0  0  0  0
 22 25  1  0  0  0  0
 23 24  1  0  0  0  0
 25 26  2  0  0  0  0
 26 27  1  0  0  0  0
M  END
>  <CHROM.1>
-47.92449706,-174.91429582,-178.04281888,-75.16357911,-177.00128581,63.37752998
-10.62529960,8.89290383,-11.96230016,19.33237199,0.37502039,1.15589142,1.74621638

>  <Name>
ligand

>  <RI>
0

>  <Rbt.Current_Directory>
/home/itssahil/PROJECTS/Mol_Feturizer/Test_systems_manuscript/rnas/2ydh

>  <Rbt.Executable>
rbdock ($Id: //depot/dev/client3/rdock/2013.1/src/exe/rbdock.cxx#4 $)

>  <Rbt.Library>
libRbt.so (2013.1, Build901 2013/11/27)

>  <Rbt.Parameter_File>
/export/apps/rDock/src/rDock_2013.1_src/data/scripts/dock_solv.prm

>  <Rbt.Receptor>
prm/blind_docking_80.prm

>  <SCORE>
-15.6932

>  <SCORE.INTER>
-14.0625

>  <SCORE.INTER.CONST>
1

>  <SCORE.INTER.POLAR>
0

>  <SCORE.INTER.ROT>
7

>  <SCORE.INTER.SOLV>
21.1791

>  <SCORE.INTER.VDW>
-24.7014

>  <SCORE.INTER.norm>
-0.520835

>  <SCORE.INTRA>
-1.71004

>  <SCORE.INTRA.DIHEDRAL>
-6.0739

>  <SCORE.INTRA.DIHEDRAL.0>
9.75037

>  <SCORE.INTRA.POLAR>
0

>  <SCORE.INTRA.POLAR.0>
0

>  <SCORE.INTRA.REPUL>
0

>  <SCORE.INTRA.REPUL.0>
0

>  <SCORE.INTRA.SOLV>
-1.54795

>  <SCORE.INTRA.SOLV.lig_0>
-48.4279

>  <SCORE.INTRA.VDW>
2.10088

>  <SCORE.INTRA.VDW.0>
-4.69037

>  <SCORE.INTRA.norm>
-0.0633349

>  <SCORE.RESTR>
0.0793933

>  <SCORE.RESTR.CAVITY>
0.0793933

>  <SCORE.RESTR.norm>
0.00294049

>  <SCORE.SYSTEM>
0

>  <SCORE.SYSTEM.CONST>
0

>  <SCORE.SYSTEM.DIHEDRAL>
0

>  <SCORE.SYSTEM.SOLV>
0

>  <SCORE.SYSTEM.norm>
0

>  <SCORE.heavy>
27

>  <SCORE.norm>
-0.581229

>  <RMSD>
15.049

$$$$
ligand
 OpenBabel02271912153D
libRbt.so/2013.1/901 2013/11/27
 27 29  0  0  0  0  0  0  0  0999 V2000
   13.2336   -8.4032   19.2354 N   0  0  0  0  0  0  0  0  0  0  0  0
   13.2153   -8.1840   20.7147 C   0  0  2  0  0  0  0  0  0  0  0  0
   12.2896   -9.2027   21.4162 C   0  0  0  0  0  0  0  0  0  0  0  0
   11.1830   -9.4869   20.9479 O   0  0  0  0  0  0  0  0  0  0  0  0
   12.8096   -6.7437   21.0091 C   0  0  0  0  0  0  0  0  0  0  0  0
   12.8709   -6.3594   22.4780 C   0  0  0  0  0  0  0  0  0  0  0  0
   11.2536   -5.9125   23.1718 S   0  0  2  0  0  0  0  0  0  0  0  0
   10.5099   -7.5555   23.3791 C   0  0  0  0  0  0  0  0  0  0  0  0
   10.2869   -5.2273   21.8168 C   0  0  0  0  0  0  0  0  0  0  0  0
    8.8642   -4.9991   22.2905 C   0  0  1  0  0  0  0  0  0  0  0  0
    8.7756   -3.9834   23.2778 O   0  0  0  0  0  0  0  0  0  0  0  0
    7.9621   -4.5898   21.1518 C   0  0  1  0  0  0  0  0  0  0  0  0
    7.4736   -5.7087   20.4692 O   0  0  0  0  0  0  0  0  0  0  0  0
    6.8778   -3.8628   21.8871 C   0  0  1  0  0  0  0  0  0  0  0  0
    5.8938   -4.7918   22.3006 O   0  0  0  0  0  0  0  0  0  0  0  0
    7.5813   -3.2586   23.0955 C   0  0  2  0  0  0  0  0  0  0  0  0
   12.6093   -9.7733   22.4752 O   0  0  0  0  0  0  0  0  0  0  0  0
    8.6737    0.6754   19.7505 N   0  0  0  0  0  0  0  0  0  0  0  0
    8.4249   -0.6552   19.4472 C   0  0  0  0  0  0  0  0  0  0  0  0
    8.1648   -1.5794   20.4520 N   0  0  0  0  0  0  0  0  0  0  0  0
    8.1365   -1.1688   21.7330 C   0  0  0  0  0  0  0  0  0  0  0  0
    8.3706    0.1722   22.0499 C   0  0  0  0  0  0  0  0  0  0  0  0
    8.6517    1.0983   21.0622 C   0  0  0  0  0  0  0  0  0  0  0  0
    8.8836    2.3659   21.3685 N   0  0  0  0  0  0  0  0  0  0  0  0
    8.2707    0.3096   23.3766 N   0  0  0  0  0  0  0  0  0  0  0  0
    7.9788   -0.8992   23.9055 C   0  0  0  0  0  0  0  0  0  0  0  0
    7.8868   -1.8288   22.8996 N   0  0  0  0  0  0  0  0  0  0  0  0
  2  1  1  6  0  0  0
  2  3  1  0  0  0  0
  2  5  1  0  0  0  0
  3  4  1  0  0  0  0
  3 17  1  0  0  0  0
  5  6  1  0  0  0  0
  7  6  1  6  0  0  0
  7  8  1  0  0  0  0
  7  9  1  0  0  0  0
 10  9  1  6  0  0  0
 10 11  1  0  0  0  0
 10 12  1  0  0  0  0
 11 16  1  0  0  0  0
 12 13  1  1  0  0  0
 12 14  1  0  0  0  0
 14 15  1  1  0  0  0
 14 16  1  0  0  0  0
 16 27  1  6  0  0  0
 18 19  2  0  0  0  0
 18 23  1  0  0  0  0
 19 20  1  0  0  0  0
 20 21  2  0  0  0  0
 21 22  1  0  0  0  0
 21 27  1  0  0  0  0
 22 23  2  0  0  0  0
 22 25  1  0  0  0  0
 23 24  1  0  0  0  0
 25 26  2  0  0  0  0
 26 27  1  0  0  0  0
M  END
>  <CHROM.1>
-43.05933487,-174.91848755,-116.97728319,76.63909917,172.78267635,66.89092229
89.47399280,9.62252595,-4.27985506,21.82409789,-1.06666157,0.38533501,-0.19241626

>  <Name>
ligand

>  <RI>
0

>  <Rbt.Current_Directory>
/home/itssahil/PROJECTS/Mol_Feturizer/Test_systems_manuscript/rnas/2ydh

>  <Rbt.Executable>
rbdock ($Id: //depot/dev/client3/rdock/2013.1/src/exe/rbdock.cxx#4 $)

>  <Rbt.Library>
libRbt.so (2013.1, Build901 2013/11/27)

>  <Rbt.Parameter_File>
/export/apps/rDock/src/rDock_2013.1_src/data/scripts/dock_solv.prm

>  <Rbt.Receptor>
prm/blind_docking_60.prm

>  <SCORE>
-12.307

>  <SCORE.INTER>
-14.3001

>  <SCORE.INTER.CONST>
1

>  <SCORE.INTER.POLAR>
0

>  <SCORE.INTER.ROT>
7

>  <SCORE.INTER.SOLV>
9.30734

>  <SCORE.INTER.VDW>
-20.9025

>  <SCORE.INTER.norm>
-0.529635

>  <SCORE.INTRA>
1.99314

>  <SCORE.INTRA.DIHEDRAL>
0.486901

>  <SCORE.INTRA.DIHEDRAL.0>
9.75037

>  <SCORE.INTRA.POLAR>
0

>  <SCORE.INTRA.POLAR.0>
0

>  <SCORE.INTRA.REPUL>
0

>  <SCORE.INTRA.REPUL.0>
0

>  <SCORE.INTRA.SOLV>
-1.4934

>  <SCORE.INTRA.SOLV.lig_0>
-48.4279

>  <SCORE.INTRA.VDW>
2.49639

>  <SCORE.INTRA.VDW.0>
-4.69037

>  <SCORE.INTRA.norm>
0.07382

>  <SCORE.RESTR>
0

>  <SCORE.RESTR.CAVITY>
0

>  <SCORE.RESTR.norm>
0

>  <SCORE.SYSTEM>
0

>  <SCORE.SYSTEM.CONST>
0

>  <SCORE.SYSTEM.DIHEDRAL>
0

>  <SCORE.SYSTEM.SOLV>
0

>  <SCORE.SYSTEM.norm>
0

>  <SCORE.heavy>
27

>  <SCORE.norm>
-0.455815

>  <RMSD>
15.056

$$$$
ligand
 OpenBabel02271912153D
libRbt.so/2013.1/901 2013/11/27
 27 29  0  0  0  0  0  0  0  0999 V2000
   15.5075   -7.1665   19.6224 N   0  0  0  0  0  0  0  0  0  0  0  0
   14.3620   -8.0698   19.9514 C   0  0  2  0  0  0  0  0  0  0  0  0
   13.9810   -8.9484   18.7391 C   0  0  0  0  0  0  0  0  0  0  0  0
   14.7412   -9.0672   17.7734 O   0  0  0  0  0  0  0  0  0  0  0  0
   13.1851   -7.2364   20.4475 C   0  0  0  0  0  0  0  0  0  0  0  0
   13.4879   -6.3815   21.6667 C   0  0  0  0  0  0  0  0  0  0  0  0
   12.0971   -6.2689   22.8285 S   0  0  2  0  0  0  0  0  0  0  0  0
   12.0561   -7.9663   23.4710 C   0  0  0  0  0  0  0  0  0  0  0  0
   10.6004   -6.2051   21.8307 C   0  0  0  0  0  0  0  0  0  0  0  0
    9.4418   -5.7647   22.7050 C   0  0  1  0  0  0  0  0  0  0  0  0
    9.5820   -4.4283   23.1617 O   0  0  0  0  0  0  0  0  0  0  0  0
    8.1295   -5.8440   21.9638 C   0  0  1  0  0  0  0  0  0  0  0  0
    7.5902   -7.1329   22.0313 O   0  0  0  0  0  0  0  0  0  0  0  0
    7.3058   -4.8499   22.7241 C   0  0  1  0  0  0  0  0  0  0  0  0
    6.6956   -5.4973   23.8244 O   0  0  0  0  0  0  0  0  0  0  0  0
    8.3143   -3.8153   23.2069 C   0  0  2  0  0  0  0  0  0  0  0  0
   12.9017   -9.5654   18.6772 O   0  0  0  0  0  0  0  0  0  0  0  0
    7.9767    1.4438   22.9122 N   0  0  0  0  0  0  0  0  0  0  0  0
    7.9300    0.6504   24.0493 C   0  0  0  0  0  0  0  0  0  0  0  0
    8.0193   -0.7335   23.9577 N   0  0  0  0  0  0  0  0  0  0  0  0
    8.1718   -1.3049   22.7492 C   0  0  0  0  0  0  0  0  0  0  0  0
    8.2355   -0.5151   21.5978 C   0  0  0  0  0  0  0  0  0  0  0  0
    8.1267    0.8613   21.6720 C   0  0  0  0  0  0  0  0  0  0  0  0
    8.1766    1.6048   20.5769 N   0  0  0  0  0  0  0  0  0  0  0  0
    8.4018   -1.3252   20.5466 N   0  0  0  0  0  0  0  0  0  0  0  0
    8.4478   -2.5983   20.9975 C   0  0  0  0  0  0  0  0  0  0  0  0
    8.3115   -2.6051   22.3634 N   0  0  0  0  0  0  0  0  0  0  0  0
  2  1  1  6  0  0  0
  2  3  1  0  0  0  0
  2  5  1  0  0  0  0
  3  4  1  0  0  0  0
  3 17  1  0  0  0  0
  5  6  1  0  0  0  0
  7  6  1  6  0  0  0
  7  8  1  0  0  0  0
  7  9  1  0  0  0  0
 10  9  1  6  0  0  0
 10 11  1  0  0  0  0
 10 12  1  0  0  0  0
 11 16  1  0  0  0  0
 12 13  1  1  0  0  0
 12 14  1  0  0  0  0
 14 15  1  1  0  0  0
 14 16  1  0  0  0  0
 16 27  1  6  0  0  0
 18 19  2  0  0  0  0
 18 23  1  0  0  0  0
 19 20  1  0  0  0  0
 20 21  2  0  0  0  0
 21 22  1  0  0  0  0
 21 27  1  0  0  0  0
 22 23  2  0  0  0  0
 22 25  1  0  0  0  0
 23 24  1  0  0  0  0
 25 26  2  0  0  0  0
 26 27  1  0  0  0  0
M  END
>  <CHROM.1>
15.06692463,-58.06896267,-143.18840092,69.22370889,-165.94444266,66.21421259
-114.43170305,10.20654831,-4.62184456,21.74344588,-0.77558567,0.61783085
-0.21528862

>  <Name>
ligand

>  <RI>
0

>  <Rbt.Current_Directory>
/home/itssahil/PROJECTS/Mol_Feturizer/Test_systems_manuscript/rnas/2ydh

>  <Rbt.Executable>
rbdock ($Id: //depot/dev/client3/rdock/2013.1/src/exe/rbdock.cxx#4 $)

>  <Rbt.Library>
libRbt.so (2013.1, Build901 2013/11/27)

>  <Rbt.Parameter_File>
/export/apps/rDock/src/rDock_2013.1_src/data/scripts/dock_solv.prm

>  <Rbt.Receptor>
prm/blind_docking_100.prm

>  <SCORE>
-13.2171

>  <SCORE.INTER>
-15.4286

>  <SCORE.INTER.CONST>
1

>  <SCORE.INTER.POLAR>
0

>  <SCORE.INTER.ROT>
7

>  <SCORE.INTER.SOLV>
10.9688

>  <SCORE.INTER.VDW>
-22.2087

>  <SCORE.INTER.norm>
-0.57143

>  <SCORE.INTRA>
2.21148

>  <SCORE.INTRA.DIHEDRAL>
-0.841168

>  <SCORE.INTRA.DIHEDRAL.0>
9.75037

>  <SCORE.INTRA.POLAR>
0

>  <SCORE.INTRA.POLAR.0>
0

>  <SCORE.INTRA.REPUL>
0

>  <SCORE.INTRA.REPUL.0>
0

>  <SCORE.INTRA.SOLV>
-0.861375

>  <SCORE.INTRA.SOLV.lig_0>
-48.4279

>  <SCORE.INTRA.VDW>
3.06275

>  <SCORE.INTRA.VDW.0>
-4.69037

>  <SCORE.INTRA.norm>
0.0819068

>  <SCORE.RESTR>
0

>  <SCORE.RESTR.CAVITY>
0

>  <SCORE.RESTR.norm>
0

>  <SCORE.SYSTEM>
0

>  <SCORE.SYSTEM.CONST>
0

>  <SCORE.SYSTEM.DIHEDRAL>
0

>  <SCORE.SYSTEM.SOLV>
0

>  <SCORE.SYSTEM.norm>
0

>  <SCORE.heavy>
27

>  <SCORE.norm>
-0.489523

>  <RMSD>
15.059

$$$$
ligand
 OpenBabel02271912153D
libRbt.so/2013.1/901 2013/11/27
 27 29  0  0  0  0  0  0  0  0999 V2000
   14.5076   -9.1541   20.1362 N   0  0  0  0  0  0  0  0  0  0  0  0
   13.1788   -8.4960   20.3303 C   0  0  2  0  0  0  0  0  0  0  0  0
   12.1604   -8.9773   19.2730 C   0  0  0  0  0  0  0  0  0  0  0  0
   10.9459   -8.9362   19.4920 O   0  0  0  0  0  0  0  0  0  0  0  0
   13.3549   -6.9813   20.3084 C   0  0  0  0  0  0  0  0  0  0  0  0
   13.6964   -6.3671   21.6557 C   0  0  0  0  0  0  0  0  0  0  0  0
   12.2801   -6.2888   22.7893 S   0  0  2  0  0  0  0  0  0  0  0  0
   12.2444   -7.9971   23.4026 C   0  0  0  0  0  0  0  0  0  0  0  0
   10.8042   -6.2245   21.7609 C   0  0  0  0  0  0  0  0  0  0  0  0
    9.6088   -5.8898   22.6323 C   0  0  1  0  0  0  0  0  0  0  0  0
    9.6245   -4.5446   23.0845 O   0  0  0  0  0  0  0  0  0  0  0  0
    8.3104   -6.0923   21.8900 C   0  0  1  0  0  0  0  0  0  0  0  0
    7.8921   -7.4252   21.9615 O   0  0  0  0  0  0  0  0  0  0  0  0
    7.3975   -5.1757   22.6459 C   0  0  1  0  0  0  0  0  0  0  0  0
    6.8480   -5.8729   23.7478 O   0  0  0  0  0  0  0  0  0  0  0  0
    8.3056   -4.0509   23.1261 C   0  0  2  0  0  0  0  0  0  0  0  0
   12.5118   -9.4284   18.1674 O   0  0  0  0  0  0  0  0  0  0  0  0
    8.0415    1.2117   22.8206 N   0  0  0  0  0  0  0  0  0  0  0  0
    8.1629    0.4305   23.9606 C   0  0  0  0  0  0  0  0  0  0  0  0
    8.2053   -0.9560   23.8740 N   0  0  0  0  0  0  0  0  0  0  0  0
    8.1464   -1.5423   22.6645 C   0  0  0  0  0  0  0  0  0  0  0  0
    8.0393   -0.7651   21.5077 C   0  0  0  0  0  0  0  0  0  0  0  0
    7.9746    0.6141   21.5804 C   0  0  0  0  0  0  0  0  0  0  0  0
    7.8622    1.3459   20.4820 N   0  0  0  0  0  0  0  0  0  0  0  0
    8.0142   -1.5889   20.4542 N   0  0  0  0  0  0  0  0  0  0  0  0
    8.1047   -2.8584   20.9085 C   0  0  0  0  0  0  0  0  0  0  0  0
    8.1925   -2.8490   22.2784 N   0  0  0  0  0  0  0  0  0  0  0  0
  2  1  1  6  0  0  0
  2  3  1  0  0  0  0
  2  5  1  0  0  0  0
  3  4  1  0  0  0  0
  3 17  1  0  0  0  0
  5  6  1  0  0  0  0
  7  6  1  6  0  0  0
  7  8  1  0  0  0  0
  7  9  1  0  0  0  0
 10  9  1  6  0  0  0
 10 11  1  0  0  0  0
 10 12  1  0  0  0  0
 11 16  1  0  0  0  0
 12 13  1  1  0  0  0
 12 14  1  0  0  0  0
 14 15  1  1  0  0  0
 14 16  1  0  0  0  0
 16 27  1  6  0  0  0
 18 19  2  0  0  0  0
 18 23  1  0  0  0  0
 19 20  1  0  0  0  0
 20 21  2  0  0  0  0
 21 22  1  0  0  0  0
 21 27  1  0  0  0  0
 22 23  2  0  0  0  0
 22 25  1  0  0  0  0
 23 24  1  0  0  0  0
 25 26  2  0  0  0  0
 26 27  1  0  0  0  0
M  END
>  <CHROM.1>
155.29611937,-87.01662655,-74.71395860,79.86909922,-169.18712578,71.14247668
-102.89991777,9.94623414,-4.83561814,21.77764445,-0.94396079,0.52357343,-0.12025830

>  <Name>
ligand

>  <RI>
0

>  <Rbt.Current_Directory>
/home/itssahil/PROJECTS/Mol_Feturizer/Test_systems_manuscript/rnas/2ydh

>  <Rbt.Executable>
rbdock ($Id: //depot/dev/client3/rdock/2013.1/src/exe/rbdock.cxx#4 $)

>  <Rbt.Library>
libRbt.so (2013.1, Build901 2013/11/27)

>  <Rbt.Parameter_File>
/export/apps/rDock/src/rDock_2013.1_src/data/scripts/dock_solv.prm

>  <Rbt.Receptor>
prm/blind_docking_80.prm

>  <SCORE>
-13.3508

>  <SCORE.INTER>
-15.3591

>  <SCORE.INTER.CONST>
1

>  <SCORE.INTER.POLAR>
0

>  <SCORE.INTER.ROT>
7

>  <SCORE.INTER.SOLV>
11.3391

>  <SCORE.INTER.VDW>
-22.2858

>  <SCORE.INTER.norm>
-0.568857

>  <SCORE.INTRA>
2.00837

>  <SCORE.INTRA.DIHEDRAL>
-0.217701

>  <SCORE.INTRA.DIHEDRAL.0>
9.75037

>  <SCORE.INTRA.POLAR>
0

>  <SCORE.INTRA.POLAR.0>
0

>  <SCORE.INTRA.REPUL>
0

>  <SCORE.INTRA.REPUL.0>
0

>  <SCORE.INTRA.SOLV>
-0.46476

>  <SCORE.INTRA.SOLV.lig_0>
-48.4279

>  <SCORE.INTRA.VDW>
2.3496

>  <SCORE.INTRA.VDW.0>
-4.69037

>  <SCORE.INTRA.norm>
0.074384

>  <SCORE.RESTR>
0

>  <SCORE.RESTR.CAVITY>
0

>  <SCORE.RESTR.norm>
0

>  <SCORE.SYSTEM>
0

>  <SCORE.SYSTEM.CONST>
0

>  <SCORE.SYSTEM.DIHEDRAL>
0

>  <SCORE.SYSTEM.SOLV>
0

>  <SCORE.SYSTEM.norm>
0

>  <SCORE.heavy>
27

>  <SCORE.norm>
-0.494473

>  <RMSD>
15.077

$$$$
ligand
 OpenBabel02271912153D
libRbt.so/2013.1/901 2013/11/27
 27 29  0  0  0  0  0  0  0  0999 V2000
    7.0345   -2.9473   17.9128 N   0  0  0  0  0  0  0  0  0  0  0  0
    7.3259   -4.1682   18.7258 C   0  0  2  0  0  0  0  0  0  0  0  0
    7.4875   -5.4116   17.8232 C   0  0  0  0  0  0  0  0  0  0  0  0
    7.5444   -6.5468   18.3055 O   0  0  0  0  0  0  0  0  0  0  0  0
    6.2297   -4.3563   19.7692 C   0  0  0  0  0  0  0  0  0  0  0  0
    6.2588   -3.3449   20.9030 C   0  0  0  0  0  0  0  0  0  0  0  0
    7.6231   -3.6137   22.0706 S   0  0  2  0  0  0  0  0  0  0  0  0
    6.8097   -4.6710   23.3020 C   0  0  0  0  0  0  0  0  0  0  0  0
    7.8340   -2.0719   22.9752 C   0  0  0  0  0  0  0  0  0  0  0  0
    9.1983   -1.4926   22.6533 C   0  0  1  0  0  0  0  0  0  0  0  0
    9.3622   -1.2225   21.2697 O   0  0  0  0  0  0  0  0  0  0  0  0
    9.4351   -0.1961   23.3888 C   0  0  1  0  0  0  0  0  0  0  0  0
    9.9242   -0.4307   24.6782 O   0  0  0  0  0  0  0  0  0  0  0  0
   10.4592    0.4539   22.5092 C   0  0  1  0  0  0  0  0  0  0  0  0
   11.7488    0.0238   22.9020 O   0  0  0  0  0  0  0  0  0  0  0  0
   10.1314   -0.0529   21.1107 C   0  0  2  0  0  0  0  0  0  0  0  0
    7.5725   -5.3281   16.5842 O   0  0  0  0  0  0  0  0  0  0  0  0
    9.6174    4.9549   19.5245 N   0  0  0  0  0  0  0  0  0  0  0  0
   10.5959    4.4198   20.3496 C   0  0  0  0  0  0  0  0  0  0  0  0
   10.5844    3.0719   20.6883 N   0  0  0  0  0  0  0  0  0  0  0  0
    9.6199    2.2763   20.1915 C   0  0  0  0  0  0  0  0  0  0  0  0
    8.6375    2.8009   19.3469 C   0  0  0  0  0  0  0  0  0  0  0  0
    8.6243    4.1440   19.0187 C   0  0  0  0  0  0  0  0  0  0  0  0
    7.6847    4.6386   18.2267 N   0  0  0  0  0  0  0  0  0  0  0  0
    7.8205    1.8038   18.9899 N   0  0  0  0  0  0  0  0  0  0  0  0
    8.2570    0.6686   19.5788 C   0  0  0  0  0  0  0  0  0  0  0  0
    9.3764    0.9415   20.3252 N   0  0  0  0  0  0  0  0  0  0  0  0
  2  1  1  6  0  0  0
  2  3  1  0  0  0  0
  2  5  1  0  0  0  0
  3  4  1  0  0  0  0
  3 17  1  0  0  0  0
  5  6  1  0  0  0  0
  7  6  1  6  0  0  0
  7  8  1  0  0  0  0
  7  9  1  0  0  0  0
 10  9  1  6  0  0  0
 10 11  1  0  0  0  0
 10 12  1  0  0  0  0
 11 16  1  0  0  0  0
 12 13  1  1  0  0  0
 12 14  1  0  0  0  0
 14 15  1  1  0  0  0
 14 16  1  0  0  0  0
 16 27  1  6  0  0  0
 18 19  2  0  0  0  0
 18 23  1  0  0  0  0
 19 20  1  0  0  0  0
 20 21  2  0  0  0  0
 21 22  1  0  0  0  0
 21 27  1  0  0  0  0
 22 23  2  0  0  0  0
 22 25  1  0  0  0  0
 23 24  1  0  0  0  0
 25 26  2  0  0  0  0
 26 27  1  0  0  0  0
M  END
>  <CHROM.1>
-169.70924158,-71.52881612,-72.88582932,-92.31052710,-115.49583887,59.86354326
164.41466758,8.57007404,-0.84231601,20.59225435,2.37248997,1.16509431,2.45272186

>  <Name>
ligand

>  <RI>
0

>  <Rbt.Current_Directory>
/home/itssahil/PROJECTS/Mol_Feturizer/Test_systems_manuscript/rnas/2ydh

>  <Rbt.Executable>
rbdock ($Id: //depot/dev/client3/rdock/2013.1/src/exe/rbdock.cxx#4 $)

>  <Rbt.Library>
libRbt.so (2013.1, Build901 2013/11/27)

>  <Rbt.Parameter_File>
/export/apps/rDock/src/rDock_2013.1_src/data/scripts/dock_solv.prm

>  <Rbt.Receptor>
prm/blind_docking_80.prm

>  <SCORE>
-9.45869

>  <SCORE.INTER>
-11.1902

>  <SCORE.INTER.CONST>
1

>  <SCORE.INTER.POLAR>
0

>  <SCORE.INTER.ROT>
7

>  <SCORE.INTER.SOLV>
10.6098

>  <SCORE.INTER.VDW>
-19.2634

>  <SCORE.INTER.norm>
-0.414452

>  <SCORE.INTRA>
1.73152

>  <SCORE.INTRA.DIHEDRAL>
0.140554

>  <SCORE.INTRA.DIHEDRAL.0>
9.75037

>  <SCORE.INTRA.POLAR>
0

>  <SCORE.INTRA.POLAR.0>
0

>  <SCORE.INTRA.REPUL>
0

>  <SCORE.INTRA.REPUL.0>
0

>  <SCORE.INTRA.SOLV>
-0.624814

>  <SCORE.INTRA.SOLV.lig_0>
-48.4279

>  <SCORE.INTRA.VDW>
1.97365

>  <SCORE.INTRA.VDW.0>
-4.69037

>  <SCORE.INTRA.norm>
0.0641305

>  <SCORE.RESTR>
0

>  <SCORE.RESTR.CAVITY>
0

>  <SCORE.RESTR.norm>
0

>  <SCORE.SYSTEM>
0

>  <SCORE.SYSTEM.CONST>
0

>  <SCORE.SYSTEM.DIHEDRAL>
0

>  <SCORE.SYSTEM.SOLV>
0

>  <SCORE.SYSTEM.norm>
0

>  <SCORE.heavy>
27

>  <SCORE.norm>
-0.350322

>  <RMSD>
15.111

$$$$
ligand
 OpenBabel02271912153D
libRbt.so/2013.1/901 2013/11/27
 27 29  0  0  0  0  0  0  0  0999 V2000
    7.7205    2.9732   15.1277 N   0  0  0  0  0  0  0  0  0  0  0  0
    7.5237    1.5291   14.7925 C   0  0  2  0  0  0  0  0  0  0  0  0
    7.3846    1.3264   13.2674 C   0  0  0  0  0  0  0  0  0  0  0  0
    8.2949    0.8182   12.6058 O   0  0  0  0  0  0  0  0  0  0  0  0
    6.3171    0.9915   15.5545 C   0  0  0  0  0  0  0  0  0  0  0  0
    6.4716    0.9996   17.0662 C   0  0  0  0  0  0  0  0  0  0  0  0
    7.8306   -0.0507   17.6551 S   0  0  2  0  0  0  0  0  0  0  0  0
    7.3226   -1.6626   16.9923 C   0  0  0  0  0  0  0  0  0  0  0  0
    7.5777   -0.2714   19.4235 C   0  0  0  0  0  0  0  0  0  0  0  0
    8.5302   -1.3378   19.9298 C   0  0  1  0  0  0  0  0  0  0  0  0
    9.7804   -0.8026   20.3356 O   0  0  0  0  0  0  0  0  0  0  0  0
    7.9563   -2.0720   21.1170 C   0  0  1  0  0  0  0  0  0  0  0  0
    7.1239   -3.1189   20.7074 O   0  0  0  0  0  0  0  0  0  0  0  0
    9.2035   -2.5723   21.7797 C   0  0  1  0  0  0  0  0  0  0  0  0
    9.5622   -3.8184   21.2134 O   0  0  0  0  0  0  0  0  0  0  0  0
   10.2528   -1.5172   21.4542 C   0  0  2  0  0  0  0  0  0  0  0  0
    6.3640    1.6664   12.6411 O   0  0  0  0  0  0  0  0  0  0  0  0
   12.6023    2.8413   23.2824 N   0  0  0  0  0  0  0  0  0  0  0  0
   12.6880    2.2989   22.0083 C   0  0  0  0  0  0  0  0  0  0  0  0
   12.0140    1.1272   21.6851 N   0  0  0  0  0  0  0  0  0  0  0  0
   11.2548    0.5253   22.6186 C   0  0  0  0  0  0  0  0  0  0  0  0
   11.1486    1.0705   23.9012 C   0  0  0  0  0  0  0  0  0  0  0  0
   11.8304    2.2238   24.2430 C   0  0  0  0  0  0  0  0  0  0  0  0
   11.7353    2.7307   25.4631 N   0  0  0  0  0  0  0  0  0  0  0  0
   10.3311    0.2913   24.6179 N   0  0  0  0  0  0  0  0  0  0  0  0
    9.9168   -0.7246   23.8289 C   0  0  0  0  0  0  0  0  0  0  0  0
   10.4763   -0.5933   22.5822 N   0  0  0  0  0  0  0  0  0  0  0  0
  2  1  1  6  0  0  0
  2  3  1  0  0  0  0
  2  5  1  0  0  0  0
  3  4  1  0  0  0  0
  3 17  1  0  0  0  0
  5  6  1  0  0  0  0
  7  6  1  6  0  0  0
  7  8  1  0  0  0  0
  7  9  1  0  0  0  0
 10  9  1  1  0  0  0
 10 11  1  0  0  0  0
 10 12  1  0  0  0  0
 11 16  1  0  0  0  0
 12 13  1  6  0  0  0
 12 14  1  0  0  0  0
 14 15  1  6  0  0  0
 14 16  1  0  0  0  0
 16 27  1  1  0  0  0
 18 19  2  0  0  0  0
 18 23  1  0  0  0  0
 19 20  1  0  0  0  0
 20 21  2  0  0  0  0
 21 22  1  0  0  0  0
 21 27  1  0  0  0  0
 22 23  2  0  0  0  0
 22 25  1  0  0  0  0
 23 24  1  0  0  0  0
 25 26  2  0  0  0  0
 26 27  1  0  0  0  0
M  END
>  <CHROM.1>
107.08058682,-63.76029769,-62.15720445,-58.61763311,169.87225688,89.07837814
-55.76544042,9.09596367,0.12207300,19.62398355,-2.36242020,0.96804035,2.30980902

>  <Name>
ligand

>  <RI>
0

>  <Rbt.Current_Directory>
/home/itssahil/PROJECTS/Mol_Feturizer/Test_systems_manuscript/rnas/2ydh

>  <Rbt.Executable>
rbdock ($Id: //depot/dev/client3/rdock/2013.1/src/exe/rbdock.cxx#4 $)

>  <Rbt.Library>
libRbt.so (2013.1, Build901 2013/11/27)

>  <Rbt.Parameter_File>
/export/apps/rDock/src/rDock_2013.1_src/data/scripts/dock_solv.prm

>  <Rbt.Receptor>
prm/blind_docking_40.prm

>  <SCORE>
-15.2293

>  <SCORE.INTER>
-16.2243

>  <SCORE.INTER.CONST>
1

>  <SCORE.INTER.POLAR>
0

>  <SCORE.INTER.ROT>
7

>  <SCORE.INTER.SOLV>
8.48687

>  <SCORE.INTER.VDW>
-21.9118

>  <SCORE.INTER.norm>
-0.600899

>  <SCORE.INTRA>
0.994996

>  <SCORE.INTRA.DIHEDRAL>
-3.92828

>  <SCORE.INTRA.DIHEDRAL.0>
9.75037

>  <SCORE.INTRA.POLAR>
0

>  <SCORE.INTRA.POLAR.0>
0

>  <SCORE.INTRA.REPUL>
0

>  <SCORE.INTRA.REPUL.0>
0

>  <SCORE.INTRA.SOLV>
-0.274142

>  <SCORE.INTRA.SOLV.lig_0>
-48.4279

>  <SCORE.INTRA.VDW>
3.09621

>  <SCORE.INTRA.VDW.0>
-4.69037

>  <SCORE.INTRA.norm>
0.0368517

>  <SCORE.RESTR>
0

>  <SCORE.RESTR.CAVITY>
0

>  <SCORE.RESTR.norm>
0

>  <SCORE.SYSTEM>
0

>  <SCORE.SYSTEM.CONST>
0

>  <SCORE.SYSTEM.DIHEDRAL>
0

>  <SCORE.SYSTEM.SOLV>
0

>  <SCORE.SYSTEM.norm>
0

>  <SCORE.heavy>
27

>  <SCORE.norm>
-0.564047

>  <RMSD>
15.119

$$$$
ligand
 OpenBabel02271912153D
libRbt.so/2013.1/901 2013/11/27
 27 29  0  0  0  0  0  0  0  0999 V2000
    8.5679   -7.6594   25.4187 N   0  0  0  0  0  0  0  0  0  0  0  0
    8.0687   -6.2783   25.7017 C   0  0  2  0  0  0  0  0  0  0  0  0
    6.7762   -6.3168   26.5469 C   0  0  0  0  0  0  0  0  0  0  0  0
    6.2790   -5.2811   26.9996 O   0  0  0  0  0  0  0  0  0  0  0  0
    7.8717   -5.5309   24.3871 C   0  0  0  0  0  0  0  0  0  0  0  0
    9.1216   -5.4242   23.5294 C   0  0  0  0  0  0  0  0  0  0  0  0
    8.8720   -4.4568   22.0132 S   0  0  2  0  0  0  0  0  0  0  0  0
    8.4752   -2.8294   22.7131 C   0  0  0  0  0  0  0  0  0  0  0  0
    7.2879   -4.9727   21.3317 C   0  0  0  0  0  0  0  0  0  0  0  0
    7.1292   -4.3784   19.9453 C   0  0  1  0  0  0  0  0  0  0  0  0
    8.0015   -4.9715   18.9958 O   0  0  0  0  0  0  0  0  0  0  0  0
    5.7231   -4.5558   19.4263 C   0  0  1  0  0  0  0  0  0  0  0  0
    4.8864   -3.5298   19.8779 O   0  0  0  0  0  0  0  0  0  0  0  0
    5.9487   -4.4863   17.9466 C   0  0  1  0  0  0  0  0  0  0  0  0
    5.9046   -3.1337   17.5333 O   0  0  0  0  0  0  0  0  0  0  0  0
    7.3470   -5.0579   17.7512 C   0  0  2  0  0  0  0  0  0  0  0  0
    6.1859   -7.3800   26.8125 O   0  0  0  0  0  0  0  0  0  0  0  0
    5.5275   -9.9590   18.4773 N   0  0  0  0  0  0  0  0  0  0  0  0
    5.2557   -8.8293   19.2353 C   0  0  0  0  0  0  0  0  0  0  0  0
    5.8294   -7.6035   18.9196 N   0  0  0  0  0  0  0  0  0  0  0  0
    6.6439   -7.5129   17.8525 C   0  0  0  0  0  0  0  0  0  0  0  0
    6.9132   -8.6409   17.0723 C   0  0  0  0  0  0  0  0  0  0  0  0
    6.3663   -9.8712   17.3871 C   0  0  0  0  0  0  0  0  0  0  0  0
    6.6333  -10.9396   16.6510 N   0  0  0  0  0  0  0  0  0  0  0  0
    7.7303   -8.2739   16.0789 N   0  0  0  0  0  0  0  0  0  0  0  0
    7.9822   -6.9523   16.2057 C   0  0  0  0  0  0  0  0  0  0  0  0
    7.3122   -6.4615   17.2987 N   0  0  0  0  0  0  0  0  0  0  0  0
  2  1  1  6  0  0  0
  2  3  1  0  0  0  0
  2  5  1  0  0  0  0
  3  4  1  0  0  0  0
  3 17  1  0  0  0  0
  5  6  1  0  0  0  0
  7  6  1  1  0  0  0
  7  8  1  0  0  0  0
  7  9  1  0  0  0  0
 10  9  1  1  0  0  0
 10 11  1  0  0  0  0
 10 12  1  0  0  0  0
 11 16  1  0  0  0  0
 12 13  1  1  0  0  0
 12 14  1  0  0  0  0
 14 15  1  1  0  0  0
 14 16  1  0  0  0  0
 16 27  1  1  0  0  0
 18 19  2  0  0  0  0
 18 23  1  0  0  0  0
 19 20  1  0  0  0  0
 20 21  2  0  0  0  0
 21 22  1  0  0  0  0
 21 27  1  0  0  0  0
 22 23  2  0  0  0  0
 22 25  1  0  0  0  0
 23 24  1  0  0  0  0
 25 26  2  0  0  0  0
 26 27  1  0  0  0  0
M  END
>  <CHROM.1>
172.71332577,-58.03179558,-177.06802818,63.13033929,-170.41413075,70.40296183
66.40670954,7.07114521,-6.17557196,20.61455725,0.74227729,1.42810468,2.16554748

>  <Name>
ligand

>  <RI>
0

>  <Rbt.Current_Directory>
/home/itssahil/PROJECTS/Mol_Feturizer/Test_systems_manuscript/rnas/2ydh

>  <Rbt.Executable>
rbdock ($Id: //depot/dev/client3/rdock/2013.1/src/exe/rbdock.cxx#4 $)

>  <Rbt.Library>
libRbt.so (2013.1, Build901 2013/11/27)

>  <Rbt.Parameter_File>
/export/apps/rDock/src/rDock_2013.1_src/data/scripts/dock_solv.prm

>  <Rbt.Receptor>
prm/blind_docking_80.prm

>  <SCORE>
-7.76585

>  <SCORE.INTER>
-7.1594

>  <SCORE.INTER.CONST>
1

>  <SCORE.INTER.POLAR>
0

>  <SCORE.INTER.ROT>
7

>  <SCORE.INTER.SOLV>
12.353

>  <SCORE.INTER.VDW>
-17.1573

>  <SCORE.INTER.norm>
-0.265163

>  <SCORE.INTRA>
-0.606443

>  <SCORE.INTRA.DIHEDRAL>
-5.18907

>  <SCORE.INTRA.DIHEDRAL.0>
9.75037

>  <SCORE.INTRA.POLAR>
0

>  <SCORE.INTRA.POLAR.0>
0

>  <SCORE.INTRA.REPUL>
0

>  <SCORE.INTRA.REPUL.0>
0

>  <SCORE.INTRA.SOLV>
-0.815773

>  <SCORE.INTRA.SOLV.lig_0>
-48.4279

>  <SCORE.INTRA.VDW>
2.39598

>  <SCORE.INTRA.VDW.0>
-4.69037

>  <SCORE.INTRA.norm>
-0.0224609

>  <SCORE.RESTR>
0

>  <SCORE.RESTR.CAVITY>
0

>  <SCORE.RESTR.norm>
0

>  <SCORE.SYSTEM>
0

>  <SCORE.SYSTEM.CONST>
0

>  <SCORE.SYSTEM.DIHEDRAL>
0

>  <SCORE.SYSTEM.SOLV>
0

>  <SCORE.SYSTEM.norm>
0

>  <SCORE.heavy>
27

>  <SCORE.norm>
-0.287624

>  <RMSD>
15.145

$$$$
ligand
 OpenBabel02271912153D
libRbt.so/2013.1/901 2013/11/27
 27 29  0  0  0  0  0  0  0  0999 V2000
    8.7716   -0.2886   19.2955 N   0  0  0  0  0  0  0  0  0  0  0  0
    8.3071   -0.7365   20.6446 C   0  0  2  0  0  0  0  0  0  0  0  0
    9.4048   -0.5214   21.7101 C   0  0  0  0  0  0  0  0  0  0  0  0
    9.1144   -0.2566   22.8807 O   0  0  0  0  0  0  0  0  0  0  0  0
    7.8590   -2.1922   20.5693 C   0  0  0  0  0  0  0  0  0  0  0  0
    7.0653   -2.6704   21.7737 C   0  0  0  0  0  0  0  0  0  0  0  0
    7.0973   -4.4735   21.9853 S   0  0  2  0  0  0  0  0  0  0  0  0
    5.8503   -4.6823   23.2880 C   0  0  0  0  0  0  0  0  0  0  0  0
    8.6241   -4.8597   22.8569 C   0  0  0  0  0  0  0  0  0  0  0  0
    8.6109   -6.3240   23.2521 C   0  0  1  0  0  0  0  0  0  0  0  0
    8.7168   -7.1906   22.1332 O   0  0  0  0  0  0  0  0  0  0  0  0
    9.7546   -6.6560   24.1792 C   0  0  1  0  0  0  0  0  0  0  0  0
    9.4234   -6.3736   25.5086 O   0  0  0  0  0  0  0  0  0  0  0  0
    9.9062   -8.1270   23.9383 C   0  0  1  0  0  0  0  0  0  0  0  0
    9.0339   -8.8312   24.8018 O   0  0  0  0  0  0  0  0  0  0  0  0
    9.4865   -8.3166   22.4864 C   0  0  2  0  0  0  0  0  0  0  0  0
   10.6177   -0.5985   21.4412 O   0  0  0  0  0  0  0  0  0  0  0  0
   14.2383   -6.5274   21.0449 N   0  0  0  0  0  0  0  0  0  0  0  0
   13.4273   -6.0594   22.0686 C   0  0  0  0  0  0  0  0  0  0  0  0
   12.1860   -6.6339   22.3145 N   0  0  0  0  0  0  0  0  0  0  0  0
   11.7784   -7.6697   21.5587 C   0  0  0  0  0  0  0  0  0  0  0  0
   12.5932   -8.1598   20.5343 C   0  0  0  0  0  0  0  0  0  0  0  0
   13.8212   -7.5843   20.2646 C   0  0  0  0  0  0  0  0  0  0  0  0
   14.5850   -8.0453   19.2856 N   0  0  0  0  0  0  0  0  0  0  0  0
   11.9618   -9.1877   19.9566 N   0  0  0  0  0  0  0  0  0  0  0  0
   10.7782   -9.3632   20.5846 C   0  0  0  0  0  0  0  0  0  0  0  0
   10.6489   -8.4327   21.5856 N   0  0  0  0  0  0  0  0  0  0  0  0
  2  1  1  6  0  0  0
  2  3  1  0  0  0  0
  2  5  1  0  0  0  0
  3  4  1  0  0  0  0
  3 17  1  0  0  0  0
  5  6  1  0  0  0  0
  7  6  1  1  0  0  0
  7  8  1  0  0  0  0
  7  9  1  0  0  0  0
 10  9  1  6  0  0  0
 10 11  1  0  0  0  0
 10 12  1  0  0  0  0
 11 16  1  0  0  0  0
 12 13  1  1  0  0  0
 12 14  1  0  0  0  0
 14 15  1  1  0  0  0
 14 16  1  0  0  0  0
 16 27  1  6  0  0  0
 18 19  2  0  0  0  0
 18 23  1  0  0  0  0
 19 20  1  0  0  0  0
 20 21  2  0  0  0  0
 21 22  1  0  0  0  0
 21 27  1  0  0  0  0
 22 23  2  0  0  0  0
 22 25  1  0  0  0  0
 23 24  1  0  0  0  0
 25 26  2  0  0  0  0
 26 27  1  0  0  0  0
M  END
>  <CHROM.1>
148.09027487,-166.24798438,-157.64969074,-170.56686834,171.42032911,69.03320941
73.37956720,9.91971582,-5.47026264,21.97900284,-2.18787537,-0.53006964,2.81116786

>  <Name>
ligand

>  <RI>
0

>  <Rbt.Current_Directory>
/home/itssahil/PROJECTS/Mol_Feturizer/Test_systems_manuscript/rnas/2ydh

>  <Rbt.Executable>
rbdock ($Id: //depot/dev/client3/rdock/2013.1/src/exe/rbdock.cxx#4 $)

>  <Rbt.Library>
libRbt.so (2013.1, Build901 2013/11/27)

>  <Rbt.Parameter_File>
/export/apps/rDock/src/rDock_2013.1_src/data/scripts/dock_solv.prm

>  <Rbt.Receptor>
prm/blind_docking_40.prm

>  <SCORE>
-14.569

>  <SCORE.INTER>
-13.6637

>  <SCORE.INTER.CONST>
1

>  <SCORE.INTER.POLAR>
0

>  <SCORE.INTER.ROT>
7

>  <SCORE.INTER.SOLV>
10.9395

>  <SCORE.INTER.VDW>
-21.0223

>  <SCORE.INTER.norm>
-0.506064

>  <SCORE.INTRA>
-0.905232

>  <SCORE.INTRA.DIHEDRAL>
-3.29053

>  <SCORE.INTRA.DIHEDRAL.0>
9.75037

>  <SCORE.INTRA.POLAR>
0

>  <SCORE.INTRA.POLAR.0>
0

>  <SCORE.INTRA.REPUL>
0

>  <SCORE.INTRA.REPUL.0>
0

>  <SCORE.INTRA.SOLV>
-1.49356

>  <SCORE.INTRA.SOLV.lig_0>
-48.4279

>  <SCORE.INTRA.VDW>
1.48681

>  <SCORE.INTRA.VDW.0>
-4.69037

>  <SCORE.INTRA.norm>
-0.0335271

>  <SCORE.RESTR>
0

>  <SCORE.RESTR.CAVITY>
0

>  <SCORE.RESTR.norm>
0

>  <SCORE.SYSTEM>
0

>  <SCORE.SYSTEM.CONST>
0

>  <SCORE.SYSTEM.DIHEDRAL>
0

>  <SCORE.SYSTEM.SOLV>
0

>  <SCORE.SYSTEM.norm>
0

>  <SCORE.heavy>
27

>  <SCORE.norm>
-0.539591

>  <RMSD>
15.153

$$$$
ligand
 OpenBabel02271912153D
libRbt.so/2013.1/901 2013/11/27
 27 29  0  0  0  0  0  0  0  0999 V2000
    9.1485    1.9421   25.5393 N   0  0  0  0  0  0  0  0  0  0  0  0
    9.2982    0.5652   24.9750 C   0  0  2  0  0  0  0  0  0  0  0  0
   10.2006   -0.3089   25.8740 C   0  0  0  0  0  0  0  0  0  0  0  0
   10.5320   -1.4476   25.5303 O   0  0  0  0  0  0  0  0  0  0  0  0
    9.8278    0.6568   23.5478 C   0  0  0  0  0  0  0  0  0  0  0  0
    8.8467    1.2461   22.5482 C   0  0  0  0  0  0  0  0  0  0  0  0
    9.5319    1.3990   20.8737 S   0  0  2  0  0  0  0  0  0  0  0  0
   10.4751    2.9417   21.0348 C   0  0  0  0  0  0  0  0  0  0  0  0
    8.1703    1.8970   19.8069 C   0  0  0  0  0  0  0  0  0  0  0  0
    8.4417    1.4066   18.3975 C   0  0  1  0  0  0  0  0  0  0  0  0
    8.8840    0.0584   18.3661 O   0  0  0  0  0  0  0  0  0  0  0  0
    7.2043    1.4870   17.5371 C   0  0  1  0  0  0  0  0  0  0  0  0
    7.0585    2.7629   16.9826 O   0  0  0  0  0  0  0  0  0  0  0  0
    7.5069    0.4531   16.4957 C   0  0  1  0  0  0  0  0  0  0  0  0
    8.2450    1.0522   15.4475 O   0  0  0  0  0  0  0  0  0  0  0  0
    8.3580   -0.5786   17.2248 C   0  0  2  0  0  0  0  0  0  0  0  0
   10.6260    0.0863   26.9750 O   0  0  0  0  0  0  0  0  0  0  0  0
    6.2925   -3.4743   21.1244 N   0  0  0  0  0  0  0  0  0  0  0  0
    7.0364   -2.3083   21.2324 C   0  0  0  0  0  0  0  0  0  0  0  0
    7.5254   -1.6667   20.1007 N   0  0  0  0  0  0  0  0  0  0  0  0
    7.2548   -2.1773   18.8857 C   0  0  0  0  0  0  0  0  0  0  0  0
    6.4935   -3.3431   18.7634 C   0  0  0  0  0  0  0  0  0  0  0  0
    6.0187   -4.0036   19.8816 C   0  0  0  0  0  0  0  0  0  0  0  0
    5.3069   -5.1142   19.7610 N   0  0  0  0  0  0  0  0  0  0  0  0
    6.3641   -3.6206   17.4614 N   0  0  0  0  0  0  0  0  0  0  0  0
    7.0157   -2.6672   16.7596 C   0  0  0  0  0  0  0  0  0  0  0  0
    7.5711   -1.7597   17.6270 N   0  0  0  0  0  0  0  0  0  0  0  0
  2  1  1  1  0  0  0
  2  3  1  0  0  0  0
  2  5  1  0  0  0  0
  3  4  1  0  0  0  0
  3 17  1  0  0  0  0
  5  6  1  0  0  0  0
  7  6  1  1  0  0  0
  7  8  1  0  0  0  0
  7  9  1  0  0  0  0
 10  9  1  1  0  0  0
 10 11  1  0  0  0  0
 10 12  1  0  0  0  0
 11 16  1  0  0  0  0
 12 13  1  6  0  0  0
 12 14  1  0  0  0  0
 14 15  1  6  0  0  0
 14 16  1  0  0  0  0
 16 27  1  1  0  0  0
 18 19  2  0  0  0  0
 18 23  1  0  0  0  0
 19 20  1  0  0  0  0
 20 21  2  0  0  0  0
 21 22  1  0  0  0  0
 21 27  1  0  0  0  0
 22 23  2  0  0  0  0
 22 25  1  0  0  0  0
 23 24  1  0  0  0  0
 25 26  2  0  0  0  0
 26 27  1  0  0  0  0
M  END
>  <CHROM.1>
-174.39667074,-68.72346389,177.79281680,-81.21648757,-152.58377503,45.64176866
5.35471932,8.23914986,-0.36809104,20.38080752,-0.72781931,-1.09746508,-1.00098643

>  <Name>
ligand

>  <RI>
0

>  <Rbt.Current_Directory>
/home/itssahil/PROJECTS/Mol_Feturizer/Test_systems_manuscript/rnas/2ydh

>  <Rbt.Executable>
rbdock ($Id: //depot/dev/client3/rdock/2013.1/src/exe/rbdock.cxx#4 $)

>  <Rbt.Library>
libRbt.so (2013.1, Build901 2013/11/27)

>  <Rbt.Parameter_File>
/export/apps/rDock/src/rDock_2013.1_src/data/scripts/dock_solv.prm

>  <Rbt.Receptor>
prm/blind_docking_100.prm

>  <SCORE>
-8.20679

>  <SCORE.INTER>
-8.3471

>  <SCORE.INTER.CONST>
1

>  <SCORE.INTER.POLAR>
0

>  <SCORE.INTER.ROT>
7

>  <SCORE.INTER.SOLV>
4.33621

>  <SCORE.INTER.VDW>
-15.2768

>  <SCORE.INTER.norm>
-0.309152

>  <SCORE.INTRA>
0.140314

>  <SCORE.INTRA.DIHEDRAL>
-2.31455

>  <SCORE.INTRA.DIHEDRAL.0>
9.75037

>  <SCORE.INTRA.POLAR>
0

>  <SCORE.INTRA.POLAR.0>
0

>  <SCORE.INTRA.REPUL>
0

>  <SCORE.INTRA.REPUL.0>
0

>  <SCORE.INTRA.SOLV>
-0.854654

>  <SCORE.INTRA.SOLV.lig_0>
-48.4279

>  <SCORE.INTRA.VDW>
1.72491

>  <SCORE.INTRA.VDW.0>
-4.69037

>  <SCORE.INTRA.norm>
0.00519681

>  <SCORE.RESTR>
0

>  <SCORE.RESTR.CAVITY>
0

>  <SCORE.RESTR.norm>
0

>  <SCORE.SYSTEM>
0

>  <SCORE.SYSTEM.CONST>
0

>  <SCORE.SYSTEM.DIHEDRAL>
0

>  <SCORE.SYSTEM.SOLV>
0

>  <SCORE.SYSTEM.norm>
0

>  <SCORE.heavy>
27

>  <SCORE.norm>
-0.303955

>  <RMSD>
15.219

$$$$
ligand
 OpenBabel02271912153D
libRbt.so/2013.1/901 2013/11/27
 27 29  0  0  0  0  0  0  0  0999 V2000
    9.1468    0.8481   19.9080 N   0  0  0  0  0  0  0  0  0  0  0  0
    9.8867    0.6015   21.1841 C   0  0  2  0  0  0  0  0  0  0  0  0
   11.0528    1.6007   21.3526 C   0  0  0  0  0  0  0  0  0  0  0  0
   12.0952    1.2734   21.9279 O   0  0  0  0  0  0  0  0  0  0  0  0
   10.3629   -0.8468   21.2225 C   0  0  0  0  0  0  0  0  0  0  0  0
    9.2463   -1.8762   21.2734 C   0  0  0  0  0  0  0  0  0  0  0  0
    8.0478   -1.5708   22.6028 S   0  0  2  0  0  0  0  0  0  0  0  0
    9.1611   -1.3866   24.0249 C   0  0  0  0  0  0  0  0  0  0  0  0
    7.2517   -3.1481   22.9466 C   0  0  0  0  0  0  0  0  0  0  0  0
    6.1671   -3.3899   21.9142 C   0  0  1  0  0  0  0  0  0  0  0  0
    6.6780   -3.4474   20.5914 O   0  0  0  0  0  0  0  0  0  0  0  0
    5.4444   -4.6906   22.1669 C   0  0  1  0  0  0  0  0  0  0  0  0
    4.4138   -4.5215   23.0974 O   0  0  0  0  0  0  0  0  0  0  0  0
    4.9201   -5.0021   20.7983 C   0  0  1  0  0  0  0  0  0  0  0  0
    3.6671   -4.3677   20.6256 O   0  0  0  0  0  0  0  0  0  0  0  0
    5.9546   -4.4048   19.8531 C   0  0  2  0  0  0  0  0  0  0  0  0
   10.9951    2.7689   20.9268 O   0  0  0  0  0  0  0  0  0  0  0  0
    8.4298   -9.0119   20.5654 N   0  0  0  0  0  0  0  0  0  0  0  0
    7.5574   -8.3714   21.4333 C   0  0  0  0  0  0  0  0  0  0  0  0
    6.9944   -7.1446   21.1024 N   0  0  0  0  0  0  0  0  0  0  0  0
    7.2882   -6.5842   19.9150 C   0  0  0  0  0  0  0  0  0  0  0  0
    8.1539   -7.2272   19.0257 C   0  0  0  0  0  0  0  0  0  0  0  0
    8.7378   -8.4376   19.3508 C   0  0  0  0  0  0  0  0  0  0  0  0
    9.5662   -9.0378   18.5093 N   0  0  0  0  0  0  0  0  0  0  0  0
    8.2611   -6.4694   17.9288 N   0  0  0  0  0  0  0  0  0  0  0  0
    7.4899   -5.3724   18.0961 C   0  0  0  0  0  0  0  0  0  0  0  0
    6.8742   -5.4286   19.3218 N   0  0  0  0  0  0  0  0  0  0  0  0
  2  1  1  6  0  0  0
  2  3  1  0  0  0  0
  2  5  1  0  0  0  0
  3  4  1  0  0  0  0
  3 17  1  0  0  0  0
  5  6  1  0  0  0  0
  7  6  1  6  0  0  0
  7  8  1  0  0  0  0
  7  9  1  0  0  0  0
 10  9  1  1  0  0  0
 10 11  1  0  0  0  0
 10 12  1  0  0  0  0
 11 16  1  0  0  0  0
 12 13  1  1  0  0  0
 12 14  1  0  0  0  0
 14 15  1  6  0  0  0
 14 16  1  0  0  0  0
 16 27  1  1  0  0  0
 18 19  2  0  0  0  0
 18 23  1  0  0  0  0
 19 20  1  0  0  0  0
 20 21  2  0  0  0  0
 21 22  1  0  0  0  0
 21 27  1  0  0  0  0
 22 23  2  0  0  0  0
 22 25  1  0  0  0  0
 23 24  1  0  0  0  0
 25 26  2  0  0  0  0
 26 27  1  0  0  0  0
M  END
>  <CHROM.1>
-147.40044387,-65.11472835,-52.26282170,-51.10554772,-80.73964444,60.74383890
88.50905713,7.92472760,-3.65508162,20.93445617,-1.17512368,-0.42860974,-2.76298479

>  <Name>
ligand

>  <RI>
0

>  <Rbt.Current_Directory>
/home/itssahil/PROJECTS/Mol_Feturizer/Test_systems_manuscript/rnas/2ydh

>  <Rbt.Executable>
rbdock ($Id: //depot/dev/client3/rdock/2013.1/src/exe/rbdock.cxx#4 $)

>  <Rbt.Library>
libRbt.so (2013.1, Build901 2013/11/27)

>  <Rbt.Parameter_File>
/export/apps/rDock/src/rDock_2013.1_src/data/scripts/dock_solv.prm

>  <Rbt.Receptor>
prm/blind_docking_80.prm

>  <SCORE>
-12.8612

>  <SCORE.INTER>
-13.2031

>  <SCORE.INTER.CONST>
1

>  <SCORE.INTER.POLAR>
0

>  <SCORE.INTER.ROT>
7

>  <SCORE.INTER.SOLV>
12.2691

>  <SCORE.INTER.VDW>
-21.1585

>  <SCORE.INTER.norm>
-0.489005

>  <SCORE.INTRA>
0.341892

>  <SCORE.INTRA.DIHEDRAL>
-5.18043

>  <SCORE.INTRA.DIHEDRAL.0>
9.75037

>  <SCORE.INTRA.POLAR>
0

>  <SCORE.INTRA.POLAR.0>
0

>  <SCORE.INTRA.REPUL>
0

>  <SCORE.INTRA.REPUL.0>
0

>  <SCORE.INTRA.SOLV>
-0.0362577

>  <SCORE.INTRA.SOLV.lig_0>
-48.4279

>  <SCORE.INTRA.VDW>
2.95024

>  <SCORE.INTRA.VDW.0>
-4.69037

>  <SCORE.INTRA.norm>
0.0126627

>  <SCORE.RESTR>
0

>  <SCORE.RESTR.CAVITY>
0

>  <SCORE.RESTR.norm>
0

>  <SCORE.SYSTEM>
0

>  <SCORE.SYSTEM.CONST>
0

>  <SCORE.SYSTEM.DIHEDRAL>
0

>  <SCORE.SYSTEM.SOLV>
0

>  <SCORE.SYSTEM.norm>
0

>  <SCORE.heavy>
27

>  <SCORE.norm>
-0.476343

>  <RMSD>
15.221

$$$$
ligand
 OpenBabel02271912153D
libRbt.so/2013.1/901 2013/11/27
 27 29  0  0  0  0  0  0  0  0999 V2000
    4.7285   -4.1425   21.2000 N   0  0  0  0  0  0  0  0  0  0  0  0
    5.4335   -3.9848   22.5095 C   0  0  2  0  0  0  0  0  0  0  0  0
    6.5105   -2.8801   22.4314 C   0  0  0  0  0  0  0  0  0  0  0  0
    7.1095   -2.6465   21.3772 O   0  0  0  0  0  0  0  0  0  0  0  0
    6.0191   -5.3270   22.9350 C   0  0  0  0  0  0  0  0  0  0  0  0
    6.5858   -5.3488   24.3448 C   0  0  0  0  0  0  0  0  0  0  0  0
    7.7749   -6.6931   24.6205 S   0  0  2  0  0  0  0  0  0  0  0  0
    8.2005   -6.4147   26.3632 C   0  0  0  0  0  0  0  0  0  0  0  0
    9.2924   -6.2149   23.7788 C   0  0  0  0  0  0  0  0  0  0  0  0
   10.2774   -7.3665   23.8432 C   0  0  1  0  0  0  0  0  0  0  0  0
    9.7734   -8.5480   23.2397 O   0  0  0  0  0  0  0  0  0  0  0  0
   11.5699   -7.0274   23.1416 C   0  0  1  0  0  0  0  0  0  0  0  0
   12.4391   -6.3373   23.9931 O   0  0  0  0  0  0  0  0  0  0  0  0
   12.0832   -8.3935   22.8020 C   0  0  1  0  0  0  0  0  0  0  0  0
   12.8343   -8.8916   23.8928 O   0  0  0  0  0  0  0  0  0  0  0  0
   10.8258   -9.2281   22.5954 C   0  0  2  0  0  0  0  0  0  0  0  0
    6.8249   -2.1863   23.4159 O   0  0  0  0  0  0  0  0  0  0  0  0
   12.5473   -9.4081   17.6092 N   0  0  0  0  0  0  0  0  0  0  0  0
   13.2931   -9.1981   18.7599 C   0  0  0  0  0  0  0  0  0  0  0  0
   12.6839   -9.1645   20.0086 N   0  0  0  0  0  0  0  0  0  0  0  0
   11.3554   -9.3576   20.0985 C   0  0  0  0  0  0  0  0  0  0  0  0
   10.5956   -9.5852   18.9477 C   0  0  0  0  0  0  0  0  0  0  0  0
   11.1852   -9.6000   17.6970 C   0  0  0  0  0  0  0  0  0  0  0  0
   10.4592   -9.8053   16.6083 N   0  0  0  0  0  0  0  0  0  0  0  0
    9.3218   -9.7571   19.3176 N   0  0  0  0  0  0  0  0  0  0  0  0
    9.2544   -9.6483   20.6629 C   0  0  0  0  0  0  0  0  0  0  0  0
   10.5083   -9.4049   21.1658 N   0  0  0  0  0  0  0  0  0  0  0  0
  2  1  1  6  0  0  0
  2  3  1  0  0  0  0
  2  5  1  0  0  0  0
  3  4  1  0  0  0  0
  3 17  1  0  0  0  0
  5  6  1  0  0  0  0
  7  6  1  6  0  0  0
  7  8  1  0  0  0  0
  7  9  1  0  0  0  0
 10  9  1  6  0  0  0
 10 11  1  0  0  0  0
 10 12  1  0  0  0  0
 11 16  1  0  0  0  0
 12 13  1  1  0  0  0
 12 14  1  0  0  0  0
 14 15  1  1  0  0  0
 14 16  1  0  0  0  0
 16 27  1  6  0  0  0
 18 19  2  0  0  0  0
 18 23  1  0  0  0  0
 19 20  1  0  0  0  0
 20 21  2  0  0  0  0
 21 22  1  0  0  0  0
 21 27  1  0  0  0  0
 22 23  2  0  0  0  0
 22 25  1  0  0  0  0
 23 24  1  0  0  0  0
 25 26  2  0  0  0  0
 26 27  1  0  0  0  0
M  END
>  <CHROM.1>
-30.99519311,-171.48638356,-159.22908713,-179.29848651,-173.84591704,59.23245433
143.68468400,9.49781775,-7.17788509,21.98102583,2.47810738,-0.68502145,1.33360010

>  <Name>
ligand

>  <RI>
0

>  <Rbt.Current_Directory>
/home/itssahil/PROJECTS/Mol_Feturizer/Test_systems_manuscript/rnas/2ydh

>  <Rbt.Executable>
rbdock ($Id: //depot/dev/client3/rdock/2013.1/src/exe/rbdock.cxx#4 $)

>  <Rbt.Library>
libRbt.so (2013.1, Build901 2013/11/27)

>  <Rbt.Parameter_File>
/export/apps/rDock/src/rDock_2013.1_src/data/scripts/dock_solv.prm

>  <Rbt.Receptor>
prm/blind_docking_60.prm

>  <SCORE>
-16.619

>  <SCORE.INTER>
-15.8079

>  <SCORE.INTER.CONST>
1

>  <SCORE.INTER.POLAR>
0

>  <SCORE.INTER.ROT>
7

>  <SCORE.INTER.SOLV>
14.377

>  <SCORE.INTER.VDW>
-23.5976

>  <SCORE.INTER.norm>
-0.585477

>  <SCORE.INTRA>
-0.811154

>  <SCORE.INTRA.DIHEDRAL>
-4.2786

>  <SCORE.INTRA.DIHEDRAL.0>
9.75037

>  <SCORE.INTRA.POLAR>
0

>  <SCORE.INTRA.POLAR.0>
0

>  <SCORE.INTRA.REPUL>
0

>  <SCORE.INTRA.REPUL.0>
0

>  <SCORE.INTRA.SOLV>
-1.55179

>  <SCORE.INTRA.SOLV.lig_0>
-48.4279

>  <SCORE.INTRA.VDW>
2.10404

>  <SCORE.INTRA.VDW.0>
-4.69037

>  <SCORE.INTRA.norm>
-0.0300427

>  <SCORE.RESTR>
0

>  <SCORE.RESTR.CAVITY>
0

>  <SCORE.RESTR.norm>
0

>  <SCORE.SYSTEM>
0

>  <SCORE.SYSTEM.CONST>
0

>  <SCORE.SYSTEM.DIHEDRAL>
0

>  <SCORE.SYSTEM.SOLV>
0

>  <SCORE.SYSTEM.norm>
0

>  <SCORE.heavy>
27

>  <SCORE.norm>
-0.61552

>  <RMSD>
15.254

$$$$
ligand
 OpenBabel02271912153D
libRbt.so/2013.1/901 2013/11/27
 27 29  0  0  0  0  0  0  0  0999 V2000
    6.0209    2.9104   20.6648 N   0  0  0  0  0  0  0  0  0  0  0  0
    7.1747    2.9950   21.6125 C   0  0  2  0  0  0  0  0  0  0  0  0
    7.2056    4.3629   22.3299 C   0  0  0  0  0  0  0  0  0  0  0  0
    7.1557    5.4190   21.6920 O   0  0  0  0  0  0  0  0  0  0  0  0
    8.4709    2.7133   20.8599 C   0  0  0  0  0  0  0  0  0  0  0  0
    8.5044    1.3744   20.1420 C   0  0  0  0  0  0  0  0  0  0  0  0
    8.4152   -0.0471   21.2682 S   0  0  2  0  0  0  0  0  0  0  0  0
   10.1803   -0.3793   21.5324 C   0  0  0  0  0  0  0  0  0  0  0  0
    7.9090   -1.4583   20.2722 C   0  0  0  0  0  0  0  0  0  0  0  0
    7.1815   -2.4524   21.1571 C   0  0  1  0  0  0  0  0  0  0  0  0
    6.5134   -3.4580   20.4110 O   0  0  0  0  0  0  0  0  0  0  0  0
    8.1320   -3.1551   22.0955 C   0  0  1  0  0  0  0  0  0  0  0  0
    8.3474   -2.3995   23.2528 O   0  0  0  0  0  0  0  0  0  0  0  0
    7.3776   -4.4177   22.3814 C   0  0  1  0  0  0  0  0  0  0  0  0
    6.5020   -4.1988   23.4711 O   0  0  0  0  0  0  0  0  0  0  0  0
    6.5864   -4.6811   21.1066 C   0  0  2  0  0  0  0  0  0  0  0  0
    7.2868    4.4635   23.5679 O   0  0  0  0  0  0  0  0  0  0  0  0
    8.5231   -6.0157   16.3815 N   0  0  0  0  0  0  0  0  0  0  0  0
    7.9614   -4.8049   16.7599 C   0  0  0  0  0  0  0  0  0  0  0  0
    7.4804   -4.6139   18.0498 N   0  0  0  0  0  0  0  0  0  0  0  0
    7.5805   -5.6135   18.9447 C   0  0  0  0  0  0  0  0  0  0  0  0
    8.1583   -6.8327   18.5795 C   0  0  0  0  0  0  0  0  0  0  0  0
    8.6216   -7.0440   17.2940 C   0  0  0  0  0  0  0  0  0  0  0  0
    9.1584   -8.2050   16.9497 N   0  0  0  0  0  0  0  0  0  0  0  0
    8.1450   -7.6360   19.6489 N   0  0  0  0  0  0  0  0  0  0  0  0
    7.5810   -6.9627   20.6759 C   0  0  0  0  0  0  0  0  0  0  0  0
    7.2284   -5.7033   20.2587 N   0  0  0  0  0  0  0  0  0  0  0  0
  2  1  1  6  0  0  0
  2  3  1  0  0  0  0
  2  5  1  0  0  0  0
  3  4  1  0  0  0  0
  3 17  1  0  0  0  0
  5  6  1  0  0  0  0
  7  6  1  6  0  0  0
  7  8  1  0  0  0  0
  7  9  1  0  0  0  0
 10  9  1  6  0  0  0
 10 11  1  0  0  0  0
 10 12  1  0  0  0  0
 11 16  1  0  0  0  0
 12 13  1  1  0  0  0
 12 14  1  0  0  0  0
 14 15  1  1  0  0  0
 14 16  1  0  0  0  0
 16 27  1  6  0  0  0
 18 19  2  0  0  0  0
 18 23  1  0  0  0  0
 19 20  1  0  0  0  0
 20 21  2  0  0  0  0
 21 22  1  0  0  0  0
 21 27  1  0  0  0  0
 22 23  2  0  0  0  0
 22 25  1  0  0  0  0
 23 24  1  0  0  0  0
 25 26  2  0  0  0  0
 26 27  1  0  0  0  0
M  END
>  <CHROM.1>
-51.62202157,-56.78070798,-63.93223055,-92.56584136,-152.75747908,167.93507161
-7.50016975,7.78037222,-2.19917379,20.54017055,-1.80110950,-1.37514847,-3.05186012

>  <Name>
ligand

>  <RI>
0

>  <Rbt.Current_Directory>
/home/itssahil/PROJECTS/Mol_Feturizer/Test_systems_manuscript/rnas/2ydh

>  <Rbt.Executable>
rbdock ($Id: //depot/dev/client3/rdock/2013.1/src/exe/rbdock.cxx#4 $)

>  <Rbt.Library>
libRbt.so (2013.1, Build901 2013/11/27)

>  <Rbt.Parameter_File>
/export/apps/rDock/src/rDock_2013.1_src/data/scripts/dock_solv.prm

>  <Rbt.Receptor>
prm/blind_docking_100.prm

>  <SCORE>
-8.9184

>  <SCORE.INTER>
-10.0974

>  <SCORE.INTER.CONST>
1

>  <SCORE.INTER.POLAR>
0

>  <SCORE.INTER.ROT>
7

>  <SCORE.INTER.SOLV>
9.78425

>  <SCORE.INTER.VDW>
-18.2597

>  <SCORE.INTER.norm>
-0.373977

>  <SCORE.INTRA>
1.17897

>  <SCORE.INTRA.DIHEDRAL>
-1.64423

>  <SCORE.INTRA.DIHEDRAL.0>
9.75037

>  <SCORE.INTRA.POLAR>
0

>  <SCORE.INTRA.POLAR.0>
0

>  <SCORE.INTRA.REPUL>
0

>  <SCORE.INTRA.REPUL.0>
0

>  <SCORE.INTRA.SOLV>
0.145753

>  <SCORE.INTRA.SOLV.lig_0>
-48.4279

>  <SCORE.INTRA.VDW>
1.92821

>  <SCORE.INTRA.VDW.0>
-4.69037

>  <SCORE.INTRA.norm>
0.0436655

>  <SCORE.RESTR>
0

>  <SCORE.RESTR.CAVITY>
0

>  <SCORE.RESTR.norm>
0

>  <SCORE.SYSTEM>
0

>  <SCORE.SYSTEM.CONST>
0

>  <SCORE.SYSTEM.DIHEDRAL>
0

>  <SCORE.SYSTEM.SOLV>
0

>  <SCORE.SYSTEM.norm>
0

>  <SCORE.heavy>
27

>  <SCORE.norm>
-0.330311

>  <RMSD>
15.368

$$$$
ligand
 OpenBabel02271912153D
libRbt.so/2013.1/901 2013/11/27
 27 29  0  0  0  0  0  0  0  0999 V2000
   10.9140   -7.9800   21.5656 N   0  0  0  0  0  0  0  0  0  0  0  0
   11.3322   -6.5565   21.7538 C   0  0  2  0  0  0  0  0  0  0  0  0
   12.6795   -6.4676   22.5044 C   0  0  0  0  0  0  0  0  0  0  0  0
   13.6472   -5.8809   22.0107 O   0  0  0  0  0  0  0  0  0  0  0  0
   10.2245   -5.7932   22.4721 C   0  0  0  0  0  0  0  0  0  0  0  0
    9.8815   -6.3303   23.8516 C   0  0  0  0  0  0  0  0  0  0  0  0
    8.4952   -5.4597   24.6372 S   0  0  2  0  0  0  0  0  0  0  0  0
    8.4472   -6.2892   26.2513 C   0  0  0  0  0  0  0  0  0  0  0  0
    6.9955   -6.0715   23.8521 C   0  0  0  0  0  0  0  0  0  0  0  0
    6.5941   -5.1182   22.7427 C   0  0  1  0  0  0  0  0  0  0  0  0
    7.5096   -5.1288   21.6582 O   0  0  0  0  0  0  0  0  0  0  0  0
    5.2373   -5.4655   22.1803 C   0  0  1  0  0  0  0  0  0  0  0  0
    4.2145   -4.8891   22.9407 O   0  0  0  0  0  0  0  0  0  0  0  0
    5.3273   -4.8629   20.8114 C   0  0  1  0  0  0  0  0  0  0  0  0
    4.9274   -3.5070   20.8739 O   0  0  0  0  0  0  0  0  0  0  0  0
    6.8034   -4.9670   20.4499 C   0  0  2  0  0  0  0  0  0  0  0  0
   12.8522   -6.9811   23.6251 O   0  0  0  0  0  0  0  0  0  0  0  0
    5.3232   -9.7008   18.6447 N   0  0  0  0  0  0  0  0  0  0  0  0
    4.6821   -8.9113   19.5883 C   0  0  0  0  0  0  0  0  0  0  0  0
    5.2118   -7.6845   19.9705 N   0  0  0  0  0  0  0  0  0  0  0  0
    6.3518   -7.2533   19.4007 C   0  0  0  0  0  0  0  0  0  0  0  0
    6.9987   -8.0329   18.4378 C   0  0  0  0  0  0  0  0  0  0  0  0
    6.4945   -9.2649   18.0636 C   0  0  0  0  0  0  0  0  0  0  0  0
    7.1171  -10.0050   17.1585 N   0  0  0  0  0  0  0  0  0  0  0  0
    8.0872   -7.3713   18.0299 N   0  0  0  0  0  0  0  0  0  0  0  0
    8.1460   -6.2001   18.7014 C   0  0  0  0  0  0  0  0  0  0  0  0
    7.0740   -6.1070   19.5538 N   0  0  0  0  0  0  0  0  0  0  0  0
  2  1  1  1  0  0  0
  2  3  1  0  0  0  0
  2  5  1  0  0  0  0
  3  4  1  0  0  0  0
  3 17  1  0  0  0  0
  5  6  1  0  0  0  0
  7  6  1  6  0  0  0
  7  8  1  0  0  0  0
  7  9  1  0  0  0  0
 10  9  1  1  0  0  0
 10 11  1  0  0  0  0
 10 12  1  0  0  0  0
 11 16  1  0  0  0  0
 12 13  1  1  0  0  0
 12 14  1  0  0  0  0
 14 15  1  1  0  0  0
 14 16  1  0  0  0  0
 16 27  1  6  0  0  0
 18 19  2  0  0  0  0
 18 23  1  0  0  0  0
 19 20  1  0  0  0  0
 20 21  2  0  0  0  0
 21 22  1  0  0  0  0
 21 27  1  0  0  0  0
 22 23  2  0  0  0  0
 22 25  1  0  0  0  0
 23 24  1  0  0  0  0
 25 26  2  0  0  0  0
 26 27  1  0  0  0  0
M  END
>  <CHROM.1>
123.01470186,60.44991377,-176.64592483,-176.91791804,-95.96716846,68.03684579
94.19813562,7.90677849,-6.49734650,21.42344387,-0.70020353,0.20106393,-2.11549123

>  <Name>
ligand

>  <RI>
0

>  <Rbt.Current_Directory>
/home/itssahil/PROJECTS/Mol_Feturizer/Test_systems_manuscript/rnas/2ydh

>  <Rbt.Executable>
rbdock ($Id: //depot/dev/client3/rdock/2013.1/src/exe/rbdock.cxx#4 $)

>  <Rbt.Library>
libRbt.so (2013.1, Build901 2013/11/27)

>  <Rbt.Parameter_File>
/export/apps/rDock/src/rDock_2013.1_src/data/scripts/dock_solv.prm

>  <Rbt.Receptor>
prm/blind_docking_40.prm

>  <SCORE>
-12.2611

>  <SCORE.INTER>
-11.3931

>  <SCORE.INTER.CONST>
1

>  <SCORE.INTER.POLAR>
0

>  <SCORE.INTER.ROT>
7

>  <SCORE.INTER.SOLV>
8.93753

>  <SCORE.INTER.VDW>
-18.8412

>  <SCORE.INTER.norm>
-0.421966

>  <SCORE.INTRA>
-0.870553

>  <SCORE.INTRA.DIHEDRAL>
-4.12334

>  <SCORE.INTRA.DIHEDRAL.0>
9.75037

>  <SCORE.INTRA.POLAR>
0

>  <SCORE.INTRA.POLAR.0>
0

>  <SCORE.INTRA.REPUL>
0

>  <SCORE.INTRA.REPUL.0>
0

>  <SCORE.INTRA.SOLV>
-0.677559

>  <SCORE.INTRA.SOLV.lig_0>
-48.4279

>  <SCORE.INTRA.VDW>
1.5299

>  <SCORE.INTRA.VDW.0>
-4.69037

>  <SCORE.INTRA.norm>
-0.0322427

>  <SCORE.RESTR>
0.00257447

>  <SCORE.RESTR.CAVITY>
0.00257447

>  <SCORE.RESTR.norm>
9.53508e-05

>  <SCORE.SYSTEM>
0

>  <SCORE.SYSTEM.CONST>
0

>  <SCORE.SYSTEM.DIHEDRAL>
0

>  <SCORE.SYSTEM.SOLV>
0

>  <SCORE.SYSTEM.norm>
0

>  <SCORE.heavy>
27

>  <SCORE.norm>
-0.454113

>  <RMSD>
15.383

$$$$
ligand
 OpenBabel02271912153D
libRbt.so/2013.1/901 2013/11/27
 27 29  0  0  0  0  0  0  0  0999 V2000
    9.4951    1.8579   22.9949 N   0  0  0  0  0  0  0  0  0  0  0  0
   10.3484    1.6504   21.7844 C   0  0  2  0  0  0  0  0  0  0  0  0
   11.2829    0.4336   21.9651 C   0  0  0  0  0  0  0  0  0  0  0  0
   12.2128    0.4584   22.7771 O   0  0  0  0  0  0  0  0  0  0  0  0
   11.1239    2.9290   21.4853 C   0  0  0  0  0  0  0  0  0  0  0  0
   10.2537    4.1385   21.1869 C   0  0  0  0  0  0  0  0  0  0  0  0
    9.3324    3.9939   19.6290 S   0  0  2  0  0  0  0  0  0  0  0  0
    8.2900    5.4777   19.7147 C   0  0  0  0  0  0  0  0  0  0  0  0
    8.1321    2.6735   19.8647 C   0  0  0  0  0  0  0  0  0  0  0  0
    8.0940    1.8115   18.6172 C   0  0  1  0  0  0  0  0  0  0  0  0
    8.7527    0.5671   18.7953 O   0  0  0  0  0  0  0  0  0  0  0  0
    6.6760    1.5064   18.2001 C   0  0  1  0  0  0  0  0  0  0  0  0
    6.1505    2.5355   17.4118 O   0  0  0  0  0  0  0  0  0  0  0  0
    6.8687    0.2427   17.4185 C   0  0  1  0  0  0  0  0  0  0  0  0
    7.1680    0.5690   16.0746 O   0  0  0  0  0  0  0  0  0  0  0  0
    8.0624   -0.4324   18.0815 C   0  0  2  0  0  0  0  0  0  0  0  0
   11.1477   -0.6133   21.3054 O   0  0  0  0  0  0  0  0  0  0  0  0
    7.5335   -2.1319   23.0505 N   0  0  0  0  0  0  0  0  0  0  0  0
    8.0177   -0.9061   22.6173 C   0  0  0  0  0  0  0  0  0  0  0  0
    8.1081   -0.6136   21.2617 N   0  0  0  0  0  0  0  0  0  0  0  0
    7.7017   -1.5280   20.3622 C   0  0  0  0  0  0  0  0  0  0  0  0
    7.1979   -2.7606   20.7869 C   0  0  0  0  0  0  0  0  0  0  0  0
    7.1221   -3.0733   22.1316 C   0  0  0  0  0  0  0  0  0  0  0  0
    6.6541   -4.2471   22.5288 N   0  0  0  0  0  0  0  0  0  0  0  0
    6.8581   -3.4667   19.7029 N   0  0  0  0  0  0  0  0  0  0  0  0
    7.1283   -2.7190   18.6101 C   0  0  0  0  0  0  0  0  0  0  0  0
    7.6483   -1.5099   19.0000 N   0  0  0  0  0  0  0  0  0  0  0  0
  2  1  1  1  0  0  0
  2  3  1  0  0  0  0
  2  5  1  0  0  0  0
  3  4  1  0  0  0  0
  3 17  1  0  0  0  0
  5  6  1  0  0  0  0
  7  6  1  1  0  0  0
  7  8  1  0  0  0  0
  7  9  1  0  0  0  0
 10  9  1  1  0  0  0
 10 11  1  0  0  0  0
 10 12  1  0  0  0  0
 11 16  1  0  0  0  0
 12 13  1  6  0  0  0
 12 14  1  0  0  0  0
 14 15  1  6  0  0  0
 14 16  1  0  0  0  0
 16 27  1  1  0  0  0
 18 19  2  0  0  0  0
 18 23  1  0  0  0  0
 19 20  1  0  0  0  0
 20 21  2  0  0  0  0
 21 22  1  0  0  0  0
 21 27  1  0  0  0  0
 22 23  2  0  0  0  0
 22 25  1  0  0  0  0
 23 24  1  0  0  0  0
 25 26  2  0  0  0  0
 26 27  1  0  0  0  0
M  END
>  <CHROM.1>
-68.61577760,-60.99148052,-67.44434131,173.49853192,-137.75667992,104.94675858
9.43686621,8.49560606,0.50497370,20.20951327,-1.09039968,0.87755186,2.61232713

>  <Name>
ligand

>  <RI>
0

>  <Rbt.Current_Directory>
/home/itssahil/PROJECTS/Mol_Feturizer/Test_systems_manuscript/rnas/2ydh

>  <Rbt.Executable>
rbdock ($Id: //depot/dev/client3/rdock/2013.1/src/exe/rbdock.cxx#4 $)

>  <Rbt.Library>
libRbt.so (2013.1, Build901 2013/11/27)

>  <Rbt.Parameter_File>
/export/apps/rDock/src/rDock_2013.1_src/data/scripts/dock_solv.prm

>  <Rbt.Receptor>
prm/blind_docking_100.prm

>  <SCORE>
-10.5159

>  <SCORE.INTER>
-12.2832

>  <SCORE.INTER.CONST>
1

>  <SCORE.INTER.POLAR>
0

>  <SCORE.INTER.ROT>
7

>  <SCORE.INTER.SOLV>
6.27473

>  <SCORE.INTER.VDW>
-18.5471

>  <SCORE.INTER.norm>
-0.454935

>  <SCORE.INTRA>
1.76734

>  <SCORE.INTRA.DIHEDRAL>
2.1103

>  <SCORE.INTRA.DIHEDRAL.0>
9.75037

>  <SCORE.INTRA.POLAR>
0

>  <SCORE.INTRA.POLAR.0>
0

>  <SCORE.INTRA.REPUL>
0

>  <SCORE.INTRA.REPUL.0>
0

>  <SCORE.INTRA.SOLV>
1.56876

>  <SCORE.INTRA.SOLV.lig_0>
-48.4279

>  <SCORE.INTRA.VDW>
-0.0721873

>  <SCORE.INTRA.VDW.0>
-4.69037

>  <SCORE.INTRA.norm>
0.0654571

>  <SCORE.RESTR>
0

>  <SCORE.RESTR.CAVITY>
0

>  <SCORE.RESTR.norm>
0

>  <SCORE.SYSTEM>
0

>  <SCORE.SYSTEM.CONST>
0

>  <SCORE.SYSTEM.DIHEDRAL>
0

>  <SCORE.SYSTEM.SOLV>
0

>  <SCORE.SYSTEM.norm>
0

>  <SCORE.heavy>
27

>  <SCORE.norm>
-0.389477

>  <RMSD>
15.413

$$$$
ligand
 OpenBabel02271912153D
libRbt.so/2013.1/901 2013/11/27
 27 29  0  0  0  0  0  0  0  0999 V2000
    8.7309    0.9655   24.9556 N   0  0  0  0  0  0  0  0  0  0  0  0
    8.2748    2.1583   24.1773 C   0  0  2  0  0  0  0  0  0  0  0  0
    6.7610    2.4007   24.3679 C   0  0  0  0  0  0  0  0  0  0  0  0
    6.1592    3.2398   23.6907 O   0  0  0  0  0  0  0  0  0  0  0  0
    8.6459    1.9781   22.7092 C   0  0  0  0  0  0  0  0  0  0  0  0
    8.6617    3.2647   21.9007 C   0  0  0  0  0  0  0  0  0  0  0  0
    9.0511    3.0059   20.1462 S   0  0  2  0  0  0  0  0  0  0  0  0
    9.1196    4.7224   19.5593 C   0  0  0  0  0  0  0  0  0  0  0  0
    7.5437    2.4003   19.3712 C   0  0  0  0  0  0  0  0  0  0  0  0
    7.8786    1.8600   17.9940 C   0  0  1  0  0  0  0  0  0  0  0  0
    8.6157    0.6485   18.0491 O   0  0  0  0  0  0  0  0  0  0  0  0
    6.6309    1.5833   17.1911 C   0  0  1  0  0  0  0  0  0  0  0  0
    6.1818    2.7392   16.5440 O   0  0  0  0  0  0  0  0  0  0  0  0
    7.1309    0.5555   16.2223 C   0  0  1  0  0  0  0  0  0  0  0  0
    7.6820    1.2094   15.0949 O   0  0  0  0  0  0  0  0  0  0  0  0
    8.2159   -0.1894   16.9894 C   0  0  2  0  0  0  0  0  0  0  0  0
    6.0868    1.7739   25.2057 O   0  0  0  0  0  0  0  0  0  0  0  0
    6.8700   -3.0782   21.1968 N   0  0  0  0  0  0  0  0  0  0  0  0
    7.3121   -1.7634   21.1733 C   0  0  0  0  0  0  0  0  0  0  0  0
    7.6430   -1.1434   19.9743 N   0  0  0  0  0  0  0  0  0  0  0  0
    7.5132   -1.8261   18.8222 C   0  0  0  0  0  0  0  0  0  0  0  0
    7.0543   -3.1463   18.8318 C   0  0  0  0  0  0  0  0  0  0  0  0
    6.7418   -3.7825   20.0190 C   0  0  0  0  0  0  0  0  0  0  0  0
    6.3177   -5.0374   20.0238 N   0  0  0  0  0  0  0  0  0  0  0  0
    7.0065   -3.5790   17.5671 N   0  0  0  0  0  0  0  0  0  0  0  0
    7.4169   -2.5748   16.7613 C   0  0  0  0  0  0  0  0  0  0  0  0
    7.7312   -1.4766   17.5226 N   0  0  0  0  0  0  0  0  0  0  0  0
  2  1  1  1  0  0  0
  2  3  1  0  0  0  0
  2  5  1  0  0  0  0
  3  4  1  0  0  0  0
  3 17  1  0  0  0  0
  5  6  1  0  0  0  0
  7  6  1  1  0  0  0
  7  8  1  0  0  0  0
  7  9  1  0  0  0  0
 10  9  1  1  0  0  0
 10 11  1  0  0  0  0
 10 12  1  0  0  0  0
 11 16  1  0  0  0  0
 12 13  1  6  0  0  0
 12 14  1  0  0  0  0
 14 15  1  6  0  0  0
 14 16  1  0  0  0  0
 16 27  1  1  0  0  0
 18 19  2  0  0  0  0
 18 23  1  0  0  0  0
 19 20  1  0  0  0  0
 20 21  2  0  0  0  0
 21 22  1  0  0  0  0
 21 27  1  0  0  0  0
 22 23  2  0  0  0  0
 22 25  1  0  0  0  0
 23 24  1  0  0  0  0
 25 26  2  0  0  0  0
 26 27  1  0  0  0  0
M  END
>  <CHROM.1>
-171.50317979,-160.93237782,-178.01115655,-175.36772971,-166.89715682,70.64330494
7.75818882,7.58873016,0.48834964,19.87615389,1.16479423,1.39409916,1.34820492

>  <Name>
ligand

>  <RI>
0

>  <Rbt.Current_Directory>
/home/itssahil/PROJECTS/Mol_Feturizer/Test_systems_manuscript/rnas/2ydh

>  <Rbt.Executable>
rbdock ($Id: //depot/dev/client3/rdock/2013.1/src/exe/rbdock.cxx#4 $)

>  <Rbt.Library>
libRbt.so (2013.1, Build901 2013/11/27)

>  <Rbt.Parameter_File>
/export/apps/rDock/src/rDock_2013.1_src/data/scripts/dock_solv.prm

>  <Rbt.Receptor>
prm/blind_docking_80.prm

>  <SCORE>
-9.43889

>  <SCORE.INTER>
-8.40223

>  <SCORE.INTER.CONST>
1

>  <SCORE.INTER.POLAR>
0

>  <SCORE.INTER.ROT>
7

>  <SCORE.INTER.SOLV>
4.57773

>  <SCORE.INTER.VDW>
-15.3941

>  <SCORE.INTER.norm>
-0.311194

>  <SCORE.INTRA>
-1.03666

>  <SCORE.INTRA.DIHEDRAL>
-3.46634

>  <SCORE.INTRA.DIHEDRAL.0>
9.75037

>  <SCORE.INTRA.POLAR>
0

>  <SCORE.INTRA.POLAR.0>
0

>  <SCORE.INTRA.REPUL>
0

>  <SCORE.INTRA.REPUL.0>
0

>  <SCORE.INTRA.SOLV>
-1.52582

>  <SCORE.INTRA.SOLV.lig_0>
-48.4279

>  <SCORE.INTRA.VDW>
1.45942

>  <SCORE.INTRA.VDW.0>
-4.69037

>  <SCORE.INTRA.norm>
-0.0383948

>  <SCORE.RESTR>
0

>  <SCORE.RESTR.CAVITY>
0

>  <SCORE.RESTR.norm>
0

>  <SCORE.SYSTEM>
0

>  <SCORE.SYSTEM.CONST>
0

>  <SCORE.SYSTEM.DIHEDRAL>
0

>  <SCORE.SYSTEM.SOLV>
0

>  <SCORE.SYSTEM.norm>
0

>  <SCORE.heavy>
27

>  <SCORE.norm>
-0.349589

>  <RMSD>
15.446

$$$$
ligand
 OpenBabel02271912153D
libRbt.so/2013.1/901 2013/11/27
 27 29  0  0  0  0  0  0  0  0999 V2000
    6.6438    3.0989   14.8905 N   0  0  0  0  0  0  0  0  0  0  0  0
    7.9115    2.4230   14.4746 C   0  0  2  0  0  0  0  0  0  0  0  0
    7.7009    1.5872   13.1925 C   0  0  0  0  0  0  0  0  0  0  0  0
    8.5949    1.4789   12.3477 O   0  0  0  0  0  0  0  0  0  0  0  0
    8.4382    1.5779   15.6295 C   0  0  0  0  0  0  0  0  0  0  0  0
    7.5343    0.4235   16.0291 C   0  0  0  0  0  0  0  0  0  0  0  0
    8.3467   -0.7815   17.1176 S   0  0  2  0  0  0  0  0  0  0  0  0
    7.1972   -2.1807   16.9891 C   0  0  0  0  0  0  0  0  0  0  0  0
    8.0691   -0.2167   18.8040 C   0  0  0  0  0  0  0  0  0  0  0  0
    8.7126   -1.1971   19.7659 C   0  0  1  0  0  0  0  0  0  0  0  0
   10.0220   -0.8050   20.1478 O   0  0  0  0  0  0  0  0  0  0  0  0
    7.9051   -1.3378   21.0332 C   0  0  1  0  0  0  0  0  0  0  0  0
    6.8832   -2.2802   20.8772 O   0  0  0  0  0  0  0  0  0  0  0  0
    8.9548   -1.8018   21.9965 C   0  0  1  0  0  0  0  0  0  0  0  0
    9.0536   -3.2119   21.9318 O   0  0  0  0  0  0  0  0  0  0  0  0
   10.2392   -1.1540   21.4954 C   0  0  2  0  0  0  0  0  0  0  0  0
    6.6324    0.9960   12.9513 O   0  0  0  0  0  0  0  0  0  0  0  0
    8.8632    2.3661   25.1796 N   0  0  0  0  0  0  0  0  0  0  0  0
    8.1307    1.2789   24.7257 C   0  0  0  0  0  0  0  0  0  0  0  0
    8.6309    0.4470   23.7310 N   0  0  0  0  0  0  0  0  0  0  0  0
    9.8502    0.6932   23.2183 C   0  0  0  0  0  0  0  0  0  0  0  0
   10.6040    1.7766   23.6783 C   0  0  0  0  0  0  0  0  0  0  0  0
   10.1100    2.6248   24.6522 C   0  0  0  0  0  0  0  0  0  0  0  0
   10.8236    3.6567   25.0771 N   0  0  0  0  0  0  0  0  0  0  0  0
   11.7677    1.7833   23.0189 N   0  0  0  0  0  0  0  0  0  0  0  0
   11.7733    0.7390   22.1614 C   0  0  0  0  0  0  0  0  0  0  0  0
   10.5927    0.0477   22.2744 N   0  0  0  0  0  0  0  0  0  0  0  0
  2  1  1  1  0  0  0
  2  3  1  0  0  0  0
  2  5  1  0  0  0  0
  3  4  1  0  0  0  0
  3 17  1  0  0  0  0
  5  6  1  0  0  0  0
  7  6  1  6  0  0  0
  7  8  1  0  0  0  0
  7  9  1  0  0  0  0
 10  9  1  6  0  0  0
 10 11  1  0  0  0  0
 10 12  1  0  0  0  0
 11 16  1  0  0  0  0
 12 13  1  6  0  0  0
 12 14  1  0  0  0  0
 14 15  1  6  0  0  0
 14 16  1  0  0  0  0
 16 27  1  1  0  0  0
 18 19  2  0  0  0  0
 18 23  1  0  0  0  0
 19 20  1  0  0  0  0
 20 21  2  0  0  0  0
 21 22  1  0  0  0  0
 21 27  1  0  0  0  0
 22 23  2  0  0  0  0
 22 25  1  0  0  0  0
 23 24  1  0  0  0  0
 25 26  2  0  0  0  0
 26 27  1  0  0  0  0
M  END
>  <CHROM.1>
145.42013748,64.31397711,166.40131843,-164.59662584,179.29002111,94.69702475
109.79402011,8.81919097,0.33369422,19.64836029,-2.37027204,1.23810946,2.34516663

>  <Name>
ligand

>  <RI>
0

>  <Rbt.Current_Directory>
/home/itssahil/PROJECTS/Mol_Feturizer/Test_systems_manuscript/rnas/2ydh

>  <Rbt.Executable>
rbdock ($Id: //depot/dev/client3/rdock/2013.1/src/exe/rbdock.cxx#4 $)

>  <Rbt.Library>
libRbt.so (2013.1, Build901 2013/11/27)

>  <Rbt.Parameter_File>
/export/apps/rDock/src/rDock_2013.1_src/data/scripts/dock_solv.prm

>  <Rbt.Receptor>
prm/blind_docking_60.prm

>  <SCORE>
-13.442

>  <SCORE.INTER>
-14.6172

>  <SCORE.INTER.CONST>
1

>  <SCORE.INTER.POLAR>
0

>  <SCORE.INTER.ROT>
7

>  <SCORE.INTER.SOLV>
6.87191

>  <SCORE.INTER.VDW>
-20.3021

>  <SCORE.INTER.norm>
-0.541377

>  <SCORE.INTRA>
1.17521

>  <SCORE.INTRA.DIHEDRAL>
-1.21879

>  <SCORE.INTRA.DIHEDRAL.0>
9.75037

>  <SCORE.INTRA.POLAR>
0

>  <SCORE.INTRA.POLAR.0>
0

>  <SCORE.INTRA.REPUL>
0

>  <SCORE.INTRA.REPUL.0>
0

>  <SCORE.INTRA.SOLV>
-0.83255

>  <SCORE.INTRA.SOLV.lig_0>
-48.4279

>  <SCORE.INTRA.VDW>
2.20087

>  <SCORE.INTRA.VDW.0>
-4.69037

>  <SCORE.INTRA.norm>
0.0435261

>  <SCORE.RESTR>
0

>  <SCORE.RESTR.CAVITY>
0

>  <SCORE.RESTR.norm>
0

>  <SCORE.SYSTEM>
0

>  <SCORE.SYSTEM.CONST>
0

>  <SCORE.SYSTEM.DIHEDRAL>
0

>  <SCORE.SYSTEM.SOLV>
0

>  <SCORE.SYSTEM.norm>
0

>  <SCORE.heavy>
27

>  <SCORE.norm>
-0.497851

>  <RMSD>
15.448

$$$$
ligand
 OpenBabel02271912153D
libRbt.so/2013.1/901 2013/11/27
 27 29  0  0  0  0  0  0  0  0999 V2000
    6.6221    2.4770   19.4443 N   0  0  0  0  0  0  0  0  0  0  0  0
    6.5908    1.7810   20.7676 C   0  0  2  0  0  0  0  0  0  0  0  0
    6.0271    2.7062   21.8690 C   0  0  0  0  0  0  0  0  0  0  0  0
    6.6672    2.9340   22.9000 O   0  0  0  0  0  0  0  0  0  0  0  0
    7.9880    1.2723   21.1063 C   0  0  0  0  0  0  0  0  0  0  0  0
    8.0628    0.4287   22.3681 C   0  0  0  0  0  0  0  0  0  0  0  0
    9.2731   -0.9204   22.2595 S   0  0  2  0  0  0  0  0  0  0  0  0
   10.7661    0.0024   21.7959 C   0  0  0  0  0  0  0  0  0  0  0  0
    8.9002   -1.8223   20.7470 C   0  0  0  0  0  0  0  0  0  0  0  0
    7.6228   -2.6153   20.9466 C   0  0  1  0  0  0  0  0  0  0  0  0
    7.1808   -3.2445   19.7537 O   0  0  0  0  0  0  0  0  0  0  0  0
    7.8026   -3.7010   21.9795 C   0  0  1  0  0  0  0  0  0  0  0  0
    7.6050   -3.2041   23.2720 O   0  0  0  0  0  0  0  0  0  0  0  0
    6.7281   -4.6649   21.5779 C   0  0  1  0  0  0  0  0  0  0  0  0
    5.5160   -4.2985   22.2095 O   0  0  0  0  0  0  0  0  0  0  0  0
    6.6147   -4.4957   20.0683 C   0  0  2  0  0  0  0  0  0  0  0  0
    4.9134    3.2537   21.7726 O   0  0  0  0  0  0  0  0  0  0  0  0
    8.3774   -9.4703   19.9984 N   0  0  0  0  0  0  0  0  0  0  0  0
    7.6804   -8.8286   21.0118 C   0  0  0  0  0  0  0  0  0  0  0  0
    7.2957   -7.4994   20.8820 N   0  0  0  0  0  0  0  0  0  0  0  0
    7.5894   -6.8366   19.7486 C   0  0  0  0  0  0  0  0  0  0  0  0
    8.2779   -7.4770   18.7145 C   0  0  0  0  0  0  0  0  0  0  0  0
    8.6854   -8.7924   18.8385 C   0  0  0  0  0  0  0  0  0  0  0  0
    9.3472   -9.3917   17.8600 N   0  0  0  0  0  0  0  0  0  0  0  0
    8.4253   -6.6052   17.7108 N   0  0  0  0  0  0  0  0  0  0  0  0
    7.8503   -5.4384   18.0770 C   0  0  0  0  0  0  0  0  0  0  0  0
    7.3217   -5.5645   19.3376 N   0  0  0  0  0  0  0  0  0  0  0  0
  2  1  1  6  0  0  0
  2  3  1  0  0  0  0
  2  5  1  0  0  0  0
  3  4  1  0  0  0  0
  3 17  1  0  0  0  0
  5  6  1  0  0  0  0
  7  6  1  6  0  0  0
  7  8  1  0  0  0  0
  7  9  1  0  0  0  0
 10  9  1  6  0  0  0
 10 11  1  0  0  0  0
 10 12  1  0  0  0  0
 11 16  1  0  0  0  0
 12 13  1  1  0  0  0
 12 14  1  0  0  0  0
 14 15  1  1  0  0  0
 14 16  1  0  0  0  0
 16 27  1  6  0  0  0
 18 19  2  0  0  0  0
 18 23  1  0  0  0  0
 19 20  1  0  0  0  0
 20 21  2  0  0  0  0
 21 22  1  0  0  0  0
 21 27  1  0  0  0  0
 22 23  2  0  0  0  0
 22 25  1  0  0  0  0
 23 24  1  0  0  0  0
 25 26  2  0  0  0  0
 26 27  1  0  0  0  0
M  END
>  <CHROM.1>
-124.82529969,-174.42376423,144.60036532,54.24845440,-72.44104884,173.74224339
145.26165853,7.67773935,-3.08372099,20.76598666,2.03352488,-1.35023966,0.69255380

>  <Name>
ligand

>  <RI>
0

>  <Rbt.Current_Directory>
/home/itssahil/PROJECTS/Mol_Feturizer/Test_systems_manuscript/rnas/2ydh

>  <Rbt.Executable>
rbdock ($Id: //depot/dev/client3/rdock/2013.1/src/exe/rbdock.cxx#4 $)

>  <Rbt.Library>
libRbt.so (2013.1, Build901 2013/11/27)

>  <Rbt.Parameter_File>
/export/apps/rDock/src/rDock_2013.1_src/data/scripts/dock_solv.prm

>  <Rbt.Receptor>
prm/blind_docking_80.prm

>  <SCORE>
-10.5618

>  <SCORE.INTER>
-12.4955

>  <SCORE.INTER.CONST>
1

>  <SCORE.INTER.POLAR>
0

>  <SCORE.INTER.ROT>
7

>  <SCORE.INTER.SOLV>
7.18129

>  <SCORE.INTER.VDW>
-18.9907

>  <SCORE.INTER.norm>
-0.462795

>  <SCORE.INTRA>
1.9337

>  <SCORE.INTRA.DIHEDRAL>
-2.86536

>  <SCORE.INTRA.DIHEDRAL.0>
9.75037

>  <SCORE.INTRA.POLAR>
0

>  <SCORE.INTRA.POLAR.0>
0

>  <SCORE.INTRA.REPUL>
0

>  <SCORE.INTRA.REPUL.0>
0

>  <SCORE.INTRA.SOLV>
-1.26985

>  <SCORE.INTRA.SOLV.lig_0>
-48.4279

>  <SCORE.INTRA.VDW>
4.0013

>  <SCORE.INTRA.VDW.0>
-4.69037

>  <SCORE.INTRA.norm>
0.0716183

>  <SCORE.RESTR>
0

>  <SCORE.RESTR.CAVITY>
0

>  <SCORE.RESTR.norm>
0

>  <SCORE.SYSTEM>
0

>  <SCORE.SYSTEM.CONST>
0

>  <SCORE.SYSTEM.DIHEDRAL>
0

>  <SCORE.SYSTEM.SOLV>
0

>  <SCORE.SYSTEM.norm>
0

>  <SCORE.heavy>
27

>  <SCORE.norm>
-0.391177

>  <RMSD>
15.460

$$$$
ligand
 OpenBabel02271912153D
libRbt.so/2013.1/901 2013/11/27
 27 29  0  0  0  0  0  0  0  0999 V2000
    8.4801    4.1392   25.5956 N   0  0  0  0  0  0  0  0  0  0  0  0
    8.7465    3.1424   24.5129 C   0  0  2  0  0  0  0  0  0  0  0  0
    9.0047    1.7377   25.1018 C   0  0  0  0  0  0  0  0  0  0  0  0
    9.6278    1.5936   26.1580 O   0  0  0  0  0  0  0  0  0  0  0  0
    9.9096    3.6260   23.6532 C   0  0  0  0  0  0  0  0  0  0  0  0
   10.2777    2.6953   22.5098 C   0  0  0  0  0  0  0  0  0  0  0  0
   11.2939    1.2838   23.0312 S   0  0  2  0  0  0  0  0  0  0  0  0
   12.9605    1.9439   22.7442 C   0  0  0  0  0  0  0  0  0  0  0  0
   11.1496    0.0427   21.7355 C   0  0  0  0  0  0  0  0  0  0  0  0
    9.7953   -0.6314   21.8453 C   0  0  1  0  0  0  0  0  0  0  0  0
    8.7193    0.2779   21.6734 O   0  0  0  0  0  0  0  0  0  0  0  0
    9.6312   -1.7133   20.8059 C   0  0  1  0  0  0  0  0  0  0  0  0
   10.1824   -2.9215   21.2453 O   0  0  0  0  0  0  0  0  0  0  0  0
    8.1388   -1.7846   20.6938 C   0  0  1  0  0  0  0  0  0  0  0  0
    7.6422   -2.6807   21.6698 O   0  0  0  0  0  0  0  0  0  0  0  0
    7.6705   -0.3649   20.9865 C   0  0  2  0  0  0  0  0  0  0  0  0
    8.6067    0.6987   24.5439 O   0  0  0  0  0  0  0  0  0  0  0  0
    8.6735    0.4793   15.8738 N   0  0  0  0  0  0  0  0  0  0  0  0
    9.2932   -0.4243   16.7247 C   0  0  0  0  0  0  0  0  0  0  0  0
    8.9208   -0.5170   18.0605 N   0  0  0  0  0  0  0  0  0  0  0  0
    7.9328    0.2694   18.5247 C   0  0  0  0  0  0  0  0  0  0  0  0
    7.2906    1.1730   17.6733 C   0  0  0  0  0  0  0  0  0  0  0  0
    7.6651    1.2908   16.3475 C   0  0  0  0  0  0  0  0  0  0  0  0
    7.0609    2.1564   15.5473 N   0  0  0  0  0  0  0  0  0  0  0  0
    6.3501    1.8117   18.3780 N   0  0  0  0  0  0  0  0  0  0  0  0
    6.3765    1.3387   19.6436 C   0  0  0  0  0  0  0  0  0  0  0  0
    7.3498    0.3768   19.7525 N   0  0  0  0  0  0  0  0  0  0  0  0
  2  1  1  1  0  0  0
  2  3  1  0  0  0  0
  2  5  1  0  0  0  0
  3  4  1  0  0  0  0
  3 17  1  0  0  0  0
  5  6  1  0  0  0  0
  7  6  1  6  0  0  0
  7  8  1  0  0  0  0
  7  9  1  0  0  0  0
 10  9  1  6  0  0  0
 10 11  1  0  0  0  0
 10 12  1  0  0  0  0
 11 16  1  0  0  0  0
 12 13  1  1  0  0  0
 12 14  1  0  0  0  0
 14 15  1  1  0  0  0
 14 16  1  0  0  0  0
 16 27  1  6  0  0  0
 18 19  2  0  0  0  0
 18 23  1  0  0  0  0
 19 20  1  0  0  0  0
 20 21  2  0  0  0  0
 21 22  1  0  0  0  0
 21 27  1  0  0  0  0
 22 23  2  0  0  0  0
 22 25  1  0  0  0  0
 23 24  1  0  0  0  0
 25 26  2  0  0  0  0
 26 27  1  0  0  0  0
M  END
>  <CHROM.1>
-37.07462109,-179.88732239,-79.96880890,-92.86630460,-75.55144459,61.34049805
85.75723501,8.99859607,0.70836074,21.13225502,0.83563646,-1.13502309,0.66634762

>  <Name>
ligand

>  <RI>
0

>  <Rbt.Current_Directory>
/home/itssahil/PROJECTS/Mol_Feturizer/Test_systems_manuscript/rnas/2ydh

>  <Rbt.Executable>
rbdock ($Id: //depot/dev/client3/rdock/2013.1/src/exe/rbdock.cxx#4 $)

>  <Rbt.Library>
libRbt.so (2013.1, Build901 2013/11/27)

>  <Rbt.Parameter_File>
/export/apps/rDock/src/rDock_2013.1_src/data/scripts/dock_solv.prm

>  <Rbt.Receptor>
prm/blind_docking_100.prm

>  <SCORE>
-14.6544

>  <SCORE.INTER>
-12.7639

>  <SCORE.INTER.CONST>
1

>  <SCORE.INTER.POLAR>
0

>  <SCORE.INTER.ROT>
7

>  <SCORE.INTER.SOLV>
6.31338

>  <SCORE.INTER.VDW>
-18.8804

>  <SCORE.INTER.norm>
-0.472738

>  <SCORE.INTRA>
-1.89047

>  <SCORE.INTRA.DIHEDRAL>
-3.40267

>  <SCORE.INTRA.DIHEDRAL.0>
9.75037

>  <SCORE.INTRA.POLAR>
0

>  <SCORE.INTRA.POLAR.0>
0

>  <SCORE.INTRA.REPUL>
0

>  <SCORE.INTRA.REPUL.0>
0

>  <SCORE.INTRA.SOLV>
-1.18184

>  <SCORE.INTRA.SOLV.lig_0>
-48.4279

>  <SCORE.INTRA.VDW>
0.40179

>  <SCORE.INTRA.VDW.0>
-4.69037

>  <SCORE.INTRA.norm>
-0.0700172

>  <SCORE.RESTR>
0

>  <SCORE.RESTR.CAVITY>
0

>  <SCORE.RESTR.norm>
0

>  <SCORE.SYSTEM>
0

>  <SCORE.SYSTEM.CONST>
0

>  <SCORE.SYSTEM.DIHEDRAL>
0

>  <SCORE.SYSTEM.SOLV>
0

>  <SCORE.SYSTEM.norm>
0

>  <SCORE.heavy>
27

>  <SCORE.norm>
-0.542755

>  <RMSD>
15.508

$$$$
ligand
 OpenBabel02271912153D
libRbt.so/2013.1/901 2013/11/27
 27 29  0  0  0  0  0  0  0  0999 V2000
    7.7078   -5.0100   22.9937 N   0  0  0  0  0  0  0  0  0  0  0  0
    6.7650   -3.8498   23.0350 C   0  0  2  0  0  0  0  0  0  0  0  0
    5.4008   -4.2196   22.4113 C   0  0  0  0  0  0  0  0  0  0  0  0
    5.2784   -4.3779   21.1929 O   0  0  0  0  0  0  0  0  0  0  0  0
    7.4053   -2.6511   22.3430 C   0  0  0  0  0  0  0  0  0  0  0  0
    8.6843   -2.1552   22.9967 C   0  0  0  0  0  0  0  0  0  0  0  0
    9.3529   -0.6557   22.2212 S   0  0  2  0  0  0  0  0  0  0  0  0
   10.4819   -0.0788   23.5205 C   0  0  0  0  0  0  0  0  0  0  0  0
    8.0441    0.5786   22.2810 C   0  0  0  0  0  0  0  0  0  0  0  0
    8.6278    1.9351   21.9348 C   0  0  1  0  0  0  0  0  0  0  0  0
    9.3713    1.9153   20.7261 O   0  0  0  0  0  0  0  0  0  0  0  0
    7.5471    2.9762   21.7731 C   0  0  1  0  0  0  0  0  0  0  0  0
    7.1922    3.5296   23.0078 O   0  0  0  0  0  0  0  0  0  0  0  0
    8.2328    3.9715   20.8876 C   0  0  1  0  0  0  0  0  0  0  0  0
    8.9580    4.8842   21.6896 O   0  0  0  0  0  0  0  0  0  0  0  0
    9.1829    3.1328   20.0426 C   0  0  2  0  0  0  0  0  0  0  0  0
    4.3733   -4.3680   23.0980 O   0  0  0  0  0  0  0  0  0  0  0  0
    8.0099   -0.3796   16.2815 N   0  0  0  0  0  0  0  0  0  0  0  0
    8.5616   -0.6228   17.5309 C   0  0  0  0  0  0  0  0  0  0  0  0
    8.8259    0.4210   18.4096 N   0  0  0  0  0  0  0  0  0  0  0  0
    8.5232    1.6805   18.0458 C   0  0  0  0  0  0  0  0  0  0  0  0
    7.9530    1.9366   16.7956 C   0  0  0  0  0  0  0  0  0  0  0  0
    7.7044    0.9101   15.9031 C   0  0  0  0  0  0  0  0  0  0  0  0
    7.1740    1.1590   14.7151 N   0  0  0  0  0  0  0  0  0  0  0  0
    7.7426    3.2537   16.6965 N   0  0  0  0  0  0  0  0  0  0  0  0
    8.1583    3.8353   17.8433 C   0  0  0  0  0  0  0  0  0  0  0  0
    8.6418    2.8735   18.6950 N   0  0  0  0  0  0  0  0  0  0  0  0
  2  1  1  6  0  0  0
  2  3  1  0  0  0  0
  2  5  1  0  0  0  0
  3  4  1  0  0  0  0
  3 17  1  0  0  0  0
  5  6  1  0  0  0  0
  7  6  1  1  0  0  0
  7  8  1  0  0  0  0
  7  9  1  0  0  0  0
 10  9  1  6  0  0  0
 10 11  1  0  0  0  0
 10 12  1  0  0  0  0
 11 16  1  0  0  0  0
 12 13  1  1  0  0  0
 12 14  1  0  0  0  0
 14 15  1  1  0  0  0
 14 16  1  0  0  0  0
 16 27  1  6  0  0  0
 18 19  2  0  0  0  0
 18 23  1  0  0  0  0
 19 20  1  0  0  0  0
 20 21  2  0  0  0  0
 21 22  1  0  0  0  0
 21 27  1  0  0  0  0
 22 23  2  0  0  0  0
 22 25  1  0  0  0  0
 23 24  1  0  0  0  0
 25 26  2  0  0  0  0
 26 27  1  0  0  0  0
M  END
>  <CHROM.1>
-71.75722962,-61.95074031,-175.78020471,162.69123614,167.54950701,51.48505048
-10.54811921,7.97692317,0.31988564,20.45492056,2.18852369,1.22979724,1.93085838

>  <Name>
ligand

>  <RI>
0

>  <Rbt.Current_Directory>
/home/itssahil/PROJECTS/Mol_Feturizer/Test_systems_manuscript/rnas/2ydh

>  <Rbt.Executable>
rbdock ($Id: //depot/dev/client3/rdock/2013.1/src/exe/rbdock.cxx#4 $)

>  <Rbt.Library>
libRbt.so (2013.1, Build901 2013/11/27)

>  <Rbt.Parameter_File>
/export/apps/rDock/src/rDock_2013.1_src/data/scripts/dock_solv.prm

>  <Rbt.Receptor>
prm/blind_docking_100.prm

>  <SCORE>
-9.05321

>  <SCORE.INTER>
-8.16527

>  <SCORE.INTER.CONST>
1

>  <SCORE.INTER.POLAR>
0

>  <SCORE.INTER.ROT>
7

>  <SCORE.INTER.SOLV>
8.73666

>  <SCORE.INTER.VDW>
-16.6224

>  <SCORE.INTER.norm>
-0.302417

>  <SCORE.INTRA>
-0.887941

>  <SCORE.INTRA.DIHEDRAL>
-5.99043

>  <SCORE.INTRA.DIHEDRAL.0>
9.75037

>  <SCORE.INTRA.POLAR>
0

>  <SCORE.INTRA.POLAR.0>
0

>  <SCORE.INTRA.REPUL>
0

>  <SCORE.INTRA.REPUL.0>
0

>  <SCORE.INTRA.SOLV>
-0.80842

>  <SCORE.INTRA.SOLV.lig_0>
-48.4279

>  <SCORE.INTRA.VDW>
2.51148

>  <SCORE.INTRA.VDW.0>
-4.69037

>  <SCORE.INTRA.norm>
-0.0328867

>  <SCORE.RESTR>
0

>  <SCORE.RESTR.CAVITY>
0

>  <SCORE.RESTR.norm>
0

>  <SCORE.SYSTEM>
0

>  <SCORE.SYSTEM.CONST>
0

>  <SCORE.SYSTEM.DIHEDRAL>
0

>  <SCORE.SYSTEM.SOLV>
0

>  <SCORE.SYSTEM.norm>
0

>  <SCORE.heavy>
27

>  <SCORE.norm>
-0.335304

>  <RMSD>
15.635

$$$$
ligand
 OpenBabel02271912153D
libRbt.so/2013.1/901 2013/11/27
 27 29  0  0  0  0  0  0  0  0999 V2000
    8.5517    3.8536   21.0396 N   0  0  0  0  0  0  0  0  0  0  0  0
    8.8845    3.2498   19.7124 C   0  0  2  0  0  0  0  0  0  0  0  0
    8.7079    4.2788   18.5737 C   0  0  0  0  0  0  0  0  0  0  0  0
    9.5986    5.0901   18.3033 O   0  0  0  0  0  0  0  0  0  0  0  0
    8.0340    2.0028   19.4949 C   0  0  0  0  0  0  0  0  0  0  0  0
    8.4476    1.1583   18.3012 C   0  0  0  0  0  0  0  0  0  0  0  0
    7.3306   -0.2384   17.9878 S   0  0  2  0  0  0  0  0  0  0  0  0
    5.7892    0.6415   17.6065 C   0  0  0  0  0  0  0  0  0  0  0  0
    6.9629   -0.9696   19.5909 C   0  0  0  0  0  0  0  0  0  0  0  0
    8.1402   -1.8202   20.0281 C   0  0  1  0  0  0  0  0  0  0  0  0
    9.2999   -1.0474   20.2965 O   0  0  0  0  0  0  0  0  0  0  0  0
    7.8246   -2.5962   21.2835 C   0  0  1  0  0  0  0  0  0  0  0  0
    7.1690   -3.7948   20.9831 O   0  0  0  0  0  0  0  0  0  0  0  0
    9.1986   -2.8301   21.8334 C   0  0  1  0  0  0  0  0  0  0  0  0
    9.7310   -4.0119   21.2658 O   0  0  0  0  0  0  0  0  0  0  0  0
    9.9978   -1.6148   21.3810 C   0  0  2  0  0  0  0  0  0  0  0  0
    7.6710    4.3411   17.8878 O   0  0  0  0  0  0  0  0  0  0  0  0
   12.5295    2.6215   23.2527 N   0  0  0  0  0  0  0  0  0  0  0  0
   12.7529    1.9564   22.0558 C   0  0  0  0  0  0  0  0  0  0  0  0
   12.0038    0.8378   21.7107 N   0  0  0  0  0  0  0  0  0  0  0  0
   11.0378    0.4097   22.5436 C   0  0  0  0  0  0  0  0  0  0  0  0
   10.7932    1.0805   23.7452 C   0  0  0  0  0  0  0  0  0  0  0  0
   11.5449    2.1819   24.1111 C   0  0  0  0  0  0  0  0  0  0  0  0
   11.3165    2.8077   25.2560 N   0  0  0  0  0  0  0  0  0  0  0  0
    9.7836    0.4628   24.3682 N   0  0  0  0  0  0  0  0  0  0  0  0
    9.3824   -0.5726   23.5981 C   0  0  0  0  0  0  0  0  0  0  0  0
   10.1465   -0.6185   22.4587 N   0  0  0  0  0  0  0  0  0  0  0  0
  2  1  1  1  0  0  0
  2  3  1  0  0  0  0
  2  5  1  0  0  0  0
  3  4  1  0  0  0  0
  3 17  1  0  0  0  0
  5  6  1  0  0  0  0
  7  6  1  1  0  0  0
  7  8  1  0  0  0  0
  7  9  1  0  0  0  0
 10  9  1  1  0  0  0
 10 11  1  0  0  0  0
 10 12  1  0  0  0  0
 11 16  1  0  0  0  0
 12 13  1  6  0  0  0
 12 14  1  0  0  0  0
 14 15  1  6  0  0  0
 14 16  1  0  0  0  0
 16 27  1  1  0  0  0
 18 19  2  0  0  0  0
 18 23  1  0  0  0  0
 19 20  1  0  0  0  0
 20 21  2  0  0  0  0
 21 22  1  0  0  0  0
 21 27  1  0  0  0  0
 22 23  2  0  0  0  0
 22 25  1  0  0  0  0
 23 24  1  0  0  0  0
 25 26  2  0  0  0  0
 26 27  1  0  0  0  0
M  END
>  <CHROM.1>
83.07803969,-169.61559340,-175.09360282,63.05210107,-77.99089494,66.75438696
-78.80132626,9.20204903,0.56513807,20.83722117,-2.79358342,0.90462868,2.78086808

>  <Name>
ligand

>  <RI>
0

>  <Rbt.Current_Directory>
/home/itssahil/PROJECTS/Mol_Feturizer/Test_systems_manuscript/rnas/2ydh

>  <Rbt.Executable>
rbdock ($Id: //depot/dev/client3/rdock/2013.1/src/exe/rbdock.cxx#4 $)

>  <Rbt.Library>
libRbt.so (2013.1, Build901 2013/11/27)

>  <Rbt.Parameter_File>
/export/apps/rDock/src/rDock_2013.1_src/data/scripts/dock_solv.prm

>  <Rbt.Receptor>
prm/blind_docking_100.prm

>  <SCORE>
-11.3079

>  <SCORE.INTER>
-10.3024

>  <SCORE.INTER.CONST>
1

>  <SCORE.INTER.POLAR>
0

>  <SCORE.INTER.ROT>
7

>  <SCORE.INTER.SOLV>
7.77275

>  <SCORE.INTER.VDW>
-17.7259

>  <SCORE.INTER.norm>
-0.381571

>  <SCORE.INTRA>
-1.0055

>  <SCORE.INTRA.DIHEDRAL>
-5.45554

>  <SCORE.INTRA.DIHEDRAL.0>
9.75037

>  <SCORE.INTRA.POLAR>
0

>  <SCORE.INTRA.POLAR.0>
0

>  <SCORE.INTRA.REPUL>
0

>  <SCORE.INTRA.REPUL.0>
0

>  <SCORE.INTRA.SOLV>
-1.43076

>  <SCORE.INTRA.SOLV.lig_0>
-48.4279

>  <SCORE.INTRA.VDW>
2.43765

>  <SCORE.INTRA.VDW.0>
-4.69037

>  <SCORE.INTRA.norm>
-0.0372407

>  <SCORE.RESTR>
0

>  <SCORE.RESTR.CAVITY>
0

>  <SCORE.RESTR.norm>
0

>  <SCORE.SYSTEM>
0

>  <SCORE.SYSTEM.CONST>
0

>  <SCORE.SYSTEM.DIHEDRAL>
0

>  <SCORE.SYSTEM.SOLV>
0

>  <SCORE.SYSTEM.norm>
0

>  <SCORE.heavy>
27

>  <SCORE.norm>
-0.418812

>  <RMSD>
15.660

$$$$
ligand
 OpenBabel02271912153D
libRbt.so/2013.1/901 2013/11/27
 27 29  0  0  0  0  0  0  0  0999 V2000
   10.1729   -6.6707   22.5126 N   0  0  0  0  0  0  0  0  0  0  0  0
    9.9032   -5.9716   23.8069 C   0  0  2  0  0  0  0  0  0  0  0  0
    9.2232   -6.9197   24.8195 C   0  0  0  0  0  0  0  0  0  0  0  0
    8.7999   -6.5004   25.9010 O   0  0  0  0  0  0  0  0  0  0  0  0
    9.0706   -4.7213   23.5442 C   0  0  0  0  0  0  0  0  0  0  0  0
    7.6504   -4.9963   23.0789 C   0  0  0  0  0  0  0  0  0  0  0  0
    6.6452   -3.4933   22.9126 S   0  0  2  0  0  0  0  0  0  0  0  0
    5.0482   -4.2076   22.4277 C   0  0  0  0  0  0  0  0  0  0  0  0
    7.1767   -2.6873   21.3935 C   0  0  0  0  0  0  0  0  0  0  0  0
    8.4978   -1.9850   21.6427 C   0  0  1  0  0  0  0  0  0  0  0  0
    9.0234   -1.3824   20.4702 O   0  0  0  0  0  0  0  0  0  0  0  0
    8.3569   -0.8943   22.6763 C   0  0  1  0  0  0  0  0  0  0  0  0
    8.4746   -1.4096   23.9714 O   0  0  0  0  0  0  0  0  0  0  0  0
    9.5085   -0.0049   22.3189 C   0  0  1  0  0  0  0  0  0  0  0  0
   10.6697   -0.4567   22.9895 O   0  0  0  0  0  0  0  0  0  0  0  0
    9.6628   -0.1746   20.8130 C   0  0  2  0  0  0  0  0  0  0  0  0
    9.0769   -8.1358   24.5981 O   0  0  0  0  0  0  0  0  0  0  0  0
    9.7124    4.9652   19.6135 N   0  0  0  0  0  0  0  0  0  0  0  0
   10.5786    4.2786   20.4519 C   0  0  0  0  0  0  0  0  0  0  0  0
   10.4226    2.9161   20.6776 N   0  0  0  0  0  0  0  0  0  0  0  0
    9.4279    2.2556   20.0575 C   0  0  0  0  0  0  0  0  0  0  0  0
    8.5582    2.9336   19.1986 C   0  0  0  0  0  0  0  0  0  0  0  0
    8.6885    4.2929   18.9814 C   0  0  0  0  0  0  0  0  0  0  0  0
    7.8551    4.9330   18.1751 N   0  0  0  0  0  0  0  0  0  0  0  0
    7.6822    2.0485   18.7104 N   0  0  0  0  0  0  0  0  0  0  0  0
    7.9728    0.8356   19.2306 C   0  0  0  0  0  0  0  0  0  0  0  0
    9.0569    0.9437   20.0657 N   0  0  0  0  0  0  0  0  0  0  0  0
  2  1  1  6  0  0  0
  2  3  1  0  0  0  0
  2  5  1  0  0  0  0
  3  4  1  0  0  0  0
  3 17  1  0  0  0  0
  5  6  1  0  0  0  0
  7  6  1  6  0  0  0
  7  8  1  0  0  0  0
  7  9  1  0  0  0  0
 10  9  1  6  0  0  0
 10 11  1  0  0  0  0
 10 12  1  0  0  0  0
 11 16  1  0  0  0  0
 12 13  1  1  0  0  0
 12 14  1  0  0  0  0
 14 15  1  1  0  0  0
 14 16  1  0  0  0  0
 16 27  1  6  0  0  0
 18 19  2  0  0  0  0
 18 23  1  0  0  0  0
 19 20  1  0  0  0  0
 20 21  2  0  0  0  0
 21 22  1  0  0  0  0
 21 27  1  0  0  0  0
 22 23  2  0  0  0  0
 22 25  1  0  0  0  0
 23 24  1  0  0  0  0
 25 26  2  0  0  0  0
 26 27  1  0  0  0  0
M  END
>  <CHROM.1>
-172.86722041,68.17952926,175.06283745,-177.64092212,-76.81972624,176.81861679
-176.30394708,8.66292619,-1.36488161,21.80657528,-1.62773089,-0.39297857
-0.46959449

>  <Name>
ligand

>  <RI>
0

>  <Rbt.Current_Directory>
/home/itssahil/PROJECTS/Mol_Feturizer/Test_systems_manuscript/rnas/2ydh

>  <Rbt.Executable>
rbdock ($Id: //depot/dev/client3/rdock/2013.1/src/exe/rbdock.cxx#4 $)

>  <Rbt.Library>
libRbt.so (2013.1, Build901 2013/11/27)

>  <Rbt.Parameter_File>
/export/apps/rDock/src/rDock_2013.1_src/data/scripts/dock_solv.prm

>  <Rbt.Receptor>
prm/blind_docking_60.prm

>  <SCORE>
-13.9702

>  <SCORE.INTER>
-13.0266

>  <SCORE.INTER.CONST>
1

>  <SCORE.INTER.POLAR>
0

>  <SCORE.INTER.ROT>
7

>  <SCORE.INTER.SOLV>
9.73398

>  <SCORE.INTER.VDW>
-20.1957

>  <SCORE.INTER.norm>
-0.482468

>  <SCORE.INTRA>
-0.94354

>  <SCORE.INTRA.DIHEDRAL>
-5.8465

>  <SCORE.INTRA.DIHEDRAL.0>
9.75037

>  <SCORE.INTRA.POLAR>
0

>  <SCORE.INTRA.POLAR.0>
0

>  <SCORE.INTRA.REPUL>
0

>  <SCORE.INTRA.REPUL.0>
0

>  <SCORE.INTRA.SOLV>
-0.478834

>  <SCORE.INTRA.SOLV.lig_0>
-48.4279

>  <SCORE.INTRA.VDW>
2.21913

>  <SCORE.INTRA.VDW.0>
-4.69037

>  <SCORE.INTRA.norm>
-0.0349459

>  <SCORE.RESTR>
0

>  <SCORE.RESTR.CAVITY>
0

>  <SCORE.RESTR.norm>
0

>  <SCORE.SYSTEM>
0

>  <SCORE.SYSTEM.CONST>
0

>  <SCORE.SYSTEM.DIHEDRAL>
0

>  <SCORE.SYSTEM.SOLV>
0

>  <SCORE.SYSTEM.norm>
0

>  <SCORE.heavy>
27

>  <SCORE.norm>
-0.517413

>  <RMSD>
15.662

$$$$
ligand
 OpenBabel02271912153D
libRbt.so/2013.1/901 2013/11/27
 27 29  0  0  0  0  0  0  0  0999 V2000
    8.7401   -5.0876   28.5201 N   0  0  0  0  0  0  0  0  0  0  0  0
    7.8485   -5.5148   27.3979 C   0  0  2  0  0  0  0  0  0  0  0  0
    6.4014   -5.7364   27.8912 C   0  0  0  0  0  0  0  0  0  0  0  0
    6.1025   -6.7253   28.5675 O   0  0  0  0  0  0  0  0  0  0  0  0
    8.4263   -6.7622   26.7378 C   0  0  0  0  0  0  0  0  0  0  0  0
    7.7191   -7.1843   25.4607 C   0  0  0  0  0  0  0  0  0  0  0  0
    8.2084   -6.2058   24.0116 S   0  0  2  0  0  0  0  0  0  0  0  0
    6.5912   -5.5988   23.4530 C   0  0  0  0  0  0  0  0  0  0  0  0
    8.6378   -7.3835   22.7199 C   0  0  0  0  0  0  0  0  0  0  0  0
    9.9805   -8.0086   23.0473 C   0  0  1  0  0  0  0  0  0  0  0  0
   10.2862   -9.1119   22.2086 O   0  0  0  0  0  0  0  0  0  0  0  0
   11.1045   -7.0128   22.8965 C   0  0  1  0  0  0  0  0  0  0  0  0
   11.2621   -6.2513   24.0593 O   0  0  0  0  0  0  0  0  0  0  0  0
   12.2701   -7.9240   22.6596 C   0  0  1  0  0  0  0  0  0  0  0  0
   12.8153   -8.3140   23.9058 O   0  0  0  0  0  0  0  0  0  0  0  0
   11.6694   -9.1256   21.9414 C   0  0  2  0  0  0  0  0  0  0  0  0
    5.4798   -4.9420   27.6290 O   0  0  0  0  0  0  0  0  0  0  0  0
   15.1071   -8.7000   17.9589 N   0  0  0  0  0  0  0  0  0  0  0  0
   15.3779   -8.7107   19.3195 C   0  0  0  0  0  0  0  0  0  0  0  0
   14.3514   -8.8164   20.2504 N   0  0  0  0  0  0  0  0  0  0  0  0
   13.0815   -8.9284   19.8203 C   0  0  0  0  0  0  0  0  0  0  0  0
   12.7975   -8.9341   18.4517 C   0  0  0  0  0  0  0  0  0  0  0  0
   13.8067   -8.8083   17.5149 C   0  0  0  0  0  0  0  0  0  0  0  0
   13.5315   -8.8033   16.2193 N   0  0  0  0  0  0  0  0  0  0  0  0
   11.4753   -9.0696   18.3020 N   0  0  0  0  0  0  0  0  0  0  0  0
   10.9175   -9.1523   19.5301 C   0  0  0  0  0  0  0  0  0  0  0  0
   11.8999   -9.0712   20.4854 N   0  0  0  0  0  0  0  0  0  0  0  0
  2  1  1  1  0  0  0
  2  3  1  0  0  0  0
  2  5  1  0  0  0  0
  3  4  1  0  0  0  0
  3 17  1  0  0  0  0
  5  6  1  0  0  0  0
  7  6  1  1  0  0  0
  7  8  1  0  0  0  0
  7  9  1  0  0  0  0
 10  9  1  6  0  0  0
 10 11  1  0  0  0  0
 10 12  1  0  0  0  0
 11 16  1  0  0  0  0
 12 13  1  1  0  0  0
 12 14  1  0  0  0  0
 14 15  1  1  0  0  0
 14 16  1  0  0  0  0
 16 27  1  6  0  0  0
 18 19  2  0  0  0  0
 18 23  1  0  0  0  0
 19 20  1  0  0  0  0
 20 21  2  0  0  0  0
 21 22  1  0  0  0  0
 21 27  1  0  0  0  0
 22 23  2  0  0  0  0
 22 25  1  0  0  0  0
 23 24  1  0  0  0  0
 25 26  2  0  0  0  0
 26 27  1  0  0  0  0
M  END
>  <CHROM.1>
-73.73475920,-171.82592478,79.14804085,-124.16306471,-74.08323464,169.73568149
172.64200021,10.38674750,-7.51831458,22.81774475,-2.21039690,0.18639811,-1.78371853

>  <Name>
ligand

>  <RI>
0

>  <Rbt.Current_Directory>
/home/itssahil/PROJECTS/Mol_Feturizer/Test_systems_manuscript/rnas/2ydh

>  <Rbt.Executable>
rbdock ($Id: //depot/dev/client3/rdock/2013.1/src/exe/rbdock.cxx#4 $)

>  <Rbt.Library>
libRbt.so (2013.1, Build901 2013/11/27)

>  <Rbt.Parameter_File>
/export/apps/rDock/src/rDock_2013.1_src/data/scripts/dock_solv.prm

>  <Rbt.Receptor>
prm/blind_docking_100.prm

>  <SCORE>
-15.0718

>  <SCORE.INTER>
-16.0881

>  <SCORE.INTER.CONST>
1

>  <SCORE.INTER.POLAR>
0

>  <SCORE.INTER.ROT>
7

>  <SCORE.INTER.SOLV>
12.6593

>  <SCORE.INTER.VDW>
-23.2118

>  <SCORE.INTER.norm>
-0.595857

>  <SCORE.INTRA>
1.01632

>  <SCORE.INTRA.DIHEDRAL>
-0.228246

>  <SCORE.INTRA.DIHEDRAL.0>
9.75037

>  <SCORE.INTRA.POLAR>
0

>  <SCORE.INTRA.POLAR.0>
0

>  <SCORE.INTRA.REPUL>
0

>  <SCORE.INTRA.REPUL.0>
0

>  <SCORE.INTRA.SOLV>
-1.19303

>  <SCORE.INTRA.SOLV.lig_0>
-48.4279

>  <SCORE.INTRA.VDW>
1.72696

>  <SCORE.INTRA.VDW.0>
-4.69037

>  <SCORE.INTRA.norm>
0.0376414

>  <SCORE.RESTR>
0

>  <SCORE.RESTR.CAVITY>
0

>  <SCORE.RESTR.norm>
0

>  <SCORE.SYSTEM>
0

>  <SCORE.SYSTEM.CONST>
0

>  <SCORE.SYSTEM.DIHEDRAL>
0

>  <SCORE.SYSTEM.SOLV>
0

>  <SCORE.SYSTEM.norm>
0

>  <SCORE.heavy>
27

>  <SCORE.norm>
-0.558215

>  <RMSD>
15.669

$$$$
ligand
 OpenBabel02271912153D
libRbt.so/2013.1/901 2013/11/27
 27 29  0  0  0  0  0  0  0  0999 V2000
    9.6495   -9.4228   17.8153 N   0  0  0  0  0  0  0  0  0  0  0  0
    9.9762   -9.5647   19.2678 C   0  0  2  0  0  0  0  0  0  0  0  0
    8.7234   -9.3411   20.1438 C   0  0  0  0  0  0  0  0  0  0  0  0
    8.2905  -10.2347   20.8776 O   0  0  0  0  0  0  0  0  0  0  0  0
   11.1065   -8.6069   19.6293 C   0  0  0  0  0  0  0  0  0  0  0  0
   11.7755   -8.8963   20.9627 C   0  0  0  0  0  0  0  0  0  0  0  0
   11.4014   -7.6587   22.2376 S   0  0  2  0  0  0  0  0  0  0  0  0
   12.3613   -8.3117   23.6333 C   0  0  0  0  0  0  0  0  0  0  0  0
    9.7082   -7.9641   22.7664 C   0  0  0  0  0  0  0  0  0  0  0  0
    9.3215   -6.9309   23.8074 C   0  0  1  0  0  0  0  0  0  0  0  0
    9.2127   -5.6246   23.2635 O   0  0  0  0  0  0  0  0  0  0  0  0
    7.9922   -7.2582   24.4429 C   0  0  1  0  0  0  0  0  0  0  0  0
    8.1488   -8.1562   25.5039 O   0  0  0  0  0  0  0  0  0  0  0  0
    7.5537   -5.9047   24.9126 C   0  0  1  0  0  0  0  0  0  0  0  0
    8.0841   -5.6665   26.2026 O   0  0  0  0  0  0  0  0  0  0  0  0
    8.1591   -4.9401   23.9010 C   0  0  2  0  0  0  0  0  0  0  0  0
    8.0967   -8.2656   20.1468 O   0  0  0  0  0  0  0  0  0  0  0  0
    6.6745   -4.7602   18.8391 N   0  0  0  0  0  0  0  0  0  0  0  0
    7.8053   -5.3605   19.3736 C   0  0  0  0  0  0  0  0  0  0  0  0
    8.0638   -5.3073   20.7380 N   0  0  0  0  0  0  0  0  0  0  0  0
    7.1927   -4.6802   21.5493 C   0  0  0  0  0  0  0  0  0  0  0  0
    6.0422   -4.0848   21.0246 C   0  0  0  0  0  0  0  0  0  0  0  0
    5.7832   -4.1116   19.6666 C   0  0  0  0  0  0  0  0  0  0  0  0
    4.6970   -3.5364   19.1727 N   0  0  0  0  0  0  0  0  0  0  0  0
    5.3516   -3.5503   22.0377 N   0  0  0  0  0  0  0  0  0  0  0  0
    6.0270   -3.7916   23.1830 C   0  0  0  0  0  0  0  0  0  0  0  0
    7.1706   -4.4963   22.9001 N   0  0  0  0  0  0  0  0  0  0  0  0
  2  1  1  6  0  0  0
  2  3  1  0  0  0  0
  2  5  1  0  0  0  0
  3  4  1  0  0  0  0
  3 17  1  0  0  0  0
  5  6  1  0  0  0  0
  7  6  1  6  0  0  0
  7  8  1  0  0  0  0
  7  9  1  0  0  0  0
 10  9  1  6  0  0  0
 10 11  1  0  0  0  0
 10 12  1  0  0  0  0
 11 16  1  0  0  0  0
 12 13  1  1  0  0  0
 12 14  1  0  0  0  0
 14 15  1  1  0  0  0
 14 16  1  0  0  0  0
 16 27  1  6  0  0  0
 18 19  2  0  0  0  0
 18 23  1  0  0  0  0
 19 20  1  0  0  0  0
 20 21  2  0  0  0  0
 21 22  1  0  0  0  0
 21 27  1  0  0  0  0
 22 23  2  0  0  0  0
 22 25  1  0  0  0  0
 23 24  1  0  0  0  0
 25 26  2  0  0  0  0
 26 27  1  0  0  0  0
M  END
>  <CHROM.1>
118.68119100,-164.90211154,-109.41085041,-179.34973761,-178.35201207,68.38605876
0.16122629,8.50412245,-6.65345119,21.85052066,0.23216738,0.78981996,-1.80109003

>  <Name>
ligand

>  <RI>
0

>  <Rbt.Current_Directory>
/home/itssahil/PROJECTS/Mol_Feturizer/Test_systems_manuscript/rnas/2ydh

>  <Rbt.Executable>
rbdock ($Id: //depot/dev/client3/rdock/2013.1/src/exe/rbdock.cxx#4 $)

>  <Rbt.Library>
libRbt.so (2013.1, Build901 2013/11/27)

>  <Rbt.Parameter_File>
/export/apps/rDock/src/rDock_2013.1_src/data/scripts/dock_solv.prm

>  <Rbt.Receptor>
prm/blind_docking_40.prm

>  <SCORE>
-10.8478

>  <SCORE.INTER>
-10.359

>  <SCORE.INTER.CONST>
1

>  <SCORE.INTER.POLAR>
0

>  <SCORE.INTER.ROT>
7

>  <SCORE.INTER.SOLV>
9.59882

>  <SCORE.INTER.VDW>
-18.3723

>  <SCORE.INTER.norm>
-0.383666

>  <SCORE.INTRA>
-0.488862

>  <SCORE.INTRA.DIHEDRAL>
-0.130473

>  <SCORE.INTRA.DIHEDRAL.0>
9.75037

>  <SCORE.INTRA.POLAR>
0

>  <SCORE.INTRA.POLAR.0>
0

>  <SCORE.INTRA.REPUL>
0

>  <SCORE.INTRA.REPUL.0>
0

>  <SCORE.INTRA.SOLV>
-1.47041

>  <SCORE.INTRA.SOLV.lig_0>
-48.4279

>  <SCORE.INTRA.VDW>
0.311581

>  <SCORE.INTRA.VDW.0>
-4.69037

>  <SCORE.INTRA.norm>
-0.018106

>  <SCORE.RESTR>
0

>  <SCORE.RESTR.CAVITY>
0

>  <SCORE.RESTR.norm>
0

>  <SCORE.SYSTEM>
0

>  <SCORE.SYSTEM.CONST>
0

>  <SCORE.SYSTEM.DIHEDRAL>
0

>  <SCORE.SYSTEM.SOLV>
0

>  <SCORE.SYSTEM.norm>
0

>  <SCORE.heavy>
27

>  <SCORE.norm>
-0.401772

>  <RMSD>
15.676

$$$$
ligand
 OpenBabel02271912153D
libRbt.so/2013.1/901 2013/11/27
 27 29  0  0  0  0  0  0  0  0999 V2000
    6.0376   -0.5032   18.6886 N   0  0  0  0  0  0  0  0  0  0  0  0
    6.8961    0.1494   19.7249 C   0  0  2  0  0  0  0  0  0  0  0  0
    6.4202    1.5906   20.0137 C   0  0  0  0  0  0  0  0  0  0  0  0
    6.4315    2.4548   19.1319 O   0  0  0  0  0  0  0  0  0  0  0  0
    8.3532    0.1060   19.2770 C   0  0  0  0  0  0  0  0  0  0  0  0
    9.3286    0.7595   20.2417 C   0  0  0  0  0  0  0  0  0  0  0  0
    9.5452   -0.1719   21.7853 S   0  0  2  0  0  0  0  0  0  0  0  0
   11.1867    0.4069   22.3009 C   0  0  0  0  0  0  0  0  0  0  0  0
    9.8758   -1.8769   21.3124 C   0  0  0  0  0  0  0  0  0  0  0  0
    8.5785   -2.6617   21.3533 C   0  0  1  0  0  0  0  0  0  0  0  0
    8.6950   -3.9378   20.7433 O   0  0  0  0  0  0  0  0  0  0  0  0
    8.1154   -2.8894   22.7716 C   0  0  1  0  0  0  0  0  0  0  0  0
    7.3797   -1.7969   23.2426 O   0  0  0  0  0  0  0  0  0  0  0  0
    7.2637   -4.1110   22.6065 C   0  0  1  0  0  0  0  0  0  0  0  0
    5.9480   -3.7170   22.2660 O   0  0  0  0  0  0  0  0  0  0  0  0
    7.9090   -4.8674   21.4525 C   0  0  2  0  0  0  0  0  0  0  0  0
    6.0137    1.9450   21.1355 O   0  0  0  0  0  0  0  0  0  0  0  0
   12.7532   -6.7189   22.4342 N   0  0  0  0  0  0  0  0  0  0  0  0
   12.4028   -5.4684   21.9465 C   0  0  0  0  0  0  0  0  0  0  0  0
   11.0714   -5.1357   21.7269 N   0  0  0  0  0  0  0  0  0  0  0  0
   10.1124   -6.0358   22.0106 C   0  0  0  0  0  0  0  0  0  0  0  0
   10.4521   -7.2936   22.5168 C   0  0  0  0  0  0  0  0  0  0  0  0
   11.7738   -7.6456   22.7201 C   0  0  0  0  0  0  0  0  0  0  0  0
   12.0913   -8.8428   23.1897 N   0  0  0  0  0  0  0  0  0  0  0  0
    9.3217   -7.9785   22.7218 N   0  0  0  0  0  0  0  0  0  0  0  0
    8.2815   -7.1933   22.3645 C   0  0  0  0  0  0  0  0  0  0  0  0
    8.7528   -5.9813   21.9248 N   0  0  0  0  0  0  0  0  0  0  0  0
  2  1  1  6  0  0  0
  2  3  1  0  0  0  0
  2  5  1  0  0  0  0
  3  4  1  0  0  0  0
  3 17  1  0  0  0  0
  5  6  1  0  0  0  0
  7  6  1  6  0  0  0
  7  8  1  0  0  0  0
  7  9  1  0  0  0  0
 10  9  1  1  0  0  0
 10 11  1  0  0  0  0
 10 12  1  0  0  0  0
 11 16  1  0  0  0  0
 12 13  1  6  0  0  0
 12 14  1  0  0  0  0
 14 15  1  6  0  0  0
 14 16  1  0  0  0  0
 16 27  1  1  0  0  0
 18 19  2  0  0  0  0
 18 23  1  0  0  0  0
 19 20  1  0  0  0  0
 20 21  2  0  0  0  0
 21 22  1  0  0  0  0
 21 27  1  0  0  0  0
 22 23  2  0  0  0  0
 22 25  1  0  0  0  0
 23 24  1  0  0  0  0
 25 26  2  0  0  0  0
 26 27  1  0  0  0  0
M  END
>  <CHROM.1>
-62.40789678,179.16381403,70.04849000,155.99772603,-95.93015393,168.22219803
15.74125180,8.89309059,-2.96896699,21.53552424,1.96144641,-0.11550227,-0.21858458

>  <Name>
ligand

>  <RI>
0

>  <Rbt.Current_Directory>
/home/itssahil/PROJECTS/Mol_Feturizer/Test_systems_manuscript/rnas/2ydh

>  <Rbt.Executable>
rbdock ($Id: //depot/dev/client3/rdock/2013.1/src/exe/rbdock.cxx#4 $)

>  <Rbt.Library>
libRbt.so (2013.1, Build901 2013/11/27)

>  <Rbt.Parameter_File>
/export/apps/rDock/src/rDock_2013.1_src/data/scripts/dock_solv.prm

>  <Rbt.Receptor>
prm/blind_docking_100.prm

>  <SCORE>
-14.4192

>  <SCORE.INTER>
-13.5328

>  <SCORE.INTER.CONST>
1

>  <SCORE.INTER.POLAR>
0

>  <SCORE.INTER.ROT>
7

>  <SCORE.INTER.SOLV>
15.6062

>  <SCORE.INTER.VDW>
-22.4906

>  <SCORE.INTER.norm>
-0.501217

>  <SCORE.INTRA>
-0.886311

>  <SCORE.INTRA.DIHEDRAL>
-2.96919

>  <SCORE.INTRA.DIHEDRAL.0>
9.75037

>  <SCORE.INTRA.POLAR>
0

>  <SCORE.INTRA.POLAR.0>
0

>  <SCORE.INTRA.REPUL>
0

>  <SCORE.INTRA.REPUL.0>
0

>  <SCORE.INTRA.SOLV>
-0.826545

>  <SCORE.INTRA.SOLV.lig_0>
-48.4279

>  <SCORE.INTRA.VDW>
1.01156

>  <SCORE.INTRA.VDW.0>
-4.69037

>  <SCORE.INTRA.norm>
-0.0328263

>  <SCORE.RESTR>
0

>  <SCORE.RESTR.CAVITY>
0

>  <SCORE.RESTR.norm>
0

>  <SCORE.SYSTEM>
0

>  <SCORE.SYSTEM.CONST>
0

>  <SCORE.SYSTEM.DIHEDRAL>
0

>  <SCORE.SYSTEM.SOLV>
0

>  <SCORE.SYSTEM.norm>
0

>  <SCORE.heavy>
27

>  <SCORE.norm>
-0.534043

>  <RMSD>
15.705

$$$$
ligand
 OpenBabel02271912153D
libRbt.so/2013.1/901 2013/11/27
 27 29  0  0  0  0  0  0  0  0999 V2000
    8.3458   -2.7604   23.2469 N   0  0  0  0  0  0  0  0  0  0  0  0
    8.2876   -2.9316   21.7623 C   0  0  2  0  0  0  0  0  0  0  0  0
    8.9761   -1.7526   21.0394 C   0  0  0  0  0  0  0  0  0  0  0  0
    8.3629   -0.7094   20.7937 O   0  0  0  0  0  0  0  0  0  0  0  0
    6.8356   -3.1008   21.3279 C   0  0  0  0  0  0  0  0  0  0  0  0
    6.6444   -3.3042   19.8341 C   0  0  0  0  0  0  0  0  0  0  0  0
    7.5544   -4.7336   19.1815 S   0  0  2  0  0  0  0  0  0  0  0  0
    7.1196   -4.6352   17.4217 C   0  0  0  0  0  0  0  0  0  0  0  0
    6.6548   -6.1993   19.7128 C   0  0  0  0  0  0  0  0  0  0  0  0
    7.6069   -7.3796   19.7433 C   0  0  1  0  0  0  0  0  0  0  0  0
    8.7133   -7.1642   20.6056 O   0  0  0  0  0  0  0  0  0  0  0  0
    6.9149   -8.6350   20.2157 C   0  0  1  0  0  0  0  0  0  0  0  0
    6.2685   -9.2823   19.1575 O   0  0  0  0  0  0  0  0  0  0  0  0
    8.0751   -9.4284   20.7347 C   0  0  1  0  0  0  0  0  0  0  0  0
    8.6428  -10.1704   19.6719 O   0  0  0  0  0  0  0  0  0  0  0  0
    9.0574   -8.3770   21.2348 C   0  0  2  0  0  0  0  0  0  0  0  0
   10.1640   -1.8002   20.6707 O   0  0  0  0  0  0  0  0  0  0  0  0
    6.8799   -5.9700   25.3970 N   0  0  0  0  0  0  0  0  0  0  0  0
    6.5822   -5.7845   24.0547 C   0  0  0  0  0  0  0  0  0  0  0  0
    7.2610   -6.4912   23.0692 N   0  0  0  0  0  0  0  0  0  0  0  0
    8.2055   -7.3796   23.4283 C   0  0  0  0  0  0  0  0  0  0  0  0
    8.5037   -7.5862   24.7781 C   0  0  0  0  0  0  0  0  0  0  0  0
    7.8513   -6.8747   25.7680 C   0  0  0  0  0  0  0  0  0  0  0  0
    8.1451   -7.0662   27.0454 N   0  0  0  0  0  0  0  0  0  0  0  0
    9.4578   -8.5205   24.8548 N   0  0  0  0  0  0  0  0  0  0  0  0
    9.7683   -8.9112   23.5990 C   0  0  0  0  0  0  0  0  0  0  0  0
    8.9975   -8.2170   22.7000 N   0  0  0  0  0  0  0  0  0  0  0  0
  2  1  1  1  0  0  0
  2  3  1  0  0  0  0
  2  5  1  0  0  0  0
  3  4  1  0  0  0  0
  3 17  1  0  0  0  0
  5  6  1  0  0  0  0
  7  6  1  1  0  0  0
  7  8  1  0  0  0  0
  7  9  1  0  0  0  0
 10  9  1  1  0  0  0
 10 11  1  0  0  0  0
 10 12  1  0  0  0  0
 11 16  1  0  0  0  0
 12 13  1  6  0  0  0
 12 14  1  0  0  0  0
 14 15  1  6  0  0  0
 14 16  1  0  0  0  0
 16 27  1  1  0  0  0
 18 19  2  0  0  0  0
 18 23  1  0  0  0  0
 19 20  1  0  0  0  0
 20 21  2  0  0  0  0
 21 22  1  0  0  0  0
 21 27  1  0  0  0  0
 22 23  2  0  0  0  0
 22 25  1  0  0  0  0
 23 24  1  0  0  0  0
 25 26  2  0  0  0  0
 26 27  1  0  0  0  0
M  END
>  <CHROM.1>
-85.28747965,-179.17131604,57.30251735,-178.96286042,-155.88163227,58.29801683
29.23861509,7.97392900,-6.01788041,21.66641390,-1.88054446,1.43889546,2.95791001

>  <Name>
ligand

>  <RI>
0

>  <Rbt.Current_Directory>
/home/itssahil/PROJECTS/Mol_Feturizer/Test_systems_manuscript/rnas/2ydh

>  <Rbt.Executable>
rbdock ($Id: //depot/dev/client3/rdock/2013.1/src/exe/rbdock.cxx#4 $)

>  <Rbt.Library>
libRbt.so (2013.1, Build901 2013/11/27)

>  <Rbt.Parameter_File>
/export/apps/rDock/src/rDock_2013.1_src/data/scripts/dock_solv.prm

>  <Rbt.Receptor>
prm/blind_docking_80.prm

>  <SCORE>
-14.0919

>  <SCORE.INTER>
-12.0866

>  <SCORE.INTER.CONST>
1

>  <SCORE.INTER.POLAR>
0

>  <SCORE.INTER.ROT>
7

>  <SCORE.INTER.SOLV>
14.5807

>  <SCORE.INTER.VDW>
-21.1846

>  <SCORE.INTER.norm>
-0.447653

>  <SCORE.INTRA>
-2.00524

>  <SCORE.INTRA.DIHEDRAL>
-4.08736

>  <SCORE.INTRA.DIHEDRAL.0>
9.75037

>  <SCORE.INTRA.POLAR>
0

>  <SCORE.INTRA.POLAR.0>
0

>  <SCORE.INTRA.REPUL>
0

>  <SCORE.INTRA.REPUL.0>
0

>  <SCORE.INTRA.SOLV>
-1.0932

>  <SCORE.INTRA.SOLV.lig_0>
-48.4279

>  <SCORE.INTRA.VDW>
0.585036

>  <SCORE.INTRA.VDW.0>
-4.69037

>  <SCORE.INTRA.norm>
-0.0742682

>  <SCORE.RESTR>
0

>  <SCORE.RESTR.CAVITY>
0

>  <SCORE.RESTR.norm>
0

>  <SCORE.SYSTEM>
0

>  <SCORE.SYSTEM.CONST>
0

>  <SCORE.SYSTEM.DIHEDRAL>
0

>  <SCORE.SYSTEM.SOLV>
0

>  <SCORE.SYSTEM.norm>
0

>  <SCORE.heavy>
27

>  <SCORE.norm>
-0.521921

>  <RMSD>
15.845

$$$$
ligand
 OpenBabel02271912153D
libRbt.so/2013.1/901 2013/11/27
 27 29  0  0  0  0  0  0  0  0999 V2000
   15.7568   -7.9671   19.0157 N   0  0  0  0  0  0  0  0  0  0  0  0
   14.4181   -8.5020   19.4137 C   0  0  2  0  0  0  0  0  0  0  0  0
   13.6509   -9.0475   18.1888 C   0  0  0  0  0  0  0  0  0  0  0  0
   14.0765   -8.8777   17.0422 O   0  0  0  0  0  0  0  0  0  0  0  0
   13.6346   -7.4161   20.1436 C   0  0  0  0  0  0  0  0  0  0  0  0
   12.2981   -7.8725   20.7046 C   0  0  0  0  0  0  0  0  0  0  0  0
   11.4672   -6.6038   21.7031 S   0  0  2  0  0  0  0  0  0  0  0  0
   12.3986   -6.7333   23.2559 C   0  0  0  0  0  0  0  0  0  0  0  0
    9.8654   -7.2831   22.1642 C   0  0  0  0  0  0  0  0  0  0  0  0
    9.2496   -6.4100   23.2408 C   0  0  1  0  0  0  0  0  0  0  0  0
    8.9520   -5.1022   22.7767 O   0  0  0  0  0  0  0  0  0  0  0  0
    7.9608   -6.9998   23.7597 C   0  0  1  0  0  0  0  0  0  0  0  0
    8.2062   -7.9373   24.7684 O   0  0  0  0  0  0  0  0  0  0  0  0
    7.2725   -5.7769   24.2848 C   0  0  1  0  0  0  0  0  0  0  0  0
    7.6796   -5.5528   25.6213 O   0  0  0  0  0  0  0  0  0  0  0  0
    7.7626   -4.6516   23.3826 C   0  0  2  0  0  0  0  0  0  0  0  0
   12.5790   -9.6707   18.2982 O   0  0  0  0  0  0  0  0  0  0  0  0
    2.6922   -4.3414   21.9496 N   0  0  0  0  0  0  0  0  0  0  0  0
    3.2088   -4.7715   23.1632 C   0  0  0  0  0  0  0  0  0  0  0  0
    4.5808   -4.8078   23.3817 N   0  0  0  0  0  0  0  0  0  0  0  0
    5.4139   -4.4016   22.4065 C   0  0  0  0  0  0  0  0  0  0  0  0
    4.9047   -3.9518   21.1850 C   0  0  0  0  0  0  0  0  0  0  0  0
    3.5429   -3.9304   20.9461 C   0  0  0  0  0  0  0  0  0  0  0  0
    3.0657   -3.5136   19.7829 N   0  0  0  0  0  0  0  0  0  0  0  0
    5.9358   -3.5993   20.4092 N   0  0  0  0  0  0  0  0  0  0  0  0
    7.0768   -3.8093   21.1021 C   0  0  0  0  0  0  0  0  0  0  0  0
    6.7723   -4.3028   22.3464 N   0  0  0  0  0  0  0  0  0  0  0  0
  2  1  1  6  0  0  0
  2  3  1  0  0  0  0
  2  5  1  0  0  0  0
  3  4  1  0  0  0  0
  3 17  1  0  0  0  0
  5  6  1  0  0  0  0
  7  6  1  6  0  0  0
  7  8  1  0  0  0  0
  7  9  1  0  0  0  0
 10  9  1  6  0  0  0
 10 11  1  0  0  0  0
 10 12  1  0  0  0  0
 11 16  1  0  0  0  0
 12 13  1  1  0  0  0
 12 14  1  0  0  0  0
 14 15  1  1  0  0  0
 14 16  1  0  0  0  0
 16 27  1  6  0  0  0
 18 19  2  0  0  0  0
 18 23  1  0  0  0  0
 19 20  1  0  0  0  0
 20 21  2  0  0  0  0
 21 22  1  0  0  0  0
 21 27  1  0  0  0  0
 22 23  2  0  0  0  0
 22 25  1  0  0  0  0
 23 24  1  0  0  0  0
 25 26  2  0  0  0  0
 26 27  1  0  0  0  0
M  END
>  <CHROM.1>
-8.21490134,-175.08464848,174.39617173,-78.00854107,167.72024451,64.93166178
148.08351416,8.92750848,-6.15754988,21.65395403,0.27518397,0.42010568,-1.53420797

>  <Name>
ligand

>  <RI>
0

>  <Rbt.Current_Directory>
/home/itssahil/PROJECTS/Mol_Feturizer/Test_systems_manuscript/rnas/2ydh

>  <Rbt.Executable>
rbdock ($Id: //depot/dev/client3/rdock/2013.1/src/exe/rbdock.cxx#4 $)

>  <Rbt.Library>
libRbt.so (2013.1, Build901 2013/11/27)

>  <Rbt.Parameter_File>
/export/apps/rDock/src/rDock_2013.1_src/data/scripts/dock_solv.prm

>  <Rbt.Receptor>
prm/blind_docking_40.prm

>  <SCORE>
-15.6482

>  <SCORE.INTER>
-14.9199

>  <SCORE.INTER.CONST>
1

>  <SCORE.INTER.POLAR>
0

>  <SCORE.INTER.ROT>
7

>  <SCORE.INTER.SOLV>
13.0072

>  <SCORE.INTER.VDW>
-22.549

>  <SCORE.INTER.norm>
-0.552587

>  <SCORE.INTRA>
-0.845478

>  <SCORE.INTRA.DIHEDRAL>
-5.99739

>  <SCORE.INTRA.DIHEDRAL.0>
9.75037

>  <SCORE.INTRA.POLAR>
0

>  <SCORE.INTRA.POLAR.0>
0

>  <SCORE.INTRA.REPUL>
0

>  <SCORE.INTRA.REPUL.0>
0

>  <SCORE.INTRA.SOLV>
-1.53408

>  <SCORE.INTRA.SOLV.lig_0>
-48.4279

>  <SCORE.INTRA.VDW>
2.92026

>  <SCORE.INTRA.VDW.0>
-4.69037

>  <SCORE.INTRA.norm>
-0.031314

>  <SCORE.RESTR>
0.117113

>  <SCORE.RESTR.CAVITY>
0.117113

>  <SCORE.RESTR.norm>
0.00433752

>  <SCORE.SYSTEM>
0

>  <SCORE.SYSTEM.CONST>
0

>  <SCORE.SYSTEM.DIHEDRAL>
0

>  <SCORE.SYSTEM.SOLV>
0

>  <SCORE.SYSTEM.norm>
0

>  <SCORE.heavy>
27

>  <SCORE.norm>
-0.579564

>  <RMSD>
15.846

$$$$
ligand
 OpenBabel02271912153D
libRbt.so/2013.1/901 2013/11/27
 27 29  0  0  0  0  0  0  0  0999 V2000
    7.9484    3.6719   26.1935 N   0  0  0  0  0  0  0  0  0  0  0  0
    7.5534    3.8475   24.7618 C   0  0  2  0  0  0  0  0  0  0  0  0
    6.5843    2.7317   24.3117 C   0  0  0  0  0  0  0  0  0  0  0  0
    5.8792    2.8662   23.3070 O   0  0  0  0  0  0  0  0  0  0  0  0
    8.8057    3.9036   23.8934 C   0  0  0  0  0  0  0  0  0  0  0  0
    8.5396    4.1627   22.4199 C   0  0  0  0  0  0  0  0  0  0  0  0
   10.0536    4.4161   21.4501 S   0  0  2  0  0  0  0  0  0  0  0  0
    9.3573    4.6295   19.7873 C   0  0  0  0  0  0  0  0  0  0  0  0
   10.8546    2.8093   21.3222 C   0  0  0  0  0  0  0  0  0  0  0  0
    9.8049    1.7220   21.4509 C   0  0  1  0  0  0  0  0  0  0  0  0
    8.7179    1.9066   20.5573 O   0  0  0  0  0  0  0  0  0  0  0  0
   10.3851    0.3580   21.1669 C   0  0  1  0  0  0  0  0  0  0  0  0
   10.9776   -0.1855   22.3115 O   0  0  0  0  0  0  0  0  0  0  0  0
    9.1594   -0.3991   20.7554 C   0  0  1  0  0  0  0  0  0  0  0  0
    8.5342   -0.9319   21.9076 O   0  0  0  0  0  0  0  0  0  0  0  0
    8.2690    0.6507   20.1031 C   0  0  2  0  0  0  0  0  0  0  0  0
    6.4663    1.6611   24.9355 O   0  0  0  0  0  0  0  0  0  0  0  0
    7.2903    2.9990   15.4786 N   0  0  0  0  0  0  0  0  0  0  0  0
    7.0322    3.4859   16.7518 C   0  0  0  0  0  0  0  0  0  0  0  0
    7.3387    2.7331   17.8791 N   0  0  0  0  0  0  0  0  0  0  0  0
    7.9104    1.5245   17.7284 C   0  0  0  0  0  0  0  0  0  0  0  0
    8.1892    1.0298   16.4512 C   0  0  0  0  0  0  0  0  0  0  0  0
    7.8702    1.7587   15.3204 C   0  0  0  0  0  0  0  0  0  0  0  0
    8.1264    1.2808   14.1118 N   0  0  0  0  0  0  0  0  0  0  0  0
    8.7625   -0.1711   16.5865 N   0  0  0  0  0  0  0  0  0  0  0  0
    8.8568   -0.4478   17.9058 C   0  0  0  0  0  0  0  0  0  0  0  0
    8.3371    0.5957   18.6306 N   0  0  0  0  0  0  0  0  0  0  0  0
  2  1  1  1  0  0  0
  2  3  1  0  0  0  0
  2  5  1  0  0  0  0
  3  4  1  0  0  0  0
  3 17  1  0  0  0  0
  5  6  1  0  0  0  0
  7  6  1  1  0  0  0
  7  8  1  0  0  0  0
  7  9  1  0  0  0  0
 10  9  1  6  0  0  0
 10 11  1  0  0  0  0
 10 12  1  0  0  0  0
 11 16  1  0  0  0  0
 12 13  1  1  0  0  0
 12 14  1  0  0  0  0
 14 15  1  1  0  0  0
 14 16  1  0  0  0  0
 16 27  1  6  0  0  0
 18 19  2  0  0  0  0
 18 23  1  0  0  0  0
 19 20  1  0  0  0  0
 20 21  2  0  0  0  0
 21 22  1  0  0  0  0
 21 27  1  0  0  0  0
 22 23  2  0  0  0  0
 22 25  1  0  0  0  0
 23 24  1  0  0  0  0
 25 26  2  0  0  0  0
 26 27  1  0  0  0  0
M  END
>  <CHROM.1>
161.29413231,-176.57844427,173.26108019,178.11948913,25.92666350,52.03417530
-46.71308968,8.51293553,2.06456125,20.43982582,1.56520710,-1.30710518,1.37220988

>  <Name>
ligand

>  <RI>
0

>  <Rbt.Current_Directory>
/home/itssahil/PROJECTS/Mol_Feturizer/Test_systems_manuscript/rnas/2ydh

>  <Rbt.Executable>
rbdock ($Id: //depot/dev/client3/rdock/2013.1/src/exe/rbdock.cxx#4 $)

>  <Rbt.Library>
libRbt.so (2013.1, Build901 2013/11/27)

>  <Rbt.Parameter_File>
/export/apps/rDock/src/rDock_2013.1_src/data/scripts/dock_solv.prm

>  <Rbt.Receptor>
prm/blind_docking_60.prm

>  <SCORE>
-9.86776

>  <SCORE.INTER>
-10.1201

>  <SCORE.INTER.CONST>
1

>  <SCORE.INTER.POLAR>
0

>  <SCORE.INTER.ROT>
7

>  <SCORE.INTER.SOLV>
11.0194

>  <SCORE.INTER.VDW>
-18.6865

>  <SCORE.INTER.norm>
-0.374817

>  <SCORE.INTRA>
0.252307

>  <SCORE.INTRA.DIHEDRAL>
-4.38691

>  <SCORE.INTRA.DIHEDRAL.0>
9.75037

>  <SCORE.INTRA.POLAR>
0

>  <SCORE.INTRA.POLAR.0>
0

>  <SCORE.INTRA.REPUL>
0

>  <SCORE.INTRA.REPUL.0>
0

>  <SCORE.INTRA.SOLV>
-1.27343

>  <SCORE.INTRA.SOLV.lig_0>
-48.4279

>  <SCORE.INTRA.VDW>
3.08248

>  <SCORE.INTRA.VDW.0>
-4.69037

>  <SCORE.INTRA.norm>
0.0093447

>  <SCORE.RESTR>
0

>  <SCORE.RESTR.CAVITY>
0

>  <SCORE.RESTR.norm>
0

>  <SCORE.SYSTEM>
0

>  <SCORE.SYSTEM.CONST>
0

>  <SCORE.SYSTEM.DIHEDRAL>
0

>  <SCORE.SYSTEM.SOLV>
0

>  <SCORE.SYSTEM.norm>
0

>  <SCORE.heavy>
27

>  <SCORE.norm>
-0.365473

>  <RMSD>
15.900

$$$$
ligand
 OpenBabel02271912153D
libRbt.so/2013.1/901 2013/11/27
 27 29  0  0  0  0  0  0  0  0999 V2000
   11.5428   -8.6283   18.3080 N   0  0  0  0  0  0  0  0  0  0  0  0
   12.5701   -7.8989   19.1139 C   0  0  2  0  0  0  0  0  0  0  0  0
   13.8109   -7.5609   18.2578 C   0  0  0  0  0  0  0  0  0  0  0  0
   14.0334   -6.4048   17.8858 O   0  0  0  0  0  0  0  0  0  0  0  0
   12.9304   -8.7253   20.3439 C   0  0  0  0  0  0  0  0  0  0  0  0
   11.7493   -9.0837   21.2303 C   0  0  0  0  0  0  0  0  0  0  0  0
   11.0670   -7.6605   22.1281 S   0  0  2  0  0  0  0  0  0  0  0  0
   12.3385   -7.4243   23.4021 C   0  0  0  0  0  0  0  0  0  0  0  0
    9.6774   -8.2803   23.0898 C   0  0  0  0  0  0  0  0  0  0  0  0
    9.2324   -7.2063   24.0641 C   0  0  1  0  0  0  0  0  0  0  0  0
    8.8209   -6.0155   23.4108 O   0  0  0  0  0  0  0  0  0  0  0  0
    8.0710   -7.6729   24.9074 C   0  0  1  0  0  0  0  0  0  0  0  0
    8.5148   -8.3920   26.0221 O   0  0  0  0  0  0  0  0  0  0  0  0
    7.4487   -6.3657   25.2936 C   0  0  1  0  0  0  0  0  0  0  0  0
    8.0748   -5.8822   26.4668 O   0  0  0  0  0  0  0  0  0  0  0  0
    7.7419   -5.4459   24.1153 C   0  0  2  0  0  0  0  0  0  0  0  0
   14.6308   -8.4276   17.9028 O   0  0  0  0  0  0  0  0  0  0  0  0
    5.0087   -7.2794   19.9890 N   0  0  0  0  0  0  0  0  0  0  0  0
    6.1712   -7.7999   20.5388 C   0  0  0  0  0  0  0  0  0  0  0  0
    6.7826   -7.1871   21.6261 N   0  0  0  0  0  0  0  0  0  0  0  0
    6.2251   -6.0853   22.1603 C   0  0  0  0  0  0  0  0  0  0  0  0
    5.0456   -5.5603   21.6246 C   0  0  0  0  0  0  0  0  0  0  0  0
    4.4382   -6.1473   20.5299 C   0  0  0  0  0  0  0  0  0  0  0  0
    3.3265   -5.6397   20.0189 N   0  0  0  0  0  0  0  0  0  0  0  0
    4.7045   -4.4856   22.3440 N   0  0  0  0  0  0  0  0  0  0  0  0
    5.6277   -4.3178   23.3164 C   0  0  0  0  0  0  0  0  0  0  0  0
    6.5772   -5.3046   23.2211 N   0  0  0  0  0  0  0  0  0  0  0  0
  2  1  1  6  0  0  0
  2  3  1  0  0  0  0
  2  5  1  0  0  0  0
  3  4  1  0  0  0  0
  3 17  1  0  0  0  0
  5  6  1  0  0  0  0
  7  6  1  6  0  0  0
  7  8  1  0  0  0  0
  7  9  1  0  0  0  0
 10  9  1  6  0  0  0
 10 11  1  0  0  0  0
 10 12  1  0  0  0  0
 11 16  1  0  0  0  0
 12 13  1  1  0  0  0
 12 14  1  0  0  0  0
 14 15  1  1  0  0  0
 14 16  1  0  0  0  0
 16 27  1  6  0  0  0
 18 19  2  0  0  0  0
 18 23  1  0  0  0  0
 19 20  1  0  0  0  0
 20 21  2  0  0  0  0
 21 22  1  0  0  0  0
 21 27  1  0  0  0  0
 22 23  2  0  0  0  0
 22 25  1  0  0  0  0
 23 24  1  0  0  0  0
 25 26  2  0  0  0  0
 26 27  1  0  0  0  0
M  END
>  <CHROM.1>
106.90536805,-56.59440975,-70.51197368,-74.63333498,169.13115086,60.04386329
30.68611372,8.97042904,-6.98074568,21.93122610,0.43505877,0.27156381,-1.57754493

>  <Name>
ligand

>  <RI>
0

>  <Rbt.Current_Directory>
/home/itssahil/PROJECTS/Mol_Feturizer/Test_systems_manuscript/rnas/2ydh

>  <Rbt.Executable>
rbdock ($Id: //depot/dev/client3/rdock/2013.1/src/exe/rbdock.cxx#4 $)

>  <Rbt.Library>
libRbt.so (2013.1, Build901 2013/11/27)

>  <Rbt.Parameter_File>
/export/apps/rDock/src/rDock_2013.1_src/data/scripts/dock_solv.prm

>  <Rbt.Receptor>
prm/blind_docking_80.prm

>  <SCORE>
-15.4049

>  <SCORE.INTER>
-14.0061

>  <SCORE.INTER.CONST>
1

>  <SCORE.INTER.POLAR>
0

>  <SCORE.INTER.ROT>
7

>  <SCORE.INTER.SOLV>
9.38349

>  <SCORE.INTER.VDW>
-20.7319

>  <SCORE.INTER.norm>
-0.518745

>  <SCORE.INTRA>
-1.39877

>  <SCORE.INTRA.DIHEDRAL>
-6.06755

>  <SCORE.INTRA.DIHEDRAL.0>
9.75037

>  <SCORE.INTRA.POLAR>
0

>  <SCORE.INTRA.POLAR.0>
0

>  <SCORE.INTRA.REPUL>
0

>  <SCORE.INTRA.REPUL.0>
0

>  <SCORE.INTRA.SOLV>
-0.251904

>  <SCORE.INTRA.SOLV.lig_0>
-48.4279

>  <SCORE.INTRA.VDW>
1.76095

>  <SCORE.INTRA.VDW.0>
-4.69037

>  <SCORE.INTRA.norm>
-0.0518064

>  <SCORE.RESTR>
0

>  <SCORE.RESTR.CAVITY>
0

>  <SCORE.RESTR.norm>
0

>  <SCORE.SYSTEM>
0

>  <SCORE.SYSTEM.CONST>
0

>  <SCORE.SYSTEM.DIHEDRAL>
0

>  <SCORE.SYSTEM.SOLV>
0

>  <SCORE.SYSTEM.norm>
0

>  <SCORE.heavy>
27

>  <SCORE.norm>
-0.570551

>  <RMSD>
15.956

$$$$
ligand
 OpenBabel02271912153D
libRbt.so/2013.1/901 2013/11/27
 27 29  0  0  0  0  0  0  0  0999 V2000
    6.0533   -4.2955   20.2141 N   0  0  0  0  0  0  0  0  0  0  0  0
    6.9663   -3.4542   21.0479 C   0  0  2  0  0  0  0  0  0  0  0  0
    6.3559   -3.1846   22.4412 C   0  0  0  0  0  0  0  0  0  0  0  0
    6.8879   -2.3966   23.2291 O   0  0  0  0  0  0  0  0  0  0  0  0
    7.2871   -2.1626   20.3032 C   0  0  0  0  0  0  0  0  0  0  0  0
    8.4124   -1.3452   20.9152 C   0  0  0  0  0  0  0  0  0  0  0  0
    8.5607    0.3188   20.2037 S   0  0  2  0  0  0  0  0  0  0  0  0
    9.7787    1.0589   21.3281 C   0  0  0  0  0  0  0  0  0  0  0  0
    7.0541    1.1999   20.6439 C   0  0  0  0  0  0  0  0  0  0  0  0
    7.2646    2.6844   20.4142 C   0  0  1  0  0  0  0  0  0  0  0  0
    7.5088    2.9949   19.0510 O   0  0  0  0  0  0  0  0  0  0  0  0
    6.0593    3.4856   20.8419 C   0  0  1  0  0  0  0  0  0  0  0  0
    6.1033    3.7695   22.2109 O   0  0  0  0  0  0  0  0  0  0  0  0
    6.2193    4.7194   20.0069 C   0  0  1  0  0  0  0  0  0  0  0  0
    7.0451    5.6407   20.6936 O   0  0  0  0  0  0  0  0  0  0  0  0
    6.9068    4.2298   18.7388 C   0  0  2  0  0  0  0  0  0  0  0  0
    5.3158   -3.7457   22.8321 O   0  0  0  0  0  0  0  0  0  0  0  0
    4.6019    0.9838   15.2735 N   0  0  0  0  0  0  0  0  0  0  0  0
    5.5376    0.6643   16.2466 C   0  0  0  0  0  0  0  0  0  0  0  0
    6.0641    1.6446   17.0791 N   0  0  0  0  0  0  0  0  0  0  0  0
    5.6432    2.9158   16.9477 C   0  0  0  0  0  0  0  0  0  0  0  0
    4.6896    3.2473   15.9811 C   0  0  0  0  0  0  0  0  0  0  0  0
    4.1730    2.2860   15.1319 C   0  0  0  0  0  0  0  0  0  0  0  0
    3.2776    2.6071   14.2102 N   0  0  0  0  0  0  0  0  0  0  0  0
    4.4422    4.5585   16.0736 N   0  0  0  0  0  0  0  0  0  0  0  0
    5.2058    5.0632   17.0678 C   0  0  0  0  0  0  0  0  0  0  0  0
    5.9548    4.0570   17.6254 N   0  0  0  0  0  0  0  0  0  0  0  0
  2  1  1  6  0  0  0
  2  3  1  0  0  0  0
  2  5  1  0  0  0  0
  3  4  1  0  0  0  0
  3 17  1  0  0  0  0
  5  6  1  0  0  0  0
  7  6  1  1  0  0  0
  7  8  1  0  0  0  0
  7  9  1  0  0  0  0
 10  9  1  6  0  0  0
 10 11  1  0  0  0  0
 10 12  1  0  0  0  0
 11 16  1  0  0  0  0
 12 13  1  1  0  0  0
 12 14  1  0  0  0  0
 14 15  1  1  0  0  0
 14 16  1  0  0  0  0
 16 27  1  6  0  0  0
 18 19  2  0  0  0  0
 18 23  1  0  0  0  0
 19 20  1  0  0  0  0
 20 21  2  0  0  0  0
 21 22  1  0  0  0  0
 21 27  1  0  0  0  0
 22 23  2  0  0  0  0
 22 25  1  0  0  0  0
 23 24  1  0  0  0  0
 25 26  2  0  0  0  0
 26 27  1  0  0  0  0
M  END
>  <CHROM.1>
-172.41162574,-168.63876609,-169.08167283,171.34867158,164.84634036,62.97556507
0.09989779,6.42144802,1.31079162,19.29990680,1.05346184,1.08451081,2.93227544

>  <Name>
ligand

>  <RI>
0

>  <Rbt.Current_Directory>
/home/itssahil/PROJECTS/Mol_Feturizer/Test_systems_manuscript/rnas/2ydh

>  <Rbt.Executable>
rbdock ($Id: //depot/dev/client3/rdock/2013.1/src/exe/rbdock.cxx#4 $)

>  <Rbt.Library>
libRbt.so (2013.1, Build901 2013/11/27)

>  <Rbt.Parameter_File>
/export/apps/rDock/src/rDock_2013.1_src/data/scripts/dock_solv.prm

>  <Rbt.Receptor>
prm/blind_docking_40.prm

>  <SCORE>
-13.0767

>  <SCORE.INTER>
-11.8801

>  <SCORE.INTER.CONST>
1

>  <SCORE.INTER.POLAR>
0

>  <SCORE.INTER.ROT>
7

>  <SCORE.INTER.SOLV>
8.19964

>  <SCORE.INTER.VDW>
-18.9199

>  <SCORE.INTER.norm>
-0.440004

>  <SCORE.INTRA>
-1.19656

>  <SCORE.INTRA.DIHEDRAL>
-5.60325

>  <SCORE.INTRA.DIHEDRAL.0>
9.75037

>  <SCORE.INTRA.POLAR>
0

>  <SCORE.INTRA.POLAR.0>
0

>  <SCORE.INTRA.REPUL>
0

>  <SCORE.INTRA.REPUL.0>
0

>  <SCORE.INTRA.SOLV>
-1.48849

>  <SCORE.INTRA.SOLV.lig_0>
-48.4279

>  <SCORE.INTRA.VDW>
2.34931

>  <SCORE.INTRA.VDW.0>
-4.69037

>  <SCORE.INTRA.norm>
-0.0443172

>  <SCORE.RESTR>
0

>  <SCORE.RESTR.CAVITY>
0

>  <SCORE.RESTR.norm>
0

>  <SCORE.SYSTEM>
0

>  <SCORE.SYSTEM.CONST>
0

>  <SCORE.SYSTEM.DIHEDRAL>
0

>  <SCORE.SYSTEM.SOLV>
0

>  <SCORE.SYSTEM.norm>
0

>  <SCORE.heavy>
27

>  <SCORE.norm>
-0.484321

>  <RMSD>
15.993

$$$$
ligand
 OpenBabel02271912153D
libRbt.so/2013.1/901 2013/11/27
 27 29  0  0  0  0  0  0  0  0999 V2000
    6.2834    0.9888   19.9419 N   0  0  0  0  0  0  0  0  0  0  0  0
    6.7853    1.8895   21.0251 C   0  0  2  0  0  0  0  0  0  0  0  0
    5.7304    2.9560   21.3946 C   0  0  0  0  0  0  0  0  0  0  0  0
    4.9499    2.7820   22.3354 O   0  0  0  0  0  0  0  0  0  0  0  0
    8.1064    2.5163   20.5921 C   0  0  0  0  0  0  0  0  0  0  0  0
    9.2139    1.5164   20.3045 C   0  0  0  0  0  0  0  0  0  0  0  0
    9.8912    0.7441   21.8017 S   0  0  2  0  0  0  0  0  0  0  0  0
   11.5151    1.5506   21.8921 C   0  0  0  0  0  0  0  0  0  0  0  0
   10.3304   -0.9430   21.3536 C   0  0  0  0  0  0  0  0  0  0  0  0
    9.0923   -1.8151   21.4378 C   0  0  1  0  0  0  0  0  0  0  0  0
    9.2144   -3.0082   20.6789 O   0  0  0  0  0  0  0  0  0  0  0  0
    8.8003   -2.2235   22.8611 C   0  0  1  0  0  0  0  0  0  0  0  0
    8.0591   -1.2405   23.5250 O   0  0  0  0  0  0  0  0  0  0  0  0
    8.0069   -3.4764   22.6469 C   0  0  1  0  0  0  0  0  0  0  0  0
    6.6416   -3.1400   22.4890 O   0  0  0  0  0  0  0  0  0  0  0  0
    8.5648   -4.0597   21.3550 C   0  0  2  0  0  0  0  0  0  0  0  0
    5.6154    4.0242   20.7660 O   0  0  0  0  0  0  0  0  0  0  0  0
    9.4193   -9.2525   21.7598 N   0  0  0  0  0  0  0  0  0  0  0  0
    8.2279   -8.6066   21.4632 C   0  0  0  0  0  0  0  0  0  0  0  0
    8.1631   -7.2195   21.4072 N   0  0  0  0  0  0  0  0  0  0  0  0
    9.2781   -6.4989   21.6257 C   0  0  0  0  0  0  0  0  0  0  0  0
   10.4877   -7.1388   21.9104 C   0  0  0  0  0  0  0  0  0  0  0  0
   10.5621   -8.5172   21.9904 C   0  0  0  0  0  0  0  0  0  0  0  0
   11.7084   -9.1186   22.2712 N   0  0  0  0  0  0  0  0  0  0  0  0
   11.4274   -6.2002   22.0689 N   0  0  0  0  0  0  0  0  0  0  0  0
   10.8509   -4.9911   21.8908 C   0  0  0  0  0  0  0  0  0  0  0  0
    9.5174   -5.1568   21.6100 N   0  0  0  0  0  0  0  0  0  0  0  0
  2  1  1  6  0  0  0
  2  3  1  0  0  0  0
  2  5  1  0  0  0  0
  3  4  1  0  0  0  0
  3 17  1  0  0  0  0
  5  6  1  0  0  0  0
  7  6  1  6  0  0  0
  7  8  1  0  0  0  0
  7  9  1  0  0  0  0
 10  9  1  1  0  0  0
 10 11  1  0  0  0  0
 10 12  1  0  0  0  0
 11 16  1  0  0  0  0
 12 13  1  6  0  0  0
 12 14  1  0  0  0  0
 14 15  1  6  0  0  0
 14 16  1  0  0  0  0
 16 27  1  1  0  0  0
 18 19  2  0  0  0  0
 18 23  1  0  0  0  0
 19 20  1  0  0  0  0
 20 21  2  0  0  0  0
 21 22  1  0  0  0  0
 21 27  1  0  0  0  0
 22 23  2  0  0  0  0
 22 25  1  0  0  0  0
 23 24  1  0  0  0  0
 25 26  2  0  0  0  0
 26 27  1  0  0  0  0
M  END
>  <CHROM.1>
94.96253130,-60.17918019,-72.60286680,-107.85407347,-83.22745779,159.35009260
-145.83158021,8.76257950,-2.41431532,21.65531894,1.83423408,-0.00959047,-0.05656234

>  <Name>
ligand

>  <RI>
0

>  <Rbt.Current_Directory>
/home/itssahil/PROJECTS/Mol_Feturizer/Test_systems_manuscript/rnas/2ydh

>  <Rbt.Executable>
rbdock ($Id: //depot/dev/client3/rdock/2013.1/src/exe/rbdock.cxx#4 $)

>  <Rbt.Library>
libRbt.so (2013.1, Build901 2013/11/27)

>  <Rbt.Parameter_File>
/export/apps/rDock/src/rDock_2013.1_src/data/scripts/dock_solv.prm

>  <Rbt.Receptor>
prm/blind_docking_60.prm

>  <SCORE>
-12.8213

>  <SCORE.INTER>
-14.2024

>  <SCORE.INTER.CONST>
1

>  <SCORE.INTER.POLAR>
0

>  <SCORE.INTER.ROT>
7

>  <SCORE.INTER.SOLV>
16.0411

>  <SCORE.INTER.VDW>
-23.082

>  <SCORE.INTER.norm>
-0.526016

>  <SCORE.INTRA>
1.38117

>  <SCORE.INTRA.DIHEDRAL>
-0.595396

>  <SCORE.INTRA.DIHEDRAL.0>
9.75037

>  <SCORE.INTRA.POLAR>
0

>  <SCORE.INTRA.POLAR.0>
0

>  <SCORE.INTRA.REPUL>
0

>  <SCORE.INTRA.REPUL.0>
0

>  <SCORE.INTRA.SOLV>
0.0321427

>  <SCORE.INTRA.SOLV.lig_0>
-48.4279

>  <SCORE.INTRA.VDW>
1.6628

>  <SCORE.INTRA.VDW.0>
-4.69037

>  <SCORE.INTRA.norm>
0.0511546

>  <SCORE.RESTR>
0

>  <SCORE.RESTR.CAVITY>
0

>  <SCORE.RESTR.norm>
0

>  <SCORE.SYSTEM>
0

>  <SCORE.SYSTEM.CONST>
0

>  <SCORE.SYSTEM.DIHEDRAL>
0

>  <SCORE.SYSTEM.SOLV>
0

>  <SCORE.SYSTEM.norm>
0

>  <SCORE.heavy>
27

>  <SCORE.norm>
-0.474861

>  <RMSD>
16.129

$$$$
ligand
 OpenBabel02271912153D
libRbt.so/2013.1/901 2013/11/27
 27 29  0  0  0  0  0  0  0  0999 V2000
    6.9808    4.7665   20.0953 N   0  0  0  0  0  0  0  0  0  0  0  0
    6.2728    3.4801   20.3793 C   0  0  2  0  0  0  0  0  0  0  0  0
    5.7215    3.4559   21.8223 C   0  0  0  0  0  0  0  0  0  0  0  0
    6.3590    3.9504   22.7570 O   0  0  0  0  0  0  0  0  0  0  0  0
    7.2143    2.3119   20.1060 C   0  0  0  0  0  0  0  0  0  0  0  0
    7.3399    1.9336   18.6396 C   0  0  0  0  0  0  0  0  0  0  0  0
    8.1119    0.3108   18.3799 S   0  0  2  0  0  0  0  0  0  0  0  0
    7.4349   -0.1283   16.7537 C   0  0  0  0  0  0  0  0  0  0  0  0
    7.2598   -0.8416   19.4688 C   0  0  0  0  0  0  0  0  0  0  0  0
    8.2687   -1.8191   20.0408 C   0  0  1  0  0  0  0  0  0  0  0  0
    9.4824   -1.1889   20.4202 O   0  0  0  0  0  0  0  0  0  0  0  0
    7.7292   -2.5154   21.2664 C   0  0  1  0  0  0  0  0  0  0  0  0
    6.9624   -3.6313   20.9151 O   0  0  0  0  0  0  0  0  0  0  0  0
    8.9981   -2.9024   21.9628 C   0  0  1  0  0  0  0  0  0  0  0  0
    9.4332   -4.1562   21.4720 O   0  0  0  0  0  0  0  0  0  0  0  0
    9.9868   -1.8084   21.5807 C   0  0  2  0  0  0  0  0  0  0  0  0
    4.6258    2.9387   22.1076 O   0  0  0  0  0  0  0  0  0  0  0  0
   12.2495    2.6608   23.2437 N   0  0  0  0  0  0  0  0  0  0  0  0
   12.4090    2.0311   22.0179 C   0  0  0  0  0  0  0  0  0  0  0  0
   11.7482    0.8414   21.7357 N   0  0  0  0  0  0  0  0  0  0  0  0
   10.9295    0.3076   22.6604 C   0  0  0  0  0  0  0  0  0  0  0  0
   10.7490    0.9408   23.8933 C   0  0  0  0  0  0  0  0  0  0  0  0
   11.4164    2.1134   24.1956 C   0  0  0  0  0  0  0  0  0  0  0  0
   11.2504    2.7040   25.3696 N   0  0  0  0  0  0  0  0  0  0  0  0
    9.8842    0.2152   24.6107 N   0  0  0  0  0  0  0  0  0  0  0  0
    9.5119   -0.8520   23.8699 C   0  0  0  0  0  0  0  0  0  0  0  0
   10.1472   -0.8090   22.6538 N   0  0  0  0  0  0  0  0  0  0  0  0
  2  1  1  1  0  0  0
  2  3  1  0  0  0  0
  2  5  1  0  0  0  0
  3  4  1  0  0  0  0
  3 17  1  0  0  0  0
  5  6  1  0  0  0  0
  7  6  1  1  0  0  0
  7  8  1  0  0  0  0
  7  9  1  0  0  0  0
 10  9  1  1  0  0  0
 10 11  1  0  0  0  0
 10 12  1  0  0  0  0
 11 16  1  0  0  0  0
 12 13  1  6  0  0  0
 12 14  1  0  0  0  0
 14 15  1  6  0  0  0
 14 16  1  0  0  0  0
 16 27  1  1  0  0  0
 18 19  2  0  0  0  0
 18 23  1  0  0  0  0
 19 20  1  0  0  0  0
 20 21  2  0  0  0  0
 21 22  1  0  0  0  0
 21 27  1  0  0  0  0
 22 23  2  0  0  0  0
 22 25  1  0  0  0  0
 23 24  1  0  0  0  0
 25 26  2  0  0  0  0
 26 27  1  0  0  0  0
M  END
>  <CHROM.1>
-37.83582669,-80.19370541,-165.37782264,155.37356934,-141.78892355,41.64944689
-60.59815537,8.72573244,0.49019151,21.36995729,3.05167589,0.75698011,-2.77974478

>  <Name>
ligand

>  <RI>
0

>  <Rbt.Current_Directory>
/home/itssahil/PROJECTS/Mol_Feturizer/Test_systems_manuscript/rnas/2ydh

>  <Rbt.Executable>
rbdock ($Id: //depot/dev/client3/rdock/2013.1/src/exe/rbdock.cxx#4 $)

>  <Rbt.Library>
libRbt.so (2013.1, Build901 2013/11/27)

>  <Rbt.Parameter_File>
/export/apps/rDock/src/rDock_2013.1_src/data/scripts/dock_solv.prm

>  <Rbt.Receptor>
prm/blind_docking_60.prm

>  <SCORE>
-12.9901

>  <SCORE.INTER>
-15.7499

>  <SCORE.INTER.CONST>
1

>  <SCORE.INTER.POLAR>
0

>  <SCORE.INTER.ROT>
7

>  <SCORE.INTER.SOLV>
8.23743

>  <SCORE.INTER.VDW>
-21.5124

>  <SCORE.INTER.norm>
-0.583328

>  <SCORE.INTRA>
2.75974

>  <SCORE.INTRA.DIHEDRAL>
1.40096

>  <SCORE.INTRA.DIHEDRAL.0>
9.75037

>  <SCORE.INTRA.POLAR>
0

>  <SCORE.INTRA.POLAR.0>
0

>  <SCORE.INTRA.REPUL>
0

>  <SCORE.INTRA.REPUL.0>
0

>  <SCORE.INTRA.SOLV>
-0.95605

>  <SCORE.INTRA.SOLV.lig_0>
-48.4279

>  <SCORE.INTRA.VDW>
2.53728

>  <SCORE.INTRA.VDW.0>
-4.69037

>  <SCORE.INTRA.norm>
0.102213

>  <SCORE.RESTR>
0

>  <SCORE.RESTR.CAVITY>
0

>  <SCORE.RESTR.norm>
0

>  <SCORE.SYSTEM>
0

>  <SCORE.SYSTEM.CONST>
0

>  <SCORE.SYSTEM.DIHEDRAL>
0

>  <SCORE.SYSTEM.SOLV>
0

>  <SCORE.SYSTEM.norm>
0

>  <SCORE.heavy>
27

>  <SCORE.norm>
-0.481116

>  <RMSD>
16.151

$$$$
ligand
 OpenBabel02271912153D
libRbt.so/2013.1/901 2013/11/27
 27 29  0  0  0  0  0  0  0  0999 V2000
    9.1378   -5.6392   25.7123 N   0  0  0  0  0  0  0  0  0  0  0  0
    7.6686   -5.7997   25.4834 C   0  0  2  0  0  0  0  0  0  0  0  0
    7.0595   -6.8164   26.4743 C   0  0  0  0  0  0  0  0  0  0  0  0
    7.5055   -7.9643   26.5651 O   0  0  0  0  0  0  0  0  0  0  0  0
    7.4218   -6.1961   24.0316 C   0  0  0  0  0  0  0  0  0  0  0  0
    7.8300   -5.1448   23.0132 C   0  0  0  0  0  0  0  0  0  0  0  0
    6.7927   -3.6553   23.0630 S   0  0  2  0  0  0  0  0  0  0  0  0
    5.1753   -4.3563   22.6292 C   0  0  0  0  0  0  0  0  0  0  0  0
    7.1982   -2.6997   21.5925 C   0  0  0  0  0  0  0  0  0  0  0  0
    8.5278   -2.0020   21.8075 C   0  0  1  0  0  0  0  0  0  0  0  0
    9.0441   -1.4349   20.6134 O   0  0  0  0  0  0  0  0  0  0  0  0
    8.4080   -0.8833   22.8135 C   0  0  1  0  0  0  0  0  0  0  0  0
    8.5370   -1.3653   24.1203 O   0  0  0  0  0  0  0  0  0  0  0  0
    9.5622   -0.0132   22.4191 C   0  0  1  0  0  0  0  0  0  0  0  0
   10.7277   -0.4568   23.0877 O   0  0  0  0  0  0  0  0  0  0  0  0
    9.6971   -0.2238   20.9165 C   0  0  2  0  0  0  0  0  0  0  0  0
    6.0997   -6.5319   27.2141 O   0  0  0  0  0  0  0  0  0  0  0  0
    9.7780    4.8804   19.5749 N   0  0  0  0  0  0  0  0  0  0  0  0
   10.6495    4.2086   20.4198 C   0  0  0  0  0  0  0  0  0  0  0  0
   10.4839    2.8545   20.6852 N   0  0  0  0  0  0  0  0  0  0  0  0
    9.4744    2.1869   20.0975 C   0  0  0  0  0  0  0  0  0  0  0  0
    8.5990    2.8495   19.2324 C   0  0  0  0  0  0  0  0  0  0  0  0
    8.7390    4.2010   18.9759 C   0  0  0  0  0  0  0  0  0  0  0  0
    7.9003    4.8268   18.1639 N   0  0  0  0  0  0  0  0  0  0  0  0
    7.7079    1.9600   18.7810 N   0  0  0  0  0  0  0  0  0  0  0  0
    7.9944    0.7591   19.3304 C   0  0  0  0  0  0  0  0  0  0  0  0
    9.0912    0.8794   20.1471 N   0  0  0  0  0  0  0  0  0  0  0  0
  2  1  1  6  0  0  0
  2  3  1  0  0  0  0
  2  5  1  0  0  0  0
  3  4  1  0  0  0  0
  3 17  1  0  0  0  0
  5  6  1  0  0  0  0
  7  6  1  6  0  0  0
  7  8  1  0  0  0  0
  7  9  1  0  0  0  0
 10  9  1  6  0  0  0
 10 11  1  0  0  0  0
 10 12  1  0  0  0  0
 11 16  1  0  0  0  0
 12 13  1  1  0  0  0
 12 14  1  0  0  0  0
 14 15  1  1  0  0  0
 14 16  1  0  0  0  0
 16 27  1  6  0  0  0
 18 19  2  0  0  0  0
 18 23  1  0  0  0  0
 19 20  1  0  0  0  0
 20 21  2  0  0  0  0
 21 22  1  0  0  0  0
 21 27  1  0  0  0  0
 22 23  2  0  0  0  0
 22 25  1  0  0  0  0
 23 24  1  0  0  0  0
 25 26  2  0  0  0  0
 26 27  1  0  0  0  0
M  END
>  <CHROM.1>
-55.53116284,-64.19476306,-68.16040947,-62.27223249,-76.45314720,168.80541503
-176.14057968,8.30144841,-1.42005205,22.24603782,-1.79618738,-0.63745128
-0.69405644

>  <Name>
ligand

>  <RI>
0

>  <Rbt.Current_Directory>
/home/itssahil/PROJECTS/Mol_Feturizer/Test_systems_manuscript/rnas/2ydh

>  <Rbt.Executable>
rbdock ($Id: //depot/dev/client3/rdock/2013.1/src/exe/rbdock.cxx#4 $)

>  <Rbt.Library>
libRbt.so (2013.1, Build901 2013/11/27)

>  <Rbt.Parameter_File>
/export/apps/rDock/src/rDock_2013.1_src/data/scripts/dock_solv.prm

>  <Rbt.Receptor>
prm/blind_docking_40.prm

>  <SCORE>
-15.9324

>  <SCORE.INTER>
-15.2413

>  <SCORE.INTER.CONST>
1

>  <SCORE.INTER.POLAR>
0

>  <SCORE.INTER.ROT>
7

>  <SCORE.INTER.SOLV>
11.519

>  <SCORE.INTER.VDW>
-22.2672

>  <SCORE.INTER.norm>
-0.564494

>  <SCORE.INTRA>
-0.69102

>  <SCORE.INTRA.DIHEDRAL>
-5.66686

>  <SCORE.INTRA.DIHEDRAL.0>
9.75037

>  <SCORE.INTRA.POLAR>
0

>  <SCORE.INTRA.POLAR.0>
0

>  <SCORE.INTRA.REPUL>
0

>  <SCORE.INTRA.REPUL.0>
0

>  <SCORE.INTRA.SOLV>
-0.218304

>  <SCORE.INTRA.SOLV.lig_0>
-48.4279

>  <SCORE.INTRA.VDW>
2.25156

>  <SCORE.INTRA.VDW.0>
-4.69037

>  <SCORE.INTRA.norm>
-0.0255933

>  <SCORE.RESTR>
0

>  <SCORE.RESTR.CAVITY>
0

>  <SCORE.RESTR.norm>
0

>  <SCORE.SYSTEM>
0

>  <SCORE.SYSTEM.CONST>
0

>  <SCORE.SYSTEM.DIHEDRAL>
0

>  <SCORE.SYSTEM.SOLV>
0

>  <SCORE.SYSTEM.norm>
0

>  <SCORE.heavy>
27

>  <SCORE.norm>
-0.590087

>  <RMSD>
16.166

$$$$
ligand
 OpenBabel02271912153D
libRbt.so/2013.1/901 2013/11/27
 27 29  0  0  0  0  0  0  0  0999 V2000
   12.5140    4.6021   26.9996 N   0  0  0  0  0  0  0  0  0  0  0  0
   12.4199    4.0658   25.6067 C   0  0  2  0  0  0  0  0  0  0  0  0
   10.9899    4.2262   25.0447 C   0  0  0  0  0  0  0  0  0  0  0  0
   10.7902    4.7719   23.9552 O   0  0  0  0  0  0  0  0  0  0  0  0
   12.8824    2.6127   25.5904 C   0  0  0  0  0  0  0  0  0  0  0  0
   12.7959    1.9391   24.2310 C   0  0  0  0  0  0  0  0  0  0  0  0
   11.1109    1.4271   23.7888 S   0  0  2  0  0  0  0  0  0  0  0  0
   10.8160    0.1323   25.0265 C   0  0  0  0  0  0  0  0  0  0  0  0
   11.2479    0.4737   22.2682 C   0  0  0  0  0  0  0  0  0  0  0  0
    9.9391   -0.2514   22.0197 C   0  0  1  0  0  0  0  0  0  0  0  0
    8.8483    0.6394   21.8436 O   0  0  0  0  0  0  0  0  0  0  0  0
   10.0115   -1.1131   20.7827 C   0  0  1  0  0  0  0  0  0  0  0  0
   10.5616   -2.3659   21.0732 O   0  0  0  0  0  0  0  0  0  0  0  0
    8.5634   -1.2082   20.4098 C   0  0  1  0  0  0  0  0  0  0  0  0
    7.9761   -2.2936   21.1019 O   0  0  0  0  0  0  0  0  0  0  0  0
    7.9651    0.1109   20.8814 C   0  0  2  0  0  0  0  0  0  0  0  0
    9.9846    3.8230   25.6580 O   0  0  0  0  0  0  0  0  0  0  0  0
    5.0444    1.8149   16.8287 N   0  0  0  0  0  0  0  0  0  0  0  0
    4.7706    0.7646   17.6928 C   0  0  0  0  0  0  0  0  0  0  0  0
    5.6554    0.4293   18.7108 N   0  0  0  0  0  0  0  0  0  0  0  0
    6.7819    1.1480   18.8674 C   0  0  0  0  0  0  0  0  0  0  0  0
    7.0613    2.2179   18.0126 C   0  0  0  0  0  0  0  0  0  0  0  0
    6.2006    2.5493   16.9824 C   0  0  0  0  0  0  0  0  0  0  0  0
    6.4751    3.5573   16.1681 N   0  0  0  0  0  0  0  0  0  0  0  0
    8.2221    2.7624   18.3936 N   0  0  0  0  0  0  0  0  0  0  0  0
    8.6815    2.0732   19.4613 C   0  0  0  0  0  0  0  0  0  0  0  0
    7.7981    1.0698   19.7730 N   0  0  0  0  0  0  0  0  0  0  0  0
  2  1  1  1  0  0  0
  2  3  1  0  0  0  0
  2  5  1  0  0  0  0
  3  4  1  0  0  0  0
  3 17  1  0  0  0  0
  5  6  1  0  0  0  0
  7  6  1  1  0  0  0
  7  8  1  0  0  0  0
  7  9  1  0  0  0  0
 10  9  1  6  0  0  0
 10 11  1  0  0  0  0
 10 12  1  0  0  0  0
 11 16  1  0  0  0  0
 12 13  1  1  0  0  0
 12 14  1  0  0  0  0
 14 15  1  1  0  0  0
 14 16  1  0  0  0  0
 16 27  1  6  0  0  0
 18 19  2  0  0  0  0
 18 23  1  0  0  0  0
 19 20  1  0  0  0  0
 20 21  2  0  0  0  0
 21 22  1  0  0  0  0
 21 27  1  0  0  0  0
 22 23  2  0  0  0  0
 22 25  1  0  0  0  0
 23 24  1  0  0  0  0
 25 26  2  0  0  0  0
 26 27  1  0  0  0  0
M  END
>  <CHROM.1>
127.61074153,178.33728361,-77.96646794,-66.62622138,166.90256076,61.91116471
-158.96600688,9.26932551,1.45398876,21.58800582,0.28153440,-0.91829876,0.12727657

>  <Name>
ligand

>  <RI>
0

>  <Rbt.Current_Directory>
/home/itssahil/PROJECTS/Mol_Feturizer/Test_systems_manuscript/rnas/2ydh

>  <Rbt.Executable>
rbdock ($Id: //depot/dev/client3/rdock/2013.1/src/exe/rbdock.cxx#4 $)

>  <Rbt.Library>
libRbt.so (2013.1, Build901 2013/11/27)

>  <Rbt.Parameter_File>
/export/apps/rDock/src/rDock_2013.1_src/data/scripts/dock_solv.prm

>  <Rbt.Receptor>
prm/blind_docking_60.prm

>  <SCORE>
-11.3401

>  <SCORE.INTER>
-9.95038

>  <SCORE.INTER.CONST>
1

>  <SCORE.INTER.POLAR>
0

>  <SCORE.INTER.ROT>
7

>  <SCORE.INTER.SOLV>
8.23301

>  <SCORE.INTER.VDW>
-17.6446

>  <SCORE.INTER.norm>
-0.368533

>  <SCORE.INTRA>
-1.38972

>  <SCORE.INTRA.DIHEDRAL>
-5.48661

>  <SCORE.INTRA.DIHEDRAL.0>
9.75037

>  <SCORE.INTRA.POLAR>
0

>  <SCORE.INTRA.POLAR.0>
0

>  <SCORE.INTRA.REPUL>
0

>  <SCORE.INTRA.REPUL.0>
0

>  <SCORE.INTRA.SOLV>
-1.43081

>  <SCORE.INTRA.SOLV.lig_0>
-48.4279

>  <SCORE.INTRA.VDW>
2.06899

>  <SCORE.INTRA.VDW.0>
-4.69037

>  <SCORE.INTRA.norm>
-0.0514712

>  <SCORE.RESTR>
0

>  <SCORE.RESTR.CAVITY>
0

>  <SCORE.RESTR.norm>
0

>  <SCORE.SYSTEM>
0

>  <SCORE.SYSTEM.CONST>
0

>  <SCORE.SYSTEM.DIHEDRAL>
0

>  <SCORE.SYSTEM.SOLV>
0

>  <SCORE.SYSTEM.norm>
0

>  <SCORE.heavy>
27

>  <SCORE.norm>
-0.420004

>  <RMSD>
16.209

$$$$
ligand
 OpenBabel02271912153D
libRbt.so/2013.1/901 2013/11/27
 27 29  0  0  0  0  0  0  0  0999 V2000
    7.1728    2.8419   15.5946 N   0  0  0  0  0  0  0  0  0  0  0  0
    6.0826    2.7358   16.6128 C   0  0  2  0  0  0  0  0  0  0  0  0
    4.8262    2.0653   16.0142 C   0  0  0  0  0  0  0  0  0  0  0  0
    4.5273    2.2168   14.8257 O   0  0  0  0  0  0  0  0  0  0  0  0
    5.7796    4.1196   17.1775 C   0  0  0  0  0  0  0  0  0  0  0  0
    6.9213    4.7436   17.9626 C   0  0  0  0  0  0  0  0  0  0  0  0
    6.5578    4.9325   19.7316 S   0  0  2  0  0  0  0  0  0  0  0  0
    8.2046    5.3494   20.3716 C   0  0  0  0  0  0  0  0  0  0  0  0
    6.3071    3.2732   20.3827 C   0  0  0  0  0  0  0  0  0  0  0  0
    7.2610    2.3203   19.6881 C   0  0  1  0  0  0  0  0  0  0  0  0
    8.6040    2.4868   20.1156 O   0  0  0  0  0  0  0  0  0  0  0  0
    6.8891    0.8806   19.9468 C   0  0  1  0  0  0  0  0  0  0  0  0
    5.9152    0.4420   19.0437 O   0  0  0  0  0  0  0  0  0  0  0  0
    8.2048    0.1972   19.7300 C   0  0  1  0  0  0  0  0  0  0  0  0
    8.3466   -0.1117   18.3564 O   0  0  0  0  0  0  0  0  0  0  0  0
    9.2407    1.2306   20.1535 C   0  0  2  0  0  0  0  0  0  0  0  0
    4.0631    1.3547   16.6940 O   0  0  0  0  0  0  0  0  0  0  0  0
   13.1936    1.7260   23.6158 N   0  0  0  0  0  0  0  0  0  0  0  0
   13.1460    2.1843   22.3072 C   0  0  0  0  0  0  0  0  0  0  0  0
   12.0279    1.9596   21.5130 N   0  0  0  0  0  0  0  0  0  0  0  0
   10.9730    1.3046   22.0311 C   0  0  0  0  0  0  0  0  0  0  0  0
   11.0032    0.8514   23.3529 C   0  0  0  0  0  0  0  0  0  0  0  0
   12.1172    1.0493   24.1478 C   0  0  0  0  0  0  0  0  0  0  0  0
   12.1453    0.6082   25.3965 N   0  0  0  0  0  0  0  0  0  0  0  0
    9.8358    0.2532   23.6141 N   0  0  0  0  0  0  0  0  0  0  0  0
    9.0704    0.3171   22.5023 C   0  0  0  0  0  0  0  0  0  0  0  0
    9.7581    0.9707   21.5102 N   0  0  0  0  0  0  0  0  0  0  0  0
  2  1  1  6  0  0  0
  2  3  1  0  0  0  0
  2  5  1  0  0  0  0
  3  4  1  0  0  0  0
  3 17  1  0  0  0  0
  5  6  1  0  0  0  0
  7  6  1  6  0  0  0
  7  8  1  0  0  0  0
  7  9  1  0  0  0  0
 10  9  1  1  0  0  0
 10 11  1  0  0  0  0
 10 12  1  0  0  0  0
 11 16  1  0  0  0  0
 12 13  1  6  0  0  0
 12 14  1  0  0  0  0
 14 15  1  6  0  0  0
 14 16  1  0  0  0  0
 16 27  1  1  0  0  0
 18 19  2  0  0  0  0
 18 23  1  0  0  0  0
 19 20  1  0  0  0  0
 20 21  2  0  0  0  0
 21 22  1  0  0  0  0
 21 27  1  0  0  0  0
 22 23  2  0  0  0  0
 22 25  1  0  0  0  0
 23 24  1  0  0  0  0
 25 26  2  0  0  0  0
 26 27  1  0  0  0  0
M  END
>  <CHROM.1>
-32.54305500,-64.98203225,-113.31784098,168.56652591,36.34043813,72.95185337
-88.70590391,8.26550022,2.09370010,19.97503487,2.99922130,-0.81518107,0.05059354

>  <Name>
ligand

>  <RI>
0

>  <Rbt.Current_Directory>
/home/itssahil/PROJECTS/Mol_Feturizer/Test_systems_manuscript/rnas/2ydh

>  <Rbt.Executable>
rbdock ($Id: //depot/dev/client3/rdock/2013.1/src/exe/rbdock.cxx#4 $)

>  <Rbt.Library>
libRbt.so (2013.1, Build901 2013/11/27)

>  <Rbt.Parameter_File>
/export/apps/rDock/src/rDock_2013.1_src/data/scripts/dock_solv.prm

>  <Rbt.Receptor>
prm/blind_docking_60.prm

>  <SCORE>
-9.13641

>  <SCORE.INTER>
-11.2571

>  <SCORE.INTER.CONST>
1

>  <SCORE.INTER.POLAR>
0

>  <SCORE.INTER.ROT>
7

>  <SCORE.INTER.SOLV>
7.41296

>  <SCORE.INTER.VDW>
-18.2424

>  <SCORE.INTER.norm>
-0.416929

>  <SCORE.INTRA>
2.12068

>  <SCORE.INTRA.DIHEDRAL>
0.125882

>  <SCORE.INTRA.DIHEDRAL.0>
9.75037

>  <SCORE.INTRA.POLAR>
0

>  <SCORE.INTRA.POLAR.0>
0

>  <SCORE.INTRA.REPUL>
0

>  <SCORE.INTRA.REPUL.0>
0

>  <SCORE.INTRA.SOLV>
0.289831

>  <SCORE.INTRA.SOLV.lig_0>
-48.4279

>  <SCORE.INTRA.VDW>
1.91283

>  <SCORE.INTRA.VDW.0>
-4.69037

>  <SCORE.INTRA.norm>
0.0785438

>  <SCORE.RESTR>
0

>  <SCORE.RESTR.CAVITY>
0

>  <SCORE.RESTR.norm>
0

>  <SCORE.SYSTEM>
0

>  <SCORE.SYSTEM.CONST>
0

>  <SCORE.SYSTEM.DIHEDRAL>
0

>  <SCORE.SYSTEM.SOLV>
0

>  <SCORE.SYSTEM.norm>
0

>  <SCORE.heavy>
27

>  <SCORE.norm>
-0.338386

>  <RMSD>
16.211

$$$$
ligand
 OpenBabel02271912153D
libRbt.so/2013.1/901 2013/11/27
 27 29  0  0  0  0  0  0  0  0999 V2000
    6.4598    5.1011   17.1050 N   0  0  0  0  0  0  0  0  0  0  0  0
    6.5472    6.0027   18.2950 C   0  0  2  0  0  0  0  0  0  0  0  0
    7.9671    6.5936   18.4416 C   0  0  0  0  0  0  0  0  0  0  0  0
    8.1742    7.8014   18.2900 O   0  0  0  0  0  0  0  0  0  0  0  0
    6.1123    5.2403   19.5421 C   0  0  0  0  0  0  0  0  0  0  0  0
    6.9492    4.0106   19.8528 C   0  0  0  0  0  0  0  0  0  0  0  0
    6.0752    2.7844   20.8673 S   0  0  2  0  0  0  0  0  0  0  0  0
    6.1349    3.5883   22.4939 C   0  0  0  0  0  0  0  0  0  0  0  0
    7.2063    1.4014   21.0865 C   0  0  0  0  0  0  0  0  0  0  0  0
    7.4796    0.7675   19.7359 C   0  0  1  0  0  0  0  0  0  0  0  0
    8.2312   -0.4319   19.8397 O   0  0  0  0  0  0  0  0  0  0  0  0
    6.1974    0.4258   19.0168 C   0  0  1  0  0  0  0  0  0  0  0  0
    5.7052    1.5299   18.3129 O   0  0  0  0  0  0  0  0  0  0  0  0
    6.6605   -0.6644   18.0993 C   0  0  1  0  0  0  0  0  0  0  0  0
    7.1492   -0.0880   16.9030 O   0  0  0  0  0  0  0  0  0  0  0  0
    7.7892   -1.3455   18.8625 C   0  0  2  0  0  0  0  0  0  0  0  0
    8.9570    5.8884   18.7104 O   0  0  0  0  0  0  0  0  0  0  0  0
    6.3552   -3.8428   23.2858 N   0  0  0  0  0  0  0  0  0  0  0  0
    6.7255   -2.5137   23.1407 C   0  0  0  0  0  0  0  0  0  0  0  0
    7.0928   -2.0069   21.8999 N   0  0  0  0  0  0  0  0  0  0  0  0
    7.0691   -2.8158   20.8250 C   0  0  0  0  0  0  0  0  0  0  0  0
    6.6832   -4.1528   20.9559 C   0  0  0  0  0  0  0  0  0  0  0  0
    6.3358   -4.6759   22.1878 C   0  0  0  0  0  0  0  0  0  0  0  0
    5.9813   -5.9464   22.3087 N   0  0  0  0  0  0  0  0  0  0  0  0
    6.7343   -4.7207   19.7460 N   0  0  0  0  0  0  0  0  0  0  0  0
    7.1365   -3.7856   18.8572 C   0  0  0  0  0  0  0  0  0  0  0  0
    7.3447   -2.5951   19.5081 N   0  0  0  0  0  0  0  0  0  0  0  0
  2  1  1  6  0  0  0
  2  3  1  0  0  0  0
  2  5  1  0  0  0  0
  3  4  1  0  0  0  0
  3 17  1  0  0  0  0
  5  6  1  0  0  0  0
  7  6  1  6  0  0  0
  7  8  1  0  0  0  0
  7  9  1  0  0  0  0
 10  9  1  1  0  0  0
 10 11  1  0  0  0  0
 10 12  1  0  0  0  0
 11 16  1  0  0  0  0
 12 13  1  6  0  0  0
 12 14  1  0  0  0  0
 14 15  1  6  0  0  0
 14 16  1  0  0  0  0
 16 27  1  1  0  0  0
 18 19  2  0  0  0  0
 18 23  1  0  0  0  0
 19 20  1  0  0  0  0
 20 21  2  0  0  0  0
 21 22  1  0  0  0  0
 21 27  1  0  0  0  0
 22 23  2  0  0  0  0
 22 25  1  0  0  0  0
 23 24  1  0  0  0  0
 25 26  2  0  0  0  0
 26 27  1  0  0  0  0
M  END
>  <CHROM.1>
113.29656011,59.85915089,-156.73800153,-75.19556973,-64.18597387,-172.68011726
14.77332221,6.90992886,0.67312512,19.93309829,-1.23367241,-1.40601684,-3.05090497

>  <Name>
ligand

>  <RI>
0

>  <Rbt.Current_Directory>
/home/itssahil/PROJECTS/Mol_Feturizer/Test_systems_manuscript/rnas/2ydh

>  <Rbt.Executable>
rbdock ($Id: //depot/dev/client3/rdock/2013.1/src/exe/rbdock.cxx#4 $)

>  <Rbt.Library>
libRbt.so (2013.1, Build901 2013/11/27)

>  <Rbt.Parameter_File>
/export/apps/rDock/src/rDock_2013.1_src/data/scripts/dock_solv.prm

>  <Rbt.Receptor>
prm/blind_docking_80.prm

>  <SCORE>
-11.7578

>  <SCORE.INTER>
-12.2246

>  <SCORE.INTER.CONST>
1

>  <SCORE.INTER.POLAR>
0

>  <SCORE.INTER.ROT>
7

>  <SCORE.INTER.SOLV>
9.55321

>  <SCORE.INTER.VDW>
-19.6008

>  <SCORE.INTER.norm>
-0.452765

>  <SCORE.INTRA>
0.466822

>  <SCORE.INTRA.DIHEDRAL>
-4.49597

>  <SCORE.INTRA.DIHEDRAL.0>
9.75037

>  <SCORE.INTRA.POLAR>
0

>  <SCORE.INTRA.POLAR.0>
0

>  <SCORE.INTRA.REPUL>
0

>  <SCORE.INTRA.REPUL.0>
0

>  <SCORE.INTRA.SOLV>
0.117069

>  <SCORE.INTRA.SOLV.lig_0>
-48.4279

>  <SCORE.INTRA.VDW>
2.65627

>  <SCORE.INTRA.VDW.0>
-4.69037

>  <SCORE.INTRA.norm>
0.0172897

>  <SCORE.RESTR>
0

>  <SCORE.RESTR.CAVITY>
0

>  <SCORE.RESTR.norm>
0

>  <SCORE.SYSTEM>
0

>  <SCORE.SYSTEM.CONST>
0

>  <SCORE.SYSTEM.DIHEDRAL>
0

>  <SCORE.SYSTEM.SOLV>
0

>  <SCORE.SYSTEM.norm>
0

>  <SCORE.heavy>
27

>  <SCORE.norm>
-0.435475

>  <RMSD>
16.224

$$$$
ligand
 OpenBabel02271912153D
libRbt.so/2013.1/901 2013/11/27
 27 29  0  0  0  0  0  0  0  0999 V2000
    9.6020    0.9713   25.6384 N   0  0  0  0  0  0  0  0  0  0  0  0
    8.9574    2.2615   25.2426 C   0  0  2  0  0  0  0  0  0  0  0  0
    7.4707    2.2917   25.6617 C   0  0  0  0  0  0  0  0  0  0  0  0
    6.6291    1.6030   25.0769 O   0  0  0  0  0  0  0  0  0  0  0  0
    9.1346    2.4781   23.7435 C   0  0  0  0  0  0  0  0  0  0  0  0
   10.5784    2.6325   23.2955 C   0  0  0  0  0  0  0  0  0  0  0  0
   11.5365    1.0948   23.4161 S   0  0  2  0  0  0  0  0  0  0  0  0
   13.2217    1.7282   23.1827 C   0  0  0  0  0  0  0  0  0  0  0  0
   11.2544    0.1944   21.8832 C   0  0  0  0  0  0  0  0  0  0  0  0
    9.9142   -0.5113   21.9638 C   0  0  1  0  0  0  0  0  0  0  0  0
    8.8208    0.3933   21.9441 O   0  0  0  0  0  0  0  0  0  0  0  0
    9.7217   -1.4641   20.8094 C   0  0  1  0  0  0  0  0  0  0  0  0
   10.3052   -2.7064   21.0790 O   0  0  0  0  0  0  0  0  0  0  0  0
    8.2269   -1.5472   20.7475 C   0  0  1  0  0  0  0  0  0  0  0  0
    7.7816   -2.5619   21.6275 O   0  0  0  0  0  0  0  0  0  0  0  0
    7.7532   -0.1810   21.2262 C   0  0  2  0  0  0  0  0  0  0  0  0
    7.0560    3.0063   26.5927 O   0  0  0  0  0  0  0  0  0  0  0  0
    8.5678    4.3065   18.5695 N   0  0  0  0  0  0  0  0  0  0  0  0
    9.2484    3.8429   19.6860 C   0  0  0  0  0  0  0  0  0  0  0  0
    8.9013    2.6370   20.2833 N   0  0  0  0  0  0  0  0  0  0  0  0
    7.9034    1.9044   19.7564 C   0  0  0  0  0  0  0  0  0  0  0  0
    7.2204    2.3537   18.6227 C   0  0  0  0  0  0  0  0  0  0  0  0
    7.5409    3.5615   18.0308 C   0  0  0  0  0  0  0  0  0  0  0  0
    6.8834    3.9882   16.9630 N   0  0  0  0  0  0  0  0  0  0  0  0
    6.2977    1.4394   18.3036 N   0  0  0  0  0  0  0  0  0  0  0  0
    6.3787    0.4282   19.1964 C   0  0  0  0  0  0  0  0  0  0  0  0
    7.3734    0.6971   20.1034 N   0  0  0  0  0  0  0  0  0  0  0  0
  2  1  1  6  0  0  0
  2  3  1  0  0  0  0
  2  5  1  0  0  0  0
  3  4  1  0  0  0  0
  3 17  1  0  0  0  0
  5  6  1  0  0  0  0
  7  6  1  6  0  0  0
  7  8  1  0  0  0  0
  7  9  1  0  0  0  0
 10  9  1  6  0  0  0
 10 11  1  0  0  0  0
 10 12  1  0  0  0  0
 11 16  1  0  0  0  0
 12 13  1  1  0  0  0
 12 14  1  0  0  0  0
 14 15  1  1  0  0  0
 14 16  1  0  0  0  0
 16 27  1  6  0  0  0
 18 19  2  0  0  0  0
 18 23  1  0  0  0  0
 19 20  1  0  0  0  0
 20 21  2  0  0  0  0
 21 22  1  0  0  0  0
 21 27  1  0  0  0  0
 22 23  2  0  0  0  0
 22 25  1  0  0  0  0
 23 24  1  0  0  0  0
 25 26  2  0  0  0  0
 26 27  1  0  0  0  0
M  END
>  <CHROM.1>
-71.92349761,-63.58971889,69.81942755,-167.74960371,-79.74512831,69.11549554
-1.13414487,8.83642773,1.23436184,21.75013915,0.78616521,-1.07087621,0.99598458

>  <Name>
ligand

>  <RI>
0

>  <Rbt.Current_Directory>
/home/itssahil/PROJECTS/Mol_Feturizer/Test_systems_manuscript/rnas/2ydh

>  <Rbt.Executable>
rbdock ($Id: //depot/dev/client3/rdock/2013.1/src/exe/rbdock.cxx#4 $)

>  <Rbt.Library>
libRbt.so (2013.1, Build901 2013/11/27)

>  <Rbt.Parameter_File>
/export/apps/rDock/src/rDock_2013.1_src/data/scripts/dock_solv.prm

>  <Rbt.Receptor>
prm/blind_docking_60.prm

>  <SCORE>
-10.3133

>  <SCORE.INTER>
-10.1145

>  <SCORE.INTER.CONST>
1

>  <SCORE.INTER.POLAR>
0

>  <SCORE.INTER.ROT>
7

>  <SCORE.INTER.SOLV>
7.88

>  <SCORE.INTER.VDW>
-17.6363

>  <SCORE.INTER.norm>
-0.374612

>  <SCORE.INTRA>
-0.19878

>  <SCORE.INTRA.DIHEDRAL>
-4.54044

>  <SCORE.INTRA.DIHEDRAL.0>
9.75037

>  <SCORE.INTRA.POLAR>
0

>  <SCORE.INTRA.POLAR.0>
0

>  <SCORE.INTRA.REPUL>
0

>  <SCORE.INTRA.REPUL.0>
0

>  <SCORE.INTRA.SOLV>
1.97653

>  <SCORE.INTRA.SOLV.lig_0>
-48.4279

>  <SCORE.INTRA.VDW>
1.08318

>  <SCORE.INTRA.VDW.0>
-4.69037

>  <SCORE.INTRA.norm>
-0.00736223

>  <SCORE.RESTR>
0

>  <SCORE.RESTR.CAVITY>
0

>  <SCORE.RESTR.norm>
0

>  <SCORE.SYSTEM>
0

>  <SCORE.SYSTEM.CONST>
0

>  <SCORE.SYSTEM.DIHEDRAL>
0

>  <SCORE.SYSTEM.SOLV>
0

>  <SCORE.SYSTEM.norm>
0

>  <SCORE.heavy>
27

>  <SCORE.norm>
-0.381974

>  <RMSD>
16.233

$$$$
ligand
 OpenBabel02271912153D
libRbt.so/2013.1/901 2013/11/27
 27 29  0  0  0  0  0  0  0  0999 V2000
   11.7338    2.2737   25.6574 N   0  0  0  0  0  0  0  0  0  0  0  0
   12.4129    1.2113   24.8532 C   0  0  2  0  0  0  0  0  0  0  0  0
   13.9344    1.4656   24.7683 C   0  0  0  0  0  0  0  0  0  0  0  0
   14.5849    1.7820   25.7690 O   0  0  0  0  0  0  0  0  0  0  0  0
   11.7679    1.1292   23.4738 C   0  0  0  0  0  0  0  0  0  0  0  0
   11.7627    2.4380   22.7016 C   0  0  0  0  0  0  0  0  0  0  0  0
   10.9031    2.3274   21.1061 S   0  0  2  0  0  0  0  0  0  0  0  0
   10.8411    4.0793   20.6343 C   0  0  0  0  0  0  0  0  0  0  0  0
    9.1778    1.9737   21.4775 C   0  0  0  0  0  0  0  0  0  0  0  0
    8.4269    1.7557   20.1778 C   0  0  1  0  0  0  0  0  0  0  0  0
    8.7674    0.5283   19.5519 O   0  0  0  0  0  0  0  0  0  0  0  0
    6.9340    1.7412   20.3984 C   0  0  1  0  0  0  0  0  0  0  0  0
    6.4115    3.0387   20.3931 O   0  0  0  0  0  0  0  0  0  0  0  0
    6.4732    0.9453   19.2155 C   0  0  1  0  0  0  0  0  0  0  0  0
    6.2780    1.8162   18.1175 O   0  0  0  0  0  0  0  0  0  0  0  0
    7.6224   -0.0148   18.9363 C   0  0  2  0  0  0  0  0  0  0  0  0
   14.5666    1.3701   23.7004 O   0  0  0  0  0  0  0  0  0  0  0  0
    7.2414   -3.1753   23.1465 N   0  0  0  0  0  0  0  0  0  0  0  0
    7.5406   -1.8208   23.1234 C   0  0  0  0  0  0  0  0  0  0  0  0
    7.6178   -1.1277   21.9212 N   0  0  0  0  0  0  0  0  0  0  0  0
    7.3798   -1.7799   20.7687 C   0  0  0  0  0  0  0  0  0  0  0  0
    7.0624   -3.1410   20.7803 C   0  0  0  0  0  0  0  0  0  0  0  0
    7.0031   -3.8479   21.9672 C   0  0  0  0  0  0  0  0  0  0  0  0
    6.7126   -5.1402   21.9722 N   0  0  0  0  0  0  0  0  0  0  0  0
    6.8625   -3.5321   19.5169 N   0  0  0  0  0  0  0  0  0  0  0  0
    7.0405   -2.4625   18.7105 C   0  0  0  0  0  0  0  0  0  0  0  0
    7.3576   -1.3641   19.4704 N   0  0  0  0  0  0  0  0  0  0  0  0
  2  1  1  1  0  0  0
  2  3  1  0  0  0  0
  2  5  1  0  0  0  0
  3  4  1  0  0  0  0
  3 17  1  0  0  0  0
  5  6  1  0  0  0  0
  7  6  1  1  0  0  0
  7  8  1  0  0  0  0
  7  9  1  0  0  0  0
 10  9  1  1  0  0  0
 10 11  1  0  0  0  0
 10 12  1  0  0  0  0
 11 16  1  0  0  0  0
 12 13  1  6  0  0  0
 12 14  1  0  0  0  0
 14 15  1  6  0  0  0
 14 16  1  0  0  0  0
 16 27  1  1  0  0  0
 18 19  2  0  0  0  0
 18 23  1  0  0  0  0
 19 20  1  0  0  0  0
 20 21  2  0  0  0  0
 21 22  1  0  0  0  0
 21 27  1  0  0  0  0
 22 23  2  0  0  0  0
 22 25  1  0  0  0  0
 23 24  1  0  0  0  0
 25 26  2  0  0  0  0
 26 27  1  0  0  0  0
M  END
>  <CHROM.1>
45.05084647,56.14807029,-176.66757737,170.41977777,-175.37321845,71.57289333
44.80843744,9.20120351,0.29581141,21.54894837,-0.19783956,0.69663137,2.66764107

>  <Name>
ligand

>  <RI>
0

>  <Rbt.Current_Directory>
/home/itssahil/PROJECTS/Mol_Feturizer/Test_systems_manuscript/rnas/2ydh

>  <Rbt.Executable>
rbdock ($Id: //depot/dev/client3/rdock/2013.1/src/exe/rbdock.cxx#4 $)

>  <Rbt.Library>
libRbt.so (2013.1, Build901 2013/11/27)

>  <Rbt.Parameter_File>
/export/apps/rDock/src/rDock_2013.1_src/data/scripts/dock_solv.prm

>  <Rbt.Receptor>
prm/blind_docking_80.prm

>  <SCORE>
-14.163

>  <SCORE.INTER>
-12.8258

>  <SCORE.INTER.CONST>
1

>  <SCORE.INTER.POLAR>
0

>  <SCORE.INTER.ROT>
7

>  <SCORE.INTER.SOLV>
6.31966

>  <SCORE.INTER.VDW>
-18.9238

>  <SCORE.INTER.norm>
-0.475031

>  <SCORE.INTRA>
-1.33717

>  <SCORE.INTRA.DIHEDRAL>
-5.69699

>  <SCORE.INTRA.DIHEDRAL.0>
9.75037

>  <SCORE.INTRA.POLAR>
0

>  <SCORE.INTRA.POLAR.0>
0

>  <SCORE.INTRA.REPUL>
0

>  <SCORE.INTRA.REPUL.0>
0

>  <SCORE.INTRA.SOLV>
-0.794467

>  <SCORE.INTRA.SOLV.lig_0>
-48.4279

>  <SCORE.INTRA.VDW>
1.90856

>  <SCORE.INTRA.VDW.0>
-4.69037

>  <SCORE.INTRA.norm>
-0.0495247

>  <SCORE.RESTR>
0

>  <SCORE.RESTR.CAVITY>
0

>  <SCORE.RESTR.norm>
0

>  <SCORE.SYSTEM>
0

>  <SCORE.SYSTEM.CONST>
0

>  <SCORE.SYSTEM.DIHEDRAL>
0

>  <SCORE.SYSTEM.SOLV>
0

>  <SCORE.SYSTEM.norm>
0

>  <SCORE.heavy>
27

>  <SCORE.norm>
-0.524555

>  <RMSD>
16.235

$$$$
ligand
 OpenBabel02271912153D
libRbt.so/2013.1/901 2013/11/27
 27 29  0  0  0  0  0  0  0  0999 V2000
    3.5463    0.9939   15.7675 N   0  0  0  0  0  0  0  0  0  0  0  0
    4.8019    0.6591   16.5078 C   0  0  2  0  0  0  0  0  0  0  0  0
    4.4863   -0.0208   17.8586 C   0  0  0  0  0  0  0  0  0  0  0  0
    3.5171    0.3304   18.5383 O   0  0  0  0  0  0  0  0  0  0  0  0
    5.6391    1.9216   16.6835 C   0  0  0  0  0  0  0  0  0  0  0  0
    7.0337    1.6810   17.2369 C   0  0  0  0  0  0  0  0  0  0  0  0
    7.0476    1.3144   19.0152 S   0  0  2  0  0  0  0  0  0  0  0  0
    6.9229    2.9888   19.7056 C   0  0  0  0  0  0  0  0  0  0  0  0
    8.7386    0.8583   19.4306 C   0  0  0  0  0  0  0  0  0  0  0  0
    8.8454    0.6709   20.9320 C   0  0  1  0  0  0  0  0  0  0  0  0
    7.8910   -0.2515   21.4346 O   0  0  0  0  0  0  0  0  0  0  0  0
   10.2084    0.1585   21.3289 C   0  0  1  0  0  0  0  0  0  0  0  0
   11.1195    1.2100   21.4727 O   0  0  0  0  0  0  0  0  0  0  0  0
    9.9007   -0.5013   22.6385 C   0  0  1  0  0  0  0  0  0  0  0  0
    9.9872    0.4593   23.6739 O   0  0  0  0  0  0  0  0  0  0  0  0
    8.4668   -0.9923   22.4856 C   0  0  2  0  0  0  0  0  0  0  0  0
    5.1879   -0.9387   18.3218 O   0  0  0  0  0  0  0  0  0  0  0  0
    5.6999   -5.4860   22.5818 N   0  0  0  0  0  0  0  0  0  0  0  0
    5.3040   -4.2331   23.0270 C   0  0  0  0  0  0  0  0  0  0  0  0
    6.1618   -3.1428   22.9443 N   0  0  0  0  0  0  0  0  0  0  0  0
    7.3845   -3.3062   22.4072 C   0  0  0  0  0  0  0  0  0  0  0  0
    7.7891   -4.5603   21.9413 C   0  0  0  0  0  0  0  0  0  0  0  0
    6.9540   -5.6583   22.0367 C   0  0  0  0  0  0  0  0  0  0  0  0
    7.3461   -6.8472   21.6037 N   0  0  0  0  0  0  0  0  0  0  0  0
    9.0274   -4.4417   21.4497 N   0  0  0  0  0  0  0  0  0  0  0  0
    9.4150   -3.1545   21.5878 C   0  0  0  0  0  0  0  0  0  0  0  0
    8.4060   -2.4333   22.1761 N   0  0  0  0  0  0  0  0  0  0  0  0
  2  1  1  1  0  0  0
  2  3  1  0  0  0  0
  2  5  1  0  0  0  0
  3  4  1  0  0  0  0
  3 17  1  0  0  0  0
  5  6  1  0  0  0  0
  7  6  1  6  0  0  0
  7  8  1  0  0  0  0
  7  9  1  0  0  0  0
 10  9  1  6  0  0  0
 10 11  1  0  0  0  0
 10 12  1  0  0  0  0
 11 16  1  0  0  0  0
 12 13  1  1  0  0  0
 12 14  1  0  0  0  0
 14 15  1  1  0  0  0
 14 16  1  0  0  0  0
 16 27  1  6  0  0  0
 18 19  2  0  0  0  0
 18 23  1  0  0  0  0
 19 20  1  0  0  0  0
 20 21  2  0  0  0  0
 21 22  1  0  0  0  0
 21 27  1  0  0  0  0
 22 23  2  0  0  0  0
 22 25  1  0  0  0  0
 23 24  1  0  0  0  0
 25 26  2  0  0  0  0
 26 27  1  0  0  0  0
M  END
>  <CHROM.1>
-37.24117227,-171.31205605,-75.15473917,-80.81083462,174.51886884,54.24204640
-85.77278899,7.28182690,-0.99401346,20.44635096,1.94438015,-0.62839162,-0.50413417

>  <Name>
ligand

>  <RI>
0

>  <Rbt.Current_Directory>
/home/itssahil/PROJECTS/Mol_Feturizer/Test_systems_manuscript/rnas/2ydh

>  <Rbt.Executable>
rbdock ($Id: //depot/dev/client3/rdock/2013.1/src/exe/rbdock.cxx#4 $)

>  <Rbt.Library>
libRbt.so (2013.1, Build901 2013/11/27)

>  <Rbt.Parameter_File>
/export/apps/rDock/src/rDock_2013.1_src/data/scripts/dock_solv.prm

>  <Rbt.Receptor>
prm/blind_docking_40.prm

>  <SCORE>
-11.2156

>  <SCORE.INTER>
-10.131

>  <SCORE.INTER.CONST>
1

>  <SCORE.INTER.POLAR>
0

>  <SCORE.INTER.ROT>
7

>  <SCORE.INTER.SOLV>
9.92289

>  <SCORE.INTER.VDW>
-18.3283

>  <SCORE.INTER.norm>
-0.375221

>  <SCORE.INTRA>
-1.08464

>  <SCORE.INTRA.DIHEDRAL>
-4.93116

>  <SCORE.INTRA.DIHEDRAL.0>
9.75037

>  <SCORE.INTRA.POLAR>
0

>  <SCORE.INTRA.POLAR.0>
0

>  <SCORE.INTRA.REPUL>
0

>  <SCORE.INTRA.REPUL.0>
0

>  <SCORE.INTRA.SOLV>
-1.40782

>  <SCORE.INTRA.SOLV.lig_0>
-48.4279

>  <SCORE.INTRA.VDW>
2.08485

>  <SCORE.INTRA.VDW.0>
-4.69037

>  <SCORE.INTRA.norm>
-0.0401719

>  <SCORE.RESTR>
0

>  <SCORE.RESTR.CAVITY>
0

>  <SCORE.RESTR.norm>
0

>  <SCORE.SYSTEM>
0

>  <SCORE.SYSTEM.CONST>
0

>  <SCORE.SYSTEM.DIHEDRAL>
0

>  <SCORE.SYSTEM.SOLV>
0

>  <SCORE.SYSTEM.norm>
0

>  <SCORE.heavy>
27

>  <SCORE.norm>
-0.415392

>  <RMSD>
16.262

$$$$
ligand
 OpenBabel02271912153D
libRbt.so/2013.1/901 2013/11/27
 27 29  0  0  0  0  0  0  0  0999 V2000
    8.1865   -0.6102   22.3639 N   0  0  0  0  0  0  0  0  0  0  0  0
    8.4342   -1.6554   21.3233 C   0  0  2  0  0  0  0  0  0  0  0  0
    9.9436   -1.9531   21.1827 C   0  0  0  0  0  0  0  0  0  0  0  0
   10.3703   -3.1115   21.2082 O   0  0  0  0  0  0  0  0  0  0  0  0
    7.8118   -1.2140   20.0029 C   0  0  0  0  0  0  0  0  0  0  0  0
    8.2161    0.1792   19.5503 C   0  0  0  0  0  0  0  0  0  0  0  0
    7.5538    0.6251   17.9195 S   0  0  2  0  0  0  0  0  0  0  0  0
    8.7673   -0.1753   16.8322 C   0  0  0  0  0  0  0  0  0  0  0  0
    7.9213    2.3705   17.6775 C   0  0  0  0  0  0  0  0  0  0  0  0
    6.8501    3.2004   18.3589 C   0  0  1  0  0  0  0  0  0  0  0  0
    6.6667    2.8412   19.7196 O   0  0  0  0  0  0  0  0  0  0  0  0
    7.1895    4.6707   18.3308 C   0  0  1  0  0  0  0  0  0  0  0  0
    6.7752    5.2603   17.1319 O   0  0  0  0  0  0  0  0  0  0  0  0
    6.4045    5.1725   19.5042 C   0  0  1  0  0  0  0  0  0  0  0  0
    5.0923    5.4923   19.0824 O   0  0  0  0  0  0  0  0  0  0  0  0
    6.3814    3.9971   20.4728 C   0  0  2  0  0  0  0  0  0  0  0  0
   10.7899   -1.0509   21.0446 O   0  0  0  0  0  0  0  0  0  0  0  0
   11.3334    3.2658   22.1464 N   0  0  0  0  0  0  0  0  0  0  0  0
   10.7935    2.9300   20.9133 C   0  0  0  0  0  0  0  0  0  0  0  0
    9.4558    3.1778   20.6291 N   0  0  0  0  0  0  0  0  0  0  0  0
    8.6835    3.7684   21.5590 C   0  0  0  0  0  0  0  0  0  0  0  0
    9.2199    4.1251   22.7994 C   0  0  0  0  0  0  0  0  0  0  0  0
   10.5435    3.8653   23.1036 C   0  0  0  0  0  0  0  0  0  0  0  0
   11.0445    4.1953   24.2846 N   0  0  0  0  0  0  0  0  0  0  0  0
    8.2520    4.7008   23.5210 N   0  0  0  0  0  0  0  0  0  0  0  0
    7.1249    4.7212   22.7757 C   0  0  0  0  0  0  0  0  0  0  0  0
    7.3748    4.1508   21.5524 N   0  0  0  0  0  0  0  0  0  0  0  0
  2  1  1  1  0  0  0
  2  3  1  0  0  0  0
  2  5  1  0  0  0  0
  3  4  1  0  0  0  0
  3 17  1  0  0  0  0
  5  6  1  0  0  0  0
  7  6  1  1  0  0  0
  7  8  1  0  0  0  0
  7  9  1  0  0  0  0
 10  9  1  1  0  0  0
 10 11  1  0  0  0  0
 10 12  1  0  0  0  0
 11 16  1  0  0  0  0
 12 13  1  6  0  0  0
 12 14  1  0  0  0  0
 14 15  1  6  0  0  0
 14 16  1  0  0  0  0
 16 27  1  1  0  0  0
 18 19  2  0  0  0  0
 18 23  1  0  0  0  0
 19 20  1  0  0  0  0
 20 21  2  0  0  0  0
 21 22  1  0  0  0  0
 21 27  1  0  0  0  0
 22 23  2  0  0  0  0
 22 25  1  0  0  0  0
 23 24  1  0  0  0  0
 25 26  2  0  0  0  0
 26 27  1  0  0  0  0
M  END
>  <CHROM.1>
129.92221554,52.08641041,175.83736889,-82.26273830,-83.40336269,52.98482860
30.80593345,8.35048637,2.20676731,20.36592670,-0.88129722,-0.95595941,0.49223795

>  <Name>
ligand

>  <RI>
0

>  <Rbt.Current_Directory>
/home/itssahil/PROJECTS/Mol_Feturizer/Test_systems_manuscript/rnas/2ydh

>  <Rbt.Executable>
rbdock ($Id: //depot/dev/client3/rdock/2013.1/src/exe/rbdock.cxx#4 $)

>  <Rbt.Library>
libRbt.so (2013.1, Build901 2013/11/27)

>  <Rbt.Parameter_File>
/export/apps/rDock/src/rDock_2013.1_src/data/scripts/dock_solv.prm

>  <Rbt.Receptor>
prm/blind_docking_100.prm

>  <SCORE>
-13.6669

>  <SCORE.INTER>
-11.6344

>  <SCORE.INTER.CONST>
1

>  <SCORE.INTER.POLAR>
0

>  <SCORE.INTER.ROT>
7

>  <SCORE.INTER.SOLV>
10.5892

>  <SCORE.INTER.VDW>
-19.5527

>  <SCORE.INTER.norm>
-0.430903

>  <SCORE.INTRA>
-2.05233

>  <SCORE.INTRA.DIHEDRAL>
-4.795

>  <SCORE.INTRA.DIHEDRAL.0>
9.75037

>  <SCORE.INTRA.POLAR>
0

>  <SCORE.INTRA.POLAR.0>
0

>  <SCORE.INTRA.REPUL>
0

>  <SCORE.INTRA.REPUL.0>
0

>  <SCORE.INTRA.SOLV>
-0.662662

>  <SCORE.INTRA.SOLV.lig_0>
-48.4279

>  <SCORE.INTRA.VDW>
0.676502

>  <SCORE.INTRA.VDW.0>
-4.69037

>  <SCORE.INTRA.norm>
-0.0760122

>  <SCORE.RESTR>
0.0197644

>  <SCORE.RESTR.CAVITY>
0.0197644

>  <SCORE.RESTR.norm>
0.000732016

>  <SCORE.SYSTEM>
0

>  <SCORE.SYSTEM.CONST>
0

>  <SCORE.SYSTEM.DIHEDRAL>
0

>  <SCORE.SYSTEM.SOLV>
0

>  <SCORE.SYSTEM.norm>
0

>  <SCORE.heavy>
27

>  <SCORE.norm>
-0.506183

>  <RMSD>
16.270

$$$$
ligand
 OpenBabel02271912153D
libRbt.so/2013.1/901 2013/11/27
 27 29  0  0  0  0  0  0  0  0999 V2000
    8.5224    3.9952   24.7642 N   0  0  0  0  0  0  0  0  0  0  0  0
    7.4861    4.3681   23.7525 C   0  0  2  0  0  0  0  0  0  0  0  0
    6.3208    3.3538   23.7506 C   0  0  0  0  0  0  0  0  0  0  0  0
    5.3951    3.4473   22.9388 O   0  0  0  0  0  0  0  0  0  0  0  0
    8.1391    4.4932   22.3800 C   0  0  0  0  0  0  0  0  0  0  0  0
    7.2400    5.0822   21.3058 C   0  0  0  0  0  0  0  0  0  0  0  0
    7.4910    4.3352   19.6700 S   0  0  2  0  0  0  0  0  0  0  0  0
    6.1750    5.1502   18.7216 C   0  0  0  0  0  0  0  0  0  0  0  0
    6.8860    2.6437   19.7813 C   0  0  0  0  0  0  0  0  0  0  0  0
    7.7425    1.8764   20.7704 C   0  0  1  0  0  0  0  0  0  0  0  0
    7.0810    0.7341   21.2917 O   0  0  0  0  0  0  0  0  0  0  0  0
    9.0234    1.3945   20.1341 C   0  0  1  0  0  0  0  0  0  0  0  0
   10.0079    2.3876   20.1694 O   0  0  0  0  0  0  0  0  0  0  0  0
    9.3662    0.2322   21.0152 C   0  0  1  0  0  0  0  0  0  0  0  0
   10.1180    0.6940   22.1214 O   0  0  0  0  0  0  0  0  0  0  0  0
    8.0163   -0.3036   21.4747 C   0  0  2  0  0  0  0  0  0  0  0  0
    6.2583    2.4104   24.5601 O   0  0  0  0  0  0  0  0  0  0  0  0
    7.1981   -2.5359   16.7624 N   0  0  0  0  0  0  0  0  0  0  0  0
    7.6457   -1.2501   17.0288 C   0  0  0  0  0  0  0  0  0  0  0  0
    7.7973   -0.8041   18.3363 N   0  0  0  0  0  0  0  0  0  0  0  0
    7.5228   -1.6409   19.3535 C   0  0  0  0  0  0  0  0  0  0  0  0
    7.0856   -2.9436   19.0976 C   0  0  0  0  0  0  0  0  0  0  0  0
    6.9100   -3.3938   17.8021 C   0  0  0  0  0  0  0  0  0  0  0  0
    6.4850   -4.6257   17.5648 N   0  0  0  0  0  0  0  0  0  0  0  0
    6.9013   -3.5584   20.2711 N   0  0  0  0  0  0  0  0  0  0  0  0
    7.2104   -2.6876   21.2572 C   0  0  0  0  0  0  0  0  0  0  0  0
    7.6030   -1.4931   20.7064 N   0  0  0  0  0  0  0  0  0  0  0  0
  2  1  1  1  0  0  0
  2  3  1  0  0  0  0
  2  5  1  0  0  0  0
  3  4  1  0  0  0  0
  3 17  1  0  0  0  0
  5  6  1  0  0  0  0
  7  6  1  1  0  0  0
  7  8  1  0  0  0  0
  7  9  1  0  0  0  0
 10  9  1  6  0  0  0
 10 11  1  0  0  0  0
 10 12  1  0  0  0  0
 11 16  1  0  0  0  0
 12 13  1  1  0  0  0
 12 14  1  0  0  0  0
 14 15  1  1  0  0  0
 14 16  1  0  0  0  0
 16 27  1  6  0  0  0
 18 19  2  0  0  0  0
 18 23  1  0  0  0  0
 19 20  1  0  0  0  0
 20 21  2  0  0  0  0
 21 22  1  0  0  0  0
 21 27  1  0  0  0  0
 22 23  2  0  0  0  0
 22 25  1  0  0  0  0
 23 24  1  0  0  0  0
 25 26  2  0  0  0  0
 26 27  1  0  0  0  0
M  END
>  <CHROM.1>
-176.34140137,-170.71872430,-143.54239641,174.80691590,-64.23056657,158.22412441
66.04046302,7.54483846,1.05512853,20.63091985,-1.25459958,1.53597974,-2.95806192

>  <Name>
ligand

>  <RI>
0

>  <Rbt.Current_Directory>
/home/itssahil/PROJECTS/Mol_Feturizer/Test_systems_manuscript/rnas/2ydh

>  <Rbt.Executable>
rbdock ($Id: //depot/dev/client3/rdock/2013.1/src/exe/rbdock.cxx#4 $)

>  <Rbt.Library>
libRbt.so (2013.1, Build901 2013/11/27)

>  <Rbt.Parameter_File>
/export/apps/rDock/src/rDock_2013.1_src/data/scripts/dock_solv.prm

>  <Rbt.Receptor>
prm/blind_docking_100.prm

>  <SCORE>
-12.9651

>  <SCORE.INTER>
-12.2739

>  <SCORE.INTER.CONST>
1

>  <SCORE.INTER.POLAR>
0

>  <SCORE.INTER.ROT>
7

>  <SCORE.INTER.SOLV>
6.26517

>  <SCORE.INTER.VDW>
-18.5376

>  <SCORE.INTER.norm>
-0.454587

>  <SCORE.INTRA>
-0.695642

>  <SCORE.INTRA.DIHEDRAL>
-1.1705

>  <SCORE.INTRA.DIHEDRAL.0>
9.75037

>  <SCORE.INTRA.POLAR>
0

>  <SCORE.INTRA.POLAR.0>
0

>  <SCORE.INTRA.REPUL>
0

>  <SCORE.INTRA.REPUL.0>
0

>  <SCORE.INTRA.SOLV>
-0.937521

>  <SCORE.INTRA.SOLV.lig_0>
-48.4279

>  <SCORE.INTRA.VDW>
0.358369

>  <SCORE.INTRA.VDW.0>
-4.69037

>  <SCORE.INTRA.norm>
-0.0257645

>  <SCORE.RESTR>
0.00444081

>  <SCORE.RESTR.CAVITY>
0.00444081

>  <SCORE.RESTR.norm>
0.000164474

>  <SCORE.SYSTEM>
0

>  <SCORE.SYSTEM.CONST>
0

>  <SCORE.SYSTEM.DIHEDRAL>
0

>  <SCORE.SYSTEM.SOLV>
0

>  <SCORE.SYSTEM.norm>
0

>  <SCORE.heavy>
27

>  <SCORE.norm>
-0.480187

>  <RMSD>
16.352

$$$$
ligand
 OpenBabel02271912153D
libRbt.so/2013.1/901 2013/11/27
 27 29  0  0  0  0  0  0  0  0999 V2000
    9.7115   -4.3246   21.6538 N   0  0  0  0  0  0  0  0  0  0  0  0
    8.3980   -3.6096   21.6617 C   0  0  2  0  0  0  0  0  0  0  0  0
    7.5930   -3.9115   20.3782 C   0  0  0  0  0  0  0  0  0  0  0  0
    7.8239   -4.9190   19.7027 O   0  0  0  0  0  0  0  0  0  0  0  0
    8.6353   -2.1151   21.8510 C   0  0  0  0  0  0  0  0  0  0  0  0
    9.4314   -1.4573   20.7363 C   0  0  0  0  0  0  0  0  0  0  0  0
    9.5624    0.3450   20.9141 S   0  0  2  0  0  0  0  0  0  0  0  0
   10.4628    0.4642   22.4859 C   0  0  0  0  0  0  0  0  0  0  0  0
    7.9242    0.9349   21.3702 C   0  0  0  0  0  0  0  0  0  0  0  0
    8.0250    2.3828   21.8107 C   0  0  1  0  0  0  0  0  0  0  0  0
    8.3367    3.2577   20.7376 O   0  0  0  0  0  0  0  0  0  0  0  0
    6.7299    2.8674   22.4154 C   0  0  1  0  0  0  0  0  0  0  0  0
    6.6544    2.5398   23.7732 O   0  0  0  0  0  0  0  0  0  0  0  0
    6.8438    4.3457   22.1996 C   0  0  1  0  0  0  0  0  0  0  0  0
    7.5395    4.9216   23.2889 O   0  0  0  0  0  0  0  0  0  0  0  0
    7.6566    4.4782   20.9182 C   0  0  2  0  0  0  0  0  0  0  0  0
    6.6894   -3.1606   19.9672 O   0  0  0  0  0  0  0  0  0  0  0  0
    5.7256    2.8365   16.2884 N   0  0  0  0  0  0  0  0  0  0  0  0
    6.5880    2.1600   17.1389 C   0  0  0  0  0  0  0  0  0  0  0  0
    7.0194    2.7395   18.3261 N   0  0  0  0  0  0  0  0  0  0  0  0
    6.5769    3.9657   18.6592 C   0  0  0  0  0  0  0  0  0  0  0  0
    5.6959    4.6509   17.8178 C   0  0  0  0  0  0  0  0  0  0  0  0
    5.2752    4.0954   16.6236 C   0  0  0  0  0  0  0  0  0  0  0  0
    4.4488    4.7533   15.8243 N   0  0  0  0  0  0  0  0  0  0  0  0
    5.4072    5.8265   18.3868 N   0  0  0  0  0  0  0  0  0  0  0  0
    6.0744    5.9033   19.5594 C   0  0  0  0  0  0  0  0  0  0  0  0
    6.8024    4.7549   19.7478 N   0  0  0  0  0  0  0  0  0  0  0  0
  2  1  1  6  0  0  0
  2  3  1  0  0  0  0
  2  5  1  0  0  0  0
  3  4  1  0  0  0  0
  3 17  1  0  0  0  0
  5  6  1  0  0  0  0
  7  6  1  1  0  0  0
  7  8  1  0  0  0  0
  7  9  1  0  0  0  0
 10  9  1  6  0  0  0
 10 11  1  0  0  0  0
 10 12  1  0  0  0  0
 11 16  1  0  0  0  0
 12 13  1  1  0  0  0
 12 14  1  0  0  0  0
 14 15  1  1  0  0  0
 14 16  1  0  0  0  0
 16 27  1  6  0  0  0
 18 19  2  0  0  0  0
 18 23  1  0  0  0  0
 19 20  1  0  0  0  0
 20 21  2  0  0  0  0
 21 22  1  0  0  0  0
 21 27  1  0  0  0  0
 22 23  2  0  0  0  0
 22 25  1  0  0  0  0
 23 24  1  0  0  0  0
 25 26  2  0  0  0  0
 26 27  1  0  0  0  0
M  END
>  <CHROM.1>
21.54054809,62.59671263,174.61769488,62.23536465,168.46135955,68.88962353
4.20078950,7.46275814,1.52258553,20.26661970,0.79955287,1.11276231,-2.72011060

>  <Name>
ligand

>  <RI>
0

>  <Rbt.Current_Directory>
/home/itssahil/PROJECTS/Mol_Feturizer/Test_systems_manuscript/rnas/2ydh

>  <Rbt.Executable>
rbdock ($Id: //depot/dev/client3/rdock/2013.1/src/exe/rbdock.cxx#4 $)

>  <Rbt.Library>
libRbt.so (2013.1, Build901 2013/11/27)

>  <Rbt.Parameter_File>
/export/apps/rDock/src/rDock_2013.1_src/data/scripts/dock_solv.prm

>  <Rbt.Receptor>
prm/blind_docking_40.prm

>  <SCORE>
-10.7157

>  <SCORE.INTER>
-10.296

>  <SCORE.INTER.CONST>
1

>  <SCORE.INTER.POLAR>
0

>  <SCORE.INTER.ROT>
7

>  <SCORE.INTER.SOLV>
14.9282

>  <SCORE.INTER.VDW>
-20.1067

>  <SCORE.INTER.norm>
-0.381332

>  <SCORE.INTRA>
-0.419684

>  <SCORE.INTRA.DIHEDRAL>
-6.01214

>  <SCORE.INTRA.DIHEDRAL.0>
9.75037

>  <SCORE.INTRA.POLAR>
0

>  <SCORE.INTRA.POLAR.0>
0

>  <SCORE.INTRA.REPUL>
0

>  <SCORE.INTRA.REPUL.0>
0

>  <SCORE.INTRA.SOLV>
-0.821044

>  <SCORE.INTRA.SOLV.lig_0>
-48.4279

>  <SCORE.INTRA.VDW>
2.99691

>  <SCORE.INTRA.VDW.0>
-4.69037

>  <SCORE.INTRA.norm>
-0.0155439

>  <SCORE.RESTR>
0

>  <SCORE.RESTR.CAVITY>
0

>  <SCORE.RESTR.norm>
0

>  <SCORE.SYSTEM>
0

>  <SCORE.SYSTEM.CONST>
0

>  <SCORE.SYSTEM.DIHEDRAL>
0

>  <SCORE.SYSTEM.SOLV>
0

>  <SCORE.SYSTEM.norm>
0

>  <SCORE.heavy>
27

>  <SCORE.norm>
-0.396876

>  <RMSD>
16.392

$$$$
ligand
 OpenBabel02271912153D
libRbt.so/2013.1/901 2013/11/27
 27 29  0  0  0  0  0  0  0  0999 V2000
    5.1801   -3.8926   21.1194 N   0  0  0  0  0  0  0  0  0  0  0  0
    6.5117   -4.2133   21.7198 C   0  0  2  0  0  0  0  0  0  0  0  0
    6.3555   -5.0886   22.9832 C   0  0  0  0  0  0  0  0  0  0  0  0
    5.6501   -4.7238   23.9287 O   0  0  0  0  0  0  0  0  0  0  0  0
    7.2627   -2.9180   22.0094 C   0  0  0  0  0  0  0  0  0  0  0  0
    7.5986   -2.0953   20.7767 C   0  0  0  0  0  0  0  0  0  0  0  0
    8.6507   -0.6597   21.1359 S   0  0  2  0  0  0  0  0  0  0  0  0
    8.8522    0.0358   19.4712 C   0  0  0  0  0  0  0  0  0  0  0  0
   10.2960   -1.3038   21.4792 C   0  0  0  0  0  0  0  0  0  0  0  0
   11.1503   -0.1934   22.0605 C   0  0  1  0  0  0  0  0  0  0  0  0
   11.4180    0.8359   21.1208 O   0  0  0  0  0  0  0  0  0  0  0  0
   10.4808    0.4542   23.2480 C   0  0  1  0  0  0  0  0  0  0  0  0
   10.7421   -0.2576   24.4235 O   0  0  0  0  0  0  0  0  0  0  0  0
   11.1344    1.8024   23.2505 C   0  0  1  0  0  0  0  0  0  0  0  0
   12.3355    1.7346   23.9955 O   0  0  0  0  0  0  0  0  0  0  0  0
   11.4327    2.0795   21.7827 C   0  0  2  0  0  0  0  0  0  0  0  0
    6.9302   -6.1856   23.1081 O   0  0  0  0  0  0  0  0  0  0  0  0
    6.3547    3.3700   21.1447 N   0  0  0  0  0  0  0  0  0  0  0  0
    6.8801    2.3269   21.8934 C   0  0  0  0  0  0  0  0  0  0  0  0
    8.2516    2.1092   21.9493 N   0  0  0  0  0  0  0  0  0  0  0  0
    9.0773    2.9354   21.2816 C   0  0  0  0  0  0  0  0  0  0  0  0
    8.5606    3.9990   20.5363 C   0  0  0  0  0  0  0  0  0  0  0  0
    7.1973    4.2146   20.4544 C   0  0  0  0  0  0  0  0  0  0  0  0
    6.7119    5.2174   19.7379 N   0  0  0  0  0  0  0  0  0  0  0  0
    9.5866    4.6623   19.9918 N   0  0  0  0  0  0  0  0  0  0  0  0
   10.7320    4.0540   20.3717 C   0  0  0  0  0  0  0  0  0  0  0  0
   10.4358    2.9824   21.1769 N   0  0  0  0  0  0  0  0  0  0  0  0
  2  1  1  1  0  0  0
  2  3  1  0  0  0  0
  2  5  1  0  0  0  0
  3  4  1  0  0  0  0
  3 17  1  0  0  0  0
  5  6  1  0  0  0  0
  7  6  1  6  0  0  0
  7  8  1  0  0  0  0
  7  9  1  0  0  0  0
 10  9  1  6  0  0  0
 10 11  1  0  0  0  0
 10 12  1  0  0  0  0
 11 16  1  0  0  0  0
 12 13  1  1  0  0  0
 12 14  1  0  0  0  0
 14 15  1  1  0  0  0
 14 16  1  0  0  0  0
 16 27  1  6  0  0  0
 18 19  2  0  0  0  0
 18 23  1  0  0  0  0
 19 20  1  0  0  0  0
 20 21  2  0  0  0  0
 21 22  1  0  0  0  0
 21 27  1  0  0  0  0
 22 23  2  0  0  0  0
 22 25  1  0  0  0  0
 23 24  1  0  0  0  0
 25 26  2  0  0  0  0
 26 27  1  0  0  0  0
M  END
>  <CHROM.1>
-55.67537069,-63.50306883,-173.53061144,179.13223022,-168.53565377,-67.20044315
72.96525528,8.74664766,0.26674200,21.72292512,1.93301927,0.37035544,2.82684425

>  <Name>
ligand

>  <RI>
0

>  <Rbt.Current_Directory>
/home/itssahil/PROJECTS/Mol_Feturizer/Test_systems_manuscript/rnas/2ydh

>  <Rbt.Executable>
rbdock ($Id: //depot/dev/client3/rdock/2013.1/src/exe/rbdock.cxx#4 $)

>  <Rbt.Library>
libRbt.so (2013.1, Build901 2013/11/27)

>  <Rbt.Parameter_File>
/export/apps/rDock/src/rDock_2013.1_src/data/scripts/dock_solv.prm

>  <Rbt.Receptor>
prm/blind_docking_60.prm

>  <SCORE>
-14.1907

>  <SCORE.INTER>
-11.9538

>  <SCORE.INTER.CONST>
1

>  <SCORE.INTER.POLAR>
0

>  <SCORE.INTER.ROT>
7

>  <SCORE.INTER.SOLV>
13.136

>  <SCORE.INTER.VDW>
-20.6146

>  <SCORE.INTER.norm>
-0.442735

>  <SCORE.INTRA>
-2.2369

>  <SCORE.INTRA.DIHEDRAL>
-5.2417

>  <SCORE.INTRA.DIHEDRAL.0>
9.75037

>  <SCORE.INTRA.POLAR>
0

>  <SCORE.INTRA.POLAR.0>
0

>  <SCORE.INTRA.REPUL>
0

>  <SCORE.INTRA.REPUL.0>
0

>  <SCORE.INTRA.SOLV>
-0.512463

>  <SCORE.INTRA.SOLV.lig_0>
-48.4279

>  <SCORE.INTRA.VDW>
0.640178

>  <SCORE.INTRA.VDW.0>
-4.69037

>  <SCORE.INTRA.norm>
-0.0828482

>  <SCORE.RESTR>
0

>  <SCORE.RESTR.CAVITY>
0

>  <SCORE.RESTR.norm>
0

>  <SCORE.SYSTEM>
0

>  <SCORE.SYSTEM.CONST>
0

>  <SCORE.SYSTEM.DIHEDRAL>
0

>  <SCORE.SYSTEM.SOLV>
0

>  <SCORE.SYSTEM.norm>
0

>  <SCORE.heavy>
27

>  <SCORE.norm>
-0.525583

>  <RMSD>
16.405

$$$$
ligand
 OpenBabel02271912153D
libRbt.so/2013.1/901 2013/11/27
 27 29  0  0  0  0  0  0  0  0999 V2000
   13.5397    2.8848   27.4914 N   0  0  0  0  0  0  0  0  0  0  0  0
   13.3036    3.6996   26.2597 C   0  0  2  0  0  0  0  0  0  0  0  0
   13.2314    5.2059   26.5952 C   0  0  0  0  0  0  0  0  0  0  0  0
   13.8852    5.6839   27.5272 O   0  0  0  0  0  0  0  0  0  0  0  0
   12.0412    3.2072   25.5601 C   0  0  0  0  0  0  0  0  0  0  0  0
   12.2447    1.9860   24.6789 C   0  0  0  0  0  0  0  0  0  0  0  0
   10.6887    1.2495   24.1015 S   0  0  2  0  0  0  0  0  0  0  0  0
   10.4463   -0.0473   25.3485 C   0  0  0  0  0  0  0  0  0  0  0  0
   11.0904    0.2914   22.6316 C   0  0  0  0  0  0  0  0  0  0  0  0
    9.8556   -0.4668   22.1830 C   0  0  1  0  0  0  0  0  0  0  0  0
    8.7449    0.3873   21.9567 O   0  0  0  0  0  0  0  0  0  0  0  0
   10.1056   -1.2182   20.8982 C   0  0  1  0  0  0  0  0  0  0  0  0
   10.6862   -2.4658   21.1493 O   0  0  0  0  0  0  0  0  0  0  0  0
    8.7129   -1.3449   20.3601 C   0  0  1  0  0  0  0  0  0  0  0  0
    8.1124   -2.5088   20.8956 O   0  0  0  0  0  0  0  0  0  0  0  0
    7.9991   -0.0970   20.8639 C   0  0  2  0  0  0  0  0  0  0  0  0
   12.5159    5.9971   25.9537 O   0  0  0  0  0  0  0  0  0  0  0  0
    5.2820    1.9846   16.8461 N   0  0  0  0  0  0  0  0  0  0  0  0
    4.9449    0.8855   17.6226 C   0  0  0  0  0  0  0  0  0  0  0  0
    5.7811    0.4500   18.6436 N   0  0  0  0  0  0  0  0  0  0  0  0
    6.9226    1.1183   18.8901 C   0  0  0  0  0  0  0  0  0  0  0  0
    7.2656    2.2362   18.1244 C   0  0  0  0  0  0  0  0  0  0  0  0
    6.4536    2.6678   17.0917 C   0  0  0  0  0  0  0  0  0  0  0  0
    6.7884    3.7212   16.3618 N   0  0  0  0  0  0  0  0  0  0  0  0
    8.4277    2.7137   18.5832 N   0  0  0  0  0  0  0  0  0  0  0  0
    8.8265    1.9360   19.6138 C   0  0  0  0  0  0  0  0  0  0  0  0
    7.9020    0.9428   19.8221 N   0  0  0  0  0  0  0  0  0  0  0  0
  2  1  1  1  0  0  0
  2  3  1  0  0  0  0
  2  5  1  0  0  0  0
  3  4  1  0  0  0  0
  3 17  1  0  0  0  0
  5  6  1  0  0  0  0
  7  6  1  1  0  0  0
  7  8  1  0  0  0  0
  7  9  1  0  0  0  0
 10  9  1  6  0  0  0
 10 11  1  0  0  0  0
 10 12  1  0  0  0  0
 11 16  1  0  0  0  0
 12 13  1  1  0  0  0
 12 14  1  0  0  0  0
 14 15  1  1  0  0  0
 14 16  1  0  0  0  0
 16 27  1  6  0  0  0
 18 19  2  0  0  0  0
 18 23  1  0  0  0  0
 19 20  1  0  0  0  0
 20 21  2  0  0  0  0
 21 22  1  0  0  0  0
 21 27  1  0  0  0  0
 22 23  2  0  0  0  0
 22 25  1  0  0  0  0
 23 24  1  0  0  0  0
 25 26  2  0  0  0  0
 26 27  1  0  0  0  0
M  END
>  <CHROM.1>
31.63774605,-82.00521735,169.67385381,-95.36498340,174.19063383,55.88709066
-152.69310426,9.60711507,1.49556078,21.92991312,-0.20215373,0.93866831,3.07530820

>  <Name>
ligand

>  <RI>
0

>  <Rbt.Current_Directory>
/home/itssahil/PROJECTS/Mol_Feturizer/Test_systems_manuscript/rnas/2ydh

>  <Rbt.Executable>
rbdock ($Id: //depot/dev/client3/rdock/2013.1/src/exe/rbdock.cxx#4 $)

>  <Rbt.Library>
libRbt.so (2013.1, Build901 2013/11/27)

>  <Rbt.Parameter_File>
/export/apps/rDock/src/rDock_2013.1_src/data/scripts/dock_solv.prm

>  <Rbt.Receptor>
prm/blind_docking_100.prm

>  <SCORE>
-10.7364

>  <SCORE.INTER>
-11.5113

>  <SCORE.INTER.CONST>
1

>  <SCORE.INTER.POLAR>
0

>  <SCORE.INTER.ROT>
7

>  <SCORE.INTER.SOLV>
8.45238

>  <SCORE.INTER.VDW>
-18.7583

>  <SCORE.INTER.norm>
-0.426345

>  <SCORE.INTRA>
0.774863

>  <SCORE.INTRA.DIHEDRAL>
-2.4562

>  <SCORE.INTRA.DIHEDRAL.0>
9.75037

>  <SCORE.INTRA.POLAR>
0

>  <SCORE.INTRA.POLAR.0>
0

>  <SCORE.INTRA.REPUL>
0

>  <SCORE.INTRA.REPUL.0>
0

>  <SCORE.INTRA.SOLV>
-1.01322

>  <SCORE.INTRA.SOLV.lig_0>
-48.4279

>  <SCORE.INTRA.VDW>
2.50957

>  <SCORE.INTRA.VDW.0>
-4.69037

>  <SCORE.INTRA.norm>
0.0286986

>  <SCORE.RESTR>
0

>  <SCORE.RESTR.CAVITY>
0

>  <SCORE.RESTR.norm>
0

>  <SCORE.SYSTEM>
0

>  <SCORE.SYSTEM.CONST>
0

>  <SCORE.SYSTEM.DIHEDRAL>
0

>  <SCORE.SYSTEM.SOLV>
0

>  <SCORE.SYSTEM.norm>
0

>  <SCORE.heavy>
27

>  <SCORE.norm>
-0.397646

>  <RMSD>
16.420

$$$$
ligand
 OpenBabel02271912153D
libRbt.so/2013.1/901 2013/11/27
 27 29  0  0  0  0  0  0  0  0999 V2000
    0.2536  -17.0037    5.8938 N   0  0  0  0  0  0  0  0  0  0  0  0
    0.8093  -15.6277    6.0796 C   0  0  2  0  0  0  0  0  0  0  0  0
    0.6005  -15.1349    7.5288 C   0  0  0  0  0  0  0  0  0  0  0  0
    1.5617  -14.9070    8.2697 O   0  0  0  0  0  0  0  0  0  0  0  0
    0.1821  -14.6852    5.0579 C   0  0  0  0  0  0  0  0  0  0  0  0
    0.5760  -14.9651    3.6172 C   0  0  0  0  0  0  0  0  0  0  0  0
    2.3495  -14.7386    3.3003 S   0  0  2  0  0  0  0  0  0  0  0  0
    2.3797  -12.9995    2.7803 C   0  0  0  0  0  0  0  0  0  0  0  0
    2.7089  -15.6005    1.7616 C   0  0  0  0  0  0  0  0  0  0  0  0
    3.6241  -16.7741    2.0545 C   0  0  1  0  0  0  0  0  0  0  0  0
    4.6855  -16.4308    2.9317 O   0  0  0  0  0  0  0  0  0  0  0  0
    2.8714  -17.9147    2.6950 C   0  0  1  0  0  0  0  0  0  0  0  0
    2.2679  -18.7257    1.7283 O   0  0  0  0  0  0  0  0  0  0  0  0
    3.9776  -18.6255    3.4135 C   0  0  1  0  0  0  0  0  0  0  0  0
    4.5833  -19.5522    2.5323 O   0  0  0  0  0  0  0  0  0  0  0  0
    4.9592  -17.5205    3.7818 C   0  0  2  0  0  0  0  0  0  0  0  0
   -0.5315  -14.9521    8.0130 O   0  0  0  0  0  0  0  0  0  0  0  0
    5.1454  -13.6356    7.3500 N   0  0  0  0  0  0  0  0  0  0  0  0
    5.3646  -13.5468    5.9830 C   0  0  0  0  0  0  0  0  0  0  0  0
    5.2918  -14.6746    5.1741 N   0  0  0  0  0  0  0  0  0  0  0  0
    4.9859  -15.8626    5.7267 C   0  0  0  0  0  0  0  0  0  0  0  0
    4.7480  -15.9619    7.1004 C   0  0  0  0  0  0  0  0  0  0  0  0
    4.8379  -14.8522    7.9203 C   0  0  0  0  0  0  0  0  0  0  0  0
    4.6224  -14.9534    9.2234 N   0  0  0  0  0  0  0  0  0  0  0  0
    4.4551  -17.2366    7.3806 N   0  0  0  0  0  0  0  0  0  0  0  0
    4.4976  -17.9426    6.2291 C   0  0  0  0  0  0  0  0  0  0  0  0
    4.8210  -17.1052    5.1905 N   0  0  0  0  0  0  0  0  0  0  0  0
  2  1  1  1  0  0  0
  2  3  1  0  0  0  0
  2  5  1  0  0  0  0
  3  4  1  0  0  0  0
  3 17  1  0  0  0  0
  5  6  1  0  0  0  0
  7  6  1  6  0  0  0
  7  8  1  0  0  0  0
  7  9  1  0  0  0  0
 10  9  1  1  0  0  0
 10 11  1  0  0  0  0
 10 12  1  0  0  0  0
 11 16  1  0  0  0  0
 12 13  1  6  0  0  0
 12 14  1  0  0  0  0
 14 15  1  6  0  0  0
 14 16  1  0  0  0  0
 16 27  1  1  0  0  0
 18 19  2  0  0  0  0
 18 23  1  0  0  0  0
 19 20  1  0  0  0  0
 20 21  2  0  0  0  0
 21 22  1  0  0  0  0
 21 27  1  0  0  0  0
 22 23  2  0  0  0  0
 22 25  1  0  0  0  0
 23 24  1  0  0  0  0
 25 26  2  0  0  0  0
 26 27  1  0  0  0  0
M  END
>  <CHROM.1>
115.80109358,-67.46639768,-63.58494148,-91.64656086,-113.84419620,-44.76572875
-27.24156722,3.11842848,-15.95184857,5.00493760,1.71068237,-0.34259170,1.15501007

>  <Name>
ligand

>  <RI>
0

>  <Rbt.Current_Directory>
/home/itssahil/PROJECTS/Mol_Feturizer/Test_systems_manuscript/rnas/2ydh

>  <Rbt.Executable>
rbdock ($Id: //depot/dev/client3/rdock/2013.1/src/exe/rbdock.cxx#4 $)

>  <Rbt.Library>
libRbt.so (2013.1, Build901 2013/11/27)

>  <Rbt.Parameter_File>
/export/apps/rDock/src/rDock_2013.1_src/data/scripts/dock_solv.prm

>  <Rbt.Receptor>
prm/blind_docking_20.prm

>  <SCORE>
-1.72151

>  <SCORE.INTER>
-4.16427

>  <SCORE.INTER.CONST>
1

>  <SCORE.INTER.POLAR>
0

>  <SCORE.INTER.ROT>
7

>  <SCORE.INTER.SOLV>
17.184

>  <SCORE.INTER.VDW>
-16.7708

>  <SCORE.INTER.norm>
-0.154232

>  <SCORE.INTRA>
-0.120745

>  <SCORE.INTRA.DIHEDRAL>
-0.133375

>  <SCORE.INTRA.DIHEDRAL.0>
9.75037

>  <SCORE.INTRA.POLAR>
0

>  <SCORE.INTRA.POLAR.0>
0

>  <SCORE.INTRA.REPUL>
0

>  <SCORE.INTRA.REPUL.0>
0

>  <SCORE.INTRA.SOLV>
0.802157

>  <SCORE.INTRA.SOLV.lig_0>
-48.4279

>  <SCORE.INTRA.VDW>
-0.455136

>  <SCORE.INTRA.VDW.0>
-4.69037

>  <SCORE.INTRA.norm>
-0.00447206

>  <SCORE.RESTR>
2.56351

>  <SCORE.RESTR.CAVITY>
2.56351

>  <SCORE.RESTR.norm>
0.0949449

>  <SCORE.SYSTEM>
0

>  <SCORE.SYSTEM.CONST>
0

>  <SCORE.SYSTEM.DIHEDRAL>
0

>  <SCORE.SYSTEM.SOLV>
0

>  <SCORE.SYSTEM.norm>
0

>  <SCORE.heavy>
27

>  <SCORE.norm>
-0.0637595

>  <RMSD>
16.430

$$$$
ligand
 OpenBabel02271912153D
libRbt.so/2013.1/901 2013/11/27
 27 29  0  0  0  0  0  0  0  0999 V2000
    4.4148    3.1696   14.3983 N   0  0  0  0  0  0  0  0  0  0  0  0
    5.7572    3.0445   15.0456 C   0  0  2  0  0  0  0  0  0  0  0  0
    6.3459    1.6317   14.8359 C   0  0  0  0  0  0  0  0  0  0  0  0
    5.6729    0.6207   15.0589 O   0  0  0  0  0  0  0  0  0  0  0  0
    5.6434    3.4044   16.5231 C   0  0  0  0  0  0  0  0  0  0  0  0
    6.9457    3.3005   17.2992 C   0  0  0  0  0  0  0  0  0  0  0  0
    6.7874    3.7982   19.0382 S   0  0  2  0  0  0  0  0  0  0  0  0
    6.8447    5.6056   18.8782 C   0  0  0  0  0  0  0  0  0  0  0  0
    8.3679    3.4367   19.8201 C   0  0  0  0  0  0  0  0  0  0  0  0
    8.5547    1.9329   19.8852 C   0  0  1  0  0  0  0  0  0  0  0  0
    9.9105    1.5609   20.0787 O   0  0  0  0  0  0  0  0  0  0  0  0
    7.7630    1.3268   21.0182 C   0  0  1  0  0  0  0  0  0  0  0  0
    6.4443    1.0688   20.6294 O   0  0  0  0  0  0  0  0  0  0  0  0
    8.5321    0.0653   21.2676 C   0  0  1  0  0  0  0  0  0  0  0  0
    8.0440   -0.9525   20.4143 O   0  0  0  0  0  0  0  0  0  0  0  0
    9.9682    0.4213   20.9052 C   0  0  2  0  0  0  0  0  0  0  0  0
    7.5127    1.4484   14.4429 O   0  0  0  0  0  0  0  0  0  0  0  0
   10.8424   -0.4078   26.0440 N   0  0  0  0  0  0  0  0  0  0  0  0
    9.8487   -0.9611   25.2497 C   0  0  0  0  0  0  0  0  0  0  0  0
    9.7424   -0.6278   23.9046 N   0  0  0  0  0  0  0  0  0  0  0  0
   10.6291    0.2291   23.3665 C   0  0  0  0  0  0  0  0  0  0  0  0
   11.6439    0.7814   24.1531 C   0  0  0  0  0  0  0  0  0  0  0  0
   11.7487    0.4752   25.4974 C   0  0  0  0  0  0  0  0  0  0  0  0
   12.7056    1.0097   26.2413 N   0  0  0  0  0  0  0  0  0  0  0  0
   12.3850    1.5788   23.3760 N   0  0  0  0  0  0  0  0  0  0  0  0
   11.8728    1.5450   22.1259 C   0  0  0  0  0  0  0  0  0  0  0  0
   10.7848    0.7083   22.0997 N   0  0  0  0  0  0  0  0  0  0  0  0
  2  1  1  1  0  0  0
  2  3  1  0  0  0  0
  2  5  1  0  0  0  0
  3  4  1  0  0  0  0
  3 17  1  0  0  0  0
  5  6  1  0  0  0  0
  7  6  1  6  0  0  0
  7  8  1  0  0  0  0
  7  9  1  0  0  0  0
 10  9  1  1  0  0  0
 10 11  1  0  0  0  0
 10 12  1  0  0  0  0
 11 16  1  0  0  0  0
 12 13  1  6  0  0  0
 12 14  1  0  0  0  0
 14 15  1  6  0  0  0
 14 16  1  0  0  0  0
 16 27  1  1  0  0  0
 18 19  2  0  0  0  0
 18 23  1  0  0  0  0
 19 20  1  0  0  0  0
 20 21  2  0  0  0  0
 21 22  1  0  0  0  0
 21 27  1  0  0  0  0
 22 23  2  0  0  0  0
 22 25  1  0  0  0  0
 23 24  1  0  0  0  0
 25 26  2  0  0  0  0
 26 27  1  0  0  0  0
M  END
>  <CHROM.1>
-48.58482464,179.35326563,177.73952701,-79.81746004,-68.37087334,161.03869633
146.32352051,8.56221007,1.58098287,20.24738770,2.99442600,-1.03725393,0.10214047

>  <Name>
ligand

>  <RI>
0

>  <Rbt.Current_Directory>
/home/itssahil/PROJECTS/Mol_Feturizer/Test_systems_manuscript/rnas/2ydh

>  <Rbt.Executable>
rbdock ($Id: //depot/dev/client3/rdock/2013.1/src/exe/rbdock.cxx#4 $)

>  <Rbt.Library>
libRbt.so (2013.1, Build901 2013/11/27)

>  <Rbt.Parameter_File>
/export/apps/rDock/src/rDock_2013.1_src/data/scripts/dock_solv.prm

>  <Rbt.Receptor>
prm/blind_docking_60.prm

>  <SCORE>
-9.5708

>  <SCORE.INTER>
-8.67053

>  <SCORE.INTER.CONST>
1

>  <SCORE.INTER.POLAR>
0

>  <SCORE.INTER.ROT>
7

>  <SCORE.INTER.SOLV>
5.94159

>  <SCORE.INTER.VDW>
-16.0275

>  <SCORE.INTER.norm>
-0.321131

>  <SCORE.INTRA>
-0.900271

>  <SCORE.INTRA.DIHEDRAL>
-5.01321

>  <SCORE.INTRA.DIHEDRAL.0>
9.75037

>  <SCORE.INTRA.POLAR>
0

>  <SCORE.INTRA.POLAR.0>
0

>  <SCORE.INTRA.REPUL>
0

>  <SCORE.INTRA.REPUL.0>
0

>  <SCORE.INTRA.SOLV>
-1.36279

>  <SCORE.INTRA.SOLV.lig_0>
-48.4279

>  <SCORE.INTRA.VDW>
2.28773

>  <SCORE.INTRA.VDW.0>
-4.69037

>  <SCORE.INTRA.norm>
-0.0333434

>  <SCORE.RESTR>
0

>  <SCORE.RESTR.CAVITY>
0

>  <SCORE.RESTR.norm>
0

>  <SCORE.SYSTEM>
0

>  <SCORE.SYSTEM.CONST>
0

>  <SCORE.SYSTEM.DIHEDRAL>
0

>  <SCORE.SYSTEM.SOLV>
0

>  <SCORE.SYSTEM.norm>
0

>  <SCORE.heavy>
27

>  <SCORE.norm>
-0.354474

>  <RMSD>
16.450

$$$$
ligand
 OpenBabel02271912153D
libRbt.so/2013.1/901 2013/11/27
 27 29  0  0  0  0  0  0  0  0999 V2000
    0.1874  -14.3287    5.5542 N   0  0  0  0  0  0  0  0  0  0  0  0
   -0.0390  -14.5542    7.0152 C   0  0  2  0  0  0  0  0  0  0  0  0
    1.2369  -14.2451    7.8296 C   0  0  0  0  0  0  0  0  0  0  0  0
    2.0560  -13.4080    7.4385 O   0  0  0  0  0  0  0  0  0  0  0  0
   -0.5296  -15.9808    7.2382 C   0  0  0  0  0  0  0  0  0  0  0  0
    0.3697  -17.0555    6.6505 C   0  0  0  0  0  0  0  0  0  0  0  0
    0.0367  -17.3914    4.8974 S   0  0  2  0  0  0  0  0  0  0  0  0
   -1.3200  -18.5897    5.0355 C   0  0  0  0  0  0  0  0  0  0  0  0
    1.3913  -18.4189    4.3067 C   0  0  0  0  0  0  0  0  0  0  0  0
    2.1977  -17.6362    3.2880 C   0  0  1  0  0  0  0  0  0  0  0  0
    2.6614  -16.3957    3.7980 O   0  0  0  0  0  0  0  0  0  0  0  0
    3.4112  -18.4094    2.8325 C   0  0  1  0  0  0  0  0  0  0  0  0
    3.0886  -19.2848    1.7903 O   0  0  0  0  0  0  0  0  0  0  0  0
    4.3084  -17.2994    2.3764 C   0  0  1  0  0  0  0  0  0  0  0  0
    4.0229  -16.9979    1.0236 O   0  0  0  0  0  0  0  0  0  0  0  0
    3.9405  -16.1244    3.2733 C   0  0  2  0  0  0  0  0  0  0  0  0
    1.4984  -14.8217    8.9012 O   0  0  0  0  0  0  0  0  0  0  0  0
    4.8325  -15.9435    8.4723 N   0  0  0  0  0  0  0  0  0  0  0  0
    3.6281  -16.1723    7.8230 C   0  0  0  0  0  0  0  0  0  0  0  0
    3.5552  -16.1747    6.4351 N   0  0  0  0  0  0  0  0  0  0  0  0
    4.6742  -15.9703    5.7166 C   0  0  0  0  0  0  0  0  0  0  0  0
    5.8963  -15.7537    6.3594 C   0  0  0  0  0  0  0  0  0  0  0  0
    5.9797  -15.7276    7.7394 C   0  0  0  0  0  0  0  0  0  0  0  0
    7.1382  -15.5110    8.3440 N   0  0  0  0  0  0  0  0  0  0  0  0
    6.8369  -15.5949    5.4218 N   0  0  0  0  0  0  0  0  0  0  0  0
    6.2488  -15.7071    4.2104 C   0  0  0  0  0  0  0  0  0  0  0  0
    4.9067  -15.9451    4.3734 N   0  0  0  0  0  0  0  0  0  0  0  0
  2  1  1  6  0  0  0
  2  3  1  0  0  0  0
  2  5  1  0  0  0  0
  3  4  1  0  0  0  0
  3 17  1  0  0  0  0
  5  6  1  0  0  0  0
  7  6  1  1  0  0  0
  7  8  1  0  0  0  0
  7  9  1  0  0  0  0
 10  9  1  1  0  0  0
 10 11  1  0  0  0  0
 10 12  1  0  0  0  0
 11 16  1  0  0  0  0
 12 13  1  6  0  0  0
 12 14  1  0  0  0  0
 14 15  1  6  0  0  0
 14 16  1  0  0  0  0
 16 27  1  1  0  0  0
 18 19  2  0  0  0  0
 18 23  1  0  0  0  0
 19 20  1  0  0  0  0
 20 21  2  0  0  0  0
 21 22  1  0  0  0  0
 21 27  1  0  0  0  0
 22 23  2  0  0  0  0
 22 25  1  0  0  0  0
 23 24  1  0  0  0  0
 25 26  2  0  0  0  0
 26 27  1  0  0  0  0
M  END
>  <CHROM.1>
29.12705026,54.47121554,-84.97447464,-85.02208122,-113.59465252,55.38432962
-2.38230062,2.83983100,-16.34521170,5.42292868,2.05680166,-0.11227470,-2.06368666

>  <Name>
ligand

>  <RI>
0

>  <Rbt.Current_Directory>
/home/itssahil/PROJECTS/Mol_Feturizer/Test_systems_manuscript/rnas/2ydh

>  <Rbt.Executable>
rbdock ($Id: //depot/dev/client3/rdock/2013.1/src/exe/rbdock.cxx#4 $)

>  <Rbt.Library>
libRbt.so (2013.1, Build901 2013/11/27)

>  <Rbt.Parameter_File>
/export/apps/rDock/src/rDock_2013.1_src/data/scripts/dock_solv.prm

>  <Rbt.Receptor>
prm/blind_docking_20.prm

>  <SCORE>
15.0387

>  <SCORE.INTER>
12.8397

>  <SCORE.INTER.CONST>
1

>  <SCORE.INTER.POLAR>
0

>  <SCORE.INTER.ROT>
7

>  <SCORE.INTER.SOLV>
23.1911

>  <SCORE.INTER.VDW>
-7.43726

>  <SCORE.INTER.norm>
0.475543

>  <SCORE.INTRA>
1.36109

>  <SCORE.INTRA.DIHEDRAL>
0.347722

>  <SCORE.INTRA.DIHEDRAL.0>
9.75037

>  <SCORE.INTRA.POLAR>
0

>  <SCORE.INTRA.POLAR.0>
0

>  <SCORE.INTRA.REPUL>
0

>  <SCORE.INTRA.REPUL.0>
0

>  <SCORE.INTRA.SOLV>
1.24641

>  <SCORE.INTRA.SOLV.lig_0>
-48.4279

>  <SCORE.INTRA.VDW>
0.564019

>  <SCORE.INTRA.VDW.0>
-4.69037

>  <SCORE.INTRA.norm>
0.0504106

>  <SCORE.RESTR>
0.837928

>  <SCORE.RESTR.CAVITY>
0.837928

>  <SCORE.RESTR.norm>
0.0310344

>  <SCORE.SYSTEM>
0

>  <SCORE.SYSTEM.CONST>
0

>  <SCORE.SYSTEM.DIHEDRAL>
0

>  <SCORE.SYSTEM.SOLV>
0

>  <SCORE.SYSTEM.norm>
0

>  <SCORE.heavy>
27

>  <SCORE.norm>
0.556988

>  <RMSD>
16.476

$$$$
ligand
 OpenBabel02271912153D
libRbt.so/2013.1/901 2013/11/27
 27 29  0  0  0  0  0  0  0  0999 V2000
    7.6963    4.2613   25.3540 N   0  0  0  0  0  0  0  0  0  0  0  0
    6.5766    3.4907   24.7301 C   0  0  2  0  0  0  0  0  0  0  0  0
    6.7128    1.9794   25.0200 C   0  0  0  0  0  0  0  0  0  0  0  0
    7.7584    1.3732   24.7675 O   0  0  0  0  0  0  0  0  0  0  0  0
    6.5296    3.7854   23.2346 C   0  0  0  0  0  0  0  0  0  0  0  0
    7.8919    3.8818   22.5682 C   0  0  0  0  0  0  0  0  0  0  0  0
    7.8943    3.2949   20.8500 S   0  0  2  0  0  0  0  0  0  0  0  0
    6.4991    4.2365   20.1700 C   0  0  0  0  0  0  0  0  0  0  0  0
    7.2406    1.6181   20.8808 C   0  0  0  0  0  0  0  0  0  0  0  0
    8.2474    0.7074   21.5572 C   0  0  1  0  0  0  0  0  0  0  0  0
    7.6894   -0.5460   21.9205 O   0  0  0  0  0  0  0  0  0  0  0  0
    9.4262    0.4236   20.6585 C   0  0  1  0  0  0  0  0  0  0  0  0
   10.3891    1.4335   20.7570 O   0  0  0  0  0  0  0  0  0  0  0  0
    9.9152   -0.8756   21.2223 C   0  0  1  0  0  0  0  0  0  0  0  0
   10.8166   -0.6124   22.2809 O   0  0  0  0  0  0  0  0  0  0  0  0
    8.6578   -1.5549   21.7496 C   0  0  2  0  0  0  0  0  0  0  0  0
    5.7852    1.3095   25.5101 O   0  0  0  0  0  0  0  0  0  0  0  0
    8.3547   -6.6600   20.4440 N   0  0  0  0  0  0  0  0  0  0  0  0
    9.0060   -6.0970   21.5318 C   0  0  0  0  0  0  0  0  0  0  0  0
    9.0048   -4.7215   21.7304 N   0  0  0  0  0  0  0  0  0  0  0  0
    8.3458   -3.9316   20.8632 C   0  0  0  0  0  0  0  0  0  0  0  0
    7.6731   -4.4884   19.7718 C   0  0  0  0  0  0  0  0  0  0  0  0
    7.6838   -5.8532   19.5502 C   0  0  0  0  0  0  0  0  0  0  0  0
    7.0540   -6.3752   18.5083 N   0  0  0  0  0  0  0  0  0  0  0  0
    7.0978   -3.4942   19.0867 N   0  0  0  0  0  0  0  0  0  0  0  0
    7.3831   -2.3304   19.7114 C   0  0  0  0  0  0  0  0  0  0  0  0
    8.1533   -2.5826   20.8194 N   0  0  0  0  0  0  0  0  0  0  0  0
  2  1  1  6  0  0  0
  2  3  1  0  0  0  0
  2  5  1  0  0  0  0
  3  4  1  0  0  0  0
  3 17  1  0  0  0  0
  5  6  1  0  0  0  0
  7  6  1  1  0  0  0
  7  8  1  0  0  0  0
  7  9  1  0  0  0  0
 10  9  1  6  0  0  0
 10 11  1  0  0  0  0
 10 12  1  0  0  0  0
 11 16  1  0  0  0  0
 12 13  1  1  0  0  0
 12 14  1  0  0  0  0
 14 15  1  1  0  0  0
 14 16  1  0  0  0  0
 16 27  1  6  0  0  0
 18 19  2  0  0  0  0
 18 23  1  0  0  0  0
 19 20  1  0  0  0  0
 20 21  2  0  0  0  0
 21 22  1  0  0  0  0
 21 27  1  0  0  0  0
 22 23  2  0  0  0  0
 22 25  1  0  0  0  0
 23 24  1  0  0  0  0
 25 26  2  0  0  0  0
 26 27  1  0  0  0  0
M  END
>  <CHROM.1>
-52.92606102,39.84616464,147.07285324,51.21147474,-69.34184584,165.38452968
-143.22521708,7.98390200,-0.37811348,21.68335020,2.06954112,1.38115558,-0.14240185

>  <Name>
ligand

>  <RI>
0

>  <Rbt.Current_Directory>
/home/itssahil/PROJECTS/Mol_Feturizer/Test_systems_manuscript/rnas/2ydh

>  <Rbt.Executable>
rbdock ($Id: //depot/dev/client3/rdock/2013.1/src/exe/rbdock.cxx#4 $)

>  <Rbt.Library>
libRbt.so (2013.1, Build901 2013/11/27)

>  <Rbt.Parameter_File>
/export/apps/rDock/src/rDock_2013.1_src/data/scripts/dock_solv.prm

>  <Rbt.Receptor>
prm/blind_docking_40.prm

>  <SCORE>
-10.0233

>  <SCORE.INTER>
-11.5427

>  <SCORE.INTER.CONST>
1

>  <SCORE.INTER.POLAR>
0

>  <SCORE.INTER.ROT>
7

>  <SCORE.INTER.SOLV>
9.44588

>  <SCORE.INTER.VDW>
-19.1104

>  <SCORE.INTER.norm>
-0.427507

>  <SCORE.INTRA>
1.51937

>  <SCORE.INTRA.DIHEDRAL>
-1.31204

>  <SCORE.INTRA.DIHEDRAL.0>
9.75037

>  <SCORE.INTRA.POLAR>
0

>  <SCORE.INTRA.POLAR.0>
0

>  <SCORE.INTRA.REPUL>
0

>  <SCORE.INTRA.REPUL.0>
0

>  <SCORE.INTRA.SOLV>
-0.431631

>  <SCORE.INTRA.SOLV.lig_0>
-48.4279

>  <SCORE.INTRA.VDW>
2.3912

>  <SCORE.INTRA.VDW.0>
-4.69037

>  <SCORE.INTRA.norm>
0.0562729

>  <SCORE.RESTR>
0

>  <SCORE.RESTR.CAVITY>
0

>  <SCORE.RESTR.norm>
0

>  <SCORE.SYSTEM>
0

>  <SCORE.SYSTEM.CONST>
0

>  <SCORE.SYSTEM.DIHEDRAL>
0

>  <SCORE.SYSTEM.SOLV>
0

>  <SCORE.SYSTEM.norm>
0

>  <SCORE.heavy>
27

>  <SCORE.norm>
-0.371234

>  <RMSD>
16.558

$$$$
ligand
 OpenBabel02271912153D
libRbt.so/2013.1/901 2013/11/27
 27 29  0  0  0  0  0  0  0  0999 V2000
   10.5416    3.6629   26.0841 N   0  0  0  0  0  0  0  0  0  0  0  0
   12.0127    3.6120   25.8202 C   0  0  2  0  0  0  0  0  0  0  0  0
   12.7000    4.9280   26.2473 C   0  0  0  0  0  0  0  0  0  0  0  0
   13.8507    4.9305   26.6951 O   0  0  0  0  0  0  0  0  0  0  0  0
   12.2532    3.2913   24.3488 C   0  0  0  0  0  0  0  0  0  0  0  0
   11.7968    1.9059   23.9230 C   0  0  0  0  0  0  0  0  0  0  0  0
   12.1569    1.5341   22.1826 S   0  0  2  0  0  0  0  0  0  0  0  0
   11.1571    2.8022   21.3531 C   0  0  0  0  0  0  0  0  0  0  0  0
   11.2603    0.0248   21.7853 C   0  0  0  0  0  0  0  0  0  0  0  0
    9.8617    0.1134   22.3655 C   0  0  1  0  0  0  0  0  0  0  0  0
    8.8535    0.0392   21.3694 O   0  0  0  0  0  0  0  0  0  0  0  0
    9.5988   -1.0037   23.3458 C   0  0  1  0  0  0  0  0  0  0  0  0
   10.0661   -0.6739   24.6223 O   0  0  0  0  0  0  0  0  0  0  0  0
    8.1034   -1.0855   23.2988 C   0  0  1  0  0  0  0  0  0  0  0  0
    7.5590   -0.1715   24.2317 O   0  0  0  0  0  0  0  0  0  0  0  0
    7.7476   -0.6710   21.8769 C   0  0  2  0  0  0  0  0  0  0  0  0
   12.1317    6.0324   26.1664 O   0  0  0  0  0  0  0  0  0  0  0  0
    7.2813   -2.6368   17.0007 N   0  0  0  0  0  0  0  0  0  0  0  0
    7.6115   -1.3403   17.3676 C   0  0  0  0  0  0  0  0  0  0  0  0
    7.6802   -0.9734   18.7063 N   0  0  0  0  0  0  0  0  0  0  0  0
    7.4405   -1.8966   19.6553 C   0  0  0  0  0  0  0  0  0  0  0  0
    7.1216   -3.2097   19.2982 C   0  0  0  0  0  0  0  0  0  0  0  0
    7.0290   -3.5836   17.9702 C   0  0  0  0  0  0  0  0  0  0  0  0
    6.7158   -4.8267   17.6366 N   0  0  0  0  0  0  0  0  0  0  0  0
    6.9480   -3.9155   20.4210 N   0  0  0  0  0  0  0  0  0  0  0  0
    7.1495   -3.0917   21.4731 C   0  0  0  0  0  0  0  0  0  0  0  0
    7.4611   -1.8349   21.0171 N   0  0  0  0  0  0  0  0  0  0  0  0
  2  1  1  6  0  0  0
  2  3  1  0  0  0  0
  2  5  1  0  0  0  0
  3  4  1  0  0  0  0
  3 17  1  0  0  0  0
  5  6  1  0  0  0  0
  7  6  1  1  0  0  0
  7  8  1  0  0  0  0
  7  9  1  0  0  0  0
 10  9  1  6  0  0  0
 10 11  1  0  0  0  0
 10 12  1  0  0  0  0
 11 16  1  0  0  0  0
 12 13  1  1  0  0  0
 12 14  1  0  0  0  0
 14 15  1  1  0  0  0
 14 16  1  0  0  0  0
 16 27  1  6  0  0  0
 18 19  2  0  0  0  0
 18 23  1  0  0  0  0
 19 20  1  0  0  0  0
 20 21  2  0  0  0  0
 21 22  1  0  0  0  0
 21 27  1  0  0  0  0
 22 23  2  0  0  0  0
 22 25  1  0  0  0  0
 23 24  1  0  0  0  0
 25 26  2  0  0  0  0
 26 27  1  0  0  0  0
M  END
>  <CHROM.1>
146.57921548,-65.72024937,-177.75018816,-62.48694366,43.79815618,119.32345622
-43.31467865,9.60749167,0.24029864,22.18901272,0.78185662,0.83504346,1.39263460

>  <Name>
ligand

>  <RI>
0

>  <Rbt.Current_Directory>
/home/itssahil/PROJECTS/Mol_Feturizer/Test_systems_manuscript/rnas/2ydh

>  <Rbt.Executable>
rbdock ($Id: //depot/dev/client3/rdock/2013.1/src/exe/rbdock.cxx#4 $)

>  <Rbt.Library>
libRbt.so (2013.1, Build901 2013/11/27)

>  <Rbt.Parameter_File>
/export/apps/rDock/src/rDock_2013.1_src/data/scripts/dock_solv.prm

>  <Rbt.Receptor>
prm/blind_docking_100.prm

>  <SCORE>
-12.6373

>  <SCORE.INTER>
-14.8893

>  <SCORE.INTER.CONST>
1

>  <SCORE.INTER.POLAR>
0

>  <SCORE.INTER.ROT>
7

>  <SCORE.INTER.SOLV>
9.68533

>  <SCORE.INTER.VDW>
-21.4213

>  <SCORE.INTER.norm>
-0.551456

>  <SCORE.INTRA>
2.25197

>  <SCORE.INTRA.DIHEDRAL>
-1.01019

>  <SCORE.INTRA.DIHEDRAL.0>
9.75037

>  <SCORE.INTRA.POLAR>
0

>  <SCORE.INTRA.POLAR.0>
0

>  <SCORE.INTRA.REPUL>
0

>  <SCORE.INTRA.REPUL.0>
0

>  <SCORE.INTRA.SOLV>
-0.587158

>  <SCORE.INTRA.SOLV.lig_0>
-48.4279

>  <SCORE.INTRA.VDW>
3.05064

>  <SCORE.INTRA.VDW.0>
-4.69037

>  <SCORE.INTRA.norm>
0.0834062

>  <SCORE.RESTR>
0

>  <SCORE.RESTR.CAVITY>
0

>  <SCORE.RESTR.norm>
0

>  <SCORE.SYSTEM>
0

>  <SCORE.SYSTEM.CONST>
0

>  <SCORE.SYSTEM.DIHEDRAL>
0

>  <SCORE.SYSTEM.SOLV>
0

>  <SCORE.SYSTEM.norm>
0

>  <SCORE.heavy>
27

>  <SCORE.norm>
-0.468049

>  <RMSD>
16.597

$$$$
ligand
 OpenBabel02271912153D
libRbt.so/2013.1/901 2013/11/27
 27 29  0  0  0  0  0  0  0  0999 V2000
    4.4644  -18.5877    2.6991 N   0  0  0  0  0  0  0  0  0  0  0  0
    3.2346  -17.7372    2.7273 C   0  0  2  0  0  0  0  0  0  0  0  0
    3.3224  -16.5983    1.6873 C   0  0  0  0  0  0  0  0  0  0  0  0
    4.2833  -15.8230    1.6699 O   0  0  0  0  0  0  0  0  0  0  0  0
    3.0168  -17.2072    4.1406 C   0  0  0  0  0  0  0  0  0  0  0  0
    2.8353  -18.2846    5.1967 C   0  0  0  0  0  0  0  0  0  0  0  0
    1.0973  -18.5759    5.6344 S   0  0  2  0  0  0  0  0  0  0  0  0
    0.5466  -19.5452    4.2017 C   0  0  0  0  0  0  0  0  0  0  0  0
    0.2384  -17.0134    5.3876 C   0  0  0  0  0  0  0  0  0  0  0  0
    0.6617  -16.0401    6.4711 C   0  0  1  0  0  0  0  0  0  0  0  0
    1.7282  -16.5383    7.2639 O   0  0  0  0  0  0  0  0  0  0  0  0
    1.1213  -14.7273    5.8851 C   0  0  1  0  0  0  0  0  0  0  0  0
    0.0380  -13.8743    5.6495 O   0  0  0  0  0  0  0  0  0  0  0  0
    2.0107  -14.2170    6.9777 C   0  0  1  0  0  0  0  0  0  0  0  0
    1.2303  -13.4981    7.9138 O   0  0  0  0  0  0  0  0  0  0  0  0
    2.5835  -15.4757    7.6163 C   0  0  2  0  0  0  0  0  0  0  0  0
    2.4376  -16.4076    0.8327 O   0  0  0  0  0  0  0  0  0  0  0  0
    6.6267  -14.1259    4.5036 N   0  0  0  0  0  0  0  0  0  0  0  0
    5.4000  -13.4903    4.6288 C   0  0  0  0  0  0  0  0  0  0  0  0
    4.4261  -13.9824    5.4895 N   0  0  0  0  0  0  0  0  0  0  0  0
    4.6890  -15.0795    6.2227 C   0  0  0  0  0  0  0  0  0  0  0  0
    5.9269  -15.7197    6.1165 C   0  0  0  0  0  0  0  0  0  0  0  0
    6.8971  -15.2536    5.2486 C   0  0  0  0  0  0  0  0  0  0  0  0
    8.0647  -15.8702    5.1434 N   0  0  0  0  0  0  0  0  0  0  0  0
    5.9291  -16.7622    6.9546 N   0  0  0  0  0  0  0  0  0  0  0  0
    4.7354  -16.7982    7.5871 C   0  0  0  0  0  0  0  0  0  0  0  0
    3.9539  -15.7581    7.1490 N   0  0  0  0  0  0  0  0  0  0  0  0
  2  1  1  1  0  0  0
  2  3  1  0  0  0  0
  2  5  1  0  0  0  0
  3  4  1  0  0  0  0
  3 17  1  0  0  0  0
  5  6  1  0  0  0  0
  7  6  1  6  0  0  0
  7  8  1  0  0  0  0
  7  9  1  0  0  0  0
 10  9  1  6  0  0  0
 10 11  1  0  0  0  0
 10 12  1  0  0  0  0
 11 16  1  0  0  0  0
 12 13  1  1  0  0  0
 12 14  1  0  0  0  0
 14 15  1  1  0  0  0
 14 16  1  0  0  0  0
 16 27  1  6  0  0  0
 18 19  2  0  0  0  0
 18 23  1  0  0  0  0
 19 20  1  0  0  0  0
 20 21  2  0  0  0  0
 21 22  1  0  0  0  0
 21 27  1  0  0  0  0
 22 23  2  0  0  0  0
 22 25  1  0  0  0  0
 23 24  1  0  0  0  0
 25 26  2  0  0  0  0
 26 27  1  0  0  0  0
M  END
>  <CHROM.1>
-54.04526087,-59.95130286,-99.65967921,76.72856218,-71.30209227,7.86422725
115.86283494,3.20247307,-16.16475801,5.21447024,-0.05731454,-0.31838005,-2.15194481

>  <Name>
ligand

>  <RI>
0

>  <Rbt.Current_Directory>
/home/itssahil/PROJECTS/Mol_Feturizer/Test_systems_manuscript/rnas/2ydh

>  <Rbt.Executable>
rbdock ($Id: //depot/dev/client3/rdock/2013.1/src/exe/rbdock.cxx#4 $)

>  <Rbt.Library>
libRbt.so (2013.1, Build901 2013/11/27)

>  <Rbt.Parameter_File>
/export/apps/rDock/src/rDock_2013.1_src/data/scripts/dock_solv.prm

>  <Rbt.Receptor>
prm/blind_docking_20.prm

>  <SCORE>
1.94744

>  <SCORE.INTER>
-4.59947

>  <SCORE.INTER.CONST>
1

>  <SCORE.INTER.POLAR>
0

>  <SCORE.INTER.ROT>
7

>  <SCORE.INTER.SOLV>
9.02087

>  <SCORE.INTER.VDW>
-14.3399

>  <SCORE.INTER.norm>
-0.170351

>  <SCORE.INTRA>
3.64962

>  <SCORE.INTRA.DIHEDRAL>
3.96681

>  <SCORE.INTRA.DIHEDRAL.0>
9.75037

>  <SCORE.INTRA.POLAR>
0

>  <SCORE.INTRA.POLAR.0>
0

>  <SCORE.INTRA.REPUL>
0

>  <SCORE.INTRA.REPUL.0>
0

>  <SCORE.INTRA.SOLV>
-0.0180157

>  <SCORE.INTRA.SOLV.lig_0>
-48.4279

>  <SCORE.INTRA.VDW>
1.67523

>  <SCORE.INTRA.VDW.0>
-4.69037

>  <SCORE.INTRA.norm>
0.135171

>  <SCORE.RESTR>
2.89728

>  <SCORE.RESTR.CAVITY>
2.89728

>  <SCORE.RESTR.norm>
0.107307

>  <SCORE.SYSTEM>
0

>  <SCORE.SYSTEM.CONST>
0

>  <SCORE.SYSTEM.DIHEDRAL>
0

>  <SCORE.SYSTEM.SOLV>
0

>  <SCORE.SYSTEM.norm>
0

>  <SCORE.heavy>
27

>  <SCORE.norm>
0.0721273

>  <RMSD>
16.607

$$$$
ligand
 OpenBabel02271912153D
libRbt.so/2013.1/901 2013/11/27
 27 29  0  0  0  0  0  0  0  0999 V2000
    3.1699  -15.0484    9.0210 N   0  0  0  0  0  0  0  0  0  0  0  0
    4.2171  -15.2888    7.9807 C   0  0  2  0  0  0  0  0  0  0  0  0
    4.7958  -13.9558    7.4563 C   0  0  0  0  0  0  0  0  0  0  0  0
    4.1653  -12.8998    7.5655 O   0  0  0  0  0  0  0  0  0  0  0  0
    3.6317  -16.1401    6.8590 C   0  0  0  0  0  0  0  0  0  0  0  0
    4.3799  -17.4362    6.5956 C   0  0  0  0  0  0  0  0  0  0  0  0
    5.9559  -17.1924    5.7274 S   0  0  2  0  0  0  0  0  0  0  0  0
    6.9972  -16.5827    7.0837 C   0  0  0  0  0  0  0  0  0  0  0  0
    5.7578  -15.7204    4.7106 C   0  0  0  0  0  0  0  0  0  0  0  0
    4.9362  -16.0729    3.4853 C   0  0  1  0  0  0  0  0  0  0  0  0
    4.2082  -17.2803    3.6471 O   0  0  0  0  0  0  0  0  0  0  0  0
    3.9342  -14.9914    3.1626 C   0  0  1  0  0  0  0  0  0  0  0  0
    4.5149  -13.9817    2.3879 O   0  0  0  0  0  0  0  0  0  0  0  0
    2.9066  -15.7668    2.3960 C   0  0  1  0  0  0  0  0  0  0  0  0
    3.2740  -15.8002    1.0299 O   0  0  0  0  0  0  0  0  0  0  0  0
    2.9634  -17.1652    2.9974 C   0  0  2  0  0  0  0  0  0  0  0  0
    5.9078  -13.8855    6.9014 O   0  0  0  0  0  0  0  0  0  0  0  0
   -0.6878  -15.1207    6.2141 N   0  0  0  0  0  0  0  0  0  0  0  0
    0.2134  -14.4403    5.4083 C   0  0  0  0  0  0  0  0  0  0  0  0
    1.1294  -15.1297    4.6225 N   0  0  0  0  0  0  0  0  0  0  0  0
    1.1250  -16.4751    4.6332 C   0  0  0  0  0  0  0  0  0  0  0  0
    0.2117  -17.1718    5.4294 C   0  0  0  0  0  0  0  0  0  0  0  0
   -0.6909  -16.4990    6.2322 C   0  0  0  0  0  0  0  0  0  0  0  0
   -1.5472  -17.1637    6.9933 N   0  0  0  0  0  0  0  0  0  0  0  0
    0.4120  -18.4811    5.2433 N   0  0  0  0  0  0  0  0  0  0  0  0
    1.4187  -18.6323    4.3546 C   0  0  0  0  0  0  0  0  0  0  0  0
    1.8708  -17.3974    3.9609 N   0  0  0  0  0  0  0  0  0  0  0  0
  2  1  1  1  0  0  0
  2  3  1  0  0  0  0
  2  5  1  0  0  0  0
  3  4  1  0  0  0  0
  3 17  1  0  0  0  0
  5  6  1  0  0  0  0
  7  6  1  1  0  0  0
  7  8  1  0  0  0  0
  7  9  1  0  0  0  0
 10  9  1  1  0  0  0
 10 11  1  0  0  0  0
 10 12  1  0  0  0  0
 11 16  1  0  0  0  0
 12 13  1  6  0  0  0
 12 14  1  0  0  0  0
 14 15  1  6  0  0  0
 14 16  1  0  0  0  0
 16 27  1  1  0  0  0
 18 19  2  0  0  0  0
 18 23  1  0  0  0  0
 19 20  1  0  0  0  0
 20 21  2  0  0  0  0
 21 22  1  0  0  0  0
 21 27  1  0  0  0  0
 22 23  2  0  0  0  0
 22 25  1  0  0  0  0
 23 24  1  0  0  0  0
 25 26  2  0  0  0  0
 26 27  1  0  0  0  0
M  END
>  <CHROM.1>
-21.68033129,-122.76768433,-74.70099227,76.73513487,-76.74755777,18.35530772
97.79473537,3.16378557,-16.01108322,5.27094318,0.19563294,0.18263620,1.34042109

>  <Name>
ligand

>  <RI>
0

>  <Rbt.Current_Directory>
/home/itssahil/PROJECTS/Mol_Feturizer/Test_systems_manuscript/rnas/2ydh

>  <Rbt.Executable>
rbdock ($Id: //depot/dev/client3/rdock/2013.1/src/exe/rbdock.cxx#4 $)

>  <Rbt.Library>
libRbt.so (2013.1, Build901 2013/11/27)

>  <Rbt.Parameter_File>
/export/apps/rDock/src/rDock_2013.1_src/data/scripts/dock_solv.prm

>  <Rbt.Receptor>
prm/blind_docking_20.prm

>  <SCORE>
0.269674

>  <SCORE.INTER>
-4.31837

>  <SCORE.INTER.CONST>
1

>  <SCORE.INTER.POLAR>
0

>  <SCORE.INTER.ROT>
7

>  <SCORE.INTER.SOLV>
15.2958

>  <SCORE.INTER.VDW>
-16.2442

>  <SCORE.INTER.norm>
-0.15994

>  <SCORE.INTRA>
4.21032

>  <SCORE.INTRA.DIHEDRAL>
5.70734

>  <SCORE.INTRA.DIHEDRAL.0>
9.75037

>  <SCORE.INTRA.POLAR>
0

>  <SCORE.INTRA.POLAR.0>
0

>  <SCORE.INTRA.REPUL>
0

>  <SCORE.INTRA.REPUL.0>
0

>  <SCORE.INTRA.SOLV>
-0.765645

>  <SCORE.INTRA.SOLV.lig_0>
-48.4279

>  <SCORE.INTRA.VDW>
1.73947

>  <SCORE.INTRA.VDW.0>
-4.69037

>  <SCORE.INTRA.norm>
0.155938

>  <SCORE.RESTR>
0.377722

>  <SCORE.RESTR.CAVITY>
0.377722

>  <SCORE.RESTR.norm>
0.0139897

>  <SCORE.SYSTEM>
0

>  <SCORE.SYSTEM.CONST>
0

>  <SCORE.SYSTEM.DIHEDRAL>
0

>  <SCORE.SYSTEM.SOLV>
0

>  <SCORE.SYSTEM.norm>
0

>  <SCORE.heavy>
27

>  <SCORE.norm>
0.00998792

>  <RMSD>
16.624

$$$$
ligand
 OpenBabel02271912153D
libRbt.so/2013.1/901 2013/11/27
 27 29  0  0  0  0  0  0  0  0999 V2000
    4.3490  -18.2525    2.2843 N   0  0  0  0  0  0  0  0  0  0  0  0
    4.8086  -17.1151    1.4288 C   0  0  2  0  0  0  0  0  0  0  0  0
    6.0107  -17.5299    0.5515 C   0  0  0  0  0  0  0  0  0  0  0  0
    7.0426  -17.9827    1.0563 O   0  0  0  0  0  0  0  0  0  0  0  0
    5.1309  -15.9143    2.3118 C   0  0  0  0  0  0  0  0  0  0  0  0
    3.9889  -15.4673    3.2091 C   0  0  0  0  0  0  0  0  0  0  0  0
    4.4335  -14.0898    4.3053 S   0  0  2  0  0  0  0  0  0  0  0  0
    4.5975  -12.7406    3.1019 C   0  0  0  0  0  0  0  0  0  0  0  0
    6.1414  -14.3628    4.8037 C   0  0  0  0  0  0  0  0  0  0  0  0
    6.1664  -15.3236    5.9771 C   0  0  1  0  0  0  0  0  0  0  0  0
    5.4508  -14.8308    7.0993 O   0  0  0  0  0  0  0  0  0  0  0  0
    5.5570  -16.6555    5.6131 C   0  0  1  0  0  0  0  0  0  0  0  0
    6.5002  -17.4920    5.0072 O   0  0  0  0  0  0  0  0  0  0  0  0
    5.1402  -17.1620    6.9602 C   0  0  1  0  0  0  0  0  0  0  0  0
    6.2255  -17.8484    7.5544 O   0  0  0  0  0  0  0  0  0  0  0  0
    4.8092  -15.9027    7.7507 C   0  0  2  0  0  0  0  0  0  0  0  0
    5.9979  -17.4233   -0.6886 O   0  0  0  0  0  0  0  0  0  0  0  0
    0.0859  -16.3215    5.4325 N   0  0  0  0  0  0  0  0  0  0  0  0
    1.3131  -16.7496    4.9472 C   0  0  0  0  0  0  0  0  0  0  0  0
    2.4780  -16.5511    5.6787 N   0  0  0  0  0  0  0  0  0  0  0  0
    2.4064  -15.9520    6.8813 C   0  0  0  0  0  0  0  0  0  0  0  0
    1.1738  -15.5300    7.3875 C   0  0  0  0  0  0  0  0  0  0  0  0
    0.0097  -15.7019    6.6613 C   0  0  0  0  0  0  0  0  0  0  0  0
   -1.1546  -15.2904    7.1405 N   0  0  0  0  0  0  0  0  0  0  0  0
    1.3830  -14.9860    8.5914 N   0  0  0  0  0  0  0  0  0  0  0  0
    2.7053  -15.0539    8.8615 C   0  0  0  0  0  0  0  0  0  0  0  0
    3.3563  -15.6550    7.8130 N   0  0  0  0  0  0  0  0  0  0  0  0
  2  1  1  1  0  0  0
  2  3  1  0  0  0  0
  2  5  1  0  0  0  0
  3  4  1  0  0  0  0
  3 17  1  0  0  0  0
  5  6  1  0  0  0  0
  7  6  1  6  0  0  0
  7  8  1  0  0  0  0
  7  9  1  0  0  0  0
 10  9  1  6  0  0  0
 10 11  1  0  0  0  0
 10 12  1  0  0  0  0
 11 16  1  0  0  0  0
 12 13  1  1  0  0  0
 12 14  1  0  0  0  0
 14 15  1  1  0  0  0
 14 16  1  0  0  0  0
 16 27  1  6  0  0  0
 18 19  2  0  0  0  0
 18 23  1  0  0  0  0
 19 20  1  0  0  0  0
 20 21  2  0  0  0  0
 21 22  1  0  0  0  0
 21 27  1  0  0  0  0
 22 23  2  0  0  0  0
 22 25  1  0  0  0  0
 23 24  1  0  0  0  0
 25 26  2  0  0  0  0
 26 27  1  0  0  0  0
M  END
>  <CHROM.1>
-56.42479641,-55.75190761,177.10961280,69.62094937,-83.52740406,-59.95592031
86.55950860,4.04780783,-15.99095589,5.00091154,0.96105485,0.11270694,-1.72283530

>  <Name>
ligand

>  <RI>
0

>  <Rbt.Current_Directory>
/home/itssahil/PROJECTS/Mol_Feturizer/Test_systems_manuscript/rnas/2ydh

>  <Rbt.Executable>
rbdock ($Id: //depot/dev/client3/rdock/2013.1/src/exe/rbdock.cxx#4 $)

>  <Rbt.Library>
libRbt.so (2013.1, Build901 2013/11/27)

>  <Rbt.Parameter_File>
/export/apps/rDock/src/rDock_2013.1_src/data/scripts/dock_solv.prm

>  <Rbt.Receptor>
prm/blind_docking_20.prm

>  <SCORE>
-6.22037

>  <SCORE.INTER>
-7.37342

>  <SCORE.INTER.CONST>
1

>  <SCORE.INTER.POLAR>
0

>  <SCORE.INTER.ROT>
7

>  <SCORE.INTER.SOLV>
11.4336

>  <SCORE.INTER.VDW>
-16.9935

>  <SCORE.INTER.norm>
-0.27309

>  <SCORE.INTRA>
-1.15433

>  <SCORE.INTRA.DIHEDRAL>
-5.12381

>  <SCORE.INTRA.DIHEDRAL.0>
9.75037

>  <SCORE.INTRA.POLAR>
0

>  <SCORE.INTRA.POLAR.0>
0

>  <SCORE.INTRA.REPUL>
0

>  <SCORE.INTRA.REPUL.0>
0

>  <SCORE.INTRA.SOLV>
0.930569

>  <SCORE.INTRA.SOLV.lig_0>
-48.4279

>  <SCORE.INTRA.VDW>
0.94229

>  <SCORE.INTRA.VDW.0>
-4.69037

>  <SCORE.INTRA.norm>
-0.042753

>  <SCORE.RESTR>
2.30737

>  <SCORE.RESTR.CAVITY>
2.30737

>  <SCORE.RESTR.norm>
0.0854583

>  <SCORE.SYSTEM>
0

>  <SCORE.SYSTEM.CONST>
0

>  <SCORE.SYSTEM.DIHEDRAL>
0

>  <SCORE.SYSTEM.SOLV>
0

>  <SCORE.SYSTEM.norm>
0

>  <SCORE.heavy>
27

>  <SCORE.norm>
-0.230384

>  <RMSD>
16.642

$$$$
ligand
 OpenBabel02271912153D
libRbt.so/2013.1/901 2013/11/27
 27 29  0  0  0  0  0  0  0  0999 V2000
    4.8838  -18.2723    6.4841 N   0  0  0  0  0  0  0  0  0  0  0  0
    4.7948  -16.7806    6.5451 C   0  0  2  0  0  0  0  0  0  0  0  0
    6.1363  -16.1269    6.1453 C   0  0  0  0  0  0  0  0  0  0  0  0
    6.3092  -15.6672    5.0124 O   0  0  0  0  0  0  0  0  0  0  0  0
    4.3432  -16.3560    7.9384 C   0  0  0  0  0  0  0  0  0  0  0  0
    4.3318  -14.8537    8.1666 C   0  0  0  0  0  0  0  0  0  0  0  0
    3.3788  -13.9444    6.9168 S   0  0  2  0  0  0  0  0  0  0  0  0
    3.8629  -12.2372    7.2998 C   0  0  0  0  0  0  0  0  0  0  0  0
    1.6617  -13.9814    7.4554 C   0  0  0  0  0  0  0  0  0  0  0  0
    0.8087  -14.5698    6.3478 C   0  0  1  0  0  0  0  0  0  0  0  0
    1.2427  -14.1713    5.0567 O   0  0  0  0  0  0  0  0  0  0  0  0
    0.8307  -16.0786    6.3764 C   0  0  1  0  0  0  0  0  0  0  0  0
   -0.1213  -16.5793    7.2706 O   0  0  0  0  0  0  0  0  0  0  0  0
    0.4893  -16.4011    4.9536 C   0  0  1  0  0  0  0  0  0  0  0  0
   -0.9180  -16.4486    4.8132 O   0  0  0  0  0  0  0  0  0  0  0  0
    1.0656  -15.2392    4.1549 C   0  0  2  0  0  0  0  0  0  0  0  0
    7.0950  -16.0389    6.9343 O   0  0  0  0  0  0  0  0  0  0  0  0
    4.1773  -18.9497    2.0552 N   0  0  0  0  0  0  0  0  0  0  0  0
    2.8974  -19.1027    2.5682 C   0  0  0  0  0  0  0  0  0  0  0  0
    2.2093  -18.0203    3.1033 N   0  0  0  0  0  0  0  0  0  0  0  0
    2.7895  -16.8064    3.1042 C   0  0  0  0  0  0  0  0  0  0  0  0
    4.0726  -16.6368    2.5764 C   0  0  0  0  0  0  0  0  0  0  0  0
    4.7772  -17.7088    2.0602 C   0  0  0  0  0  0  0  0  0  0  0  0
    5.9972  -17.5451    1.5711 N   0  0  0  0  0  0  0  0  0  0  0  0
    4.4009  -15.3451    2.6885 N   0  0  0  0  0  0  0  0  0  0  0  0
    3.3667  -14.6950    3.2664 C   0  0  0  0  0  0  0  0  0  0  0  0
    2.3550  -15.5854    3.5274 N   0  0  0  0  0  0  0  0  0  0  0  0
  2  1  1  1  0  0  0
  2  3  1  0  0  0  0
  2  5  1  0  0  0  0
  3  4  1  0  0  0  0
  3 17  1  0  0  0  0
  5  6  1  0  0  0  0
  7  6  1  1  0  0  0
  7  8  1  0  0  0  0
  7  9  1  0  0  0  0
 10  9  1  1  0  0  0
 10 11  1  0  0  0  0
 10 12  1  0  0  0  0
 11 16  1  0  0  0  0
 12 13  1  1  0  0  0
 12 14  1  0  0  0  0
 14 15  1  1  0  0  0
 14 16  1  0  0  0  0
 16 27  1  1  0  0  0
 18 19  2  0  0  0  0
 18 23  1  0  0  0  0
 19 20  1  0  0  0  0
 20 21  2  0  0  0  0
 21 22  1  0  0  0  0
 21 27  1  0  0  0  0
 22 23  2  0  0  0  0
 22 25  1  0  0  0  0
 23 24  1  0  0  0  0
 25 26  2  0  0  0  0
 26 27  1  0  0  0  0
M  END
>  <CHROM.1>
100.07069330,174.85610959,53.41284793,-169.02495453,-124.30498085,-37.28749015
148.15174053,3.22344956,-15.94254669,5.13821073,-1.16703398,-0.08412893,0.99687952

>  <Name>
ligand

>  <RI>
0

>  <Rbt.Current_Directory>
/home/itssahil/PROJECTS/Mol_Feturizer/Test_systems_manuscript/rnas/2ydh

>  <Rbt.Executable>
rbdock ($Id: //depot/dev/client3/rdock/2013.1/src/exe/rbdock.cxx#4 $)

>  <Rbt.Library>
libRbt.so (2013.1, Build901 2013/11/27)

>  <Rbt.Parameter_File>
/export/apps/rDock/src/rDock_2013.1_src/data/scripts/dock_solv.prm

>  <Rbt.Receptor>
prm/blind_docking_20.prm

>  <SCORE>
-3.52388

>  <SCORE.INTER>
-5.04545

>  <SCORE.INTER.CONST>
1

>  <SCORE.INTER.POLAR>
0

>  <SCORE.INTER.ROT>
7

>  <SCORE.INTER.SOLV>
10.0091

>  <SCORE.INTER.VDW>
-14.9667

>  <SCORE.INTER.norm>
-0.186868

>  <SCORE.INTRA>
-0.538325

>  <SCORE.INTRA.DIHEDRAL>
0.521825

>  <SCORE.INTRA.DIHEDRAL.0>
9.75037

>  <SCORE.INTRA.POLAR>
0

>  <SCORE.INTRA.POLAR.0>
0

>  <SCORE.INTRA.REPUL>
0

>  <SCORE.INTRA.REPUL.0>
0

>  <SCORE.INTRA.SOLV>
-1.11407

>  <SCORE.INTRA.SOLV.lig_0>
-48.4279

>  <SCORE.INTRA.VDW>
-0.242205

>  <SCORE.INTRA.VDW.0>
-4.69037

>  <SCORE.INTRA.norm>
-0.0199379

>  <SCORE.RESTR>
2.05989

>  <SCORE.RESTR.CAVITY>
2.05989

>  <SCORE.RESTR.norm>
0.0762922

>  <SCORE.SYSTEM>
0

>  <SCORE.SYSTEM.CONST>
0

>  <SCORE.SYSTEM.DIHEDRAL>
0

>  <SCORE.SYSTEM.SOLV>
0

>  <SCORE.SYSTEM.norm>
0

>  <SCORE.heavy>
27

>  <SCORE.norm>
-0.130514

>  <RMSD>
16.657

$$$$
ligand
 OpenBabel02271912153D
libRbt.so/2013.1/901 2013/11/27
 27 29  0  0  0  0  0  0  0  0999 V2000
   12.7564    2.9166   25.5996 N   0  0  0  0  0  0  0  0  0  0  0  0
   12.6924    1.6513   24.8048 C   0  0  2  0  0  0  0  0  0  0  0  0
   13.7490    1.6489   23.6778 C   0  0  0  0  0  0  0  0  0  0  0  0
   14.8732    1.1713   23.8584 O   0  0  0  0  0  0  0  0  0  0  0  0
   11.2786    1.4622   24.2653 C   0  0  0  0  0  0  0  0  0  0  0  0
   11.0650    0.1683   23.4976 C   0  0  0  0  0  0  0  0  0  0  0  0
    9.5383    0.1599   22.5146 S   0  0  2  0  0  0  0  0  0  0  0  0
    9.5397   -1.5498   21.9042 C   0  0  0  0  0  0  0  0  0  0  0  0
    9.8879    1.0969   21.0181 C   0  0  0  0  0  0  0  0  0  0  0  0
   10.0334    2.5637   21.3759 C   0  0  1  0  0  0  0  0  0  0  0  0
   10.4245    3.3582   20.2668 O   0  0  0  0  0  0  0  0  0  0  0  0
    8.7375    3.1364   21.8959 C   0  0  1  0  0  0  0  0  0  0  0  0
    8.5945    2.8955   23.2664 O   0  0  0  0  0  0  0  0  0  0  0  0
    8.9233    4.5930   21.5979 C   0  0  1  0  0  0  0  0  0  0  0  0
    9.5996    5.2055   22.6794 O   0  0  0  0  0  0  0  0  0  0  0  0
    9.7909    4.6141   20.3461 C   0  0  2  0  0  0  0  0  0  0  0  0
   13.5216    2.1269   22.5512 O   0  0  0  0  0  0  0  0  0  0  0  0
    5.0514    5.4308   18.1715 N   0  0  0  0  0  0  0  0  0  0  0  0
    5.3513    5.2431   19.5130 C   0  0  0  0  0  0  0  0  0  0  0  0
    6.6596    5.0239   19.9275 N   0  0  0  0  0  0  0  0  0  0  0  0
    7.6469    5.0132   19.0135 C   0  0  0  0  0  0  0  0  0  0  0  0
    7.3590    5.2163   17.6609 C   0  0  0  0  0  0  0  0  0  0  0  0
    6.0596    5.4143   17.2318 C   0  0  0  0  0  0  0  0  0  0  0  0
    5.7905    5.5953   15.9475 N   0  0  0  0  0  0  0  0  0  0  0  0
    8.5092    5.1710   16.9797 N   0  0  0  0  0  0  0  0  0  0  0  0
    9.5119    4.9492   17.8581 C   0  0  0  0  0  0  0  0  0  0  0  0
    8.9961    4.8532   19.1266 N   0  0  0  0  0  0  0  0  0  0  0  0
  2  1  1  6  0  0  0
  2  3  1  0  0  0  0
  2  5  1  0  0  0  0
  3  4  1  0  0  0  0
  3 17  1  0  0  0  0
  5  6  1  0  0  0  0
  7  6  1  1  0  0  0
  7  8  1  0  0  0  0
  7  9  1  0  0  0  0
 10  9  1  6  0  0  0
 10 11  1  0  0  0  0
 10 12  1  0  0  0  0
 11 16  1  0  0  0  0
 12 13  1  1  0  0  0
 12 14  1  0  0  0  0
 14 15  1  1  0  0  0
 14 16  1  0  0  0  0
 16 27  1  6  0  0  0
 18 19  2  0  0  0  0
 18 23  1  0  0  0  0
 19 20  1  0  0  0  0
 20 21  2  0  0  0  0
 21 22  1  0  0  0  0
 21 27  1  0  0  0  0
 22 23  2  0  0  0  0
 22 25  1  0  0  0  0
 23 24  1  0  0  0  0
 25 26  2  0  0  0  0
 26 27  1  0  0  0  0
M  END
>  <CHROM.1>
91.77327328,-176.93451470,-165.06725344,-174.43812334,-70.29831688,174.91588851
116.91959381,9.56125358,3.09435610,21.13926466,-0.79933815,-0.49630457,-0.52085992

>  <Name>
ligand

>  <RI>
0

>  <Rbt.Current_Directory>
/home/itssahil/PROJECTS/Mol_Feturizer/Test_systems_manuscript/rnas/2ydh

>  <Rbt.Executable>
rbdock ($Id: //depot/dev/client3/rdock/2013.1/src/exe/rbdock.cxx#4 $)

>  <Rbt.Library>
libRbt.so (2013.1, Build901 2013/11/27)

>  <Rbt.Parameter_File>
/export/apps/rDock/src/rDock_2013.1_src/data/scripts/dock_solv.prm

>  <Rbt.Receptor>
prm/blind_docking_60.prm

>  <SCORE>
-10.7807

>  <SCORE.INTER>
-9.58208

>  <SCORE.INTER.CONST>
1

>  <SCORE.INTER.POLAR>
0

>  <SCORE.INTER.ROT>
7

>  <SCORE.INTER.SOLV>
11.3107

>  <SCORE.INTER.VDW>
-18.4249

>  <SCORE.INTER.norm>
-0.354892

>  <SCORE.INTRA>
-1.20306

>  <SCORE.INTRA.DIHEDRAL>
-5.33943

>  <SCORE.INTRA.DIHEDRAL.0>
9.75037

>  <SCORE.INTRA.POLAR>
0

>  <SCORE.INTRA.POLAR.0>
0

>  <SCORE.INTRA.REPUL>
0

>  <SCORE.INTRA.REPUL.0>
0

>  <SCORE.INTRA.SOLV>
-1.03237

>  <SCORE.INTRA.SOLV.lig_0>
-48.4279

>  <SCORE.INTRA.VDW>
1.98283

>  <SCORE.INTRA.VDW.0>
-4.69037

>  <SCORE.INTRA.norm>
-0.0445579

>  <SCORE.RESTR>
0.00444219

>  <SCORE.RESTR.CAVITY>
0.00444219

>  <SCORE.RESTR.norm>
0.000164526

>  <SCORE.SYSTEM>
0

>  <SCORE.SYSTEM.CONST>
0

>  <SCORE.SYSTEM.DIHEDRAL>
0

>  <SCORE.SYSTEM.SOLV>
0

>  <SCORE.SYSTEM.norm>
0

>  <SCORE.heavy>
27

>  <SCORE.norm>
-0.399285

>  <RMSD>
16.678

$$$$
ligand
 OpenBabel02271912153D
libRbt.so/2013.1/901 2013/11/27
 27 29  0  0  0  0  0  0  0  0999 V2000
    5.9967  -17.5884    6.3729 N   0  0  0  0  0  0  0  0  0  0  0  0
    5.3048  -16.2817    6.5977 C   0  0  2  0  0  0  0  0  0  0  0  0
    6.2183  -15.0960    6.2149 C   0  0  0  0  0  0  0  0  0  0  0  0
    6.0571  -13.9790    6.7159 O   0  0  0  0  0  0  0  0  0  0  0  0
    4.8353  -16.1989    8.0462 C   0  0  0  0  0  0  0  0  0  0  0  0
    3.9690  -14.9905    8.3598 C   0  0  0  0  0  0  0  0  0  0  0  0
    2.8258  -14.5582    7.0170 S   0  0  2  0  0  0  0  0  0  0  0  0
    2.9986  -12.7512    6.9955 C   0  0  0  0  0  0  0  0  0  0  0  0
    1.1628  -14.7721    7.6717 C   0  0  0  0  0  0  0  0  0  0  0  0
    0.2616  -15.2971    6.5704 C   0  0  1  0  0  0  0  0  0  0  0  0
    0.8026  -15.0825    5.2760 O   0  0  0  0  0  0  0  0  0  0  0  0
    0.0248  -16.7810    6.7111 C   0  0  1  0  0  0  0  0  0  0  0  0
   -1.0298  -17.0413    7.5925 O   0  0  0  0  0  0  0  0  0  0  0  0
   -0.3161  -17.1557    5.3011 C   0  0  1  0  0  0  0  0  0  0  0  0
   -1.7049  -16.9782    5.0964 O   0  0  0  0  0  0  0  0  0  0  0  0
    0.4779  -16.1751    4.4478 C   0  0  2  0  0  0  0  0  0  0  0  0
    7.1439  -15.2081    5.3902 O   0  0  0  0  0  0  0  0  0  0  0  0
    5.1011  -15.5080    1.9900 N   0  0  0  0  0  0  0  0  0  0  0  0
    4.1688  -14.5376    2.3275 C   0  0  0  0  0  0  0  0  0  0  0  0
    2.9827  -14.8793    2.9661 N   0  0  0  0  0  0  0  0  0  0  0  0
    2.7489  -16.1677    3.2754 C   0  0  0  0  0  0  0  0  0  0  0  0
    3.6874  -17.1524    2.9541 C   0  0  0  0  0  0  0  0  0  0  0  0
    4.8620  -16.8296    2.2999 C   0  0  0  0  0  0  0  0  0  0  0  0
    5.7434  -17.7678    1.9877 N   0  0  0  0  0  0  0  0  0  0  0  0
    3.2175  -18.3297    3.3809 N   0  0  0  0  0  0  0  0  0  0  0  0
    2.0161  -18.1191    3.9627 C   0  0  0  0  0  0  0  0  0  0  0  0
    1.7107  -16.7818    3.9109 N   0  0  0  0  0  0  0  0  0  0  0  0
  2  1  1  1  0  0  0
  2  3  1  0  0  0  0
  2  5  1  0  0  0  0
  3  4  1  0  0  0  0
  3 17  1  0  0  0  0
  5  6  1  0  0  0  0
  7  6  1  1  0  0  0
  7  8  1  0  0  0  0
  7  9  1  0  0  0  0
 10  9  1  1  0  0  0
 10 11  1  0  0  0  0
 10 12  1  0  0  0  0
 11 16  1  0  0  0  0
 12 13  1  1  0  0  0
 12 14  1  0  0  0  0
 14 15  1  1  0  0  0
 14 16  1  0  0  0  0
 16 27  1  1  0  0  0
 18 19  2  0  0  0  0
 18 23  1  0  0  0  0
 19 20  1  0  0  0  0
 20 21  2  0  0  0  0
 21 22  1  0  0  0  0
 21 27  1  0  0  0  0
 22 23  2  0  0  0  0
 22 25  1  0  0  0  0
 23 24  1  0  0  0  0
 25 26  2  0  0  0  0
 26 27  1  0  0  0  0
M  END
>  <CHROM.1>
-155.31037662,-172.93909397,37.86493563,-137.12916494,-144.29273574,-18.73532424
-51.19455545,2.97677278,-15.90221820,5.31804849,-0.23469225,0.17816134,1.15696495

>  <Name>
ligand

>  <RI>
0

>  <Rbt.Current_Directory>
/home/itssahil/PROJECTS/Mol_Feturizer/Test_systems_manuscript/rnas/2ydh

>  <Rbt.Executable>
rbdock ($Id: //depot/dev/client3/rdock/2013.1/src/exe/rbdock.cxx#4 $)

>  <Rbt.Library>
libRbt.so (2013.1, Build901 2013/11/27)

>  <Rbt.Parameter_File>
/export/apps/rDock/src/rDock_2013.1_src/data/scripts/dock_solv.prm

>  <Rbt.Receptor>
prm/blind_docking_20.prm

>  <SCORE>
-0.857441

>  <SCORE.INTER>
-7.06367

>  <SCORE.INTER.CONST>
1

>  <SCORE.INTER.POLAR>
0

>  <SCORE.INTER.ROT>
7

>  <SCORE.INTER.SOLV>
9.80006

>  <SCORE.INTER.VDW>
-16.2425

>  <SCORE.INTER.norm>
-0.261617

>  <SCORE.INTRA>
4.92409

>  <SCORE.INTRA.DIHEDRAL>
6.99647

>  <SCORE.INTRA.DIHEDRAL.0>
9.75037

>  <SCORE.INTRA.POLAR>
0

>  <SCORE.INTRA.POLAR.0>
0

>  <SCORE.INTRA.REPUL>
0

>  <SCORE.INTRA.REPUL.0>
0

>  <SCORE.INTRA.SOLV>
-1.11592

>  <SCORE.INTRA.SOLV.lig_0>
-48.4279

>  <SCORE.INTRA.VDW>
1.98382

>  <SCORE.INTRA.VDW.0>
-4.69037

>  <SCORE.INTRA.norm>
0.182374

>  <SCORE.RESTR>
1.28214

>  <SCORE.RESTR.CAVITY>
1.28214

>  <SCORE.RESTR.norm>
0.0474865

>  <SCORE.SYSTEM>
0

>  <SCORE.SYSTEM.CONST>
0

>  <SCORE.SYSTEM.DIHEDRAL>
0

>  <SCORE.SYSTEM.SOLV>
0

>  <SCORE.SYSTEM.norm>
0

>  <SCORE.heavy>
27

>  <SCORE.norm>
-0.0317571

>  <RMSD>
16.681

$$$$
ligand
 OpenBabel02271912153D
libRbt.so/2013.1/901 2013/11/27
 27 29  0  0  0  0  0  0  0  0999 V2000
    6.6928  -16.5492    4.2480 N   0  0  0  0  0  0  0  0  0  0  0  0
    5.6506  -15.8429    5.0552 C   0  0  2  0  0  0  0  0  0  0  0  0
    6.1569  -14.4632    5.5313 C   0  0  0  0  0  0  0  0  0  0  0  0
    7.3554  -14.1708    5.4792 O   0  0  0  0  0  0  0  0  0  0  0  0
    5.2238  -16.7299    6.2200 C   0  0  0  0  0  0  0  0  0  0  0  0
    3.7445  -16.6556    6.5595 C   0  0  0  0  0  0  0  0  0  0  0  0
    3.2404  -15.0434    7.2257 S   0  0  2  0  0  0  0  0  0  0  0  0
    4.1846  -15.0089    8.7758 C   0  0  0  0  0  0  0  0  0  0  0  0
    1.5510  -15.2388    7.8153 C   0  0  0  0  0  0  0  0  0  0  0  0
    0.6351  -15.4605    6.6268 C   0  0  1  0  0  0  0  0  0  0  0  0
    1.2750  -15.1915    5.3890 O   0  0  0  0  0  0  0  0  0  0  0  0
    0.1404  -16.8853    6.5693 C   0  0  1  0  0  0  0  0  0  0  0  0
   -0.9899  -17.0588    7.3748 O   0  0  0  0  0  0  0  0  0  0  0  0
   -0.1817  -17.0223    5.1124 C   0  0  1  0  0  0  0  0  0  0  0  0
   -1.5063  -16.5790    4.8861 O   0  0  0  0  0  0  0  0  0  0  0  0
    0.8141  -16.1023    4.4179 C   0  0  2  0  0  0  0  0  0  0  0  0
    5.3913  -13.5949    5.9890 O   0  0  0  0  0  0  0  0  0  0  0  0
    5.3014  -16.0038    1.6406 N   0  0  0  0  0  0  0  0  0  0  0  0
    4.4792  -14.9353    1.9674 C   0  0  0  0  0  0  0  0  0  0  0  0
    3.3140  -15.1296    2.6996 N   0  0  0  0  0  0  0  0  0  0  0  0
    2.9937  -16.3701    3.1104 C   0  0  0  0  0  0  0  0  0  0  0  0
    3.8221  -17.4524    2.8004 C   0  0  0  0  0  0  0  0  0  0  0  0
    4.9731  -17.2769    2.0546 C   0  0  0  0  0  0  0  0  0  0  0  0
    5.7492  -18.3073    1.7540 N   0  0  0  0  0  0  0  0  0  0  0  0
    3.2843  -18.5542    3.3351 N   0  0  0  0  0  0  0  0  0  0  0  0
    2.1468  -18.2017    3.9738 C   0  0  0  0  0  0  0  0  0  0  0  0
    1.9525  -16.8485    3.8492 N   0  0  0  0  0  0  0  0  0  0  0  0
  2  1  1  1  0  0  0
  2  3  1  0  0  0  0
  2  5  1  0  0  0  0
  3  4  1  0  0  0  0
  3 17  1  0  0  0  0
  5  6  1  0  0  0  0
  7  6  1  6  0  0  0
  7  8  1  0  0  0  0
  7  9  1  0  0  0  0
 10  9  1  1  0  0  0
 10 11  1  0  0  0  0
 10 12  1  0  0  0  0
 11 16  1  0  0  0  0
 12 13  1  1  0  0  0
 12 14  1  0  0  0  0
 14 15  1  1  0  0  0
 14 16  1  0  0  0  0
 16 27  1  1  0  0  0
 18 19  2  0  0  0  0
 18 23  1  0  0  0  0
 19 20  1  0  0  0  0
 20 21  2  0  0  0  0
 21 22  1  0  0  0  0
 21 27  1  0  0  0  0
 22 23  2  0  0  0  0
 22 25  1  0  0  0  0
 23 24  1  0  0  0  0
 25 26  2  0  0  0  0
 26 27  1  0  0  0  0
M  END
>  <CHROM.1>
-14.57321927,-142.86741370,-67.29702265,-64.52636219,-67.80729868,-11.86499285
-64.75231210,3.21250544,-16.08649471,5.01826008,-0.38056407,0.25252162,1.14503352

>  <Name>
ligand

>  <RI>
0

>  <Rbt.Current_Directory>
/home/itssahil/PROJECTS/Mol_Feturizer/Test_systems_manuscript/rnas/2ydh

>  <Rbt.Executable>
rbdock ($Id: //depot/dev/client3/rdock/2013.1/src/exe/rbdock.cxx#4 $)

>  <Rbt.Library>
libRbt.so (2013.1, Build901 2013/11/27)

>  <Rbt.Parameter_File>
/export/apps/rDock/src/rDock_2013.1_src/data/scripts/dock_solv.prm

>  <Rbt.Receptor>
prm/blind_docking_20.prm

>  <SCORE>
-2.35103

>  <SCORE.INTER>
-5.97601

>  <SCORE.INTER.CONST>
1

>  <SCORE.INTER.POLAR>
0

>  <SCORE.INTER.ROT>
7

>  <SCORE.INTER.SOLV>
9.86533

>  <SCORE.INTER.VDW>
-15.5391

>  <SCORE.INTER.norm>
-0.221334

>  <SCORE.INTRA>
2.51762

>  <SCORE.INTRA.DIHEDRAL>
2.18514

>  <SCORE.INTRA.DIHEDRAL.0>
9.75037

>  <SCORE.INTRA.POLAR>
0

>  <SCORE.INTRA.POLAR.0>
0

>  <SCORE.INTRA.REPUL>
0

>  <SCORE.INTRA.REPUL.0>
0

>  <SCORE.INTRA.SOLV>
3.44692

>  <SCORE.INTRA.SOLV.lig_0>
-48.4279

>  <SCORE.INTRA.VDW>
-0.298411

>  <SCORE.INTRA.VDW.0>
-4.69037

>  <SCORE.INTRA.norm>
0.0932451

>  <SCORE.RESTR>
1.10737

>  <SCORE.RESTR.CAVITY>
1.10737

>  <SCORE.RESTR.norm>
0.0410137

>  <SCORE.SYSTEM>
0

>  <SCORE.SYSTEM.CONST>
0

>  <SCORE.SYSTEM.DIHEDRAL>
0

>  <SCORE.SYSTEM.SOLV>
0

>  <SCORE.SYSTEM.norm>
0

>  <SCORE.heavy>
27

>  <SCORE.norm>
-0.087075

>  <RMSD>
16.703

$$$$
ligand
 OpenBabel02271912153D
libRbt.so/2013.1/901 2013/11/27
 27 29  0  0  0  0  0  0  0  0999 V2000
    8.1829    4.2686   17.3988 N   0  0  0  0  0  0  0  0  0  0  0  0
    6.7449    3.9066   17.5934 C   0  0  2  0  0  0  0  0  0  0  0  0
    5.8952    5.1569   17.9118 C   0  0  0  0  0  0  0  0  0  0  0  0
    6.3066    6.0280   18.6841 O   0  0  0  0  0  0  0  0  0  0  0  0
    6.6321    2.8447   18.6821 C   0  0  0  0  0  0  0  0  0  0  0  0
    7.2746    3.2277   20.0049 C   0  0  0  0  0  0  0  0  0  0  0  0
    6.7442    2.1813   21.3908 S   0  0  2  0  0  0  0  0  0  0  0  0
    5.2666    3.0788   21.9447 C   0  0  0  0  0  0  0  0  0  0  0  0
    7.9004    2.4882   22.7357 C   0  0  0  0  0  0  0  0  0  0  0  0
    8.9586    1.4016   22.7356 C   0  0  1  0  0  0  0  0  0  0  0  0
    8.4204    0.1179   23.0125 O   0  0  0  0  0  0  0  0  0  0  0  0
    9.6565    1.3107   21.4005 C   0  0  1  0  0  0  0  0  0  0  0  0
   10.7089    2.2285   21.3189 O   0  0  0  0  0  0  0  0  0  0  0  0
   10.1465   -0.1051   21.4246 C   0  0  1  0  0  0  0  0  0  0  0  0
   11.4098   -0.1484   22.0605 O   0  0  0  0  0  0  0  0  0  0  0  0
    9.1072   -0.8497   22.2528 C   0  0  2  0  0  0  0  0  0  0  0  0
    4.7684    5.3399   17.4155 O   0  0  0  0  0  0  0  0  0  0  0  0
    5.0627   -4.2278   21.9557 N   0  0  0  0  0  0  0  0  0  0  0  0
    5.6994   -3.7608   23.0963 C   0  0  0  0  0  0  0  0  0  0  0  0
    6.7681   -2.8771   23.0055 N   0  0  0  0  0  0  0  0  0  0  0  0
    7.1746   -2.4576   21.7934 C   0  0  0  0  0  0  0  0  0  0  0  0
    6.5312   -2.9094   20.6377 C   0  0  0  0  0  0  0  0  0  0  0  0
    5.4804   -3.8050   20.7121 C   0  0  0  0  0  0  0  0  0  0  0  0
    4.8810   -4.2387   19.6134 N   0  0  0  0  0  0  0  0  0  0  0  0
    7.1181   -2.3331   19.5829 N   0  0  0  0  0  0  0  0  0  0  0  0
    8.1074   -1.5316   20.0357 C   0  0  0  0  0  0  0  0  0  0  0  0
    8.1544   -1.5923   21.4063 N   0  0  0  0  0  0  0  0  0  0  0  0
  2  1  1  1  0  0  0
  2  3  1  0  0  0  0
  2  5  1  0  0  0  0
  3  4  1  0  0  0  0
  3 17  1  0  0  0  0
  5  6  1  0  0  0  0
  7  6  1  6  0  0  0
  7  8  1  0  0  0  0
  7  9  1  0  0  0  0
 10  9  1  6  0  0  0
 10 11  1  0  0  0  0
 10 12  1  0  0  0  0
 11 16  1  0  0  0  0
 12 13  1  1  0  0  0
 12 14  1  0  0  0  0
 14 15  1  1  0  0  0
 14 16  1  0  0  0  0
 16 27  1  6  0  0  0
 18 19  2  0  0  0  0
 18 23  1  0  0  0  0
 19 20  1  0  0  0  0
 20 21  2  0  0  0  0
 21 22  1  0  0  0  0
 21 27  1  0  0  0  0
 22 23  2  0  0  0  0
 22 25  1  0  0  0  0
 23 24  1  0  0  0  0
 25 26  2  0  0  0  0
 26 27  1  0  0  0  0
M  END
>  <CHROM.1>
-41.79643858,55.00619477,164.09391906,-88.25741643,-97.37439383,-64.41996515
-67.77490785,7.37142290,0.66914733,20.75780250,1.59897610,-0.54472640,-0.35331715

>  <Name>
ligand

>  <RI>
0

>  <Rbt.Current_Directory>
/home/itssahil/PROJECTS/Mol_Feturizer/Test_systems_manuscript/rnas/2ydh

>  <Rbt.Executable>
rbdock ($Id: //depot/dev/client3/rdock/2013.1/src/exe/rbdock.cxx#4 $)

>  <Rbt.Library>
libRbt.so (2013.1, Build901 2013/11/27)

>  <Rbt.Parameter_File>
/export/apps/rDock/src/rDock_2013.1_src/data/scripts/dock_solv.prm

>  <Rbt.Receptor>
prm/blind_docking_40.prm

>  <SCORE>
-14.372

>  <SCORE.INTER>
-15.0857

>  <SCORE.INTER.CONST>
1

>  <SCORE.INTER.POLAR>
0

>  <SCORE.INTER.ROT>
7

>  <SCORE.INTER.SOLV>
7.76936

>  <SCORE.INTER.VDW>
-20.9136

>  <SCORE.INTER.norm>
-0.558731

>  <SCORE.INTRA>
0.713706

>  <SCORE.INTRA.DIHEDRAL>
-2.17741

>  <SCORE.INTRA.DIHEDRAL.0>
9.75037

>  <SCORE.INTRA.POLAR>
0

>  <SCORE.INTRA.POLAR.0>
0

>  <SCORE.INTRA.REPUL>
0

>  <SCORE.INTRA.REPUL.0>
0

>  <SCORE.INTRA.SOLV>
-0.4867

>  <SCORE.INTRA.SOLV.lig_0>
-48.4279

>  <SCORE.INTRA.VDW>
2.04576

>  <SCORE.INTRA.VDW.0>
-4.69037

>  <SCORE.INTRA.norm>
0.0264335

>  <SCORE.RESTR>
0

>  <SCORE.RESTR.CAVITY>
0

>  <SCORE.RESTR.norm>
0

>  <SCORE.SYSTEM>
0

>  <SCORE.SYSTEM.CONST>
0

>  <SCORE.SYSTEM.DIHEDRAL>
0

>  <SCORE.SYSTEM.SOLV>
0

>  <SCORE.SYSTEM.norm>
0

>  <SCORE.heavy>
27

>  <SCORE.norm>
-0.532297

>  <RMSD>
16.708

$$$$
ligand
 OpenBabel02271912153D
libRbt.so/2013.1/901 2013/11/27
 27 29  0  0  0  0  0  0  0  0999 V2000
    4.4516  -14.5891    8.9430 N   0  0  0  0  0  0  0  0  0  0  0  0
    3.4385  -14.1403    7.9386 C   0  0  2  0  0  0  0  0  0  0  0  0
    2.5246  -15.3099    7.5101 C   0  0  0  0  0  0  0  0  0  0  0  0
    1.3178  -15.3051    7.7711 O   0  0  0  0  0  0  0  0  0  0  0  0
    4.1505  -13.5041    6.7495 C   0  0  0  0  0  0  0  0  0  0  0  0
    5.5263  -14.0793    6.4575 C   0  0  0  0  0  0  0  0  0  0  0  0
    5.4767  -15.7947    5.8642 S   0  0  2  0  0  0  0  0  0  0  0  0
    6.6859  -16.5705    6.9739 C   0  0  0  0  0  0  0  0  0  0  0  0
    6.3423  -15.8159    4.2862 C   0  0  0  0  0  0  0  0  0  0  0  0
    5.3297  -15.9806    3.1690 C   0  0  1  0  0  0  0  0  0  0  0  0
    4.6220  -17.2079    3.2525 O   0  0  0  0  0  0  0  0  0  0  0  0
    4.3026  -14.8749    3.1874 C   0  0  1  0  0  0  0  0  0  0  0  0
    4.7636  -13.7477    2.4993 O   0  0  0  0  0  0  0  0  0  0  0  0
    3.1551  -15.5326    2.4833 C   0  0  1  0  0  0  0  0  0  0  0  0
    3.2972  -15.3442    1.0881 O   0  0  0  0  0  0  0  0  0  0  0  0
    3.2903  -17.0077    2.8383 C   0  0  2  0  0  0  0  0  0  0  0  0
    2.9572  -16.3016    6.8945 O   0  0  0  0  0  0  0  0  0  0  0  0
   -0.8721  -15.7901    5.8467 N   0  0  0  0  0  0  0  0  0  0  0  0
   -0.2934  -15.0250    4.8446 C   0  0  0  0  0  0  0  0  0  0  0  0
    0.8175  -15.4847    4.1475 N   0  0  0  0  0  0  0  0  0  0  0  0
    1.3230  -16.6969    4.4398 C   0  0  0  0  0  0  0  0  0  0  0  0
    0.7394  -17.4834    5.4370 C   0  0  0  0  0  0  0  0  0  0  0  0
   -0.3530  -17.0297    6.1530 C   0  0  0  0  0  0  0  0  0  0  0  0
   -0.8959  -17.7742    7.1046 N   0  0  0  0  0  0  0  0  0  0  0  0
    1.4211  -18.6316    5.5131 N   0  0  0  0  0  0  0  0  0  0  0  0
    2.4125  -18.5958    4.5955 C   0  0  0  0  0  0  0  0  0  0  0  0
    2.3644  -17.4040    3.9161 N   0  0  0  0  0  0  0  0  0  0  0  0
  2  1  1  1  0  0  0
  2  3  1  0  0  0  0
  2  5  1  0  0  0  0
  3  4  1  0  0  0  0
  3 17  1  0  0  0  0
  5  6  1  0  0  0  0
  7  6  1  1  0  0  0
  7  8  1  0  0  0  0
  7  9  1  0  0  0  0
 10  9  1  1  0  0  0
 10 11  1  0  0  0  0
 10 12  1  0  0  0  0
 11 16  1  0  0  0  0
 12 13  1  6  0  0  0
 12 14  1  0  0  0  0
 14 15  1  6  0  0  0
 14 16  1  0  0  0  0
 16 27  1  1  0  0  0
 18 19  2  0  0  0  0
 18 23  1  0  0  0  0
 19 20  1  0  0  0  0
 20 21  2  0  0  0  0
 21 22  1  0  0  0  0
 21 27  1  0  0  0  0
 22 23  2  0  0  0  0
 22 25  1  0  0  0  0
 23 24  1  0  0  0  0
 25 26  2  0  0  0  0
 26 27  1  0  0  0  0
M  END
>  <CHROM.1>
114.82663250,30.97800181,67.76925436,-129.49008476,-107.25178958,-62.27461280
129.76249215,3.08566964,-15.93104292,5.20180729,-0.24287122,0.30969872,1.40016232

>  <Name>
ligand

>  <RI>
0

>  <Rbt.Current_Directory>
/home/itssahil/PROJECTS/Mol_Feturizer/Test_systems_manuscript/rnas/2ydh

>  <Rbt.Executable>
rbdock ($Id: //depot/dev/client3/rdock/2013.1/src/exe/rbdock.cxx#4 $)

>  <Rbt.Library>
libRbt.so (2013.1, Build901 2013/11/27)

>  <Rbt.Parameter_File>
/export/apps/rDock/src/rDock_2013.1_src/data/scripts/dock_solv.prm

>  <Rbt.Receptor>
prm/blind_docking_20.prm

>  <SCORE>
-1.50556

>  <SCORE.INTER>
-4.36686

>  <SCORE.INTER.CONST>
1

>  <SCORE.INTER.POLAR>
0

>  <SCORE.INTER.ROT>
7

>  <SCORE.INTER.SOLV>
14.3834

>  <SCORE.INTER.VDW>
-15.9724

>  <SCORE.INTER.norm>
-0.161736

>  <SCORE.INTRA>
2.61803

>  <SCORE.INTRA.DIHEDRAL>
4.08355

>  <SCORE.INTRA.DIHEDRAL.0>
9.75037

>  <SCORE.INTRA.POLAR>
0

>  <SCORE.INTRA.POLAR.0>
0

>  <SCORE.INTRA.REPUL>
0

>  <SCORE.INTRA.REPUL.0>
0

>  <SCORE.INTRA.SOLV>
2.04289

>  <SCORE.INTRA.SOLV.lig_0>
-48.4279

>  <SCORE.INTRA.VDW>
-0.445189

>  <SCORE.INTRA.VDW.0>
-4.69037

>  <SCORE.INTRA.norm>
0.0969642

>  <SCORE.RESTR>
0.24327

>  <SCORE.RESTR.CAVITY>
0.24327

>  <SCORE.RESTR.norm>
0.00900999

>  <SCORE.SYSTEM>
0

>  <SCORE.SYSTEM.CONST>
0

>  <SCORE.SYSTEM.DIHEDRAL>
0

>  <SCORE.SYSTEM.SOLV>
0

>  <SCORE.SYSTEM.norm>
0

>  <SCORE.heavy>
27

>  <SCORE.norm>
-0.0557614

>  <RMSD>
16.717

$$$$
ligand
 OpenBabel02271912153D
libRbt.so/2013.1/901 2013/11/27
 27 29  0  0  0  0  0  0  0  0999 V2000
    9.9833    0.1738   26.1433 N   0  0  0  0  0  0  0  0  0  0  0  0
    9.4484    1.3012   25.3191 C   0  0  2  0  0  0  0  0  0  0  0  0
    8.0890    0.9304   24.6857 C   0  0  0  0  0  0  0  0  0  0  0  0
    7.9056   -0.1774   24.1721 O   0  0  0  0  0  0  0  0  0  0  0  0
   10.4812    1.6962   24.2688 C   0  0  0  0  0  0  0  0  0  0  0  0
   10.7622    0.6257   23.2276 C   0  0  0  0  0  0  0  0  0  0  0  0
   11.6403    1.2556   21.7684 S   0  0  2  0  0  0  0  0  0  0  0  0
   13.0383    2.1043   22.5565 C   0  0  0  0  0  0  0  0  0  0  0  0
   10.6665    2.6328   21.1400 C   0  0  0  0  0  0  0  0  0  0  0  0
    9.3353    2.1080   20.6367 C   0  0  1  0  0  0  0  0  0  0  0  0
    9.4651    0.8848   19.9288 O   0  0  0  0  0  0  0  0  0  0  0  0
    8.3735    1.8620   21.7735 C   0  0  1  0  0  0  0  0  0  0  0  0
    7.6930    3.0340   22.1200 O   0  0  0  0  0  0  0  0  0  0  0  0
    7.4605    0.8412   21.1657 C   0  0  1  0  0  0  0  0  0  0  0  0
    6.4248    1.5034   20.4649 O   0  0  0  0  0  0  0  0  0  0  0  0
    8.3488    0.0688   20.1989 C   0  0  2  0  0  0  0  0  0  0  0  0
    7.1291    1.7224   24.6588 O   0  0  0  0  0  0  0  0  0  0  0  0
    7.1732   -4.2318   23.0241 N   0  0  0  0  0  0  0  0  0  0  0  0
    6.3417   -3.1670   22.7091 C   0  0  0  0  0  0  0  0  0  0  0  0
    6.8099   -2.0932   21.9613 N   0  0  0  0  0  0  0  0  0  0  0  0
    8.0822   -2.1005   21.5237 C   0  0  0  0  0  0  0  0  0  0  0  0
    8.9251   -3.1748   21.8218 C   0  0  0  0  0  0  0  0  0  0  0  0
    8.4790   -4.2397   22.5827 C   0  0  0  0  0  0  0  0  0  0  0  0
    9.2848   -5.2504   22.8718 N   0  0  0  0  0  0  0  0  0  0  0  0
   10.1158   -2.9372   21.2608 N   0  0  0  0  0  0  0  0  0  0  0  0
   10.0502   -1.7508   20.6170 C   0  0  0  0  0  0  0  0  0  0  0  0
    8.7935   -1.2187   20.7652 N   0  0  0  0  0  0  0  0  0  0  0  0
  2  1  1  6  0  0  0
  2  3  1  0  0  0  0
  2  5  1  0  0  0  0
  3  4  1  0  0  0  0
  3 17  1  0  0  0  0
  5  6  1  0  0  0  0
  7  6  1  1  0  0  0
  7  8  1  0  0  0  0
  7  9  1  0  0  0  0
 10  9  1  1  0  0  0
 10 11  1  0  0  0  0
 10 12  1  0  0  0  0
 11 16  1  0  0  0  0
 12 13  1  6  0  0  0
 12 14  1  0  0  0  0
 14 15  1  6  0  0  0
 14 16  1  0  0  0  0
 16 27  1  1  0  0  0
 18 19  2  0  0  0  0
 18 23  1  0  0  0  0
 19 20  1  0  0  0  0
 20 21  2  0  0  0  0
 21 22  1  0  0  0  0
 21 27  1  0  0  0  0
 22 23  2  0  0  0  0
 22 25  1  0  0  0  0
 23 24  1  0  0  0  0
 25 26  2  0  0  0  0
 26 27  1  0  0  0  0
M  END
>  <CHROM.1>
-43.47030709,65.38348702,164.86005805,51.81729584,-65.87102744,-40.92425262
157.97781276,9.02929907,-0.11975359,22.32619239,0.39638019,1.18418951,1.16837508

>  <Name>
ligand

>  <RI>
0

>  <Rbt.Current_Directory>
/home/itssahil/PROJECTS/Mol_Feturizer/Test_systems_manuscript/rnas/2ydh

>  <Rbt.Executable>
rbdock ($Id: //depot/dev/client3/rdock/2013.1/src/exe/rbdock.cxx#4 $)

>  <Rbt.Library>
libRbt.so (2013.1, Build901 2013/11/27)

>  <Rbt.Parameter_File>
/export/apps/rDock/src/rDock_2013.1_src/data/scripts/dock_solv.prm

>  <Rbt.Receptor>
prm/blind_docking_80.prm

>  <SCORE>
-16.5537

>  <SCORE.INTER>
-14.7233

>  <SCORE.INTER.CONST>
1

>  <SCORE.INTER.POLAR>
0

>  <SCORE.INTER.ROT>
7

>  <SCORE.INTER.SOLV>
9.19661

>  <SCORE.INTER.VDW>
-21.1477

>  <SCORE.INTER.norm>
-0.545307

>  <SCORE.INTRA>
-1.84623

>  <SCORE.INTRA.DIHEDRAL>
-4.58699

>  <SCORE.INTRA.DIHEDRAL.0>
9.75037

>  <SCORE.INTRA.POLAR>
0

>  <SCORE.INTRA.POLAR.0>
0

>  <SCORE.INTRA.REPUL>
0

>  <SCORE.INTRA.REPUL.0>
0

>  <SCORE.INTRA.SOLV>
-0.0681274

>  <SCORE.INTRA.SOLV.lig_0>
-48.4279

>  <SCORE.INTRA.VDW>
0.481329

>  <SCORE.INTRA.VDW.0>
-4.69037

>  <SCORE.INTRA.norm>
-0.0683789

>  <SCORE.RESTR>
0.0158444

>  <SCORE.RESTR.CAVITY>
0.0158444

>  <SCORE.RESTR.norm>
0.000586828

>  <SCORE.SYSTEM>
0

>  <SCORE.SYSTEM.CONST>
0

>  <SCORE.SYSTEM.DIHEDRAL>
0

>  <SCORE.SYSTEM.SOLV>
0

>  <SCORE.SYSTEM.norm>
0

>  <SCORE.heavy>
27

>  <SCORE.norm>
-0.613099

>  <RMSD>
16.718

$$$$
ligand
 OpenBabel02271912153D
libRbt.so/2013.1/901 2013/11/27
 27 29  0  0  0  0  0  0  0  0999 V2000
    6.9100    3.5756   16.9887 N   0  0  0  0  0  0  0  0  0  0  0  0
    6.8084    4.2392   18.3251 C   0  0  2  0  0  0  0  0  0  0  0  0
    5.6250    5.2316   18.3645 C   0  0  0  0  0  0  0  0  0  0  0  0
    4.8268    5.3099   17.4256 O   0  0  0  0  0  0  0  0  0  0  0  0
    8.1343    4.9151   18.6578 C   0  0  0  0  0  0  0  0  0  0  0  0
    8.2862    5.3222   20.1140 C   0  0  0  0  0  0  0  0  0  0  0  0
    8.3123    3.9104   21.2556 S   0  0  2  0  0  0  0  0  0  0  0  0
    8.8301    4.7282   22.7914 C   0  0  0  0  0  0  0  0  0  0  0  0
    9.7676    2.9384   20.8346 C   0  0  0  0  0  0  0  0  0  0  0  0
   10.0027    1.9051   21.9198 C   0  0  1  0  0  0  0  0  0  0  0  0
    8.8326    1.1635   22.2278 O   0  0  0  0  0  0  0  0  0  0  0  0
   11.0635    0.9108   21.5148 C   0  0  1  0  0  0  0  0  0  0  0  0
   12.3437    1.3941   21.8048 O   0  0  0  0  0  0  0  0  0  0  0  0
   10.7003   -0.2654   22.3689 C   0  0  1  0  0  0  0  0  0  0  0  0
   11.3343   -0.1386   23.6276 O   0  0  0  0  0  0  0  0  0  0  0  0
    9.1879   -0.1678   22.5218 C   0  0  2  0  0  0  0  0  0  0  0  0
    5.4263    5.9926   19.3292 O   0  0  0  0  0  0  0  0  0  0  0  0
    5.5992   -3.9902   21.9142 N   0  0  0  0  0  0  0  0  0  0  0  0
    5.9698   -3.3495   23.0876 C   0  0  0  0  0  0  0  0  0  0  0  0
    6.9500   -2.3642   23.0834 N   0  0  0  0  0  0  0  0  0  0  0  0
    7.5307   -2.0180   21.9202 C   0  0  0  0  0  0  0  0  0  0  0  0
    7.1549   -2.6458   20.7292 C   0  0  0  0  0  0  0  0  0  0  0  0
    6.1965   -3.6424   20.7217 C   0  0  0  0  0  0  0  0  0  0  0  0
    5.8516   -4.2420   19.5921 N   0  0  0  0  0  0  0  0  0  0  0  0
    7.8688   -2.1095   19.7333 N   0  0  0  0  0  0  0  0  0  0  0  0
    8.6792   -1.1632   20.2567 C   0  0  0  0  0  0  0  0  0  0  0  0
    8.4798   -1.0888   21.6128 N   0  0  0  0  0  0  0  0  0  0  0  0
  2  1  1  6  0  0  0
  2  3  1  0  0  0  0
  2  5  1  0  0  0  0
  3  4  1  0  0  0  0
  3 17  1  0  0  0  0
  5  6  1  0  0  0  0
  7  6  1  6  0  0  0
  7  8  1  0  0  0  0
  7  9  1  0  0  0  0
 10  9  1  6  0  0  0
 10 11  1  0  0  0  0
 10 12  1  0  0  0  0
 11 16  1  0  0  0  0
 12 13  1  1  0  0  0
 12 14  1  0  0  0  0
 14 15  1  1  0  0  0
 14 16  1  0  0  0  0
 16 27  1  6  0  0  0
 18 19  2  0  0  0  0
 18 23  1  0  0  0  0
 19 20  1  0  0  0  0
 20 21  2  0  0  0  0
 21 22  1  0  0  0  0
 21 27  1  0  0  0  0
 22 23  2  0  0  0  0
 22 25  1  0  0  0  0
 23 24  1  0  0  0  0
 25 26  2  0  0  0  0
 26 27  1  0  0  0  0
M  END
>  <CHROM.1>
6.83972884,-165.39624812,64.55710437,169.17848023,168.77618255,50.09171641
-114.37173984,8.07033157,1.15978871,20.86045963,1.64196089,-0.58210491,-0.27671503

>  <Name>
ligand

>  <RI>
0

>  <Rbt.Current_Directory>
/home/itssahil/PROJECTS/Mol_Feturizer/Test_systems_manuscript/rnas/2ydh

>  <Rbt.Executable>
rbdock ($Id: //depot/dev/client3/rdock/2013.1/src/exe/rbdock.cxx#4 $)

>  <Rbt.Library>
libRbt.so (2013.1, Build901 2013/11/27)

>  <Rbt.Parameter_File>
/export/apps/rDock/src/rDock_2013.1_src/data/scripts/dock_solv.prm

>  <Rbt.Receptor>
prm/blind_docking_40.prm

>  <SCORE>
-15.6412

>  <SCORE.INTER>
-14.6446

>  <SCORE.INTER.CONST>
1

>  <SCORE.INTER.POLAR>
0

>  <SCORE.INTER.ROT>
7

>  <SCORE.INTER.SOLV>
8.69981

>  <SCORE.INTER.VDW>
-20.9296

>  <SCORE.INTER.norm>
-0.542391

>  <SCORE.INTRA>
-0.996628

>  <SCORE.INTRA.DIHEDRAL>
-5.42943

>  <SCORE.INTRA.DIHEDRAL.0>
9.75037

>  <SCORE.INTRA.POLAR>
0

>  <SCORE.INTRA.POLAR.0>
0

>  <SCORE.INTRA.REPUL>
0

>  <SCORE.INTRA.REPUL.0>
0

>  <SCORE.INTRA.SOLV>
-1.35146

>  <SCORE.INTRA.SOLV.lig_0>
-48.4279

>  <SCORE.INTRA.VDW>
2.39382

>  <SCORE.INTRA.VDW.0>
-4.69037

>  <SCORE.INTRA.norm>
-0.0369121

>  <SCORE.RESTR>
0

>  <SCORE.RESTR.CAVITY>
0

>  <SCORE.RESTR.norm>
0

>  <SCORE.SYSTEM>
0

>  <SCORE.SYSTEM.CONST>
0

>  <SCORE.SYSTEM.DIHEDRAL>
0

>  <SCORE.SYSTEM.SOLV>
0

>  <SCORE.SYSTEM.norm>
0

>  <SCORE.heavy>
27

>  <SCORE.norm>
-0.579303

>  <RMSD>
16.772

$$$$
ligand
 OpenBabel02271912153D
libRbt.so/2013.1/901 2013/11/27
 27 29  0  0  0  0  0  0  0  0999 V2000
    3.6652  -14.8633    8.6659 N   0  0  0  0  0  0  0  0  0  0  0  0
    4.3699  -15.2102    7.3932 C   0  0  2  0  0  0  0  0  0  0  0  0
    5.2969  -16.4309    7.5860 C   0  0  0  0  0  0  0  0  0  0  0  0
    4.8669  -17.5827    7.4715 O   0  0  0  0  0  0  0  0  0  0  0  0
    5.1287  -13.9891    6.8846 C   0  0  0  0  0  0  0  0  0  0  0  0
    6.0662  -14.2690    5.7219 C   0  0  0  0  0  0  0  0  0  0  0  0
    5.5757  -13.4333    4.1863 S   0  0  2  0  0  0  0  0  0  0  0  0
    4.9398  -11.8653    4.8440 C   0  0  0  0  0  0  0  0  0  0  0  0
    4.0719  -14.2443    3.6200 C   0  0  0  0  0  0  0  0  0  0  0  0
    4.3065  -15.7420    3.5707 C   0  0  1  0  0  0  0  0  0  0  0  0
    3.9223  -16.3929    4.7720 O   0  0  0  0  0  0  0  0  0  0  0  0
    3.5281  -16.3862    2.4495 C   0  0  1  0  0  0  0  0  0  0  0  0
    4.2309  -16.3141    1.2423 O   0  0  0  0  0  0  0  0  0  0  0  0
    3.4115  -17.7942    2.9484 C   0  0  1  0  0  0  0  0  0  0  0  0
    4.5530  -18.5261    2.5437 O   0  0  0  0  0  0  0  0  0  0  0  0
    3.3776  -17.6554    4.4649 C   0  0  2  0  0  0  0  0  0  0  0  0
    6.5036  -16.3124    7.8675 O   0  0  0  0  0  0  0  0  0  0  0  0
   -0.4675  -15.5039    7.3711 N   0  0  0  0  0  0  0  0  0  0  0  0
    0.7958  -14.9901    7.1164 C   0  0  0  0  0  0  0  0  0  0  0  0
    1.7070  -15.6914    6.3358 N   0  0  0  0  0  0  0  0  0  0  0  0
    1.3474  -16.8752    5.8071 C   0  0  0  0  0  0  0  0  0  0  0  0
    0.0722  -17.3960    6.0441 C   0  0  0  0  0  0  0  0  0  0  0  0
   -0.8370  -16.7193    6.8362 C   0  0  0  0  0  0  0  0  0  0  0  0
   -2.0406  -17.2222    7.0668 N   0  0  0  0  0  0  0  0  0  0  0  0
   -0.0270  -18.5630    5.3980 N   0  0  0  0  0  0  0  0  0  0  0  0
    1.1417  -18.7931    4.7599 C   0  0  0  0  0  0  0  0  0  0  0  0
    2.0058  -17.7534    4.9984 N   0  0  0  0  0  0  0  0  0  0  0  0
  2  1  1  1  0  0  0
  2  3  1  0  0  0  0
  2  5  1  0  0  0  0
  3  4  1  0  0  0  0
  3 17  1  0  0  0  0
  5  6  1  0  0  0  0
  7  6  1  1  0  0  0
  7  8  1  0  0  0  0
  7  9  1  0  0  0  0
 10  9  1  1  0  0  0
 10 11  1  0  0  0  0
 10 12  1  0  0  0  0
 11 16  1  0  0  0  0
 12 13  1  6  0  0  0
 12 14  1  0  0  0  0
 14 15  1  1  0  0  0
 14 16  1  0  0  0  0
 16 27  1  6  0  0  0
 18 19  2  0  0  0  0
 18 23  1  0  0  0  0
 19 20  1  0  0  0  0
 20 21  2  0  0  0  0
 21 22  1  0  0  0  0
 21 27  1  0  0  0  0
 22 23  2  0  0  0  0
 22 25  1  0  0  0  0
 23 24  1  0  0  0  0
 25 26  2  0  0  0  0
 26 27  1  0  0  0  0
M  END
>  <CHROM.1>
86.07669699,170.59821752,114.91669800,36.44754877,-51.72338861,92.72291705
-7.39706806,3.23122733,-16.02478801,5.39050451,-0.02852237,0.52113651,1.13693285

>  <Name>
ligand

>  <RI>
0

>  <Rbt.Current_Directory>
/home/itssahil/PROJECTS/Mol_Feturizer/Test_systems_manuscript/rnas/2ydh

>  <Rbt.Executable>
rbdock ($Id: //depot/dev/client3/rdock/2013.1/src/exe/rbdock.cxx#4 $)

>  <Rbt.Library>
libRbt.so (2013.1, Build901 2013/11/27)

>  <Rbt.Parameter_File>
/export/apps/rDock/src/rDock_2013.1_src/data/scripts/dock_solv.prm

>  <Rbt.Receptor>
prm/blind_docking_20.prm

>  <SCORE>
0.733703

>  <SCORE.INTER>
-5.32869

>  <SCORE.INTER.CONST>
1

>  <SCORE.INTER.POLAR>
0

>  <SCORE.INTER.ROT>
7

>  <SCORE.INTER.SOLV>
11.8519

>  <SCORE.INTER.VDW>
-15.7698

>  <SCORE.INTER.norm>
-0.197359

>  <SCORE.INTRA>
4.2294

>  <SCORE.INTRA.DIHEDRAL>
3.55248

>  <SCORE.INTRA.DIHEDRAL.0>
9.75037

>  <SCORE.INTRA.POLAR>
0

>  <SCORE.INTRA.POLAR.0>
0

>  <SCORE.INTRA.REPUL>
0

>  <SCORE.INTRA.REPUL.0>
0

>  <SCORE.INTRA.SOLV>
0.00454942

>  <SCORE.INTRA.SOLV.lig_0>
-48.4279

>  <SCORE.INTRA.VDW>
2.45089

>  <SCORE.INTRA.VDW.0>
-4.69037

>  <SCORE.INTRA.norm>
0.156644

>  <SCORE.RESTR>
1.833

>  <SCORE.RESTR.CAVITY>
1.833

>  <SCORE.RESTR.norm>
0.0678888

>  <SCORE.SYSTEM>
0

>  <SCORE.SYSTEM.CONST>
0

>  <SCORE.SYSTEM.DIHEDRAL>
0

>  <SCORE.SYSTEM.SOLV>
0

>  <SCORE.SYSTEM.norm>
0

>  <SCORE.heavy>
27

>  <SCORE.norm>
0.0271742

>  <RMSD>
16.786

$$$$
ligand
 OpenBabel02271912153D
libRbt.so/2013.1/901 2013/11/27
 27 29  0  0  0  0  0  0  0  0999 V2000
    5.0542  -16.9474    7.5408 N   0  0  0  0  0  0  0  0  0  0  0  0
    5.5717  -15.6070    7.9560 C   0  0  2  0  0  0  0  0  0  0  0  0
    4.5203  -14.8383    8.7869 C   0  0  0  0  0  0  0  0  0  0  0  0
    3.8346  -15.4136    9.6375 O   0  0  0  0  0  0  0  0  0  0  0  0
    6.0079  -14.8268    6.7205 C   0  0  0  0  0  0  0  0  0  0  0  0
    4.8631  -14.2949    5.8745 C   0  0  0  0  0  0  0  0  0  0  0  0
    5.3691  -13.8244    4.1953 S   0  0  2  0  0  0  0  0  0  0  0  0
    4.9940  -12.0483    4.2153 C   0  0  0  0  0  0  0  0  0  0  0  0
    4.1082  -14.4655    3.0822 C   0  0  0  0  0  0  0  0  0  0  0  0
    4.2189  -15.9772    3.0281 C   0  0  1  0  0  0  0  0  0  0  0  0
    4.0121  -16.5837    4.2944 O   0  0  0  0  0  0  0  0  0  0  0  0
    3.2048  -16.5715    2.0814 C   0  0  1  0  0  0  0  0  0  0  0  0
    3.6804  -16.5665    0.7659 O   0  0  0  0  0  0  0  0  0  0  0  0
    3.0771  -17.9610    2.6273 C   0  0  1  0  0  0  0  0  0  0  0  0
    4.0692  -18.7828    2.0418 O   0  0  0  0  0  0  0  0  0  0  0  0
    3.3291  -17.8038    4.1213 C   0  0  2  0  0  0  0  0  0  0  0  0
    4.3138  -13.6201    8.6360 O   0  0  0  0  0  0  0  0  0  0  0  0
   -0.7139  -15.0184    6.0590 N   0  0  0  0  0  0  0  0  0  0  0  0
    0.3504  -14.5569    5.2981 C   0  0  0  0  0  0  0  0  0  0  0  0
    1.3513  -15.4222    4.8727 N   0  0  0  0  0  0  0  0  0  0  0  0
    1.2722  -16.7273    5.1901 C   0  0  0  0  0  0  0  0  0  0  0  0
    0.1969  -17.2068    5.9433 C   0  0  0  0  0  0  0  0  0  0  0  0
   -0.7948  -16.3537    6.3913 C   0  0  0  0  0  0  0  0  0  0  0  0
   -1.8062  -16.8110    7.1141 N   0  0  0  0  0  0  0  0  0  0  0  0
    0.3555  -18.5254    6.1019 N   0  0  0  0  0  0  0  0  0  0  0  0
    1.4929  -18.8928    5.4714 C   0  0  0  0  0  0  0  0  0  0  0  0
    2.0734  -17.7903    4.8953 N   0  0  0  0  0  0  0  0  0  0  0  0
  2  1  1  6  0  0  0
  2  3  1  0  0  0  0
  2  5  1  0  0  0  0
  3  4  1  0  0  0  0
  3 17  1  0  0  0  0
  5  6  1  0  0  0  0
  7  6  1  1  0  0  0
  7  8  1  0  0  0  0
  7  9  1  0  0  0  0
 10  9  1  1  0  0  0
 10 11  1  0  0  0  0
 10 12  1  0  0  0  0
 11 16  1  0  0  0  0
 12 13  1  6  0  0  0
 12 14  1  0  0  0  0
 14 15  1  6  0  0  0
 14 16  1  0  0  0  0
 16 27  1  1  0  0  0
 18 19  2  0  0  0  0
 18 23  1  0  0  0  0
 19 20  1  0  0  0  0
 20 21  2  0  0  0  0
 21 22  1  0  0  0  0
 21 27  1  0  0  0  0
 22 23  2  0  0  0  0
 22 25  1  0  0  0  0
 23 24  1  0  0  0  0
 25 26  2  0  0  0  0
 26 27  1  0  0  0  0
M  END
>  <CHROM.1>
40.85571869,73.79504642,-162.59586603,-117.62614244,-70.82809452,61.06111920
31.55807017,3.07767134,-15.92218247,5.22457182,0.33899214,0.50183115,1.23610405

>  <Name>
ligand

>  <RI>
0

>  <Rbt.Current_Directory>
/home/itssahil/PROJECTS/Mol_Feturizer/Test_systems_manuscript/rnas/2ydh

>  <Rbt.Executable>
rbdock ($Id: //depot/dev/client3/rdock/2013.1/src/exe/rbdock.cxx#4 $)

>  <Rbt.Library>
libRbt.so (2013.1, Build901 2013/11/27)

>  <Rbt.Parameter_File>
/export/apps/rDock/src/rDock_2013.1_src/data/scripts/dock_solv.prm

>  <Rbt.Receptor>
prm/blind_docking_20.prm

>  <SCORE>
-4.61973

>  <SCORE.INTER>
-7.85629

>  <SCORE.INTER.CONST>
1

>  <SCORE.INTER.POLAR>
0

>  <SCORE.INTER.ROT>
7

>  <SCORE.INTER.SOLV>
12.0119

>  <SCORE.INTER.VDW>
-17.5082

>  <SCORE.INTER.norm>
-0.290974

>  <SCORE.INTRA>
1.43015

>  <SCORE.INTRA.DIHEDRAL>
-0.674245

>  <SCORE.INTRA.DIHEDRAL.0>
9.75037

>  <SCORE.INTRA.POLAR>
0

>  <SCORE.INTRA.POLAR.0>
0

>  <SCORE.INTRA.REPUL>
0

>  <SCORE.INTRA.REPUL.0>
0

>  <SCORE.INTRA.SOLV>
0.361963

>  <SCORE.INTRA.SOLV.lig_0>
-48.4279

>  <SCORE.INTRA.VDW>
1.58629

>  <SCORE.INTRA.VDW.0>
-4.69037

>  <SCORE.INTRA.norm>
0.0529684

>  <SCORE.RESTR>
1.8064

>  <SCORE.RESTR.CAVITY>
1.8064

>  <SCORE.RESTR.norm>
0.0669039

>  <SCORE.SYSTEM>
0

>  <SCORE.SYSTEM.CONST>
0

>  <SCORE.SYSTEM.DIHEDRAL>
0

>  <SCORE.SYSTEM.SOLV>
0

>  <SCORE.SYSTEM.norm>
0

>  <SCORE.heavy>
27

>  <SCORE.norm>
-0.171101

>  <RMSD>
16.801

$$$$
ligand
 OpenBabel02271912153D
libRbt.so/2013.1/901 2013/11/27
 27 29  0  0  0  0  0  0  0  0999 V2000
    3.0273  -16.5251    6.9865 N   0  0  0  0  0  0  0  0  0  0  0  0
    3.0729  -15.4911    8.0661 C   0  0  2  0  0  0  0  0  0  0  0  0
    1.8191  -14.5894    8.0255 C   0  0  0  0  0  0  0  0  0  0  0  0
    1.6740  -13.7381    7.1429 O   0  0  0  0  0  0  0  0  0  0  0  0
    4.3621  -14.6858    7.9429 C   0  0  0  0  0  0  0  0  0  0  0  0
    4.8844  -14.5458    6.5228 C   0  0  0  0  0  0  0  0  0  0  0  0
    5.4819  -16.1096    5.8196 S   0  0  2  0  0  0  0  0  0  0  0  0
    6.9128  -16.4349    6.8883 C   0  0  0  0  0  0  0  0  0  0  0  0
    6.2653  -15.6997    4.2518 C   0  0  0  0  0  0  0  0  0  0  0  0
    5.2509  -15.8599    3.1355 C   0  0  1  0  0  0  0  0  0  0  0  0
    4.5605  -17.0981    3.2012 O   0  0  0  0  0  0  0  0  0  0  0  0
    4.2088  -14.7690    3.1758 C   0  0  1  0  0  0  0  0  0  0  0  0
    4.6518  -13.6244    2.5048 O   0  0  0  0  0  0  0  0  0  0  0  0
    3.0679  -15.4307    2.4648 C   0  0  1  0  0  0  0  0  0  0  0  0
    3.2023  -15.2174    1.0724 O   0  0  0  0  0  0  0  0  0  0  0  0
    3.2247  -16.9095    2.7949 C   0  0  2  0  0  0  0  0  0  0  0  0
    0.9109  -14.6738    8.8724 O   0  0  0  0  0  0  0  0  0  0  0  0
   -0.8095  -15.7186    5.9832 N   0  0  0  0  0  0  0  0  0  0  0  0
   -0.2223  -14.9146    5.0171 C   0  0  0  0  0  0  0  0  0  0  0  0
    0.8511  -15.3737    4.2632 N   0  0  0  0  0  0  0  0  0  0  0  0
    1.3108  -16.6221    4.4641 C   0  0  0  0  0  0  0  0  0  0  0  0
    0.7176  -17.4469    5.4240 C   0  0  0  0  0  0  0  0  0  0  0  0
   -0.3371  -16.9958    6.1961 C   0  0  0  0  0  0  0  0  0  0  0  0
   -0.8889  -17.7774    7.1121 N   0  0  0  0  0  0  0  0  0  0  0  0
    1.3510  -18.6249    5.4088 N   0  0  0  0  0  0  0  0  0  0  0  0
    2.3211  -18.5706    4.4696 C   0  0  0  0  0  0  0  0  0  0  0  0
    2.3083  -17.3362    3.8692 N   0  0  0  0  0  0  0  0  0  0  0  0
  2  1  1  6  0  0  0
  2  3  1  0  0  0  0
  2  5  1  0  0  0  0
  3  4  1  0  0  0  0
  3 17  1  0  0  0  0
  5  6  1  0  0  0  0
  7  6  1  1  0  0  0
  7  8  1  0  0  0  0
  7  9  1  0  0  0  0
 10  9  1  1  0  0  0
 10 11  1  0  0  0  0
 10 12  1  0  0  0  0
 11 16  1  0  0  0  0
 12 13  1  6  0  0  0
 12 14  1  0  0  0  0
 14 15  1  6  0  0  0
 14 16  1  0  0  0  0
 16 27  1  1  0  0  0
 18 19  2  0  0  0  0
 18 23  1  0  0  0  0
 19 20  1  0  0  0  0
 20 21  2  0  0  0  0
 21 22  1  0  0  0  0
 21 27  1  0  0  0  0
 22 23  2  0  0  0  0
 22 25  1  0  0  0  0
 23 24  1  0  0  0  0
 25 26  2  0  0  0  0
 26 27  1  0  0  0  0
M  END
>  <CHROM.1>
-73.36414031,30.64194323,-68.26866820,-65.84686454,-93.99834553,-48.75180406
125.36695421,2.89848124,-15.92141672,5.24497851,-2.56035695,-0.21109361,-1.74165981

>  <Name>
ligand

>  <RI>
0

>  <Rbt.Current_Directory>
/home/itssahil/PROJECTS/Mol_Feturizer/Test_systems_manuscript/rnas/2ydh

>  <Rbt.Executable>
rbdock ($Id: //depot/dev/client3/rdock/2013.1/src/exe/rbdock.cxx#4 $)

>  <Rbt.Library>
libRbt.so (2013.1, Build901 2013/11/27)

>  <Rbt.Parameter_File>
/export/apps/rDock/src/rDock_2013.1_src/data/scripts/dock_solv.prm

>  <Rbt.Receptor>
prm/blind_docking_20.prm

>  <SCORE>
-1.8682

>  <SCORE.INTER>
-5.13097

>  <SCORE.INTER.CONST>
1

>  <SCORE.INTER.POLAR>
0

>  <SCORE.INTER.ROT>
7

>  <SCORE.INTER.SOLV>
11.0242

>  <SCORE.INTER.VDW>
-15.3621

>  <SCORE.INTER.norm>
-0.190036

>  <SCORE.INTRA>
2.55182

>  <SCORE.INTRA.DIHEDRAL>
-1.3605

>  <SCORE.INTRA.DIHEDRAL.0>
9.75037

>  <SCORE.INTRA.POLAR>
0

>  <SCORE.INTRA.POLAR.0>
0

>  <SCORE.INTRA.REPUL>
0

>  <SCORE.INTRA.REPUL.0>
0

>  <SCORE.INTRA.SOLV>
5.13062

>  <SCORE.INTRA.SOLV.lig_0>
-48.4279

>  <SCORE.INTRA.VDW>
0.666761

>  <SCORE.INTRA.VDW.0>
-4.69037

>  <SCORE.INTRA.norm>
0.0945119

>  <SCORE.RESTR>
0.710943

>  <SCORE.RESTR.CAVITY>
0.710943

>  <SCORE.RESTR.norm>
0.0263312

>  <SCORE.SYSTEM>
0

>  <SCORE.SYSTEM.CONST>
0

>  <SCORE.SYSTEM.DIHEDRAL>
0

>  <SCORE.SYSTEM.SOLV>
0

>  <SCORE.SYSTEM.norm>
0

>  <SCORE.heavy>
27

>  <SCORE.norm>
-0.0691927

>  <RMSD>
16.823

$$$$
ligand
 OpenBabel02271912153D
libRbt.so/2013.1/901 2013/11/27
 27 29  0  0  0  0  0  0  0  0999 V2000
    4.9096  -16.9356    7.5367 N   0  0  0  0  0  0  0  0  0  0  0  0
    5.4942  -15.6205    7.9432 C   0  0  2  0  0  0  0  0  0  0  0  0
    4.4678  -14.7753    8.7298 C   0  0  0  0  0  0  0  0  0  0  0  0
    4.4085  -13.5501    8.5887 O   0  0  0  0  0  0  0  0  0  0  0  0
    6.0101  -14.8911    6.7073 C   0  0  0  0  0  0  0  0  0  0  0  0
    4.9336  -14.1954    5.8909 C   0  0  0  0  0  0  0  0  0  0  0  0
    5.4256  -13.8826    4.1713 S   0  0  2  0  0  0  0  0  0  0  0  0
    5.1764  -12.0873    4.0705 C   0  0  0  0  0  0  0  0  0  0  0  0
    4.0933  -14.5089    3.1356 C   0  0  0  0  0  0  0  0  0  0  0  0
    4.1681  -16.0233    3.0960 C   0  0  1  0  0  0  0  0  0  0  0  0
    3.7917  -16.6192    4.3278 O   0  0  0  0  0  0  0  0  0  0  0  0
    3.2611  -16.5932    2.0328 C   0  0  1  0  0  0  0  0  0  0  0  0
    3.8936  -16.6060    0.7852 O   0  0  0  0  0  0  0  0  0  0  0  0
    3.0296  -17.9767    2.5595 C   0  0  1  0  0  0  0  0  0  0  0  0
    4.0627  -18.8273    2.0997 O   0  0  0  0  0  0  0  0  0  0  0  0
    3.1017  -17.8208    4.0731 C   0  0  2  0  0  0  0  0  0  0  0  0
    3.6667  -15.2823    9.5363 O   0  0  0  0  0  0  0  0  0  0  0  0
   -0.1458  -15.5614    7.5670 N   0  0  0  0  0  0  0  0  0  0  0  0
    1.1763  -15.2366    7.3002 C   0  0  0  0  0  0  0  0  0  0  0  0
    1.9068  -15.9424    6.3517 N   0  0  0  0  0  0  0  0  0  0  0  0
    1.3132  -16.9408    5.6726 C   0  0  0  0  0  0  0  0  0  0  0  0
   -0.0228  -17.2673    5.9218 C   0  0  0  0  0  0  0  0  0  0  0  0
   -0.7552  -16.5876    6.8776 C   0  0  0  0  0  0  0  0  0  0  0  0
   -2.0179  -16.9080    7.1179 N   0  0  0  0  0  0  0  0  0  0  0  0
   -0.3632  -18.2743    5.1099 N   0  0  0  0  0  0  0  0  0  0  0  0
    0.7126  -18.5910    4.3559 C   0  0  0  0  0  0  0  0  0  0  0  0
    1.7618  -17.7703    4.6880 N   0  0  0  0  0  0  0  0  0  0  0  0
  2  1  1  6  0  0  0
  2  3  1  0  0  0  0
  2  5  1  0  0  0  0
  3  4  1  0  0  0  0
  3 17  1  0  0  0  0
  5  6  1  0  0  0  0
  7  6  1  1  0  0  0
  7  8  1  0  0  0  0
  7  9  1  0  0  0  0
 10  9  1  1  0  0  0
 10 11  1  0  0  0  0
 10 12  1  0  0  0  0
 11 16  1  0  0  0  0
 12 13  1  6  0  0  0
 12 14  1  0  0  0  0
 14 15  1  6  0  0  0
 14 16  1  0  0  0  0
 16 27  1  6  0  0  0
 18 19  2  0  0  0  0
 18 23  1  0  0  0  0
 19 20  1  0  0  0  0
 20 21  2  0  0  0  0
 21 22  1  0  0  0  0
 21 27  1  0  0  0  0
 22 23  2  0  0  0  0
 22 25  1  0  0  0  0
 23 24  1  0  0  0  0
 25 26  2  0  0  0  0
 26 27  1  0  0  0  0
M  END
>  <CHROM.1>
-142.86586385,79.37170234,-158.48916437,-124.12927411,-75.52477321,71.15742599
-18.38988826,3.06235332,-15.98600144,5.33265417,0.04800931,0.53128453,1.19845853

>  <Name>
ligand

>  <RI>
0

>  <Rbt.Current_Directory>
/home/itssahil/PROJECTS/Mol_Feturizer/Test_systems_manuscript/rnas/2ydh

>  <Rbt.Executable>
rbdock ($Id: //depot/dev/client3/rdock/2013.1/src/exe/rbdock.cxx#4 $)

>  <Rbt.Library>
libRbt.so (2013.1, Build901 2013/11/27)

>  <Rbt.Parameter_File>
/export/apps/rDock/src/rDock_2013.1_src/data/scripts/dock_solv.prm

>  <Rbt.Receptor>
prm/blind_docking_20.prm

>  <SCORE>
-4.49647

>  <SCORE.INTER>
-8.41673

>  <SCORE.INTER.CONST>
1

>  <SCORE.INTER.POLAR>
0

>  <SCORE.INTER.ROT>
7

>  <SCORE.INTER.SOLV>
12.3534

>  <SCORE.INTER.VDW>
-17.9956

>  <SCORE.INTER.norm>
-0.311731

>  <SCORE.INTRA>
2.52111

>  <SCORE.INTRA.DIHEDRAL>
1.25622

>  <SCORE.INTRA.DIHEDRAL.0>
9.75037

>  <SCORE.INTRA.POLAR>
0

>  <SCORE.INTRA.POLAR.0>
0

>  <SCORE.INTRA.REPUL>
0

>  <SCORE.INTRA.REPUL.0>
0

>  <SCORE.INTRA.SOLV>
0.567452

>  <SCORE.INTRA.SOLV.lig_0>
-48.4279

>  <SCORE.INTRA.VDW>
1.60928

>  <SCORE.INTRA.VDW.0>
-4.69037

>  <SCORE.INTRA.norm>
0.0933746

>  <SCORE.RESTR>
1.39915

>  <SCORE.RESTR.CAVITY>
1.39915

>  <SCORE.RESTR.norm>
0.0518203

>  <SCORE.SYSTEM>
0

>  <SCORE.SYSTEM.CONST>
0

>  <SCORE.SYSTEM.DIHEDRAL>
0

>  <SCORE.SYSTEM.SOLV>
0

>  <SCORE.SYSTEM.norm>
0

>  <SCORE.heavy>
27

>  <SCORE.norm>
-0.166536

>  <RMSD>
16.834

$$$$
ligand
 OpenBabel02271912153D
libRbt.so/2013.1/901 2013/11/27
 27 29  0  0  0  0  0  0  0  0999 V2000
    5.4268  -17.9740    7.4988 N   0  0  0  0  0  0  0  0  0  0  0  0
    4.9639  -16.5914    7.1659 C   0  0  2  0  0  0  0  0  0  0  0  0
    5.9898  -15.8625    6.2698 C   0  0  0  0  0  0  0  0  0  0  0  0
    7.2014  -15.9384    6.4956 O   0  0  0  0  0  0  0  0  0  0  0  0
    4.6833  -15.8264    8.4549 C   0  0  0  0  0  0  0  0  0  0  0  0
    4.1242  -14.4285    8.2490 C   0  0  0  0  0  0  0  0  0  0  0  0
    2.8217  -14.3545    6.9860 S   0  0  2  0  0  0  0  0  0  0  0  0
    2.3370  -12.6090    7.1033 C   0  0  0  0  0  0  0  0  0  0  0  0
    1.3880  -15.1933    7.6794 C   0  0  0  0  0  0  0  0  0  0  0  0
    0.4266  -15.5378    6.5580 C   0  0  1  0  0  0  0  0  0  0  0  0
    0.6649  -14.7771    5.3839 O   0  0  0  0  0  0  0  0  0  0  0  0
    0.5283  -16.9931    6.1711 C   0  0  1  0  0  0  0  0  0  0  0  0
   -0.2703  -17.7908    6.9972 O   0  0  0  0  0  0  0  0  0  0  0  0
    0.0181  -16.9556    4.7629 C   0  0  1  0  0  0  0  0  0  0  0  0
   -1.3911  -17.0829    4.7761 O   0  0  0  0  0  0  0  0  0  0  0  0
    0.4241  -15.5795    4.2512 C   0  0  2  0  0  0  0  0  0  0  0  0
    5.6475  -15.1692    5.2944 O   0  0  0  0  0  0  0  0  0  0  0  0
    4.4381  -18.4390    2.3616 N   0  0  0  0  0  0  0  0  0  0  0  0
    3.4237  -18.8540    3.2122 C   0  0  0  0  0  0  0  0  0  0  0  0
    2.4391  -17.9684    3.6337 N   0  0  0  0  0  0  0  0  0  0  0  0
    2.4642  -16.6974    3.1929 C   0  0  0  0  0  0  0  0  0  0  0  0
    3.4725  -16.2714    2.3237 C   0  0  0  0  0  0  0  0  0  0  0  0
    4.4704  -17.1360    1.9131 C   0  0  0  0  0  0  0  0  0  0  0  0
    5.4300  -16.7247    1.0979 N   0  0  0  0  0  0  0  0  0  0  0  0
    3.2552  -14.9838    2.0341 N   0  0  0  0  0  0  0  0  0  0  0  0
    2.1425  -14.5855    2.6893 C   0  0  0  0  0  0  0  0  0  0  0  0
    1.6348  -15.6375    3.4104 N   0  0  0  0  0  0  0  0  0  0  0  0
  2  1  1  1  0  0  0
  2  3  1  0  0  0  0
  2  5  1  0  0  0  0
  3  4  1  0  0  0  0
  3 17  1  0  0  0  0
  5  6  1  0  0  0  0
  7  6  1  1  0  0  0
  7  8  1  0  0  0  0
  7  9  1  0  0  0  0
 10  9  1  1  0  0  0
 10 11  1  0  0  0  0
 10 12  1  0  0  0  0
 11 16  1  0  0  0  0
 12 13  1  1  0  0  0
 12 14  1  0  0  0  0
 14 15  1  1  0  0  0
 14 16  1  0  0  0  0
 16 27  1  6  0  0  0
 18 19  2  0  0  0  0
 18 23  1  0  0  0  0
 19 20  1  0  0  0  0
 20 21  2  0  0  0  0
 21 22  1  0  0  0  0
 21 27  1  0  0  0  0
 22 23  2  0  0  0  0
 22 25  1  0  0  0  0
 23 24  1  0  0  0  0
 25 26  2  0  0  0  0
 26 27  1  0  0  0  0
M  END
>  <CHROM.1>
-42.71129113,-176.50589004,44.15680553,176.28831629,-163.05162905,-18.65590296
110.30469320,2.87351545,-16.03925282,5.19596322,-1.80813469,0.01062555,-1.91807951

>  <Name>
ligand

>  <RI>
0

>  <Rbt.Current_Directory>
/home/itssahil/PROJECTS/Mol_Feturizer/Test_systems_manuscript/rnas/2ydh

>  <Rbt.Executable>
rbdock ($Id: //depot/dev/client3/rdock/2013.1/src/exe/rbdock.cxx#4 $)

>  <Rbt.Library>
libRbt.so (2013.1, Build901 2013/11/27)

>  <Rbt.Parameter_File>
/export/apps/rDock/src/rDock_2013.1_src/data/scripts/dock_solv.prm

>  <Rbt.Receptor>
prm/blind_docking_20.prm

>  <SCORE>
-2.58523

>  <SCORE.INTER>
-5.60234

>  <SCORE.INTER.CONST>
1

>  <SCORE.INTER.POLAR>
0

>  <SCORE.INTER.ROT>
7

>  <SCORE.INTER.SOLV>
16.6158

>  <SCORE.INTER.VDW>
-17.5402

>  <SCORE.INTER.norm>
-0.207494

>  <SCORE.INTRA>
0.938026

>  <SCORE.INTRA.DIHEDRAL>
-0.0940384

>  <SCORE.INTRA.DIHEDRAL.0>
9.75037

>  <SCORE.INTRA.POLAR>
0

>  <SCORE.INTRA.POLAR.0>
0

>  <SCORE.INTRA.REPUL>
0

>  <SCORE.INTRA.REPUL.0>
0

>  <SCORE.INTRA.SOLV>
-1.13281

>  <SCORE.INTRA.SOLV.lig_0>
-48.4279

>  <SCORE.INTRA.VDW>
1.55145

>  <SCORE.INTRA.VDW.0>
-4.69037

>  <SCORE.INTRA.norm>
0.0347417

>  <SCORE.RESTR>
2.07908

>  <SCORE.RESTR.CAVITY>
2.07908

>  <SCORE.RESTR.norm>
0.0770031

>  <SCORE.SYSTEM>
0

>  <SCORE.SYSTEM.CONST>
0

>  <SCORE.SYSTEM.DIHEDRAL>
0

>  <SCORE.SYSTEM.SOLV>
0

>  <SCORE.SYSTEM.norm>
0

>  <SCORE.heavy>
27

>  <SCORE.norm>
-0.0957494

>  <RMSD>
16.839

$$$$
ligand
 OpenBabel02271912153D
libRbt.so/2013.1/901 2013/11/27
 27 29  0  0  0  0  0  0  0  0999 V2000
    5.8037    3.7863   20.7671 N   0  0  0  0  0  0  0  0  0  0  0  0
    6.5807    4.8173   20.0122 C   0  0  2  0  0  0  0  0  0  0  0  0
    5.6701    5.5956   19.0366 C   0  0  0  0  0  0  0  0  0  0  0  0
    5.2513    5.0720   17.9998 O   0  0  0  0  0  0  0  0  0  0  0  0
    7.7487    4.1480   19.2955 C   0  0  0  0  0  0  0  0  0  0  0  0
    7.3449    3.0709   18.3026 C   0  0  0  0  0  0  0  0  0  0  0  0
    8.3812    1.5828   18.3960 S   0  0  2  0  0  0  0  0  0  0  0  0
    7.8749    0.7236   16.8791 C   0  0  0  0  0  0  0  0  0  0  0  0
    7.6665    0.5411   19.6782 C   0  0  0  0  0  0  0  0  0  0  0  0
    8.6722   -0.5261   20.0657 C   0  0  1  0  0  0  0  0  0  0  0  0
    9.8993    0.0223   20.5215 O   0  0  0  0  0  0  0  0  0  0  0  0
    8.1435   -1.4079   21.1706 C   0  0  1  0  0  0  0  0  0  0  0  0
    7.3579   -2.4443   20.6555 O   0  0  0  0  0  0  0  0  0  0  0  0
    9.4184   -1.9153   21.7725 C   0  0  1  0  0  0  0  0  0  0  0  0
    9.8306   -3.0762   21.0764 O   0  0  0  0  0  0  0  0  0  0  0  0
   10.4141   -0.7829   21.5567 C   0  0  2  0  0  0  0  0  0  0  0  0
    5.3248    6.7733   19.2444 O   0  0  0  0  0  0  0  0  0  0  0  0
    8.2281    1.8315   25.5872 N   0  0  0  0  0  0  0  0  0  0  0  0
    7.5837    1.1378   24.5732 C   0  0  0  0  0  0  0  0  0  0  0  0
    8.3078    0.5084   23.5677 N   0  0  0  0  0  0  0  0  0  0  0  0
    9.6520    0.5600   23.5933 C   0  0  0  0  0  0  0  0  0  0  0  0
   10.3129    1.2430   24.6181 C   0  0  0  0  0  0  0  0  0  0  0  0
    9.6049    1.8916   25.6130 C   0  0  0  0  0  0  0  0  0  0  0  0
   10.2355    2.5468   26.5761 N   0  0  0  0  0  0  0  0  0  0  0  0
   11.6296    1.1271   24.4133 N   0  0  0  0  0  0  0  0  0  0  0  0
   11.8201    0.3917   23.2957 C   0  0  0  0  0  0  0  0  0  0  0  0
   10.6034    0.0265   22.7753 N   0  0  0  0  0  0  0  0  0  0  0  0
  2  1  1  6  0  0  0
  2  3  1  0  0  0  0
  2  5  1  0  0  0  0
  3  4  1  0  0  0  0
  3 17  1  0  0  0  0
  5  6  1  0  0  0  0
  7  6  1  6  0  0  0
  7  8  1  0  0  0  0
  7  9  1  0  0  0  0
 10  9  1  1  0  0  0
 10 11  1  0  0  0  0
 10 12  1  0  0  0  0
 11 16  1  0  0  0  0
 12 13  1  6  0  0  0
 12 14  1  0  0  0  0
 14 15  1  6  0  0  0
 14 16  1  0  0  0  0
 16 27  1  1  0  0  0
 18 19  2  0  0  0  0
 18 23  1  0  0  0  0
 19 20  1  0  0  0  0
 20 21  2  0  0  0  0
 21 22  1  0  0  0  0
 21 27  1  0  0  0  0
 22 23  2  0  0  0  0
 22 25  1  0  0  0  0
 23 24  1  0  0  0  0
 25 26  2  0  0  0  0
 26 27  1  0  0  0  0
M  END
>  <CHROM.1>
-73.22321919,59.55884553,-136.72541215,-167.82075380,-165.00874354,57.96654370
70.25377343,8.44256105,1.38847910,21.26998062,2.97784051,1.06089698,-2.25107799

>  <Name>
ligand

>  <RI>
0

>  <Rbt.Current_Directory>
/home/itssahil/PROJECTS/Mol_Feturizer/Test_systems_manuscript/rnas/2ydh

>  <Rbt.Executable>
rbdock ($Id: //depot/dev/client3/rdock/2013.1/src/exe/rbdock.cxx#4 $)

>  <Rbt.Library>
libRbt.so (2013.1, Build901 2013/11/27)

>  <Rbt.Parameter_File>
/export/apps/rDock/src/rDock_2013.1_src/data/scripts/dock_solv.prm

>  <Rbt.Receptor>
prm/blind_docking_60.prm

>  <SCORE>
-10.9813

>  <SCORE.INTER>
-12.9682

>  <SCORE.INTER.CONST>
1

>  <SCORE.INTER.POLAR>
0

>  <SCORE.INTER.ROT>
7

>  <SCORE.INTER.SOLV>
9.01026

>  <SCORE.INTER.VDW>
-19.9155

>  <SCORE.INTER.norm>
-0.480303

>  <SCORE.INTRA>
1.98684

>  <SCORE.INTRA.DIHEDRAL>
0.195454

>  <SCORE.INTRA.DIHEDRAL.0>
9.75037

>  <SCORE.INTRA.POLAR>
0

>  <SCORE.INTRA.POLAR.0>
0

>  <SCORE.INTRA.REPUL>
0

>  <SCORE.INTRA.REPUL.0>
0

>  <SCORE.INTRA.SOLV>
0.0858619

>  <SCORE.INTRA.SOLV.lig_0>
-48.4279

>  <SCORE.INTRA.VDW>
1.84619

>  <SCORE.INTRA.VDW.0>
-4.69037

>  <SCORE.INTRA.norm>
0.0735868

>  <SCORE.RESTR>
0

>  <SCORE.RESTR.CAVITY>
0

>  <SCORE.RESTR.norm>
0

>  <SCORE.SYSTEM>
0

>  <SCORE.SYSTEM.CONST>
0

>  <SCORE.SYSTEM.DIHEDRAL>
0

>  <SCORE.SYSTEM.SOLV>
0

>  <SCORE.SYSTEM.norm>
0

>  <SCORE.heavy>
27

>  <SCORE.norm>
-0.406716

>  <RMSD>
16.864

$$$$
ligand
 OpenBabel02271912153D
libRbt.so/2013.1/901 2013/11/27
 27 29  0  0  0  0  0  0  0  0999 V2000
    7.4845    4.0727   24.4620 N   0  0  0  0  0  0  0  0  0  0  0  0
    6.8154    2.9034   25.1114 C   0  0  2  0  0  0  0  0  0  0  0  0
    6.6638    3.1243   26.6329 C   0  0  0  0  0  0  0  0  0  0  0  0
    7.3891    3.9201   27.2373 O   0  0  0  0  0  0  0  0  0  0  0  0
    7.5939    1.6317   24.7917 C   0  0  0  0  0  0  0  0  0  0  0  0
    9.0189    1.6158   25.3191 C   0  0  0  0  0  0  0  0  0  0  0  0
    9.8664    0.0324   25.0515 S   0  0  2  0  0  0  0  0  0  0  0  0
   11.3972    0.3068   25.9880 C   0  0  0  0  0  0  0  0  0  0  0  0
   10.4549    0.0478   23.3505 C   0  0  0  0  0  0  0  0  0  0  0  0
    9.3812   -0.5334   22.4507 C   0  0  1  0  0  0  0  0  0  0  0  0
    8.2614    0.3278   22.3133 O   0  0  0  0  0  0  0  0  0  0  0  0
    9.9089   -0.7987   21.0618 C   0  0  1  0  0  0  0  0  0  0  0  0
   10.5355   -2.0472   20.9912 O   0  0  0  0  0  0  0  0  0  0  0  0
    8.6449   -0.7583   20.2582 C   0  0  1  0  0  0  0  0  0  0  0  0
    8.0562   -2.0450   20.2539 O   0  0  0  0  0  0  0  0  0  0  0  0
    7.7570    0.2315   21.0014 C   0  0  2  0  0  0  0  0  0  0  0  0
    5.8184    2.5143   27.3130 O   0  0  0  0  0  0  0  0  0  0  0  0
   10.3656    4.6989   19.9545 N   0  0  0  0  0  0  0  0  0  0  0  0
   10.8177    3.5956   20.6638 C   0  0  0  0  0  0  0  0  0  0  0  0
    9.9968    2.4927   20.8667 N   0  0  0  0  0  0  0  0  0  0  0  0
    8.7545    2.4926   20.3501 C   0  0  0  0  0  0  0  0  0  0  0  0
    8.2931    3.5920   19.6207 C   0  0  0  0  0  0  0  0  0  0  0  0
    9.0913    4.7047   19.4291 C   0  0  0  0  0  0  0  0  0  0  0  0
    8.6457    5.7486   18.7464 N   0  0  0  0  0  0  0  0  0  0  0  0
    7.0465    3.3278   19.2143 N   0  0  0  0  0  0  0  0  0  0  0  0
    6.7084    2.0980   19.6608 C   0  0  0  0  0  0  0  0  0  0  0  0
    7.7583    1.5619   20.3641 N   0  0  0  0  0  0  0  0  0  0  0  0
  2  1  1  1  0  0  0
  2  3  1  0  0  0  0
  2  5  1  0  0  0  0
  3  4  1  0  0  0  0
  3 17  1  0  0  0  0
  5  6  1  0  0  0  0
  7  6  1  6  0  0  0
  7  8  1  0  0  0  0
  7  9  1  0  0  0  0
 10  9  1  1  0  0  0
 10 11  1  0  0  0  0
 10 12  1  0  0  0  0
 11 16  1  0  0  0  0
 12 13  1  1  0  0  0
 12 14  1  0  0  0  0
 14 15  1  1  0  0  0
 14 16  1  0  0  0  0
 16 27  1  6  0  0  0
 18 19  2  0  0  0  0
 18 23  1  0  0  0  0
 19 20  1  0  0  0  0
 20 21  2  0  0  0  0
 21 22  1  0  0  0  0
 21 27  1  0  0  0  0
 22 23  2  0  0  0  0
 22 25  1  0  0  0  0
 23 24  1  0  0  0  0
 25 26  2  0  0  0  0
 26 27  1  0  0  0  0
M  END
>  <CHROM.1>
-22.13405684,62.32345148,174.82693924,-172.51844195,-89.90252112,70.85799702
46.23833811,8.67042171,1.66628572,22.52603795,1.91267779,-1.20725868,1.94791535

>  <Name>
ligand

>  <RI>
0

>  <Rbt.Current_Directory>
/home/itssahil/PROJECTS/Mol_Feturizer/Test_systems_manuscript/rnas/2ydh

>  <Rbt.Executable>
rbdock ($Id: //depot/dev/client3/rdock/2013.1/src/exe/rbdock.cxx#4 $)

>  <Rbt.Library>
libRbt.so (2013.1, Build901 2013/11/27)

>  <Rbt.Parameter_File>
/export/apps/rDock/src/rDock_2013.1_src/data/scripts/dock_solv.prm

>  <Rbt.Receptor>
prm/blind_docking_80.prm

>  <SCORE>
-12.8331

>  <SCORE.INTER>
-11.3081

>  <SCORE.INTER.CONST>
1

>  <SCORE.INTER.POLAR>
0

>  <SCORE.INTER.ROT>
7

>  <SCORE.INTER.SOLV>
13.6301

>  <SCORE.INTER.VDW>
-20.3488

>  <SCORE.INTER.norm>
-0.418819

>  <SCORE.INTRA>
-1.52502

>  <SCORE.INTRA.DIHEDRAL>
-4.23174

>  <SCORE.INTRA.DIHEDRAL.0>
9.75037

>  <SCORE.INTRA.POLAR>
0

>  <SCORE.INTRA.POLAR.0>
0

>  <SCORE.INTRA.REPUL>
0

>  <SCORE.INTRA.REPUL.0>
0

>  <SCORE.INTRA.SOLV>
-0.64394

>  <SCORE.INTRA.SOLV.lig_0>
-48.4279

>  <SCORE.INTRA.VDW>
0.912818

>  <SCORE.INTRA.VDW.0>
-4.69037

>  <SCORE.INTRA.norm>
-0.0564822

>  <SCORE.RESTR>
0

>  <SCORE.RESTR.CAVITY>
0

>  <SCORE.RESTR.norm>
0

>  <SCORE.SYSTEM>
0

>  <SCORE.SYSTEM.CONST>
0

>  <SCORE.SYSTEM.DIHEDRAL>
0

>  <SCORE.SYSTEM.SOLV>
0

>  <SCORE.SYSTEM.norm>
0

>  <SCORE.heavy>
27

>  <SCORE.norm>
-0.475302

>  <RMSD>
16.882

$$$$
ligand
 OpenBabel02271912153D
libRbt.so/2013.1/901 2013/11/27
 27 29  0  0  0  0  0  0  0  0999 V2000
    9.4392    3.4337   26.0255 N   0  0  0  0  0  0  0  0  0  0  0  0
    8.7693    2.5569   25.0160 C   0  0  2  0  0  0  0  0  0  0  0  0
    7.3901    2.0795   25.5225 C   0  0  0  0  0  0  0  0  0  0  0  0
    7.0629    2.2154   26.7053 O   0  0  0  0  0  0  0  0  0  0  0  0
    9.6876    1.3899   24.6689 C   0  0  0  0  0  0  0  0  0  0  0  0
    9.4724    0.8100   23.2809 C   0  0  0  0  0  0  0  0  0  0  0  0
   10.5602    1.5371   22.0219 S   0  0  2  0  0  0  0  0  0  0  0  0
   12.1581    1.4767   22.8813 C   0  0  0  0  0  0  0  0  0  0  0  0
   10.2086    3.3023   21.9992 C   0  0  0  0  0  0  0  0  0  0  0  0
    9.0490    3.5633   21.0570 C   0  0  1  0  0  0  0  0  0  0  0  0
    9.1013    2.7538   19.8924 O   0  0  0  0  0  0  0  0  0  0  0  0
    7.7230    3.2930   21.7252 C   0  0  1  0  0  0  0  0  0  0  0  0
    7.2866    4.4083   22.4478 O   0  0  0  0  0  0  0  0  0  0  0  0
    6.8510    3.0160   20.5387 C   0  0  1  0  0  0  0  0  0  0  0  0
    6.3287    4.2374   20.0512 O   0  0  0  0  0  0  0  0  0  0  0  0
    7.7924    2.3930   19.5160 C   0  0  2  0  0  0  0  0  0  0  0  0
    6.5569    1.5376   24.7731 O   0  0  0  0  0  0  0  0  0  0  0  0
    4.9257   -1.8295   18.1701 N   0  0  0  0  0  0  0  0  0  0  0  0
    4.6068   -0.4915   17.9891 C   0  0  0  0  0  0  0  0  0  0  0  0
    5.4696    0.5114   18.4150 N   0  0  0  0  0  0  0  0  0  0  0  0
    6.6368    0.1742   18.9931 C   0  0  0  0  0  0  0  0  0  0  0  0
    6.9759   -1.1705   19.1671 C   0  0  0  0  0  0  0  0  0  0  0  0
    6.1178   -2.1784   18.7675 C   0  0  0  0  0  0  0  0  0  0  0  0
    6.4388   -3.4512   18.9445 N   0  0  0  0  0  0  0  0  0  0  0  0
    8.1804   -1.2239   19.7463 N   0  0  0  0  0  0  0  0  0  0  0  0
    8.6124    0.0418   19.9401 C   0  0  0  0  0  0  0  0  0  0  0  0
    7.6691    0.9236   19.4742 N   0  0  0  0  0  0  0  0  0  0  0  0
  2  1  1  1  0  0  0
  2  3  1  0  0  0  0
  2  5  1  0  0  0  0
  3  4  1  0  0  0  0
  3 17  1  0  0  0  0
  5  6  1  0  0  0  0
  7  6  1  1  0  0  0
  7  8  1  0  0  0  0
  7  9  1  0  0  0  0
 10  9  1  1  0  0  0
 10 11  1  0  0  0  0
 10 12  1  0  0  0  0
 11 16  1  0  0  0  0
 12 13  1  6  0  0  0
 12 14  1  0  0  0  0
 14 15  1  6  0  0  0
 14 16  1  0  0  0  0
 16 27  1  1  0  0  0
 18 19  2  0  0  0  0
 18 23  1  0  0  0  0
 19 20  1  0  0  0  0
 20 21  2  0  0  0  0
 21 22  1  0  0  0  0
 21 27  1  0  0  0  0
 22 23  2  0  0  0  0
 22 25  1  0  0  0  0
 23 24  1  0  0  0  0
 25 26  2  0  0  0  0
 26 27  1  0  0  0  0
M  END
>  <CHROM.1>
-13.03279186,-153.17316126,93.29708440,46.78950743,-86.77088379,-38.72558823
-170.56868294,7.97274048,1.38992928,21.50436047,0.01479474,1.17398147,2.58291120

>  <Name>
ligand

>  <RI>
0

>  <Rbt.Current_Directory>
/home/itssahil/PROJECTS/Mol_Feturizer/Test_systems_manuscript/rnas/2ydh

>  <Rbt.Executable>
rbdock ($Id: //depot/dev/client3/rdock/2013.1/src/exe/rbdock.cxx#4 $)

>  <Rbt.Library>
libRbt.so (2013.1, Build901 2013/11/27)

>  <Rbt.Parameter_File>
/export/apps/rDock/src/rDock_2013.1_src/data/scripts/dock_solv.prm

>  <Rbt.Receptor>
prm/blind_docking_80.prm

>  <SCORE>
-5.96632

>  <SCORE.INTER>
-7.8795

>  <SCORE.INTER.CONST>
1

>  <SCORE.INTER.POLAR>
0

>  <SCORE.INTER.ROT>
7

>  <SCORE.INTER.SOLV>
3.73303

>  <SCORE.INTER.VDW>
-14.764

>  <SCORE.INTER.norm>
-0.291833

>  <SCORE.INTRA>
1.91318

>  <SCORE.INTRA.DIHEDRAL>
1.51286

>  <SCORE.INTRA.DIHEDRAL.0>
9.75037

>  <SCORE.INTRA.POLAR>
0

>  <SCORE.INTRA.POLAR.0>
0

>  <SCORE.INTRA.REPUL>
0

>  <SCORE.INTRA.REPUL.0>
0

>  <SCORE.INTRA.SOLV>
-0.220401

>  <SCORE.INTRA.SOLV.lig_0>
-48.4279

>  <SCORE.INTRA.VDW>
1.26695

>  <SCORE.INTRA.VDW.0>
-4.69037

>  <SCORE.INTRA.norm>
0.0708586

>  <SCORE.RESTR>
0

>  <SCORE.RESTR.CAVITY>
0

>  <SCORE.RESTR.norm>
0

>  <SCORE.SYSTEM>
0

>  <SCORE.SYSTEM.CONST>
0

>  <SCORE.SYSTEM.DIHEDRAL>
0

>  <SCORE.SYSTEM.SOLV>
0

>  <SCORE.SYSTEM.norm>
0

>  <SCORE.heavy>
27

>  <SCORE.norm>
-0.220975

>  <RMSD>
16.889

$$$$
ligand
 OpenBabel02271912153D
libRbt.so/2013.1/901 2013/11/27
 27 29  0  0  0  0  0  0  0  0999 V2000
    4.4742  -14.8608    9.4106 N   0  0  0  0  0  0  0  0  0  0  0  0
    4.0405  -14.0756    8.2139 C   0  0  2  0  0  0  0  0  0  0  0  0
    2.7562  -14.6701    7.5945 C   0  0  0  0  0  0  0  0  0  0  0  0
    1.7498  -13.9755    7.4237 O   0  0  0  0  0  0  0  0  0  0  0  0
    5.1849  -14.0107    7.2080 C   0  0  0  0  0  0  0  0  0  0  0  0
    5.9146  -15.3269    6.9979 C   0  0  0  0  0  0  0  0  0  0  0  0
    5.1943  -16.3450    5.6782 S   0  0  2  0  0  0  0  0  0  0  0  0
    6.3622  -17.7345    5.6487 C   0  0  0  0  0  0  0  0  0  0  0  0
    5.5618  -15.5081    4.1276 C   0  0  0  0  0  0  0  0  0  0  0  0
    4.7109  -16.1115    3.0265 C   0  0  1  0  0  0  0  0  0  0  0  0
    4.1015  -17.3323    3.4167 O   0  0  0  0  0  0  0  0  0  0  0  0
    3.6020  -15.1761    2.6103 C   0  0  1  0  0  0  0  0  0  0  0  0
    4.0499  -14.2575    1.6552 O   0  0  0  0  0  0  0  0  0  0  0  0
    2.6076  -16.1404    2.0391 C   0  0  1  0  0  0  0  0  0  0  0  0
    2.9038  -16.3580    0.6727 O   0  0  0  0  0  0  0  0  0  0  0  0
    2.8188  -17.4186    2.8403 C   0  0  2  0  0  0  0  0  0  0  0  0
    2.6748  -15.8630    7.2482 O   0  0  0  0  0  0  0  0  0  0  0  0
   -0.8140  -15.1880    5.9525 N   0  0  0  0  0  0  0  0  0  0  0  0
   -0.0183  -14.5727    4.9970 C   0  0  0  0  0  0  0  0  0  0  0  0
    0.9091  -15.3030    4.2634 N   0  0  0  0  0  0  0  0  0  0  0  0
    1.0193  -16.6273    4.4735 C   0  0  0  0  0  0  0  0  0  0  0  0
    0.2124  -17.2611    5.4227 C   0  0  0  0  0  0  0  0  0  0  0  0
   -0.6994  -16.5435    6.1747 C   0  0  0  0  0  0  0  0  0  0  0  0
   -1.4541  -17.1467    7.0808 N   0  0  0  0  0  0  0  0  0  0  0  0
    0.5126  -18.5645    5.4198 N   0  0  0  0  0  0  0  0  0  0  0  0
    1.4792  -18.7733    4.4988 C   0  0  0  0  0  0  0  0  0  0  0  0
    1.8033  -17.5826    3.8976 N   0  0  0  0  0  0  0  0  0  0  0  0
  2  1  1  1  0  0  0
  2  3  1  0  0  0  0
  2  5  1  0  0  0  0
  3  4  1  0  0  0  0
  3 17  1  0  0  0  0
  5  6  1  0  0  0  0
  7  6  1  1  0  0  0
  7  8  1  0  0  0  0
  7  9  1  0  0  0  0
 10  9  1  1  0  0  0
 10 11  1  0  0  0  0
 10 12  1  0  0  0  0
 11 16  1  0  0  0  0
 12 13  1  6  0  0  0
 12 14  1  0  0  0  0
 14 15  1  6  0  0  0
 14 16  1  0  0  0  0
 16 27  1  1  0  0  0
 18 19  2  0  0  0  0
 18 23  1  0  0  0  0
 19 20  1  0  0  0  0
 20 21  2  0  0  0  0
 21 22  1  0  0  0  0
 21 27  1  0  0  0  0
 22 23  2  0  0  0  0
 22 25  1  0  0  0  0
 23 24  1  0  0  0  0
 25 26  2  0  0  0  0
 26 27  1  0  0  0  0
M  END
>  <CHROM.1>
124.85609228,43.61330329,89.57383411,176.44356621,-166.29277432,-13.35751534
97.52248962,2.83867945,-16.02536476,5.11693670,0.20905326,0.17202102,1.31580173

>  <Name>
ligand

>  <RI>
0

>  <Rbt.Current_Directory>
/home/itssahil/PROJECTS/Mol_Feturizer/Test_systems_manuscript/rnas/2ydh

>  <Rbt.Executable>
rbdock ($Id: //depot/dev/client3/rdock/2013.1/src/exe/rbdock.cxx#4 $)

>  <Rbt.Library>
libRbt.so (2013.1, Build901 2013/11/27)

>  <Rbt.Parameter_File>
/export/apps/rDock/src/rDock_2013.1_src/data/scripts/dock_solv.prm

>  <Rbt.Receptor>
prm/blind_docking_20.prm

>  <SCORE>
-0.895864

>  <SCORE.INTER>
-3.89642

>  <SCORE.INTER.CONST>
1

>  <SCORE.INTER.POLAR>
0

>  <SCORE.INTER.ROT>
7

>  <SCORE.INTER.SOLV>
17.835

>  <SCORE.INTER.VDW>
-16.8093

>  <SCORE.INTER.norm>
-0.144312

>  <SCORE.INTRA>
1.98244

>  <SCORE.INTRA.DIHEDRAL>
2.89818

>  <SCORE.INTRA.DIHEDRAL.0>
9.75037

>  <SCORE.INTRA.POLAR>
0

>  <SCORE.INTRA.POLAR.0>
0

>  <SCORE.INTRA.REPUL>
0

>  <SCORE.INTRA.REPUL.0>
0

>  <SCORE.INTRA.SOLV>
-0.072578

>  <SCORE.INTRA.SOLV.lig_0>
-48.4279

>  <SCORE.INTRA.VDW>
0.569632

>  <SCORE.INTRA.VDW.0>
-4.69037

>  <SCORE.INTRA.norm>
0.0734235

>  <SCORE.RESTR>
1.01812

>  <SCORE.RESTR.CAVITY>
1.01812

>  <SCORE.RESTR.norm>
0.037708

>  <SCORE.SYSTEM>
0

>  <SCORE.SYSTEM.CONST>
0

>  <SCORE.SYSTEM.DIHEDRAL>
0

>  <SCORE.SYSTEM.SOLV>
0

>  <SCORE.SYSTEM.norm>
0

>  <SCORE.heavy>
27

>  <SCORE.norm>
-0.0331801

>  <RMSD>
16.892

$$$$
ligand
 OpenBabel02271912153D
libRbt.so/2013.1/901 2013/11/27
 27 29  0  0  0  0  0  0  0  0999 V2000
    7.8411    4.2431   24.2886 N   0  0  0  0  0  0  0  0  0  0  0  0
    8.1447    2.9759   25.0225 C   0  0  2  0  0  0  0  0  0  0  0  0
    7.5134    2.9853   26.4325 C   0  0  0  0  0  0  0  0  0  0  0  0
    7.7904    3.8686   27.2495 O   0  0  0  0  0  0  0  0  0  0  0  0
    9.6546    2.7677   25.0721 C   0  0  0  0  0  0  0  0  0  0  0  0
   10.0876    1.4287   25.6454 C   0  0  0  0  0  0  0  0  0  0  0  0
    9.3263    0.0087   24.8080 S   0  0  2  0  0  0  0  0  0  0  0  0
   10.2013   -1.3647   25.6104 C   0  0  0  0  0  0  0  0  0  0  0  0
   10.0079   -0.0292   23.1425 C   0  0  0  0  0  0  0  0  0  0  0  0
    9.0925   -0.8477   22.2523 C   0  0  1  0  0  0  0  0  0  0  0  0
    7.8853   -0.1689   21.9422 O   0  0  0  0  0  0  0  0  0  0  0  0
    9.7579   -1.1892   20.9414 C   0  0  1  0  0  0  0  0  0  0  0  0
   10.5441   -2.3399   21.0604 O   0  0  0  0  0  0  0  0  0  0  0  0
    8.5666   -1.4114   20.0601 C   0  0  1  0  0  0  0  0  0  0  0  0
    8.1512   -2.7593   20.1724 O   0  0  0  0  0  0  0  0  0  0  0  0
    7.5026   -0.4772   20.6218 C   0  0  2  0  0  0  0  0  0  0  0  0
    6.7105    2.1113   26.8082 O   0  0  0  0  0  0  0  0  0  0  0  0
    5.7650    4.4976   20.3212 N   0  0  0  0  0  0  0  0  0  0  0  0
    5.6404    3.6154   21.3846 C   0  0  0  0  0  0  0  0  0  0  0  0
    6.1440    2.3228   21.3019 N   0  0  0  0  0  0  0  0  0  0  0  0
    6.7765    1.9330   20.1802 C   0  0  0  0  0  0  0  0  0  0  0  0
    6.9216    2.8177   19.1079 C   0  0  0  0  0  0  0  0  0  0  0  0
    6.4068    4.0997   19.1682 C   0  0  0  0  0  0  0  0  0  0  0  0
    6.5373    4.9309   18.1451 N   0  0  0  0  0  0  0  0  0  0  0  0
    7.5923    2.1879   18.1370 N   0  0  0  0  0  0  0  0  0  0  0  0
    7.8770    0.9375   18.5630 C   0  0  0  0  0  0  0  0  0  0  0  0
    7.3824    0.7625   19.8316 N   0  0  0  0  0  0  0  0  0  0  0  0
  2  1  1  1  0  0  0
  2  3  1  0  0  0  0
  2  5  1  0  0  0  0
  3  4  1  0  0  0  0
  3 17  1  0  0  0  0
  5  6  1  0  0  0  0
  7  6  1  1  0  0  0
  7  8  1  0  0  0  0
  7  9  1  0  0  0  0
 10  9  1  1  0  0  0
 10 11  1  0  0  0  0
 10 12  1  0  0  0  0
 11 16  1  0  0  0  0
 12 13  1  1  0  0  0
 12 14  1  0  0  0  0
 14 15  1  1  0  0  0
 14 16  1  0  0  0  0
 16 27  1  6  0  0  0
 18 19  2  0  0  0  0
 18 23  1  0  0  0  0
 19 20  1  0  0  0  0
 20 21  2  0  0  0  0
 21 22  1  0  0  0  0
 21 27  1  0  0  0  0
 22 23  2  0  0  0  0
 22 25  1  0  0  0  0
 23 24  1  0  0  0  0
 25 26  2  0  0  0  0
 26 27  1  0  0  0  0
M  END
>  <CHROM.1>
-58.13420487,-172.96778142,54.32049020,173.85933813,-160.25152710,73.01950256
-45.35239906,8.09387714,1.27937514,22.33348466,1.06272125,-1.06675018,1.15115141

>  <Name>
ligand

>  <RI>
0

>  <Rbt.Current_Directory>
/home/itssahil/PROJECTS/Mol_Feturizer/Test_systems_manuscript/rnas/2ydh

>  <Rbt.Executable>
rbdock ($Id: //depot/dev/client3/rdock/2013.1/src/exe/rbdock.cxx#4 $)

>  <Rbt.Library>
libRbt.so (2013.1, Build901 2013/11/27)

>  <Rbt.Parameter_File>
/export/apps/rDock/src/rDock_2013.1_src/data/scripts/dock_solv.prm

>  <Rbt.Receptor>
prm/blind_docking_100.prm

>  <SCORE>
-9.6124

>  <SCORE.INTER>
-8.74832

>  <SCORE.INTER.CONST>
1

>  <SCORE.INTER.POLAR>
0

>  <SCORE.INTER.ROT>
7

>  <SCORE.INTER.SOLV>
10.6709

>  <SCORE.INTER.VDW>
-17.6559

>  <SCORE.INTER.norm>
-0.324012

>  <SCORE.INTRA>
-0.874448

>  <SCORE.INTRA.DIHEDRAL>
-3.96293

>  <SCORE.INTRA.DIHEDRAL.0>
9.75037

>  <SCORE.INTRA.POLAR>
0

>  <SCORE.INTRA.POLAR.0>
0

>  <SCORE.INTRA.REPUL>
0

>  <SCORE.INTRA.REPUL.0>
0

>  <SCORE.INTRA.SOLV>
-1.18555

>  <SCORE.INTRA.SOLV.lig_0>
-48.4279

>  <SCORE.INTRA.VDW>
1.69979

>  <SCORE.INTRA.VDW.0>
-4.69037

>  <SCORE.INTRA.norm>
-0.0323869

>  <SCORE.RESTR>
0.0103738

>  <SCORE.RESTR.CAVITY>
0.0103738

>  <SCORE.RESTR.norm>
0.000384216

>  <SCORE.SYSTEM>
0

>  <SCORE.SYSTEM.CONST>
0

>  <SCORE.SYSTEM.DIHEDRAL>
0

>  <SCORE.SYSTEM.SOLV>
0

>  <SCORE.SYSTEM.norm>
0

>  <SCORE.heavy>
27

>  <SCORE.norm>
-0.356015

>  <RMSD>
16.896

$$$$
ligand
 OpenBabel02271912153D
libRbt.so/2013.1/901 2013/11/27
 27 29  0  0  0  0  0  0  0  0999 V2000
    4.7854  -15.3465    8.8299 N   0  0  0  0  0  0  0  0  0  0  0  0
    3.9908  -14.1932    8.3054 C   0  0  2  0  0  0  0  0  0  0  0  0
    2.6551  -14.6709    7.6935 C   0  0  0  0  0  0  0  0  0  0  0  0
    2.5066  -15.8379    7.3185 O   0  0  0  0  0  0  0  0  0  0  0  0
    4.8330  -13.4111    7.3032 C   0  0  0  0  0  0  0  0  0  0  0  0
    5.7083  -14.2722    6.4079 C   0  0  0  0  0  0  0  0  0  0  0  0
    4.7665  -15.4676    5.4175 S   0  0  2  0  0  0  0  0  0  0  0  0
    5.1270  -17.0053    6.3125 C   0  0  0  0  0  0  0  0  0  0  0  0
    5.6825  -15.6974    3.8852 C   0  0  0  0  0  0  0  0  0  0  0  0
    4.7420  -16.2329    2.8226 C   0  0  1  0  0  0  0  0  0  0  0  0
    4.1091  -17.4411    3.2148 O   0  0  0  0  0  0  0  0  0  0  0  0
    3.6481  -15.2430    2.5040 C   0  0  1  0  0  0  0  0  0  0  0  0
    4.0730  -14.3128    1.5497 O   0  0  0  0  0  0  0  0  0  0  0  0
    2.5824  -16.1501    1.9686 C   0  0  1  0  0  0  0  0  0  0  0  0
    2.7852  -16.3359    0.5805 O   0  0  0  0  0  0  0  0  0  0  0  0
    2.7910  -17.4600    2.7176 C   0  0  2  0  0  0  0  0  0  0  0  0
    1.6807  -13.9106    7.5466 O   0  0  0  0  0  0  0  0  0  0  0  0
   -0.7594  -15.2378    5.9293 N   0  0  0  0  0  0  0  0  0  0  0  0
   -0.0357  -14.6327    4.9120 C   0  0  0  0  0  0  0  0  0  0  0  0
    0.8795  -15.3582    4.1588 N   0  0  0  0  0  0  0  0  0  0  0  0
    1.0483  -16.6689    4.4114 C   0  0  0  0  0  0  0  0  0  0  0  0
    0.3139  -17.2931    5.4237 C   0  0  0  0  0  0  0  0  0  0  0  0
   -0.5844  -16.5789    6.1950 C   0  0  0  0  0  0  0  0  0  0  0  0
   -1.2701  -17.1725    7.1604 N   0  0  0  0  0  0  0  0  0  0  0  0
    0.6609  -18.5845    5.4532 N   0  0  0  0  0  0  0  0  0  0  0  0
    1.5868  -18.7952    4.4918 C   0  0  0  0  0  0  0  0  0  0  0  0
    1.8366  -17.6180    3.8312 N   0  0  0  0  0  0  0  0  0  0  0  0
  2  1  1  6  0  0  0
  2  3  1  0  0  0  0
  2  5  1  0  0  0  0
  3  4  1  0  0  0  0
  3 17  1  0  0  0  0
  5  6  1  0  0  0  0
  7  6  1  1  0  0  0
  7  8  1  0  0  0  0
  7  9  1  0  0  0  0
 10  9  1  1  0  0  0
 10 11  1  0  0  0  0
 10 12  1  0  0  0  0
 11 16  1  0  0  0  0
 12 13  1  6  0  0  0
 12 14  1  0  0  0  0
 14 15  1  6  0  0  0
 14 16  1  0  0  0  0
 16 27  1  1  0  0  0
 18 19  2  0  0  0  0
 18 23  1  0  0  0  0
 19 20  1  0  0  0  0
 20 21  2  0  0  0  0
 21 22  1  0  0  0  0
 21 27  1  0  0  0  0
 22 23  2  0  0  0  0
 22 25  1  0  0  0  0
 23 24  1  0  0  0  0
 25 26  2  0  0  0  0
 26 27  1  0  0  0  0
M  END
>  <CHROM.1>
-21.30290378,38.20442040,59.05741663,-104.79578372,-158.53871242,-56.76833674
103.34478890,2.75848396,-15.91662842,5.04761984,-1.66377539,-0.32357520,-1.85163802

>  <Name>
ligand

>  <RI>
0

>  <Rbt.Current_Directory>
/home/itssahil/PROJECTS/Mol_Feturizer/Test_systems_manuscript/rnas/2ydh

>  <Rbt.Executable>
rbdock ($Id: //depot/dev/client3/rdock/2013.1/src/exe/rbdock.cxx#4 $)

>  <Rbt.Library>
libRbt.so (2013.1, Build901 2013/11/27)

>  <Rbt.Parameter_File>
/export/apps/rDock/src/rDock_2013.1_src/data/scripts/dock_solv.prm

>  <Rbt.Receptor>
prm/blind_docking_20.prm

>  <SCORE>
-2.7928

>  <SCORE.INTER>
-4.23092

>  <SCORE.INTER.CONST>
1

>  <SCORE.INTER.POLAR>
0

>  <SCORE.INTER.ROT>
7

>  <SCORE.INTER.SOLV>
15.1324

>  <SCORE.INTER.VDW>
-16.1314

>  <SCORE.INTER.norm>
-0.156701

>  <SCORE.INTRA>
0.967181

>  <SCORE.INTRA.DIHEDRAL>
0.246461

>  <SCORE.INTRA.DIHEDRAL.0>
9.75037

>  <SCORE.INTRA.POLAR>
0

>  <SCORE.INTRA.POLAR.0>
0

>  <SCORE.INTRA.REPUL>
0

>  <SCORE.INTRA.REPUL.0>
0

>  <SCORE.INTRA.SOLV>
1.83158

>  <SCORE.INTRA.SOLV.lig_0>
-48.4279

>  <SCORE.INTRA.VDW>
-0.0718399

>  <SCORE.INTRA.VDW.0>
-4.69037

>  <SCORE.INTRA.norm>
0.0358215

>  <SCORE.RESTR>
0.47094

>  <SCORE.RESTR.CAVITY>
0.47094

>  <SCORE.RESTR.norm>
0.0174422

>  <SCORE.SYSTEM>
0

>  <SCORE.SYSTEM.CONST>
0

>  <SCORE.SYSTEM.DIHEDRAL>
0

>  <SCORE.SYSTEM.SOLV>
0

>  <SCORE.SYSTEM.norm>
0

>  <SCORE.heavy>
27

>  <SCORE.norm>
-0.103437

>  <RMSD>
16.902

$$$$
ligand
 OpenBabel02271912153D
libRbt.so/2013.1/901 2013/11/27
 27 29  0  0  0  0  0  0  0  0999 V2000
    7.4512    4.2054   25.0164 N   0  0  0  0  0  0  0  0  0  0  0  0
    6.7568    2.9624   24.5589 C   0  0  2  0  0  0  0  0  0  0  0  0
    6.2818    2.1165   25.7611 C   0  0  0  0  0  0  0  0  0  0  0  0
    6.5576    2.4431   26.9195 O   0  0  0  0  0  0  0  0  0  0  0  0
    7.6805    2.1764   23.6344 C   0  0  0  0  0  0  0  0  0  0  0  0
    9.1036    2.0253   24.1454 C   0  0  0  0  0  0  0  0  0  0  0  0
   10.1483    1.0016   23.0695 S   0  0  2  0  0  0  0  0  0  0  0  0
   11.7981    1.4316   23.6931 C   0  0  0  0  0  0  0  0  0  0  0  0
   10.1391    1.7865   21.4497 C   0  0  0  0  0  0  0  0  0  0  0  0
    9.3898    0.8987   20.4744 C   0  0  1  0  0  0  0  0  0  0  0  0
    9.8816   -0.4325   20.4621 O   0  0  0  0  0  0  0  0  0  0  0  0
    7.9206    0.8250   20.8116 C   0  0  1  0  0  0  0  0  0  0  0  0
    7.2210    1.8993   20.2519 O   0  0  0  0  0  0  0  0  0  0  0  0
    7.5430   -0.4807   20.1812 C   0  0  1  0  0  0  0  0  0  0  0  0
    7.1963   -0.2595   18.8272 O   0  0  0  0  0  0  0  0  0  0  0  0
    8.8073   -1.3250   20.2764 C   0  0  2  0  0  0  0  0  0  0  0  0
    5.6124    1.0766   25.6202 O   0  0  0  0  0  0  0  0  0  0  0  0
    8.1327   -6.3044   21.8917 N   0  0  0  0  0  0  0  0  0  0  0  0
    8.1044   -5.8201   20.5919 C   0  0  0  0  0  0  0  0  0  0  0  0
    8.2875   -4.4674   20.3306 N   0  0  0  0  0  0  0  0  0  0  0  0
    8.5134   -3.6237   21.3540 C   0  0  0  0  0  0  0  0  0  0  0  0
    8.5593   -4.1022   22.6664 C   0  0  0  0  0  0  0  0  0  0  0  0
    8.3578   -5.4419   22.9430 C   0  0  0  0  0  0  0  0  0  0  0  0
    8.3913   -5.8888   24.1895 N   0  0  0  0  0  0  0  0  0  0  0  0
    8.8099   -3.0684   23.4773 N   0  0  0  0  0  0  0  0  0  0  0  0
    8.9263   -1.9557   22.7194 C   0  0  0  0  0  0  0  0  0  0  0  0
    8.7500   -2.2817   21.3977 N   0  0  0  0  0  0  0  0  0  0  0  0
  2  1  1  1  0  0  0
  2  3  1  0  0  0  0
  2  5  1  0  0  0  0
  3  4  1  0  0  0  0
  3 17  1  0  0  0  0
  5  6  1  0  0  0  0
  7  6  1  1  0  0  0
  7  8  1  0  0  0  0
  7  9  1  0  0  0  0
 10  9  1  1  0  0  0
 10 11  1  0  0  0  0
 10 12  1  0  0  0  0
 11 16  1  0  0  0  0
 12 13  1  6  0  0  0
 12 14  1  0  0  0  0
 14 15  1  6  0  0  0
 14 16  1  0  0  0  0
 16 27  1  1  0  0  0
 18 19  2  0  0  0  0
 18 23  1  0  0  0  0
 19 20  1  0  0  0  0
 20 21  2  0  0  0  0
 21 22  1  0  0  0  0
 21 27  1  0  0  0  0
 22 23  2  0  0  0  0
 22 25  1  0  0  0  0
 23 24  1  0  0  0  0
 25 26  2  0  0  0  0
 26 27  1  0  0  0  0
M  END
>  <CHROM.1>
-4.49092945,46.29288714,176.55750614,164.48445763,-111.63018018,-52.79312477
-138.10771425,8.38520180,-0.57577683,22.50962904,1.85428156,1.26994094,0.09752442

>  <Name>
ligand

>  <RI>
0

>  <Rbt.Current_Directory>
/home/itssahil/PROJECTS/Mol_Feturizer/Test_systems_manuscript/rnas/2ydh

>  <Rbt.Executable>
rbdock ($Id: //depot/dev/client3/rdock/2013.1/src/exe/rbdock.cxx#4 $)

>  <Rbt.Library>
libRbt.so (2013.1, Build901 2013/11/27)

>  <Rbt.Parameter_File>
/export/apps/rDock/src/rDock_2013.1_src/data/scripts/dock_solv.prm

>  <Rbt.Receptor>
prm/blind_docking_60.prm

>  <SCORE>
-9.97957

>  <SCORE.INTER>
-10.4602

>  <SCORE.INTER.CONST>
1

>  <SCORE.INTER.POLAR>
0

>  <SCORE.INTER.ROT>
7

>  <SCORE.INTER.SOLV>
7.94476

>  <SCORE.INTER.VDW>
-17.8884

>  <SCORE.INTER.norm>
-0.387416

>  <SCORE.INTRA>
0.480657

>  <SCORE.INTRA.DIHEDRAL>
-1.82965

>  <SCORE.INTRA.DIHEDRAL.0>
9.75037

>  <SCORE.INTRA.POLAR>
0

>  <SCORE.INTRA.POLAR.0>
0

>  <SCORE.INTRA.REPUL>
0

>  <SCORE.INTRA.REPUL.0>
0

>  <SCORE.INTRA.SOLV>
-0.274339

>  <SCORE.INTRA.SOLV.lig_0>
-48.4279

>  <SCORE.INTRA.VDW>
1.53265

>  <SCORE.INTRA.VDW.0>
-4.69037

>  <SCORE.INTRA.norm>
0.0178021

>  <SCORE.RESTR>
0

>  <SCORE.RESTR.CAVITY>
0

>  <SCORE.RESTR.norm>
0

>  <SCORE.SYSTEM>
0

>  <SCORE.SYSTEM.CONST>
0

>  <SCORE.SYSTEM.DIHEDRAL>
0

>  <SCORE.SYSTEM.SOLV>
0

>  <SCORE.SYSTEM.norm>
0

>  <SCORE.heavy>
27

>  <SCORE.norm>
-0.369614

>  <RMSD>
16.905

$$$$
ligand
 OpenBabel02271912153D
libRbt.so/2013.1/901 2013/11/27
 27 29  0  0  0  0  0  0  0  0999 V2000
   12.8496    1.5165   24.0228 N   0  0  0  0  0  0  0  0  0  0  0  0
   11.6986    0.9939   23.2236 C   0  0  2  0  0  0  0  0  0  0  0  0
   11.6088    1.6988   21.8519 C   0  0  0  0  0  0  0  0  0  0  0  0
   10.9278    1.2275   20.9360 O   0  0  0  0  0  0  0  0  0  0  0  0
   10.4125    1.1426   24.0296 C   0  0  0  0  0  0  0  0  0  0  0  0
   10.1980    2.5242   24.6247 C   0  0  0  0  0  0  0  0  0  0  0  0
    9.6230    3.7475   23.4122 S   0  0  2  0  0  0  0  0  0  0  0  0
    9.5944    5.2476   24.4342 C   0  0  0  0  0  0  0  0  0  0  0  0
    7.8699    3.4297   23.1564 C   0  0  0  0  0  0  0  0  0  0  0  0
    7.6688    2.8587   21.7656 C   0  0  1  0  0  0  0  0  0  0  0  0
    8.4869    1.7256   21.5190 O   0  0  0  0  0  0  0  0  0  0  0  0
    6.2388    2.4286   21.5469 C   0  0  1  0  0  0  0  0  0  0  0  0
    5.4463    3.5055   21.1357 O   0  0  0  0  0  0  0  0  0  0  0  0
    6.4051    1.4076   20.4630 C   0  0  1  0  0  0  0  0  0  0  0  0
    6.3768    2.0563   19.2058 O   0  0  0  0  0  0  0  0  0  0  0  0
    7.7801    0.8047   20.7207 C   0  0  2  0  0  0  0  0  0  0  0  0
   12.2150    2.7579   21.6068 O   0  0  0  0  0  0  0  0  0  0  0  0
    6.7979   -4.3728   20.4256 N   0  0  0  0  0  0  0  0  0  0  0  0
    6.7583   -3.4393   19.4001 C   0  0  0  0  0  0  0  0  0  0  0  0
    7.0314   -2.0988   19.6448 N   0  0  0  0  0  0  0  0  0  0  0  0
    7.3562   -1.7098   20.8912 C   0  0  0  0  0  0  0  0  0  0  0  0
    7.4142   -2.6436   21.9296 C   0  0  0  0  0  0  0  0  0  0  0  0
    7.1242   -3.9768   21.7048 C   0  0  0  0  0  0  0  0  0  0  0  0
    7.1699   -4.8562   22.6944 N   0  0  0  0  0  0  0  0  0  0  0  0
    7.7700   -2.0010   23.0474 N   0  0  0  0  0  0  0  0  0  0  0  0
    7.9408   -0.6945   22.7472 C   0  0  0  0  0  0  0  0  0  0  0  0
    7.6929   -0.4956   21.4118 N   0  0  0  0  0  0  0  0  0  0  0  0
  2  1  1  1  0  0  0
  2  3  1  0  0  0  0
  2  5  1  0  0  0  0
  3  4  1  0  0  0  0
  3 17  1  0  0  0  0
  5  6  1  0  0  0  0
  7  6  1  1  0  0  0
  7  8  1  0  0  0  0
  7  9  1  0  0  0  0
 10  9  1  1  0  0  0
 10 11  1  0  0  0  0
 10 12  1  0  0  0  0
 11 16  1  0  0  0  0
 12 13  1  6  0  0  0
 12 14  1  0  0  0  0
 14 15  1  6  0  0  0
 14 16  1  0  0  0  0
 16 27  1  1  0  0  0
 18 19  2  0  0  0  0
 18 23  1  0  0  0  0
 19 20  1  0  0  0  0
 20 21  2  0  0  0  0
 21 22  1  0  0  0  0
 21 27  1  0  0  0  0
 22 23  2  0  0  0  0
 22 25  1  0  0  0  0
 23 24  1  0  0  0  0
 25 26  2  0  0  0  0
 26 27  1  0  0  0  0
M  END
>  <CHROM.1>
164.09715155,49.58992341,77.26566031,-176.31019499,-109.86438101,53.38354902
-164.71634730,8.54354734,0.73731102,21.97913760,-1.04799361,0.50111786,-3.07128099

>  <Name>
ligand

>  <RI>
0

>  <Rbt.Current_Directory>
/home/itssahil/PROJECTS/Mol_Feturizer/Test_systems_manuscript/rnas/2ydh

>  <Rbt.Executable>
rbdock ($Id: //depot/dev/client3/rdock/2013.1/src/exe/rbdock.cxx#4 $)

>  <Rbt.Library>
libRbt.so (2013.1, Build901 2013/11/27)

>  <Rbt.Parameter_File>
/export/apps/rDock/src/rDock_2013.1_src/data/scripts/dock_solv.prm

>  <Rbt.Receptor>
prm/blind_docking_60.prm

>  <SCORE>
-9.39797

>  <SCORE.INTER>
-8.98081

>  <SCORE.INTER.CONST>
1

>  <SCORE.INTER.POLAR>
0

>  <SCORE.INTER.ROT>
7

>  <SCORE.INTER.SOLV>
8.46997

>  <SCORE.INTER.VDW>
-17.0772

>  <SCORE.INTER.norm>
-0.332623

>  <SCORE.INTRA>
-0.428075

>  <SCORE.INTRA.DIHEDRAL>
-1.18406

>  <SCORE.INTRA.DIHEDRAL.0>
9.75037

>  <SCORE.INTRA.POLAR>
0

>  <SCORE.INTRA.POLAR.0>
0

>  <SCORE.INTRA.REPUL>
0

>  <SCORE.INTRA.REPUL.0>
0

>  <SCORE.INTRA.SOLV>
0.129758

>  <SCORE.INTRA.SOLV.lig_0>
-48.4279

>  <SCORE.INTRA.VDW>
0.099076

>  <SCORE.INTRA.VDW.0>
-4.69037

>  <SCORE.INTRA.norm>
-0.0158546

>  <SCORE.RESTR>
0.0109161

>  <SCORE.RESTR.CAVITY>
0.0109161

>  <SCORE.RESTR.norm>
0.000404301

>  <SCORE.SYSTEM>
0

>  <SCORE.SYSTEM.CONST>
0

>  <SCORE.SYSTEM.DIHEDRAL>
0

>  <SCORE.SYSTEM.SOLV>
0

>  <SCORE.SYSTEM.norm>
0

>  <SCORE.heavy>
27

>  <SCORE.norm>
-0.348073

>  <RMSD>
16.926

$$$$
ligand
 OpenBabel02271912153D
libRbt.so/2013.1/901 2013/11/27
 27 29  0  0  0  0  0  0  0  0999 V2000
   11.5232    4.0799   26.5345 N   0  0  0  0  0  0  0  0  0  0  0  0
   10.2204    3.4317   26.1895 C   0  0  2  0  0  0  0  0  0  0  0  0
    9.7202    2.5387   27.3467 C   0  0  0  0  0  0  0  0  0  0  0  0
    8.5932    2.0349   27.3223 O   0  0  0  0  0  0  0  0  0  0  0  0
   10.3710    2.6517   24.8877 C   0  0  0  0  0  0  0  0  0  0  0  0
   10.6472    3.5120   23.6660 C   0  0  0  0  0  0  0  0  0  0  0  0
   10.7273    2.5613   22.1211 S   0  0  2  0  0  0  0  0  0  0  0  0
   10.8708    3.9030   20.9066 C   0  0  0  0  0  0  0  0  0  0  0  0
    9.0642    1.9464   21.8116 C   0  0  0  0  0  0  0  0  0  0  0  0
    9.1168    0.9172   20.6986 C   0  0  1  0  0  0  0  0  0  0  0  0
    9.8133   -0.2597   21.0781 O   0  0  0  0  0  0  0  0  0  0  0  0
    7.7323    0.4944   20.2718 C   0  0  1  0  0  0  0  0  0  0  0  0
    7.2052    1.3787   19.3247 O   0  0  0  0  0  0  0  0  0  0  0  0
    8.0089   -0.8567   19.6860 C   0  0  1  0  0  0  0  0  0  0  0  0
    8.3577   -0.7090   18.3226 O   0  0  0  0  0  0  0  0  0  0  0  0
    9.1953   -1.3788   20.4860 C   0  0  2  0  0  0  0  0  0  0  0  0
   10.4185    2.2928   28.3473 O   0  0  0  0  0  0  0  0  0  0  0  0
   10.1042   -5.9109   23.0341 N   0  0  0  0  0  0  0  0  0  0  0  0
   10.8501   -5.3462   22.0097 C   0  0  0  0  0  0  0  0  0  0  0  0
   10.4674   -4.1433   21.4282 N   0  0  0  0  0  0  0  0  0  0  0  0
    9.3685   -3.5130   21.8814 C   0  0  0  0  0  0  0  0  0  0  0  0
    8.6175   -4.0646   22.9232 C   0  0  0  0  0  0  0  0  0  0  0  0
    8.9744   -5.2711   23.4966 C   0  0  0  0  0  0  0  0  0  0  0  0
    8.2533   -5.7952   24.4763 N   0  0  0  0  0  0  0  0  0  0  0  0
    7.5988   -3.2380   23.1842 N   0  0  0  0  0  0  0  0  0  0  0  0
    7.6847   -2.1832   22.3439 C   0  0  0  0  0  0  0  0  0  0  0  0
    8.7802   -2.3342   21.5306 N   0  0  0  0  0  0  0  0  0  0  0  0
  2  1  1  1  0  0  0
  2  3  1  0  0  0  0
  2  5  1  0  0  0  0
  3  4  1  0  0  0  0
  3 17  1  0  0  0  0
  5  6  1  0  0  0  0
  7  6  1  1  0  0  0
  7  8  1  0  0  0  0
  7  9  1  0  0  0  0
 10  9  1  1  0  0  0
 10 11  1  0  0  0  0
 10 12  1  0  0  0  0
 11 16  1  0  0  0  0
 12 13  1  6  0  0  0
 12 14  1  0  0  0  0
 14 15  1  6  0  0  0
 14 16  1  0  0  0  0
 16 27  1  1  0  0  0
 18 19  2  0  0  0  0
 18 23  1  0  0  0  0
 19 20  1  0  0  0  0
 20 21  2  0  0  0  0
 21 22  1  0  0  0  0
 21 27  1  0  0  0  0
 22 23  2  0  0  0  0
 22 25  1  0  0  0  0
 23 24  1  0  0  0  0
 25 26  2  0  0  0  0
 26 27  1  0  0  0  0
M  END
>  <CHROM.1>
171.77931838,-65.47888827,-176.73579406,173.82450252,-168.58020082,67.00779247
-103.98951149,9.41058753,-0.23787624,22.75581673,-0.50272428,1.37848458,2.52440196

>  <Name>
ligand

>  <RI>
0

>  <Rbt.Current_Directory>
/home/itssahil/PROJECTS/Mol_Feturizer/Test_systems_manuscript/rnas/2ydh

>  <Rbt.Executable>
rbdock ($Id: //depot/dev/client3/rdock/2013.1/src/exe/rbdock.cxx#4 $)

>  <Rbt.Library>
libRbt.so (2013.1, Build901 2013/11/27)

>  <Rbt.Parameter_File>
/export/apps/rDock/src/rDock_2013.1_src/data/scripts/dock_solv.prm

>  <Rbt.Receptor>
prm/blind_docking_60.prm

>  <SCORE>
-10.3117

>  <SCORE.INTER>
-9.43964

>  <SCORE.INTER.CONST>
1

>  <SCORE.INTER.POLAR>
0

>  <SCORE.INTER.ROT>
7

>  <SCORE.INTER.SOLV>
6.66513

>  <SCORE.INTER.VDW>
-16.7815

>  <SCORE.INTER.norm>
-0.349616

>  <SCORE.INTRA>
-0.872064

>  <SCORE.INTRA.DIHEDRAL>
-5.38525

>  <SCORE.INTRA.DIHEDRAL.0>
9.75037

>  <SCORE.INTRA.POLAR>
0

>  <SCORE.INTRA.POLAR.0>
0

>  <SCORE.INTRA.REPUL>
0

>  <SCORE.INTRA.REPUL.0>
0

>  <SCORE.INTRA.SOLV>
-0.942836

>  <SCORE.INTRA.SOLV.lig_0>
-48.4279

>  <SCORE.INTRA.VDW>
2.29198

>  <SCORE.INTRA.VDW.0>
-4.69037

>  <SCORE.INTRA.norm>
-0.0322987

>  <SCORE.RESTR>
0

>  <SCORE.RESTR.CAVITY>
0

>  <SCORE.RESTR.norm>
0

>  <SCORE.SYSTEM>
0

>  <SCORE.SYSTEM.CONST>
0

>  <SCORE.SYSTEM.DIHEDRAL>
0

>  <SCORE.SYSTEM.SOLV>
0

>  <SCORE.SYSTEM.norm>
0

>  <SCORE.heavy>
27

>  <SCORE.norm>
-0.381915

>  <RMSD>
16.928

$$$$
ligand
 OpenBabel02271912153D
libRbt.so/2013.1/901 2013/11/27
 27 29  0  0  0  0  0  0  0  0999 V2000
    5.2057    5.4315   18.8918 N   0  0  0  0  0  0  0  0  0  0  0  0
    6.6432    5.7061   19.1998 C   0  0  2  0  0  0  0  0  0  0  0  0
    7.3053    6.5307   18.0736 C   0  0  0  0  0  0  0  0  0  0  0  0
    7.9915    7.5247   18.3299 O   0  0  0  0  0  0  0  0  0  0  0  0
    7.3694    4.3882   19.4479 C   0  0  0  0  0  0  0  0  0  0  0  0
    7.3041    3.4053   18.2908 C   0  0  0  0  0  0  0  0  0  0  0  0
    8.3797    1.9596   18.5148 S   0  0  2  0  0  0  0  0  0  0  0  0
    7.9868    1.0118   17.0172 C   0  0  0  0  0  0  0  0  0  0  0  0
    7.6271    0.9568   19.8062 C   0  0  0  0  0  0  0  0  0  0  0  0
    8.5662   -0.1808   20.1591 C   0  0  1  0  0  0  0  0  0  0  0  0
    9.8192    0.2779   20.6426 O   0  0  0  0  0  0  0  0  0  0  0  0
    7.9784   -1.0709   21.2269 C   0  0  1  0  0  0  0  0  0  0  0  0
    7.1383   -2.0399   20.6684 O   0  0  0  0  0  0  0  0  0  0  0  0
    9.2168   -1.6737   21.8167 C   0  0  1  0  0  0  0  0  0  0  0  0
    9.5667   -2.8299   21.0798 O   0  0  0  0  0  0  0  0  0  0  0  0
   10.2782   -0.5939   21.6497 C   0  0  2  0  0  0  0  0  0  0  0  0
    7.1753    6.2389   16.8706 O   0  0  0  0  0  0  0  0  0  0  0  0
    8.2130    1.8900   25.8239 N   0  0  0  0  0  0  0  0  0  0  0  0
    7.5378    1.2557   24.7912 C   0  0  0  0  0  0  0  0  0  0  0  0
    8.2322    0.6549   23.7480 N   0  0  0  0  0  0  0  0  0  0  0  0
    9.5775    0.6753   23.7544 C   0  0  0  0  0  0  0  0  0  0  0  0
   10.2691    1.2981   24.7973 C   0  0  0  0  0  0  0  0  0  0  0  0
    9.5910    1.9182   25.8305 C   0  0  0  0  0  0  0  0  0  0  0  0
   10.2508    2.5165   26.8109 N   0  0  0  0  0  0  0  0  0  0  0  0
   11.5796    1.1619   24.5667 N   0  0  0  0  0  0  0  0  0  0  0  0
   11.7364    0.4720   23.4154 C   0  0  0  0  0  0  0  0  0  0  0  0
   10.5041    0.1571   22.8991 N   0  0  0  0  0  0  0  0  0  0  0  0
  2  1  1  6  0  0  0
  2  3  1  0  0  0  0
  2  5  1  0  0  0  0
  3  4  1  0  0  0  0
  3 17  1  0  0  0  0
  5  6  1  0  0  0  0
  7  6  1  6  0  0  0
  7  8  1  0  0  0  0
  7  9  1  0  0  0  0
 10  9  1  1  0  0  0
 10 11  1  0  0  0  0
 10 12  1  0  0  0  0
 11 16  1  0  0  0  0
 12 13  1  6  0  0  0
 12 14  1  0  0  0  0
 14 15  1  6  0  0  0
 14 16  1  0  0  0  0
 16 27  1  1  0  0  0
 18 19  2  0  0  0  0
 18 23  1  0  0  0  0
 19 20  1  0  0  0  0
 20 21  2  0  0  0  0
 21 22  1  0  0  0  0
 21 27  1  0  0  0  0
 22 23  2  0  0  0  0
 22 25  1  0  0  0  0
 23 24  1  0  0  0  0
 25 26  2  0  0  0  0
 26 27  1  0  0  0  0
M  END
>  <CHROM.1>
132.41247265,58.00105303,171.30311219,177.65842707,-173.15910432,60.51096712
72.68254659,8.58980415,1.76079524,21.16301155,-2.98900102,1.24385509,-2.60446804

>  <Name>
ligand

>  <RI>
0

>  <Rbt.Current_Directory>
/home/itssahil/PROJECTS/Mol_Feturizer/Test_systems_manuscript/rnas/2ydh

>  <Rbt.Executable>
rbdock ($Id: //depot/dev/client3/rdock/2013.1/src/exe/rbdock.cxx#4 $)

>  <Rbt.Library>
libRbt.so (2013.1, Build901 2013/11/27)

>  <Rbt.Parameter_File>
/export/apps/rDock/src/rDock_2013.1_src/data/scripts/dock_solv.prm

>  <Rbt.Receptor>
prm/blind_docking_60.prm

>  <SCORE>
-11.6467

>  <SCORE.INTER>
-10.0047

>  <SCORE.INTER.CONST>
1

>  <SCORE.INTER.POLAR>
0

>  <SCORE.INTER.ROT>
7

>  <SCORE.INTER.SOLV>
11.0074

>  <SCORE.INTER.VDW>
-18.6056

>  <SCORE.INTER.norm>
-0.370546

>  <SCORE.INTRA>
-1.64192

>  <SCORE.INTRA.DIHEDRAL>
-5.78522

>  <SCORE.INTRA.DIHEDRAL.0>
9.75037

>  <SCORE.INTRA.POLAR>
0

>  <SCORE.INTRA.POLAR.0>
0

>  <SCORE.INTRA.REPUL>
0

>  <SCORE.INTRA.REPUL.0>
0

>  <SCORE.INTRA.SOLV>
-0.825015

>  <SCORE.INTRA.SOLV.lig_0>
-48.4279

>  <SCORE.INTRA.VDW>
1.66319

>  <SCORE.INTRA.VDW.0>
-4.69037

>  <SCORE.INTRA.norm>
-0.060812

>  <SCORE.RESTR>
0

>  <SCORE.RESTR.CAVITY>
0

>  <SCORE.RESTR.norm>
0

>  <SCORE.SYSTEM>
0

>  <SCORE.SYSTEM.CONST>
0

>  <SCORE.SYSTEM.DIHEDRAL>
0

>  <SCORE.SYSTEM.SOLV>
0

>  <SCORE.SYSTEM.norm>
0

>  <SCORE.heavy>
27

>  <SCORE.norm>
-0.431358

>  <RMSD>
16.962

$$$$
ligand
 OpenBabel02271912153D
libRbt.so/2013.1/901 2013/11/27
 27 29  0  0  0  0  0  0  0  0999 V2000
    4.4789  -12.8579    7.6813 N   0  0  0  0  0  0  0  0  0  0  0  0
    3.4509  -13.6299    6.9172 C   0  0  2  0  0  0  0  0  0  0  0  0
    2.4750  -14.3525    7.8723 C   0  0  0  0  0  0  0  0  0  0  0  0
    1.2614  -14.1284    7.8335 O   0  0  0  0  0  0  0  0  0  0  0  0
    4.1468  -14.5995    5.9678 C   0  0  0  0  0  0  0  0  0  0  0  0
    5.0321  -15.6266    6.6535 C   0  0  0  0  0  0  0  0  0  0  0  0
    5.0111  -17.2501    5.8406 S   0  0  2  0  0  0  0  0  0  0  0  0
    6.2286  -18.1463    6.8458 C   0  0  0  0  0  0  0  0  0  0  0  0
    5.8823  -17.0516    4.2781 C   0  0  0  0  0  0  0  0  0  0  0  0
    4.8766  -17.0888    3.1432 C   0  0  1  0  0  0  0  0  0  0  0  0
    3.9002  -18.1044    3.3144 O   0  0  0  0  0  0  0  0  0  0  0  0
    4.1366  -15.7794    3.0182 C   0  0  1  0  0  0  0  0  0  0  0  0
    4.8591  -14.8644    2.2454 O   0  0  0  0  0  0  0  0  0  0  0  0
    2.8781  -16.2211    2.3353 C   0  0  1  0  0  0  0  0  0  0  0  0
    3.0819  -16.2117    0.9351 O   0  0  0  0  0  0  0  0  0  0  0  0
    2.6589  -17.6442    2.8324 C   0  0  2  0  0  0  0  0  0  0  0  0
    2.8618  -15.1796    8.7183 O   0  0  0  0  0  0  0  0  0  0  0  0
   -0.7696  -15.0746    5.9147 N   0  0  0  0  0  0  0  0  0  0  0  0
    0.0528  -14.5452    4.9308 C   0  0  0  0  0  0  0  0  0  0  0  0
    0.9179  -15.3596    4.2099 N   0  0  0  0  0  0  0  0  0  0  0  0
    0.9405  -16.6813    4.4607 C   0  0  0  0  0  0  0  0  0  0  0  0
    0.1056  -17.2286    5.4390 C   0  0  0  0  0  0  0  0  0  0  0  0
   -0.7446  -16.4272    6.1786 C   0  0  0  0  0  0  0  0  0  0  0  0
   -1.5260  -16.9491    7.1122 N   0  0  0  0  0  0  0  0  0  0  0  0
    0.3162  -18.5490    5.4741 N   0  0  0  0  0  0  0  0  0  0  0  0
    1.2534  -18.8519    4.5488 C   0  0  0  0  0  0  0  0  0  0  0  0
    1.6494  -17.7054    3.9062 N   0  0  0  0  0  0  0  0  0  0  0  0
  2  1  1  1  0  0  0
  2  3  1  0  0  0  0
  2  5  1  0  0  0  0
  3  4  1  0  0  0  0
  3 17  1  0  0  0  0
  5  6  1  0  0  0  0
  7  6  1  1  0  0  0
  7  8  1  0  0  0  0
  7  9  1  0  0  0  0
 10  9  1  1  0  0  0
 10 11  1  0  0  0  0
 10 12  1  0  0  0  0
 11 16  1  0  0  0  0
 12 13  1  6  0  0  0
 12 14  1  0  0  0  0
 14 15  1  6  0  0  0
 14 16  1  0  0  0  0
 16 27  1  1  0  0  0
 18 19  2  0  0  0  0
 18 23  1  0  0  0  0
 19 20  1  0  0  0  0
 20 21  2  0  0  0  0
 21 22  1  0  0  0  0
 21 27  1  0  0  0  0
 22 23  2  0  0  0  0
 22 25  1  0  0  0  0
 23 24  1  0  0  0  0
 25 26  2  0  0  0  0
 26 27  1  0  0  0  0
M  END
>  <CHROM.1>
121.05506996,60.69601353,144.19932133,176.53162995,-107.45421198,-42.70609491
118.61828066,2.75465755,-16.19154072,5.16284521,-2.45946476,-0.08883744,-2.05351311

>  <Name>
ligand

>  <RI>
0

>  <Rbt.Current_Directory>
/home/itssahil/PROJECTS/Mol_Feturizer/Test_systems_manuscript/rnas/2ydh

>  <Rbt.Executable>
rbdock ($Id: //depot/dev/client3/rdock/2013.1/src/exe/rbdock.cxx#4 $)

>  <Rbt.Library>
libRbt.so (2013.1, Build901 2013/11/27)

>  <Rbt.Parameter_File>
/export/apps/rDock/src/rDock_2013.1_src/data/scripts/dock_solv.prm

>  <Rbt.Receptor>
prm/blind_docking_20.prm

>  <SCORE>
-1.57128

>  <SCORE.INTER>
-3.39195

>  <SCORE.INTER.CONST>
1

>  <SCORE.INTER.POLAR>
0

>  <SCORE.INTER.ROT>
7

>  <SCORE.INTER.SOLV>
11.1734

>  <SCORE.INTER.VDW>
-14.2524

>  <SCORE.INTER.norm>
-0.125628

>  <SCORE.INTRA>
0.41309

>  <SCORE.INTRA.DIHEDRAL>
1.22952

>  <SCORE.INTRA.DIHEDRAL.0>
9.75037

>  <SCORE.INTRA.POLAR>
0

>  <SCORE.INTRA.POLAR.0>
0

>  <SCORE.INTRA.REPUL>
0

>  <SCORE.INTRA.REPUL.0>
0

>  <SCORE.INTRA.SOLV>
-0.478637

>  <SCORE.INTRA.SOLV.lig_0>
-48.4279

>  <SCORE.INTRA.VDW>
0.0376465

>  <SCORE.INTRA.VDW.0>
-4.69037

>  <SCORE.INTRA.norm>
0.0152996

>  <SCORE.RESTR>
1.40758

>  <SCORE.RESTR.CAVITY>
1.40758

>  <SCORE.RESTR.norm>
0.0521325

>  <SCORE.SYSTEM>
0

>  <SCORE.SYSTEM.CONST>
0

>  <SCORE.SYSTEM.DIHEDRAL>
0

>  <SCORE.SYSTEM.SOLV>
0

>  <SCORE.SYSTEM.norm>
0

>  <SCORE.heavy>
27

>  <SCORE.norm>
-0.0581957

>  <RMSD>
16.968

$$$$
ligand
 OpenBabel02271912153D
libRbt.so/2013.1/901 2013/11/27
 27 29  0  0  0  0  0  0  0  0999 V2000
    5.0075  -19.3695    4.1119 N   0  0  0  0  0  0  0  0  0  0  0  0
    4.4838  -18.0109    3.7703 C   0  0  2  0  0  0  0  0  0  0  0  0
    3.2597  -18.1066    2.8326 C   0  0  0  0  0  0  0  0  0  0  0  0
    2.4256  -17.1978    2.7779 O   0  0  0  0  0  0  0  0  0  0  0  0
    5.6049  -17.1726    3.1653 C   0  0  0  0  0  0  0  0  0  0  0  0
    5.1506  -15.8538    2.5625 C   0  0  0  0  0  0  0  0  0  0  0  0
    4.2392  -14.8055    3.7318 S   0  0  2  0  0  0  0  0  0  0  0  0
    3.4770  -13.6143    2.5936 C   0  0  0  0  0  0  0  0  0  0  0  0
    5.4656  -13.7928    4.5747 C   0  0  0  0  0  0  0  0  0  0  0  0
    5.4168  -14.0920    6.0609 C   0  0  1  0  0  0  0  0  0  0  0  0
    4.2312  -13.6101    6.6744 O   0  0  0  0  0  0  0  0  0  0  0  0
    5.4818  -15.5761    6.3277 C   0  0  1  0  0  0  0  0  0  0  0  0
    6.8064  -16.0245    6.3591 O   0  0  0  0  0  0  0  0  0  0  0  0
    4.8289  -15.6581    7.6738 C   0  0  1  0  0  0  0  0  0  0  0  0
    5.8069  -15.4595    8.6770 O   0  0  0  0  0  0  0  0  0  0  0  0
    3.8236  -14.5136    7.6756 C   0  0  2  0  0  0  0  0  0  0  0  0
    3.0565  -19.0936    2.1020 O   0  0  0  0  0  0  0  0  0  0  0  0
    0.6803  -18.1674    5.5243 N   0  0  0  0  0  0  0  0  0  0  0  0
    2.0672  -18.1438    5.5458 C   0  0  0  0  0  0  0  0  0  0  0  0
    2.7536  -17.0947    6.1454 N   0  0  0  0  0  0  0  0  0  0  0  0
    2.0587  -16.1007    6.7279 C   0  0  0  0  0  0  0  0  0  0  0  0
    0.6612  -16.1211    6.7261 C   0  0  0  0  0  0  0  0  0  0  0  0
   -0.0348  -17.1476    6.1147 C   0  0  0  0  0  0  0  0  0  0  0  0
   -1.3594  -17.1569    6.1060 N   0  0  0  0  0  0  0  0  0  0  0  0
    0.2286  -15.0353    7.3765 N   0  0  0  0  0  0  0  0  0  0  0  0
    1.3067  -14.3335    7.7904 C   0  0  0  0  0  0  0  0  0  0  0  0
    2.4521  -14.9821    7.4009 N   0  0  0  0  0  0  0  0  0  0  0  0
  2  1  1  6  0  0  0
  2  3  1  0  0  0  0
  2  5  1  0  0  0  0
  3  4  1  0  0  0  0
  3 17  1  0  0  0  0
  5  6  1  0  0  0  0
  7  6  1  6  0  0  0
  7  8  1  0  0  0  0
  7  9  1  0  0  0  0
 10  9  1  6  0  0  0
 10 11  1  0  0  0  0
 10 12  1  0  0  0  0
 11 16  1  0  0  0  0
 12 13  1  1  0  0  0
 12 14  1  0  0  0  0
 14 15  1  1  0  0  0
 14 16  1  0  0  0  0
 16 27  1  6  0  0  0
 18 19  2  0  0  0  0
 18 23  1  0  0  0  0
 19 20  1  0  0  0  0
 20 21  2  0  0  0  0
 21 22  1  0  0  0  0
 21 27  1  0  0  0  0
 22 23  2  0  0  0  0
 22 25  1  0  0  0  0
 23 24  1  0  0  0  0
 25 26  2  0  0  0  0
 26 27  1  0  0  0  0
M  END
>  <CHROM.1>
155.92184932,170.25962809,55.68095671,-164.65771946,-119.08456189,-69.85834992
93.70163068,3.41854553,-16.08264623,5.33228188,0.60492349,-0.36808110,-2.17231850

>  <Name>
ligand

>  <RI>
0

>  <Rbt.Current_Directory>
/home/itssahil/PROJECTS/Mol_Feturizer/Test_systems_manuscript/rnas/2ydh

>  <Rbt.Executable>
rbdock ($Id: //depot/dev/client3/rdock/2013.1/src/exe/rbdock.cxx#4 $)

>  <Rbt.Library>
libRbt.so (2013.1, Build901 2013/11/27)

>  <Rbt.Parameter_File>
/export/apps/rDock/src/rDock_2013.1_src/data/scripts/dock_solv.prm

>  <Rbt.Receptor>
prm/blind_docking_20.prm

>  <SCORE>
-3.76038

>  <SCORE.INTER>
-4.85504

>  <SCORE.INTER.CONST>
1

>  <SCORE.INTER.POLAR>
0

>  <SCORE.INTER.ROT>
7

>  <SCORE.INTER.SOLV>
8.39384

>  <SCORE.INTER.VDW>
-14.3013

>  <SCORE.INTER.norm>
-0.179816

>  <SCORE.INTRA>
-0.536021

>  <SCORE.INTRA.DIHEDRAL>
-0.345884

>  <SCORE.INTRA.DIHEDRAL.0>
9.75037

>  <SCORE.INTRA.POLAR>
0

>  <SCORE.INTRA.POLAR.0>
0

>  <SCORE.INTRA.REPUL>
0

>  <SCORE.INTRA.REPUL.0>
0

>  <SCORE.INTRA.SOLV>
-0.202888

>  <SCORE.INTRA.SOLV.lig_0>
-48.4279

>  <SCORE.INTRA.VDW>
-0.261635

>  <SCORE.INTRA.VDW.0>
-4.69037

>  <SCORE.INTRA.norm>
-0.0198526

>  <SCORE.RESTR>
1.63069

>  <SCORE.RESTR.CAVITY>
1.63069

>  <SCORE.RESTR.norm>
0.0603958

>  <SCORE.SYSTEM>
0

>  <SCORE.SYSTEM.CONST>
0

>  <SCORE.SYSTEM.DIHEDRAL>
0

>  <SCORE.SYSTEM.SOLV>
0

>  <SCORE.SYSTEM.norm>
0

>  <SCORE.heavy>
27

>  <SCORE.norm>
-0.139273

>  <RMSD>
16.978

$$$$
ligand
 OpenBabel02271912153D
libRbt.so/2013.1/901 2013/11/27
 27 29  0  0  0  0  0  0  0  0999 V2000
   -1.8569  -17.7262    5.1510 N   0  0  0  0  0  0  0  0  0  0  0  0
   -0.6562  -16.9341    4.7418 C   0  0  2  0  0  0  0  0  0  0  0  0
    0.6080  -17.8212    4.7024 C   0  0  0  0  0  0  0  0  0  0  0  0
    1.7031  -17.3567    4.3712 O   0  0  0  0  0  0  0  0  0  0  0  0
   -0.4911  -15.7426    5.6792 C   0  0  0  0  0  0  0  0  0  0  0  0
   -0.3897  -16.1079    7.1508 C   0  0  0  0  0  0  0  0  0  0  0  0
    0.1987  -14.7412    8.1914 S   0  0  2  0  0  0  0  0  0  0  0  0
   -1.0454  -13.4730    7.8176 C   0  0  0  0  0  0  0  0  0  0  0  0
    1.6669  -14.0805    7.3866 C   0  0  0  0  0  0  0  0  0  0  0  0
    2.8735  -14.8939    7.8145 C   0  0  1  0  0  0  0  0  0  0  0  0
    2.8780  -16.1974    7.2533 O   0  0  0  0  0  0  0  0  0  0  0  0
    4.1632  -14.2286    7.3996 C   0  0  1  0  0  0  0  0  0  0  0  0
    4.5657  -13.2779    8.3434 O   0  0  0  0  0  0  0  0  0  0  0  0
    5.0934  -15.4022    7.3526 C   0  0  1  0  0  0  0  0  0  0  0  0
    5.6434  -15.6106    8.6396 O   0  0  0  0  0  0  0  0  0  0  0  0
    4.2031  -16.5734    6.9575 C   0  0  2  0  0  0  0  0  0  0  0  0
    0.5814  -19.0312    4.9934 O   0  0  0  0  0  0  0  0  0  0  0  0
    4.3893  -14.8626    1.9678 N   0  0  0  0  0  0  0  0  0  0  0  0
    4.2592  -14.1053    3.1228 C   0  0  0  0  0  0  0  0  0  0  0  0
    4.2114  -14.7122    4.3722 N   0  0  0  0  0  0  0  0  0  0  0  0
    4.3120  -16.0511    4.4581 C   0  0  0  0  0  0  0  0  0  0  0  0
    4.4588  -16.8236    3.3025 C   0  0  0  0  0  0  0  0  0  0  0  0
    4.4864  -16.2350    2.0517 C   0  0  0  0  0  0  0  0  0  0  0  0
    4.6146  -16.9722    0.9587 N   0  0  0  0  0  0  0  0  0  0  0  0
    4.5486  -18.1069    3.6689 N   0  0  0  0  0  0  0  0  0  0  0  0
    4.4664  -18.1681    5.0163 C   0  0  0  0  0  0  0  0  0  0  0  0
    4.3240  -16.9008    5.5242 N   0  0  0  0  0  0  0  0  0  0  0  0
  2  1  1  1  0  0  0
  2  3  1  0  0  0  0
  2  5  1  0  0  0  0
  3  4  1  0  0  0  0
  3 17  1  0  0  0  0
  5  6  1  0  0  0  0
  7  6  1  6  0  0  0
  7  8  1  0  0  0  0
  7  9  1  0  0  0  0
 10  9  1  6  0  0  0
 10 11  1  0  0  0  0
 10 12  1  0  0  0  0
 11 16  1  0  0  0  0
 12 13  1  1  0  0  0
 12 14  1  0  0  0  0
 14 15  1  1  0  0  0
 14 16  1  0  0  0  0
 16 27  1  6  0  0  0
 18 19  2  0  0  0  0
 18 23  1  0  0  0  0
 19 20  1  0  0  0  0
 20 21  2  0  0  0  0
 21 22  1  0  0  0  0
 21 27  1  0  0  0  0
 22 23  2  0  0  0  0
 22 25  1  0  0  0  0
 23 24  1  0  0  0  0
 25 26  2  0  0  0  0
 26 27  1  0  0  0  0
M  END
>  <CHROM.1>
179.13473131,56.26202969,166.13730835,57.37779279,-85.13504966,71.10254311
72.50312964,2.57811326,-15.93603991,5.69370180,2.35872404,0.21119858,1.06217938

>  <Name>
ligand

>  <RI>
0

>  <Rbt.Current_Directory>
/home/itssahil/PROJECTS/Mol_Feturizer/Test_systems_manuscript/rnas/2ydh

>  <Rbt.Executable>
rbdock ($Id: //depot/dev/client3/rdock/2013.1/src/exe/rbdock.cxx#4 $)

>  <Rbt.Library>
libRbt.so (2013.1, Build901 2013/11/27)

>  <Rbt.Parameter_File>
/export/apps/rDock/src/rDock_2013.1_src/data/scripts/dock_solv.prm

>  <Rbt.Receptor>
prm/blind_docking_20.prm

>  <SCORE>
-2.47856

>  <SCORE.INTER>
-1.67085

>  <SCORE.INTER.CONST>
1

>  <SCORE.INTER.POLAR>
0

>  <SCORE.INTER.ROT>
7

>  <SCORE.INTER.SOLV>
19.2012

>  <SCORE.INTER.VDW>
-15.781

>  <SCORE.INTER.norm>
-0.0618833

>  <SCORE.INTRA>
-2.06726

>  <SCORE.INTRA.DIHEDRAL>
-4.60887

>  <SCORE.INTRA.DIHEDRAL.0>
9.75037

>  <SCORE.INTRA.POLAR>
0

>  <SCORE.INTRA.POLAR.0>
0

>  <SCORE.INTRA.REPUL>
0

>  <SCORE.INTRA.REPUL.0>
0

>  <SCORE.INTRA.SOLV>
-0.649647

>  <SCORE.INTRA.SOLV.lig_0>
-48.4279

>  <SCORE.INTRA.VDW>
0.561995

>  <SCORE.INTRA.VDW.0>
-4.69037

>  <SCORE.INTRA.norm>
-0.0765654

>  <SCORE.RESTR>
1.25955

>  <SCORE.RESTR.CAVITY>
1.25955

>  <SCORE.RESTR.norm>
0.0466501

>  <SCORE.SYSTEM>
0

>  <SCORE.SYSTEM.CONST>
0

>  <SCORE.SYSTEM.DIHEDRAL>
0

>  <SCORE.SYSTEM.SOLV>
0

>  <SCORE.SYSTEM.norm>
0

>  <SCORE.heavy>
27

>  <SCORE.norm>
-0.0917985

>  <RMSD>
17.011

$$$$
ligand
 OpenBabel02271912153D
libRbt.so/2013.1/901 2013/11/27
 27 29  0  0  0  0  0  0  0  0999 V2000
    4.4809  -16.5778    8.5869 N   0  0  0  0  0  0  0  0  0  0  0  0
    4.2825  -15.2368    7.9550 C   0  0  2  0  0  0  0  0  0  0  0  0
    2.7850  -14.9618    7.6931 C   0  0  0  0  0  0  0  0  0  0  0  0
    2.3647  -13.8106    7.5429 O   0  0  0  0  0  0  0  0  0  0  0  0
    5.1129  -15.1496    6.6789 C   0  0  0  0  0  0  0  0  0  0  0  0
    5.0807  -13.7917    5.9977 C   0  0  0  0  0  0  0  0  0  0  0  0
    5.6374  -13.8412    4.2701 S   0  0  2  0  0  0  0  0  0  0  0  0
    5.6496  -12.0707    3.8689 C   0  0  0  0  0  0  0  0  0  0  0  0
    4.2443  -14.4400    3.3003 C   0  0  0  0  0  0  0  0  0  0  0  0
    4.3403  -15.9486    3.1764 C   0  0  1  0  0  0  0  0  0  0  0  0
    4.1271  -16.6109    4.4134 O   0  0  0  0  0  0  0  0  0  0  0  0
    3.3208  -16.4887    2.2034 C   0  0  1  0  0  0  0  0  0  0  0  0
    3.7969  -16.4276    0.8895 O   0  0  0  0  0  0  0  0  0  0  0  0
    3.1794  -17.9006    2.6846 C   0  0  1  0  0  0  0  0  0  0  0  0
    4.1636  -18.7041    2.0617 O   0  0  0  0  0  0  0  0  0  0  0  0
    3.4323  -17.8149    4.1843 C   0  0  2  0  0  0  0  0  0  0  0  0
    1.9421  -15.8753    7.6274 O   0  0  0  0  0  0  0  0  0  0  0  0
   -0.8502  -15.1961    5.8153 N   0  0  0  0  0  0  0  0  0  0  0  0
    0.1729  -14.7315    5.0018 C   0  0  0  0  0  0  0  0  0  0  0  0
    1.2484  -15.5476    4.6718 N   0  0  0  0  0  0  0  0  0  0  0  0
    1.2832  -16.8103    5.1350 C   0  0  0  0  0  0  0  0  0  0  0  0
    0.2507  -17.2946    5.9430 C   0  0  0  0  0  0  0  0  0  0  0  0
   -0.8146  -16.4872    6.2967 C   0  0  0  0  0  0  0  0  0  0  0  0
   -1.7853  -16.9473    7.0717 N   0  0  0  0  0  0  0  0  0  0  0  0
    0.5242  -18.5677    6.2487 N   0  0  0  0  0  0  0  0  0  0  0  0
    1.6927  -18.9022    5.6581 C   0  0  0  0  0  0  0  0  0  0  0  0
    2.1765  -17.8250    4.9581 N   0  0  0  0  0  0  0  0  0  0  0  0
  2  1  1  6  0  0  0
  2  3  1  0  0  0  0
  2  5  1  0  0  0  0
  3  4  1  0  0  0  0
  3 17  1  0  0  0  0
  5  6  1  0  0  0  0
  7  6  1  1  0  0  0
  7  8  1  0  0  0  0
  7  9  1  0  0  0  0
 10  9  1  1  0  0  0
 10 11  1  0  0  0  0
 10 12  1  0  0  0  0
 11 16  1  0  0  0  0
 12 13  1  6  0  0  0
 12 14  1  0  0  0  0
 14 15  1  6  0  0  0
 14 16  1  0  0  0  0
 16 27  1  1  0  0  0
 18 19  2  0  0  0  0
 18 23  1  0  0  0  0
 19 20  1  0  0  0  0
 20 21  2  0  0  0  0
 21 22  1  0  0  0  0
 21 27  1  0  0  0  0
 22 23  2  0  0  0  0
 22 25  1  0  0  0  0
 23 24  1  0  0  0  0
 25 26  2  0  0  0  0
 26 27  1  0  0  0  0
M  END
>  <CHROM.1>
159.16436955,-175.51726891,-162.60545456,-173.69664618,-91.99188901,68.28116309
42.29623884,2.86321647,-15.94233183,5.11064976,-2.91736647,-0.58316374,-2.12558299

>  <Name>
ligand

>  <RI>
0

>  <Rbt.Current_Directory>
/home/itssahil/PROJECTS/Mol_Feturizer/Test_systems_manuscript/rnas/2ydh

>  <Rbt.Executable>
rbdock ($Id: //depot/dev/client3/rdock/2013.1/src/exe/rbdock.cxx#4 $)

>  <Rbt.Library>
libRbt.so (2013.1, Build901 2013/11/27)

>  <Rbt.Parameter_File>
/export/apps/rDock/src/rDock_2013.1_src/data/scripts/dock_solv.prm

>  <Rbt.Receptor>
prm/blind_docking_20.prm

>  <SCORE>
-4.55448

>  <SCORE.INTER>
-3.14661

>  <SCORE.INTER.CONST>
1

>  <SCORE.INTER.POLAR>
0

>  <SCORE.INTER.ROT>
7

>  <SCORE.INTER.SOLV>
14.695

>  <SCORE.INTER.VDW>
-15.2627

>  <SCORE.INTER.norm>
-0.116541

>  <SCORE.INTRA>
-3.24678

>  <SCORE.INTRA.DIHEDRAL>
-3.22134

>  <SCORE.INTRA.DIHEDRAL.0>
9.75037

>  <SCORE.INTRA.POLAR>
0

>  <SCORE.INTRA.POLAR.0>
0

>  <SCORE.INTRA.REPUL>
0

>  <SCORE.INTRA.REPUL.0>
0

>  <SCORE.INTRA.SOLV>
-1.11344

>  <SCORE.INTRA.SOLV.lig_0>
-48.4279

>  <SCORE.INTRA.VDW>
-1.07938

>  <SCORE.INTRA.VDW.0>
-4.69037

>  <SCORE.INTRA.norm>
-0.120251

>  <SCORE.RESTR>
1.83891

>  <SCORE.RESTR.CAVITY>
1.83891

>  <SCORE.RESTR.norm>
0.0681078

>  <SCORE.SYSTEM>
0

>  <SCORE.SYSTEM.CONST>
0

>  <SCORE.SYSTEM.DIHEDRAL>
0

>  <SCORE.SYSTEM.SOLV>
0

>  <SCORE.SYSTEM.norm>
0

>  <SCORE.heavy>
27

>  <SCORE.norm>
-0.168684

>  <RMSD>
17.011

$$$$
ligand
 OpenBabel02271912153D
libRbt.so/2013.1/901 2013/11/27
 27 29  0  0  0  0  0  0  0  0999 V2000
    5.4830    5.1933   17.7060 N   0  0  0  0  0  0  0  0  0  0  0  0
    6.2447    5.7437   18.8694 C   0  0  2  0  0  0  0  0  0  0  0  0
    7.5693    6.3923   18.4097 C   0  0  0  0  0  0  0  0  0  0  0  0
    8.6055    5.7277   18.3140 O   0  0  0  0  0  0  0  0  0  0  0  0
    6.4735    4.6381   19.8945 C   0  0  0  0  0  0  0  0  0  0  0  0
    7.1724    5.0919   21.1653 C   0  0  0  0  0  0  0  0  0  0  0  0
    7.3926    3.7595   22.3790 S   0  0  2  0  0  0  0  0  0  0  0  0
    8.3163    4.6331   23.6749 C   0  0  0  0  0  0  0  0  0  0  0  0
    8.6416    2.6531   21.7038 C   0  0  0  0  0  0  0  0  0  0  0  0
    9.0540    1.6610   22.7744 C   0  0  1  0  0  0  0  0  0  0  0  0
    7.9711    0.8585   23.2189 O   0  0  0  0  0  0  0  0  0  0  0  0
   10.1248    0.7223   22.2743 C   0  0  1  0  0  0  0  0  0  0  0  0
   11.3964    1.2873   22.4167 O   0  0  0  0  0  0  0  0  0  0  0  0
    9.9276   -0.4533   23.1820 C   0  0  1  0  0  0  0  0  0  0  0  0
   10.6829   -0.2599   24.3629 O   0  0  0  0  0  0  0  0  0  0  0  0
    8.4369   -0.4421   23.4951 C   0  0  2  0  0  0  0  0  0  0  0  0
    7.6545    7.6007   18.1233 O   0  0  0  0  0  0  0  0  0  0  0  0
    7.0634   -2.1746   18.7024 N   0  0  0  0  0  0  0  0  0  0  0  0
    7.8777   -1.0963   19.0164 C   0  0  0  0  0  0  0  0  0  0  0  0
    8.1340   -0.7575   20.3397 N   0  0  0  0  0  0  0  0  0  0  0  0
    7.5977   -1.5000   21.3252 C   0  0  0  0  0  0  0  0  0  0  0  0
    6.7880   -2.5979   21.0212 C   0  0  0  0  0  0  0  0  0  0  0  0
    6.5073   -2.9337   19.7096 C   0  0  0  0  0  0  0  0  0  0  0  0
    5.7304   -3.9686   19.4267 N   0  0  0  0  0  0  0  0  0  0  0  0
    6.4025   -3.1614   22.1714 N   0  0  0  0  0  0  0  0  0  0  0  0
    6.9446   -2.4571   23.1893 C   0  0  0  0  0  0  0  0  0  0  0  0
    7.6941   -1.4243   22.6831 N   0  0  0  0  0  0  0  0  0  0  0  0
  2  1  1  6  0  0  0
  2  3  1  0  0  0  0
  2  5  1  0  0  0  0
  3  4  1  0  0  0  0
  3 17  1  0  0  0  0
  5  6  1  0  0  0  0
  7  6  1  6  0  0  0
  7  8  1  0  0  0  0
  7  9  1  0  0  0  0
 10  9  1  6  0  0  0
 10 11  1  0  0  0  0
 10 12  1  0  0  0  0
 11 16  1  0  0  0  0
 12 13  1  1  0  0  0
 12 14  1  0  0  0  0
 14 15  1  1  0  0  0
 14 16  1  0  0  0  0
 16 27  1  6  0  0  0
 18 19  2  0  0  0  0
 18 23  1  0  0  0  0
 19 20  1  0  0  0  0
 20 21  2  0  0  0  0
 21 22  1  0  0  0  0
 21 27  1  0  0  0  0
 22 23  2  0  0  0  0
 22 25  1  0  0  0  0
 23 24  1  0  0  0  0
 25 26  2  0  0  0  0
 26 27  1  0  0  0  0
M  END
>  <CHROM.1>
-88.79418048,-176.71332814,178.61602154,176.96031322,169.82097280,60.91723909
59.09336040,7.87181772,1.44206627,21.17245682,1.64711884,-0.99416644,-0.20860365

>  <Name>
ligand

>  <RI>
0

>  <Rbt.Current_Directory>
/home/itssahil/PROJECTS/Mol_Feturizer/Test_systems_manuscript/rnas/2ydh

>  <Rbt.Executable>
rbdock ($Id: //depot/dev/client3/rdock/2013.1/src/exe/rbdock.cxx#4 $)

>  <Rbt.Library>
libRbt.so (2013.1, Build901 2013/11/27)

>  <Rbt.Parameter_File>
/export/apps/rDock/src/rDock_2013.1_src/data/scripts/dock_solv.prm

>  <Rbt.Receptor>
prm/blind_docking_80.prm

>  <SCORE>
-14.678

>  <SCORE.INTER>
-12.552

>  <SCORE.INTER.CONST>
1

>  <SCORE.INTER.POLAR>
0

>  <SCORE.INTER.ROT>
7

>  <SCORE.INTER.SOLV>
10.7583

>  <SCORE.INTER.VDW>
-20.2208

>  <SCORE.INTER.norm>
-0.464889

>  <SCORE.INTRA>
-2.126

>  <SCORE.INTRA.DIHEDRAL>
-6.6114

>  <SCORE.INTRA.DIHEDRAL.0>
9.75037

>  <SCORE.INTRA.POLAR>
0

>  <SCORE.INTRA.POLAR.0>
0

>  <SCORE.INTRA.REPUL>
0

>  <SCORE.INTRA.REPUL.0>
0

>  <SCORE.INTRA.SOLV>
-1.52606

>  <SCORE.INTRA.SOLV.lig_0>
-48.4279

>  <SCORE.INTRA.VDW>
1.94273

>  <SCORE.INTRA.VDW.0>
-4.69037

>  <SCORE.INTRA.norm>
-0.0787409

>  <SCORE.RESTR>
0

>  <SCORE.RESTR.CAVITY>
0

>  <SCORE.RESTR.norm>
0

>  <SCORE.SYSTEM>
0

>  <SCORE.SYSTEM.CONST>
0

>  <SCORE.SYSTEM.DIHEDRAL>
0

>  <SCORE.SYSTEM.SOLV>
0

>  <SCORE.SYSTEM.norm>
0

>  <SCORE.heavy>
27

>  <SCORE.norm>
-0.54363

>  <RMSD>
17.032

$$$$
ligand
 OpenBabel02271912153D
libRbt.so/2013.1/901 2013/11/27
 27 29  0  0  0  0  0  0  0  0999 V2000
    8.8764    0.2767   23.1682 N   0  0  0  0  0  0  0  0  0  0  0  0
    9.0271   -0.4273   21.8573 C   0  0  2  0  0  0  0  0  0  0  0  0
   10.5127   -0.7211   21.5518 C   0  0  0  0  0  0  0  0  0  0  0  0
   10.8452   -1.7151   20.8991 O   0  0  0  0  0  0  0  0  0  0  0  0
    8.3690    0.4004   20.7585 C   0  0  0  0  0  0  0  0  0  0  0  0
    8.5982   -0.1247   19.3511 C   0  0  0  0  0  0  0  0  0  0  0  0
    7.7118    0.8198   18.0786 S   0  0  2  0  0  0  0  0  0  0  0  0
    8.6359    0.3344   16.5934 C   0  0  0  0  0  0  0  0  0  0  0  0
    8.2010    2.5398   18.2840 C   0  0  0  0  0  0  0  0  0  0  0  0
    6.9800    3.3603   18.6537 C   0  0  1  0  0  0  0  0  0  0  0  0
    6.3680    2.9147   19.8542 O   0  0  0  0  0  0  0  0  0  0  0  0
    7.3309    4.8151   18.8489 C   0  0  1  0  0  0  0  0  0  0  0  0
    7.3280    5.5017   17.6302 O   0  0  0  0  0  0  0  0  0  0  0  0
    6.2201    5.2636   19.7489 C   0  0  1  0  0  0  0  0  0  0  0  0
    5.1149    5.6612   18.9597 O   0  0  0  0  0  0  0  0  0  0  0  0
    5.8735    4.0255   20.5659 C   0  0  2  0  0  0  0  0  0  0  0  0
   11.4326    0.0177   21.9486 O   0  0  0  0  0  0  0  0  0  0  0  0
   10.0557    5.1614   23.5788 N   0  0  0  0  0  0  0  0  0  0  0  0
    9.9318    5.3077   22.2048 C   0  0  0  0  0  0  0  0  0  0  0  0
    8.7592    4.9467   21.5519 N   0  0  0  0  0  0  0  0  0  0  0  0
    7.7270    4.4670   22.2692 C   0  0  0  0  0  0  0  0  0  0  0  0
    7.8346    4.3293   23.6560 C   0  0  0  0  0  0  0  0  0  0  0  0
    9.0025    4.6644   24.3160 C   0  0  0  0  0  0  0  0  0  0  0  0
    9.1033    4.5218   25.6290 N   0  0  0  0  0  0  0  0  0  0  0  0
    6.6743    3.8498   24.1174 N   0  0  0  0  0  0  0  0  0  0  0  0
    5.8389    3.6837   23.0683 C   0  0  0  0  0  0  0  0  0  0  0  0
    6.4735    4.0663   21.9128 N   0  0  0  0  0  0  0  0  0  0  0  0
  2  1  1  1  0  0  0
  2  3  1  0  0  0  0
  2  5  1  0  0  0  0
  3  4  1  0  0  0  0
  3 17  1  0  0  0  0
  5  6  1  0  0  0  0
  7  6  1  1  0  0  0
  7  8  1  0  0  0  0
  7  9  1  0  0  0  0
 10  9  1  1  0  0  0
 10 11  1  0  0  0  0
 10 12  1  0  0  0  0
 11 16  1  0  0  0  0
 12 13  1  6  0  0  0
 12 14  1  0  0  0  0
 14 15  1  6  0  0  0
 14 16  1  0  0  0  0
 16 27  1  1  0  0  0
 18 19  2  0  0  0  0
 18 23  1  0  0  0  0
 19 20  1  0  0  0  0
 20 21  2  0  0  0  0
 21 22  1  0  0  0  0
 21 27  1  0  0  0  0
 22 23  2  0  0  0  0
 22 25  1  0  0  0  0
 23 24  1  0  0  0  0
 25 26  2  0  0  0  0
 26 27  1  0  0  0  0
M  END
>  <CHROM.1>
148.82503983,172.99697638,176.20198782,161.04439147,-116.95656173,59.30944393
76.65687682,8.09237166,2.74446889,20.85459233,-1.02176284,-0.98726727,0.97116884

>  <Name>
ligand

>  <RI>
0

>  <Rbt.Current_Directory>
/home/itssahil/PROJECTS/Mol_Feturizer/Test_systems_manuscript/rnas/2ydh

>  <Rbt.Executable>
rbdock ($Id: //depot/dev/client3/rdock/2013.1/src/exe/rbdock.cxx#4 $)

>  <Rbt.Library>
libRbt.so (2013.1, Build901 2013/11/27)

>  <Rbt.Parameter_File>
/export/apps/rDock/src/rDock_2013.1_src/data/scripts/dock_solv.prm

>  <Rbt.Receptor>
prm/blind_docking_100.prm

>  <SCORE>
-15.7301

>  <SCORE.INTER>
-15.2693

>  <SCORE.INTER.CONST>
1

>  <SCORE.INTER.POLAR>
0

>  <SCORE.INTER.ROT>
7

>  <SCORE.INTER.SOLV>
6.81312

>  <SCORE.INTER.VDW>
-20.7173

>  <SCORE.INTER.norm>
-0.565531

>  <SCORE.INTRA>
-0.460738

>  <SCORE.INTRA.DIHEDRAL>
-1.9221

>  <SCORE.INTRA.DIHEDRAL.0>
9.75037

>  <SCORE.INTRA.POLAR>
0

>  <SCORE.INTRA.POLAR.0>
0

>  <SCORE.INTRA.REPUL>
0

>  <SCORE.INTRA.REPUL.0>
0

>  <SCORE.INTRA.SOLV>
-1.42445

>  <SCORE.INTRA.SOLV.lig_0>
-48.4279

>  <SCORE.INTRA.VDW>
1.21254

>  <SCORE.INTRA.VDW.0>
-4.69037

>  <SCORE.INTRA.norm>
-0.0170644

>  <SCORE.RESTR>
0

>  <SCORE.RESTR.CAVITY>
0

>  <SCORE.RESTR.norm>
0

>  <SCORE.SYSTEM>
0

>  <SCORE.SYSTEM.CONST>
0

>  <SCORE.SYSTEM.DIHEDRAL>
0

>  <SCORE.SYSTEM.SOLV>
0

>  <SCORE.SYSTEM.norm>
0

>  <SCORE.heavy>
27

>  <SCORE.norm>
-0.582595

>  <RMSD>
17.034

$$$$
ligand
 OpenBabel02271912153D
libRbt.so/2013.1/901 2013/11/27
 27 29  0  0  0  0  0  0  0  0999 V2000
   12.0914   -8.4217   19.8324 N   0  0  0  0  0  0  0  0  0  0  0  0
   12.9253   -7.1828   19.7511 C   0  0  2  0  0  0  0  0  0  0  0  0
   14.0420   -7.3327   18.6942 C   0  0  0  0  0  0  0  0  0  0  0  0
   14.2121   -6.4773   17.8202 O   0  0  0  0  0  0  0  0  0  0  0  0
   13.4834   -6.8556   21.1321 C   0  0  0  0  0  0  0  0  0  0  0  0
   12.6748   -5.8327   21.9125 C   0  0  0  0  0  0  0  0  0  0  0  0
   11.3117   -6.5668   22.8611 S   0  0  2  0  0  0  0  0  0  0  0  0
   12.1412   -8.0130   23.5795 C   0  0  0  0  0  0  0  0  0  0  0  0
   10.2025   -7.3230   21.6620 C   0  0  0  0  0  0  0  0  0  0  0  0
    8.7691   -7.0968   22.1032 C   0  0  1  0  0  0  0  0  0  0  0  0
    8.5369   -7.5209   23.4375 O   0  0  0  0  0  0  0  0  0  0  0  0
    8.3930   -5.6369   22.0307 C   0  0  1  0  0  0  0  0  0  0  0  0
    7.9706   -5.2891   20.7434 O   0  0  0  0  0  0  0  0  0  0  0  0
    7.2737   -5.5756   23.0249 C   0  0  1  0  0  0  0  0  0  0  0  0
    6.0580   -5.8960   22.3756 O   0  0  0  0  0  0  0  0  0  0  0  0
    7.6250   -6.6419   24.0545 C   0  0  2  0  0  0  0  0  0  0  0  0
   14.8092   -8.3126   18.6710 O   0  0  0  0  0  0  0  0  0  0  0  0
    7.0400   -5.1482   29.0829 N   0  0  0  0  0  0  0  0  0  0  0  0
    6.0886   -5.7150   28.2473 C   0  0  0  0  0  0  0  0  0  0  0  0
    6.3981   -6.0421   26.9325 N   0  0  0  0  0  0  0  0  0  0  0  0
    7.6439   -5.8211   26.4748 C   0  0  0  0  0  0  0  0  0  0  0  0
    8.6152   -5.2646   27.3117 C   0  0  0  0  0  0  0  0  0  0  0  0
    8.3154   -4.9147   28.6154 C   0  0  0  0  0  0  0  0  0  0  0  0
    9.2364   -4.3774   29.4014 N   0  0  0  0  0  0  0  0  0  0  0  0
    9.7547   -5.1664   26.6183 N   0  0  0  0  0  0  0  0  0  0  0  0
    9.5345   -5.6451   25.3739 C   0  0  0  0  0  0  0  0  0  0  0  0
    8.2305   -6.0607   25.2676 N   0  0  0  0  0  0  0  0  0  0  0  0
  2  1  1  1  0  0  0
  2  3  1  0  0  0  0
  2  5  1  0  0  0  0
  3  4  1  0  0  0  0
  3 17  1  0  0  0  0
  5  6  1  0  0  0  0
  7  6  1  6  0  0  0
  7  8  1  0  0  0  0
  7  9  1  0  0  0  0
 10  9  1  1  0  0  0
 10 11  1  0  0  0  0
 10 12  1  0  0  0  0
 11 16  1  0  0  0  0
 12 13  1  6  0  0  0
 12 14  1  0  0  0  0
 14 15  1  6  0  0  0
 14 16  1  0  0  0  0
 16 27  1  1  0  0  0
 18 19  2  0  0  0  0
 18 23  1  0  0  0  0
 19 20  1  0  0  0  0
 20 21  2  0  0  0  0
 21 22  1  0  0  0  0
 21 27  1  0  0  0  0
 22 23  2  0  0  0  0
 22 25  1  0  0  0  0
 23 24  1  0  0  0  0
 25 26  2  0  0  0  0
 26 27  1  0  0  0  0
M  END
>  <CHROM.1>
129.04714192,-96.36297341,86.39851813,43.95348103,-141.41248407,-53.04149826
-139.98941731,9.87923639,-6.34248573,23.43310807,0.95157531,0.09719458,-1.73871845

>  <Name>
ligand

>  <RI>
0

>  <Rbt.Current_Directory>
/home/itssahil/PROJECTS/Mol_Feturizer/Test_systems_manuscript/rnas/2ydh

>  <Rbt.Executable>
rbdock ($Id: //depot/dev/client3/rdock/2013.1/src/exe/rbdock.cxx#4 $)

>  <Rbt.Library>
libRbt.so (2013.1, Build901 2013/11/27)

>  <Rbt.Parameter_File>
/export/apps/rDock/src/rDock_2013.1_src/data/scripts/dock_solv.prm

>  <Rbt.Receptor>
prm/blind_docking_60.prm

>  <SCORE>
-13.3697

>  <SCORE.INTER>
-18.793

>  <SCORE.INTER.CONST>
1

>  <SCORE.INTER.POLAR>
0

>  <SCORE.INTER.ROT>
7

>  <SCORE.INTER.SOLV>
14.2173

>  <SCORE.INTER.VDW>
-25.5344

>  <SCORE.INTER.norm>
-0.696036

>  <SCORE.INTRA>
5.42324

>  <SCORE.INTRA.DIHEDRAL>
3.67914

>  <SCORE.INTRA.DIHEDRAL.0>
9.75037

>  <SCORE.INTRA.POLAR>
0

>  <SCORE.INTRA.POLAR.0>
0

>  <SCORE.INTRA.REPUL>
0

>  <SCORE.INTRA.REPUL.0>
0

>  <SCORE.INTRA.SOLV>
2.0966

>  <SCORE.INTRA.SOLV.lig_0>
-48.4279

>  <SCORE.INTRA.VDW>
2.53537

>  <SCORE.INTRA.VDW.0>
-4.69037

>  <SCORE.INTRA.norm>
0.200861

>  <SCORE.RESTR>
0

>  <SCORE.RESTR.CAVITY>
0

>  <SCORE.RESTR.norm>
0

>  <SCORE.SYSTEM>
0

>  <SCORE.SYSTEM.CONST>
0

>  <SCORE.SYSTEM.DIHEDRAL>
0

>  <SCORE.SYSTEM.SOLV>
0

>  <SCORE.SYSTEM.norm>
0

>  <SCORE.heavy>
27

>  <SCORE.norm>
-0.495175

>  <RMSD>
17.047

$$$$
ligand
 OpenBabel02271912153D
libRbt.so/2013.1/901 2013/11/27
 27 29  0  0  0  0  0  0  0  0999 V2000
   11.2376   -8.7239   16.8897 N   0  0  0  0  0  0  0  0  0  0  0  0
   10.7380   -9.6013   17.9930 C   0  0  2  0  0  0  0  0  0  0  0  0
   10.2506  -10.9608   17.4446 C   0  0  0  0  0  0  0  0  0  0  0  0
   10.2374  -11.1917   16.2317 O   0  0  0  0  0  0  0  0  0  0  0  0
    9.6458   -8.8707   18.7669 C   0  0  0  0  0  0  0  0  0  0  0  0
    9.1604   -9.5977   20.0099 C   0  0  0  0  0  0  0  0  0  0  0  0
    7.7395   -8.7931   20.8039 S   0  0  2  0  0  0  0  0  0  0  0  0
    6.5475   -8.7859   19.4347 C   0  0  0  0  0  0  0  0  0  0  0  0
    8.1563   -7.0484   20.9526 C   0  0  0  0  0  0  0  0  0  0  0  0
    7.0435   -6.3360   21.6973 C   0  0  1  0  0  0  0  0  0  0  0  0
    6.9073   -6.7888   23.0355 O   0  0  0  0  0  0  0  0  0  0  0  0
    7.2833   -4.8470   21.7559 C   0  0  1  0  0  0  0  0  0  0  0  0
    6.8105   -4.2150   20.6010 O   0  0  0  0  0  0  0  0  0  0  0  0
    6.4863   -4.4718   22.9679 C   0  0  1  0  0  0  0  0  0  0  0  0
    5.1487   -4.2166   22.5832 O   0  0  0  0  0  0  0  0  0  0  0  0
    6.5579   -5.7028   23.8622 C   0  0  2  0  0  0  0  0  0  0  0  0
    9.8483  -11.8734   18.1895 O   0  0  0  0  0  0  0  0  0  0  0  0
    7.5737   -5.4293   29.0345 N   0  0  0  0  0  0  0  0  0  0  0  0
    6.3443   -5.6075   28.4169 C   0  0  0  0  0  0  0  0  0  0  0  0
    6.2406   -5.6440   27.0314 N   0  0  0  0  0  0  0  0  0  0  0  0
    7.3531   -5.5231   26.2845 C   0  0  0  0  0  0  0  0  0  0  0  0
    8.5993   -5.3584   26.8955 C   0  0  0  0  0  0  0  0  0  0  0  0
    8.7146   -5.2989   28.2722 C   0  0  0  0  0  0  0  0  0  0  0  0
    9.8965   -5.1317   28.8463 N   0  0  0  0  0  0  0  0  0  0  0  0
    9.5263   -5.2789   25.9346 N   0  0  0  0  0  0  0  0  0  0  0  0
    8.9061   -5.3910   24.7392 C   0  0  0  0  0  0  0  0  0  0  0  0
    7.5568   -5.5481   24.9366 N   0  0  0  0  0  0  0  0  0  0  0  0
  2  1  1  6  0  0  0
  2  3  1  0  0  0  0
  2  5  1  0  0  0  0
  3  4  1  0  0  0  0
  3 17  1  0  0  0  0
  5  6  1  0  0  0  0
  7  6  1  6  0  0  0
  7  8  1  0  0  0  0
  7  9  1  0  0  0  0
 10  9  1  1  0  0  0
 10 11  1  0  0  0  0
 10 12  1  0  0  0  0
 11 16  1  0  0  0  0
 12 13  1  6  0  0  0
 12 14  1  0  0  0  0
 14 15  1  6  0  0  0
 14 16  1  0  0  0  0
 16 27  1  1  0  0  0
 18 19  2  0  0  0  0
 18 23  1  0  0  0  0
 19 20  1  0  0  0  0
 20 21  2  0  0  0  0
 21 22  1  0  0  0  0
 21 27  1  0  0  0  0
 22 23  2  0  0  0  0
 22 25  1  0  0  0  0
 23 24  1  0  0  0  0
 25 26  2  0  0  0  0
 26 27  1  0  0  0  0
M  END
>  <CHROM.1>
-3.61427780,-173.64799551,-173.67151861,57.66743921,-176.15451178,64.30296723
-124.73760385,8.13445658,-7.03541599,22.49531614,-1.30444539,-0.75439860
1.26633671

>  <Name>
ligand

>  <RI>
0

>  <Rbt.Current_Directory>
/home/itssahil/PROJECTS/Mol_Feturizer/Test_systems_manuscript/rnas/2ydh

>  <Rbt.Executable>
rbdock ($Id: //depot/dev/client3/rdock/2013.1/src/exe/rbdock.cxx#4 $)

>  <Rbt.Library>
libRbt.so (2013.1, Build901 2013/11/27)

>  <Rbt.Parameter_File>
/export/apps/rDock/src/rDock_2013.1_src/data/scripts/dock_solv.prm

>  <Rbt.Receptor>
prm/blind_docking_100.prm

>  <SCORE>
-15.3308

>  <SCORE.INTER>
-14.6599

>  <SCORE.INTER.CONST>
1

>  <SCORE.INTER.POLAR>
0

>  <SCORE.INTER.ROT>
7

>  <SCORE.INTER.SOLV>
12.6663

>  <SCORE.INTER.VDW>
-22.262

>  <SCORE.INTER.norm>
-0.54296

>  <SCORE.INTRA>
-0.670877

>  <SCORE.INTRA.DIHEDRAL>
-5.94209

>  <SCORE.INTRA.DIHEDRAL.0>
9.75037

>  <SCORE.INTRA.POLAR>
0

>  <SCORE.INTRA.POLAR.0>
0

>  <SCORE.INTRA.REPUL>
0

>  <SCORE.INTRA.REPUL.0>
0

>  <SCORE.INTRA.SOLV>
-1.57905

>  <SCORE.INTRA.SOLV.lig_0>
-48.4279

>  <SCORE.INTRA.VDW>
3.08969

>  <SCORE.INTRA.VDW.0>
-4.69037

>  <SCORE.INTRA.norm>
-0.0248473

>  <SCORE.RESTR>
0

>  <SCORE.RESTR.CAVITY>
0

>  <SCORE.RESTR.norm>
0

>  <SCORE.SYSTEM>
0

>  <SCORE.SYSTEM.CONST>
0

>  <SCORE.SYSTEM.DIHEDRAL>
0

>  <SCORE.SYSTEM.SOLV>
0

>  <SCORE.SYSTEM.norm>
0

>  <SCORE.heavy>
27

>  <SCORE.norm>
-0.567808

>  <RMSD>
17.056

$$$$
ligand
 OpenBabel02271912153D
libRbt.so/2013.1/901 2013/11/27
 27 29  0  0  0  0  0  0  0  0999 V2000
    1.4596  -13.0327    7.0275 N   0  0  0  0  0  0  0  0  0  0  0  0
    1.3025  -14.5082    7.2140 C   0  0  2  0  0  0  0  0  0  0  0  0
    0.4785  -14.8236    8.4821 C   0  0  0  0  0  0  0  0  0  0  0  0
    0.9976  -14.8006    9.6022 O   0  0  0  0  0  0  0  0  0  0  0  0
    2.6786  -15.1646    7.2468 C   0  0  0  0  0  0  0  0  0  0  0  0
    3.4257  -15.1287    5.9240 C   0  0  0  0  0  0  0  0  0  0  0  0
    5.2268  -15.2602    6.1124 S   0  0  2  0  0  0  0  0  0  0  0  0
    5.6213  -13.6055    6.7463 C   0  0  0  0  0  0  0  0  0  0  0  0
    5.9205  -15.2054    4.4524 C   0  0  0  0  0  0  0  0  0  0  0  0
    5.6206  -16.5146    3.7478 C   0  0  1  0  0  0  0  0  0  0  0  0
    5.0146  -17.4684    4.6065 O   0  0  0  0  0  0  0  0  0  0  0  0
    4.6852  -16.3120    2.5808 C   0  0  1  0  0  0  0  0  0  0  0  0
    5.3889  -15.9425    1.4297 O   0  0  0  0  0  0  0  0  0  0  0  0
    4.0784  -17.6761    2.4546 C   0  0  1  0  0  0  0  0  0  0  0  0
    4.9007  -18.4751    1.6254 O   0  0  0  0  0  0  0  0  0  0  0  0
    4.0701  -18.2182    3.8781 C   0  0  2  0  0  0  0  0  0  0  0  0
   -0.7302  -15.1173    8.4345 O   0  0  0  0  0  0  0  0  0  0  0  0
   -0.3760  -15.4364    4.4720 N   0  0  0  0  0  0  0  0  0  0  0  0
    0.7224  -15.1272    3.6829 C   0  0  0  0  0  0  0  0  0  0  0  0
    1.8318  -15.9634    3.6453 N   0  0  0  0  0  0  0  0  0  0  0  0
    1.8274  -17.0962    4.3714 C   0  0  0  0  0  0  0  0  0  0  0  0
    0.7205  -17.4260    5.1584 C   0  0  0  0  0  0  0  0  0  0  0  0
   -0.3812  -16.5929    5.2219 C   0  0  0  0  0  0  0  0  0  0  0  0
   -1.4234  -16.9044    5.9778 N   0  0  0  0  0  0  0  0  0  0  0  0
    0.9699  -18.5956    5.7574 N   0  0  0  0  0  0  0  0  0  0  0  0
    2.1954  -19.0148    5.3719 C   0  0  0  0  0  0  0  0  0  0  0  0
    2.7413  -18.0988    4.5073 N   0  0  0  0  0  0  0  0  0  0  0  0
  2  1  1  1  0  0  0
  2  3  1  0  0  0  0
  2  5  1  0  0  0  0
  3  4  1  0  0  0  0
  3 17  1  0  0  0  0
  5  6  1  0  0  0  0
  7  6  1  6  0  0  0
  7  8  1  0  0  0  0
  7  9  1  0  0  0  0
 10  9  1  1  0  0  0
 10 11  1  0  0  0  0
 10 12  1  0  0  0  0
 11 16  1  0  0  0  0
 12 13  1  6  0  0  0
 12 14  1  0  0  0  0
 14 15  1  6  0  0  0
 14 16  1  0  0  0  0
 16 27  1  1  0  0  0
 18 19  2  0  0  0  0
 18 23  1  0  0  0  0
 19 20  1  0  0  0  0
 20 21  2  0  0  0  0
 21 22  1  0  0  0  0
 21 27  1  0  0  0  0
 22 23  2  0  0  0  0
 22 25  1  0  0  0  0
 23 24  1  0  0  0  0
 25 26  2  0  0  0  0
 26 27  1  0  0  0  0
M  END
>  <CHROM.1>
-80.24911059,-68.00739079,156.17022598,-73.97734410,-72.37133057,-6.21507897
82.06688693,2.73277364,-16.13720077,5.23077333,-2.40267109,-0.28596028,-2.23863734

>  <Name>
ligand

>  <RI>
0

>  <Rbt.Current_Directory>
/home/itssahil/PROJECTS/Mol_Feturizer/Test_systems_manuscript/rnas/2ydh

>  <Rbt.Executable>
rbdock ($Id: //depot/dev/client3/rdock/2013.1/src/exe/rbdock.cxx#4 $)

>  <Rbt.Library>
libRbt.so (2013.1, Build901 2013/11/27)

>  <Rbt.Parameter_File>
/export/apps/rDock/src/rDock_2013.1_src/data/scripts/dock_solv.prm

>  <Rbt.Receptor>
prm/blind_docking_20.prm

>  <SCORE>
1.3424

>  <SCORE.INTER>
-1.93283

>  <SCORE.INTER.CONST>
1

>  <SCORE.INTER.POLAR>
0

>  <SCORE.INTER.ROT>
7

>  <SCORE.INTER.SOLV>
8.79289

>  <SCORE.INTER.VDW>
-12.4862

>  <SCORE.INTER.norm>
-0.0715862

>  <SCORE.INTRA>
1.51535

>  <SCORE.INTRA.DIHEDRAL>
0.777119

>  <SCORE.INTRA.DIHEDRAL.0>
9.75037

>  <SCORE.INTRA.POLAR>
0

>  <SCORE.INTRA.POLAR.0>
0

>  <SCORE.INTRA.REPUL>
0

>  <SCORE.INTRA.REPUL.0>
0

>  <SCORE.INTRA.SOLV>
1.83397

>  <SCORE.INTRA.SOLV.lig_0>
-48.4279

>  <SCORE.INTRA.VDW>
0.209799

>  <SCORE.INTRA.VDW.0>
-4.69037

>  <SCORE.INTRA.norm>
0.0561239

>  <SCORE.RESTR>
1.75989

>  <SCORE.RESTR.CAVITY>
1.75989

>  <SCORE.RESTR.norm>
0.0651809

>  <SCORE.SYSTEM>
0

>  <SCORE.SYSTEM.CONST>
0

>  <SCORE.SYSTEM.DIHEDRAL>
0

>  <SCORE.SYSTEM.SOLV>
0

>  <SCORE.SYSTEM.norm>
0

>  <SCORE.heavy>
27

>  <SCORE.norm>
0.0497187

>  <RMSD>
17.073

$$$$
ligand
 OpenBabel02271912153D
libRbt.so/2013.1/901 2013/11/27
 27 29  0  0  0  0  0  0  0  0999 V2000
    7.7555    2.6392   19.0392 N   0  0  0  0  0  0  0  0  0  0  0  0
    7.0632    3.0352   20.3043 C   0  0  2  0  0  0  0  0  0  0  0  0
    7.0453    4.5710   20.4708 C   0  0  0  0  0  0  0  0  0  0  0  0
    6.1037    5.2477   20.0465 O   0  0  0  0  0  0  0  0  0  0  0  0
    7.7287    2.3384   21.4863 C   0  0  0  0  0  0  0  0  0  0  0  0
    7.1047    2.6523   22.8358 C   0  0  0  0  0  0  0  0  0  0  0  0
    7.6509    1.5336   24.1575 S   0  0  2  0  0  0  0  0  0  0  0  0
    6.4017    1.8783   25.4288 C   0  0  0  0  0  0  0  0  0  0  0  0
    9.1308    2.2687   24.8714 C   0  0  0  0  0  0  0  0  0  0  0  0
   10.3508    1.7091   24.1648 C   0  0  1  0  0  0  0  0  0  0  0  0
   10.2330    0.3213   23.8922 O   0  0  0  0  0  0  0  0  0  0  0  0
   10.5902    2.4010   22.8450 C   0  0  1  0  0  0  0  0  0  0  0  0
   11.3262    3.5777   23.0195 O   0  0  0  0  0  0  0  0  0  0  0  0
   11.3688    1.3557   22.1061 C   0  0  1  0  0  0  0  0  0  0  0  0
   12.7440    1.5033   22.4051 O   0  0  0  0  0  0  0  0  0  0  0  0
   10.8429    0.0356   22.6547 C   0  0  2  0  0  0  0  0  0  0  0  0
    7.9697    5.1908   21.0283 O   0  0  0  0  0  0  0  0  0  0  0  0
    6.4501   -2.8342   22.0836 N   0  0  0  0  0  0  0  0  0  0  0  0
    7.0635   -2.4430   23.2649 C   0  0  0  0  0  0  0  0  0  0  0  0
    8.2341   -1.6941   23.2467 N   0  0  0  0  0  0  0  0  0  0  0  0
    8.7650   -1.3305   22.0651 C   0  0  0  0  0  0  0  0  0  0  0  0
    8.1477   -1.7058   20.8685 C   0  0  0  0  0  0  0  0  0  0  0  0
    6.9946   -2.4687   20.8713 C   0  0  0  0  0  0  0  0  0  0  0  0
    6.4193   -2.8311   19.7345 N   0  0  0  0  0  0  0  0  0  0  0  0
    8.8661   -1.2076   19.8561 N   0  0  0  0  0  0  0  0  0  0  0  0
    9.9131   -0.5290   20.3750 C   0  0  0  0  0  0  0  0  0  0  0  0
    9.8643   -0.5903   21.7455 N   0  0  0  0  0  0  0  0  0  0  0  0
  2  1  1  6  0  0  0
  2  3  1  0  0  0  0
  2  5  1  0  0  0  0
  3  4  1  0  0  0  0
  3 17  1  0  0  0  0
  5  6  1  0  0  0  0
  7  6  1  6  0  0  0
  7  8  1  0  0  0  0
  7  9  1  0  0  0  0
 10  9  1  6  0  0  0
 10 11  1  0  0  0  0
 10 12  1  0  0  0  0
 11 16  1  0  0  0  0
 12 13  1  1  0  0  0
 12 14  1  0  0  0  0
 14 15  1  1  0  0  0
 14 16  1  0  0  0  0
 16 27  1  6  0  0  0
 18 19  2  0  0  0  0
 18 23  1  0  0  0  0
 19 20  1  0  0  0  0
 20 21  2  0  0  0  0
 21 22  1  0  0  0  0
 21 27  1  0  0  0  0
 22 23  2  0  0  0  0
 22 25  1  0  0  0  0
 23 24  1  0  0  0  0
 25 26  2  0  0  0  0
 26 27  1  0  0  0  0
M  END
>  <CHROM.1>
91.55034214,-179.50427267,166.59829833,-164.65178764,-92.36807183,-40.01663495
-27.12876553,8.57559280,1.03903166,22.15772297,1.46775624,-0.64495166,-0.02518728

>  <Name>
ligand

>  <RI>
0

>  <Rbt.Current_Directory>
/home/itssahil/PROJECTS/Mol_Feturizer/Test_systems_manuscript/rnas/2ydh

>  <Rbt.Executable>
rbdock ($Id: //depot/dev/client3/rdock/2013.1/src/exe/rbdock.cxx#4 $)

>  <Rbt.Library>
libRbt.so (2013.1, Build901 2013/11/27)

>  <Rbt.Parameter_File>
/export/apps/rDock/src/rDock_2013.1_src/data/scripts/dock_solv.prm

>  <Rbt.Receptor>
prm/blind_docking_40.prm

>  <SCORE>
-13.3772

>  <SCORE.INTER>
-11.9657

>  <SCORE.INTER.CONST>
1

>  <SCORE.INTER.POLAR>
0

>  <SCORE.INTER.ROT>
7

>  <SCORE.INTER.SOLV>
9.09566

>  <SCORE.INTER.VDW>
-19.2757

>  <SCORE.INTER.norm>
-0.443172

>  <SCORE.INTRA>
-1.4149

>  <SCORE.INTRA.DIHEDRAL>
-1.79346

>  <SCORE.INTRA.DIHEDRAL.0>
9.75037

>  <SCORE.INTRA.POLAR>
0

>  <SCORE.INTRA.POLAR.0>
0

>  <SCORE.INTRA.REPUL>
0

>  <SCORE.INTRA.REPUL.0>
0

>  <SCORE.INTRA.SOLV>
-1.09807

>  <SCORE.INTRA.SOLV.lig_0>
-48.4279

>  <SCORE.INTRA.VDW>
0.0308685

>  <SCORE.INTRA.VDW.0>
-4.69037

>  <SCORE.INTRA.norm>
-0.0524037

>  <SCORE.RESTR>
0.00330861

>  <SCORE.RESTR.CAVITY>
0.00330861

>  <SCORE.RESTR.norm>
0.000122541

>  <SCORE.SYSTEM>
0

>  <SCORE.SYSTEM.CONST>
0

>  <SCORE.SYSTEM.DIHEDRAL>
0

>  <SCORE.SYSTEM.SOLV>
0

>  <SCORE.SYSTEM.norm>
0

>  <SCORE.heavy>
27

>  <SCORE.norm>
-0.495453

>  <RMSD>
17.096

$$$$
ligand
 OpenBabel02271912153D
libRbt.so/2013.1/901 2013/11/27
 27 29  0  0  0  0  0  0  0  0999 V2000
    6.7034  -18.0927    7.0783 N   0  0  0  0  0  0  0  0  0  0  0  0
    5.3583  -17.5177    7.3893 C   0  0  2  0  0  0  0  0  0  0  0  0
    4.4254  -17.5895    6.1601 C   0  0  0  0  0  0  0  0  0  0  0  0
    4.5681  -16.8199    5.2051 O   0  0  0  0  0  0  0  0  0  0  0  0
    5.5228  -16.0906    7.9012 C   0  0  0  0  0  0  0  0  0  0  0  0
    4.2371  -15.4439    8.3887 C   0  0  0  0  0  0  0  0  0  0  0  0
    3.1165  -14.9683    7.0415 S   0  0  2  0  0  0  0  0  0  0  0  0
    3.3936  -13.1749    6.9896 C   0  0  0  0  0  0  0  0  0  0  0  0
    1.4460  -15.0745    7.7034 C   0  0  0  0  0  0  0  0  0  0  0  0
    0.5047  -15.5199    6.6006 C   0  0  1  0  0  0  0  0  0  0  0  0
    0.7104  -14.8092    5.3895 O   0  0  0  0  0  0  0  0  0  0  0  0
    0.6753  -16.9865    6.2879 C   0  0  1  0  0  0  0  0  0  0  0  0
   -0.0874  -17.7779    7.1531 O   0  0  0  0  0  0  0  0  0  0  0  0
    0.1676  -17.0442    4.8794 C   0  0  1  0  0  0  0  0  0  0  0  0
   -1.2342  -17.2364    4.8987 O   0  0  0  0  0  0  0  0  0  0  0  0
    0.5103  -15.6782    4.2988 C   0  0  2  0  0  0  0  0  0  0  0  0
    3.4948  -18.4121    6.0779 O   0  0  0  0  0  0  0  0  0  0  0  0
    4.4202  -18.5487    2.2174 N   0  0  0  0  0  0  0  0  0  0  0  0
    3.3827  -18.9851    3.0285 C   0  0  0  0  0  0  0  0  0  0  0  0
    2.4315  -18.0942    3.5112 N   0  0  0  0  0  0  0  0  0  0  0  0
    2.5120  -16.7955    3.1689 C   0  0  0  0  0  0  0  0  0  0  0  0
    3.5440  -16.3466    2.3400 C   0  0  0  0  0  0  0  0  0  0  0  0
    4.5093  -17.2179    1.8699 C   0  0  0  0  0  0  0  0  0  0  0  0
    5.4916  -16.7856    1.0935 N   0  0  0  0  0  0  0  0  0  0  0  0
    3.3817  -15.0328    2.1485 N   0  0  0  0  0  0  0  0  0  0  0  0
    2.2808  -14.6399    2.8264 C   0  0  0  0  0  0  0  0  0  0  0  0
    1.7246  -15.7219    3.4624 N   0  0  0  0  0  0  0  0  0  0  0  0
  2  1  1  6  0  0  0
  2  3  1  0  0  0  0
  2  5  1  0  0  0  0
  3  4  1  0  0  0  0
  3 17  1  0  0  0  0
  5  6  1  0  0  0  0
  7  6  1  1  0  0  0
  7  8  1  0  0  0  0
  7  9  1  0  0  0  0
 10  9  1  1  0  0  0
 10 11  1  0  0  0  0
 10 12  1  0  0  0  0
 11 16  1  0  0  0  0
 12 13  1  1  0  0  0
 12 14  1  0  0  0  0
 14 15  1  1  0  0  0
 14 16  1  0  0  0  0
 16 27  1  1  0  0  0
 18 19  2  0  0  0  0
 18 23  1  0  0  0  0
 19 20  1  0  0  0  0
 20 21  2  0  0  0  0
 21 22  1  0  0  0  0
 21 27  1  0  0  0  0
 22 23  2  0  0  0  0
 22 25  1  0  0  0  0
 23 24  1  0  0  0  0
 25 26  2  0  0  0  0
 26 27  1  0  0  0  0
M  END
>  <CHROM.1>
-74.68394222,-173.99451435,-73.69799257,-103.36598529,-146.16576148,-46.33416439
119.15359534,2.83745984,-16.45197844,5.16600614,-1.90490106,0.19301922,-1.80277758

>  <Name>
ligand

>  <RI>
0

>  <Rbt.Current_Directory>
/home/itssahil/PROJECTS/Mol_Feturizer/Test_systems_manuscript/rnas/2ydh

>  <Rbt.Executable>
rbdock ($Id: //depot/dev/client3/rdock/2013.1/src/exe/rbdock.cxx#4 $)

>  <Rbt.Library>
libRbt.so (2013.1, Build901 2013/11/27)

>  <Rbt.Parameter_File>
/export/apps/rDock/src/rDock_2013.1_src/data/scripts/dock_solv.prm

>  <Rbt.Receptor>
prm/blind_docking_20.prm

>  <SCORE>
-6.31878

>  <SCORE.INTER>
-6.55035

>  <SCORE.INTER.CONST>
1

>  <SCORE.INTER.POLAR>
0

>  <SCORE.INTER.ROT>
7

>  <SCORE.INTER.SOLV>
15.4518

>  <SCORE.INTER.VDW>
-17.7842

>  <SCORE.INTER.norm>
-0.242606

>  <SCORE.INTRA>
-1.12209

>  <SCORE.INTRA.DIHEDRAL>
1.17506

>  <SCORE.INTRA.DIHEDRAL.0>
9.75037

>  <SCORE.INTRA.POLAR>
0

>  <SCORE.INTRA.POLAR.0>
0

>  <SCORE.INTRA.REPUL>
0

>  <SCORE.INTRA.REPUL.0>
0

>  <SCORE.INTRA.SOLV>
-1.18144

>  <SCORE.INTRA.SOLV.lig_0>
-48.4279

>  <SCORE.INTRA.VDW>
-1.1189

>  <SCORE.INTRA.VDW.0>
-4.69037

>  <SCORE.INTRA.norm>
-0.0415589

>  <SCORE.RESTR>
1.35366

>  <SCORE.RESTR.CAVITY>
1.35366

>  <SCORE.RESTR.norm>
0.0501357

>  <SCORE.SYSTEM>
0

>  <SCORE.SYSTEM.CONST>
0

>  <SCORE.SYSTEM.DIHEDRAL>
0

>  <SCORE.SYSTEM.SOLV>
0

>  <SCORE.SYSTEM.norm>
0

>  <SCORE.heavy>
27

>  <SCORE.norm>
-0.234029

>  <RMSD>
17.124

$$$$
ligand
 OpenBabel02271912153D
libRbt.so/2013.1/901 2013/11/27
 27 29  0  0  0  0  0  0  0  0999 V2000
   14.9941   -8.3440   19.2404 N   0  0  0  0  0  0  0  0  0  0  0  0
   14.4020   -7.0386   19.6668 C   0  0  2  0  0  0  0  0  0  0  0  0
   15.2078   -6.4159   20.8285 C   0  0  0  0  0  0  0  0  0  0  0  0
   16.4392   -6.4979   20.8666 O   0  0  0  0  0  0  0  0  0  0  0  0
   12.9352   -7.2418   20.0311 C   0  0  0  0  0  0  0  0  0  0  0  0
   12.6931   -8.2772   21.1167 C   0  0  0  0  0  0  0  0  0  0  0  0
   10.9576   -8.3757   21.6413 S   0  0  2  0  0  0  0  0  0  0  0  0
   10.1632   -8.8739   20.0868 C   0  0  0  0  0  0  0  0  0  0  0  0
   10.3839   -6.6805   21.8337 C   0  0  0  0  0  0  0  0  0  0  0  0
    8.9405   -6.6970   22.2996 C   0  0  1  0  0  0  0  0  0  0  0  0
    8.8001   -7.2014   23.6187 O   0  0  0  0  0  0  0  0  0  0  0  0
    8.3411   -5.3119   22.2888 C   0  0  1  0  0  0  0  0  0  0  0  0
    7.8476   -4.9866   21.0210 O   0  0  0  0  0  0  0  0  0  0  0  0
    7.2432   -5.4628   23.2972 C   0  0  1  0  0  0  0  0  0  0  0  0
    6.0809   -5.9444   22.6495 O   0  0  0  0  0  0  0  0  0  0  0  0
    7.7735   -6.4987   24.2800 C   0  0  2  0  0  0  0  0  0  0  0  0
   14.6603   -5.8149   21.7712 O   0  0  0  0  0  0  0  0  0  0  0  0
    6.9343   -5.0220   29.2774 N   0  0  0  0  0  0  0  0  0  0  0  0
    6.0475   -5.6505   28.4153 C   0  0  0  0  0  0  0  0  0  0  0  0
    6.4191   -5.9635   27.1132 N   0  0  0  0  0  0  0  0  0  0  0  0
    7.6630   -5.6677   26.6943 C   0  0  0  0  0  0  0  0  0  0  0  0
    8.5703   -5.0483   27.5584 C   0  0  0  0  0  0  0  0  0  0  0  0
    8.2074   -4.7119   28.8495 C   0  0  0  0  0  0  0  0  0  0  0  0
    9.0673   -4.1150   29.6612 N   0  0  0  0  0  0  0  0  0  0  0  0
    9.7235   -4.8827   26.9013 N   0  0  0  0  0  0  0  0  0  0  0  0
    9.5738   -5.3796   25.6536 C   0  0  0  0  0  0  0  0  0  0  0  0
    8.3022   -5.8758   25.5082 N   0  0  0  0  0  0  0  0  0  0  0  0
  2  1  1  1  0  0  0
  2  3  1  0  0  0  0
  2  5  1  0  0  0  0
  3  4  1  0  0  0  0
  3 17  1  0  0  0  0
  5  6  1  0  0  0  0
  7  6  1  6  0  0  0
  7  8  1  0  0  0  0
  7  9  1  0  0  0  0
 10  9  1  1  0  0  0
 10 11  1  0  0  0  0
 10 12  1  0  0  0  0
 11 16  1  0  0  0  0
 12 13  1  6  0  0  0
 12 14  1  0  0  0  0
 14 15  1  6  0  0  0
 14 16  1  0  0  0  0
 16 27  1  1  0  0  0
 18 19  2  0  0  0  0
 18 23  1  0  0  0  0
 19 20  1  0  0  0  0
 20 21  2  0  0  0  0
 21 22  1  0  0  0  0
 21 27  1  0  0  0  0
 22 23  2  0  0  0  0
 22 25  1  0  0  0  0
 23 24  1  0  0  0  0
 25 26  2  0  0  0  0
 26 27  1  0  0  0  0
M  END
>  <CHROM.1>
37.96041899,57.12079436,174.27139125,61.64556829,-178.89772335,67.87900312
-146.51617275,10.03869202,-6.34791516,23.56865128,-0.86095925,0.02627889
1.25263501

>  <Name>
ligand

>  <RI>
0

>  <Rbt.Current_Directory>
/home/itssahil/PROJECTS/Mol_Feturizer/Test_systems_manuscript/rnas/2ydh

>  <Rbt.Executable>
rbdock ($Id: //depot/dev/client3/rdock/2013.1/src/exe/rbdock.cxx#4 $)

>  <Rbt.Library>
libRbt.so (2013.1, Build901 2013/11/27)

>  <Rbt.Parameter_File>
/export/apps/rDock/src/rDock_2013.1_src/data/scripts/dock_solv.prm

>  <Rbt.Receptor>
prm/blind_docking_40.prm

>  <SCORE>
-16.1342

>  <SCORE.INTER>
-16.0007

>  <SCORE.INTER.CONST>
1

>  <SCORE.INTER.POLAR>
0

>  <SCORE.INTER.ROT>
7

>  <SCORE.INTER.SOLV>
15.7589

>  <SCORE.INTER.VDW>
-24.1868

>  <SCORE.INTER.norm>
-0.59262

>  <SCORE.INTRA>
-0.133421

>  <SCORE.INTRA.DIHEDRAL>
-5.9216

>  <SCORE.INTRA.DIHEDRAL.0>
9.75037

>  <SCORE.INTRA.POLAR>
0

>  <SCORE.INTRA.POLAR.0>
0

>  <SCORE.INTRA.REPUL>
0

>  <SCORE.INTRA.REPUL.0>
0

>  <SCORE.INTRA.SOLV>
-0.859075

>  <SCORE.INTRA.SOLV.lig_0>
-48.4279

>  <SCORE.INTRA.VDW>
3.25692

>  <SCORE.INTRA.VDW.0>
-4.69037

>  <SCORE.INTRA.norm>
-0.00494152

>  <SCORE.RESTR>
0

>  <SCORE.RESTR.CAVITY>
0

>  <SCORE.RESTR.norm>
0

>  <SCORE.SYSTEM>
0

>  <SCORE.SYSTEM.CONST>
0

>  <SCORE.SYSTEM.DIHEDRAL>
0

>  <SCORE.SYSTEM.SOLV>
0

>  <SCORE.SYSTEM.norm>
0

>  <SCORE.heavy>
27

>  <SCORE.norm>
-0.597562

>  <RMSD>
17.160

$$$$
ligand
 OpenBabel02271912153D
libRbt.so/2013.1/901 2013/11/27
 27 29  0  0  0  0  0  0  0  0999 V2000
    6.2754    5.2953   17.1880 N   0  0  0  0  0  0  0  0  0  0  0  0
    6.7156    5.8189   18.5180 C   0  0  2  0  0  0  0  0  0  0  0  0
    8.0580    6.5745   18.4012 C   0  0  0  0  0  0  0  0  0  0  0  0
    8.0890    7.7947   18.2146 O   0  0  0  0  0  0  0  0  0  0  0  0
    6.7905    4.6685   19.5163 C   0  0  0  0  0  0  0  0  0  0  0  0
    7.1650    5.0838   20.9293 C   0  0  0  0  0  0  0  0  0  0  0  0
    7.3318    3.6810   22.0700 S   0  0  2  0  0  0  0  0  0  0  0  0
    7.9773    4.5204   23.5446 C   0  0  0  0  0  0  0  0  0  0  0  0
    8.7605    2.7371   21.5154 C   0  0  0  0  0  0  0  0  0  0  0  0
    9.0604    1.6514   22.5312 C   0  0  1  0  0  0  0  0  0  0  0  0
    7.9656    0.7691   22.7240 O   0  0  0  0  0  0  0  0  0  0  0  0
   10.2388    0.8091   22.1074 C   0  0  1  0  0  0  0  0  0  0  0  0
   11.4457    1.3995   22.4965 O   0  0  0  0  0  0  0  0  0  0  0  0
    9.9697   -0.4627   22.8524 C   0  0  1  0  0  0  0  0  0  0  0  0
   10.5326   -0.3702   24.1473 O   0  0  0  0  0  0  0  0  0  0  0  0
    8.4505   -0.5366   22.9358 C   0  0  2  0  0  0  0  0  0  0  0  0
    9.1569    5.9957   18.4832 O   0  0  0  0  0  0  0  0  0  0  0  0
    5.2446   -4.5868   21.8509 N   0  0  0  0  0  0  0  0  0  0  0  0
    5.4798   -3.9939   23.0829 C   0  0  0  0  0  0  0  0  0  0  0  0
    6.3719   -2.9354   23.2065 N   0  0  0  0  0  0  0  0  0  0  0  0
    6.9989   -2.4713   22.1103 C   0  0  0  0  0  0  0  0  0  0  0  0
    6.7586   -3.0505   20.8611 C   0  0  0  0  0  0  0  0  0  0  0  0
    5.8899   -4.1179   20.7268 C   0  0  0  0  0  0  0  0  0  0  0  0
    5.6738   -4.6705   19.5426 N   0  0  0  0  0  0  0  0  0  0  0  0
    7.4907   -2.3972   19.9521 N   0  0  0  0  0  0  0  0  0  0  0  0
    8.1817   -1.4243   20.5863 C   0  0  0  0  0  0  0  0  0  0  0  0
    7.8854   -1.4519   21.9264 N   0  0  0  0  0  0  0  0  0  0  0  0
  2  1  1  6  0  0  0
  2  3  1  0  0  0  0
  2  5  1  0  0  0  0
  3  4  1  0  0  0  0
  3 17  1  0  0  0  0
  5  6  1  0  0  0  0
  7  6  1  6  0  0  0
  7  8  1  0  0  0  0
  7  9  1  0  0  0  0
 10  9  1  6  0  0  0
 10 11  1  0  0  0  0
 10 12  1  0  0  0  0
 11 16  1  0  0  0  0
 12 13  1  1  0  0  0
 12 14  1  0  0  0  0
 14 15  1  1  0  0  0
 14 16  1  0  0  0  0
 16 27  1  6  0  0  0
 18 19  2  0  0  0  0
 18 23  1  0  0  0  0
 19 20  1  0  0  0  0
 20 21  2  0  0  0  0
 21 22  1  0  0  0  0
 21 27  1  0  0  0  0
 22 23  2  0  0  0  0
 22 25  1  0  0  0  0
 23 24  1  0  0  0  0
 25 26  2  0  0  0  0
 26 27  1  0  0  0  0
M  END
>  <CHROM.1>
92.37130579,-177.23508602,-176.91688679,173.03930279,172.80764103,58.73811592
-112.17206831,7.81159909,1.16028465,21.23293123,1.42000590,-0.83084214,-0.37372271

>  <Name>
ligand

>  <RI>
0

>  <Rbt.Current_Directory>
/home/itssahil/PROJECTS/Mol_Feturizer/Test_systems_manuscript/rnas/2ydh

>  <Rbt.Executable>
rbdock ($Id: //depot/dev/client3/rdock/2013.1/src/exe/rbdock.cxx#4 $)

>  <Rbt.Library>
libRbt.so (2013.1, Build901 2013/11/27)

>  <Rbt.Parameter_File>
/export/apps/rDock/src/rDock_2013.1_src/data/scripts/dock_solv.prm

>  <Rbt.Receptor>
prm/blind_docking_100.prm

>  <SCORE>
-15.5018

>  <SCORE.INTER>
-13.8961

>  <SCORE.INTER.CONST>
1

>  <SCORE.INTER.POLAR>
0

>  <SCORE.INTER.ROT>
7

>  <SCORE.INTER.SOLV>
7.08263

>  <SCORE.INTER.VDW>
-19.8916

>  <SCORE.INTER.norm>
-0.514669

>  <SCORE.INTRA>
-1.60576

>  <SCORE.INTRA.DIHEDRAL>
-6.67772

>  <SCORE.INTRA.DIHEDRAL.0>
9.75037

>  <SCORE.INTRA.POLAR>
0

>  <SCORE.INTRA.POLAR.0>
0

>  <SCORE.INTRA.REPUL>
0

>  <SCORE.INTRA.REPUL.0>
0

>  <SCORE.INTRA.SOLV>
-1.58333

>  <SCORE.INTRA.SOLV.lig_0>
-48.4279

>  <SCORE.INTRA.VDW>
2.52476

>  <SCORE.INTRA.VDW.0>
-4.69037

>  <SCORE.INTRA.norm>
-0.0594726

>  <SCORE.RESTR>
0

>  <SCORE.RESTR.CAVITY>
0

>  <SCORE.RESTR.norm>
0

>  <SCORE.SYSTEM>
0

>  <SCORE.SYSTEM.CONST>
0

>  <SCORE.SYSTEM.DIHEDRAL>
0

>  <SCORE.SYSTEM.SOLV>
0

>  <SCORE.SYSTEM.norm>
0

>  <SCORE.heavy>
27

>  <SCORE.norm>
-0.574142

>  <RMSD>
17.161

$$$$
ligand
 OpenBabel02271912153D
libRbt.so/2013.1/901 2013/11/27
 27 29  0  0  0  0  0  0  0  0999 V2000
    6.7768   -4.2968   22.3904 N   0  0  0  0  0  0  0  0  0  0  0  0
    8.0189   -3.6083   21.9216 C   0  0  2  0  0  0  0  0  0  0  0  0
    9.2831   -4.3214   22.4509 C   0  0  0  0  0  0  0  0  0  0  0  0
    9.3475   -4.7242   23.6163 O   0  0  0  0  0  0  0  0  0  0  0  0
    7.9728   -2.1414   22.3357 C   0  0  0  0  0  0  0  0  0  0  0  0
    9.1524   -1.3132   21.8540 C   0  0  0  0  0  0  0  0  0  0  0  0
    8.9162    0.4729   22.0799 S   0  0  2  0  0  0  0  0  0  0  0  0
   10.5181    1.1007   21.5009 C   0  0  0  0  0  0  0  0  0  0  0  0
    9.0061    0.7811   23.8510 C   0  0  0  0  0  0  0  0  0  0  0  0
    8.4396    2.1576   24.1426 C   0  0  1  0  0  0  0  0  0  0  0  0
    8.9730    3.1577   23.2885 O   0  0  0  0  0  0  0  0  0  0  0  0
    6.9401    2.1846   23.9738 C   0  0  1  0  0  0  0  0  0  0  0  0
    6.2944    1.7567   25.1385 O   0  0  0  0  0  0  0  0  0  0  0  0
    6.7044    3.6393   23.7030 C   0  0  1  0  0  0  0  0  0  0  0  0
    6.5538    4.3221   24.9332 O   0  0  0  0  0  0  0  0  0  0  0  0
    7.9689    4.0997   22.9893 C   0  0  2  0  0  0  0  0  0  0  0  0
   10.2850   -4.5160   21.7384 O   0  0  0  0  0  0  0  0  0  0  0  0
    6.1414    1.8714   18.5674 N   0  0  0  0  0  0  0  0  0  0  0  0
    6.0849    1.3695   19.8596 C   0  0  0  0  0  0  0  0  0  0  0  0
    6.6293    2.0776   20.9243 N   0  0  0  0  0  0  0  0  0  0  0  0
    7.2009    3.2740   20.6959 C   0  0  0  0  0  0  0  0  0  0  0  0
    7.2503    3.7970   19.4007 C   0  0  0  0  0  0  0  0  0  0  0  0
    6.7318    3.0938   18.3289 C   0  0  0  0  0  0  0  0  0  0  0  0
    6.7908    3.5888   17.1017 N   0  0  0  0  0  0  0  0  0  0  0  0
    7.8519    4.9903   19.4568 N   0  0  0  0  0  0  0  0  0  0  0  0
    8.1803    5.2376   20.7441 C   0  0  0  0  0  0  0  0  0  0  0  0
    7.7796    4.1850   21.5289 N   0  0  0  0  0  0  0  0  0  0  0  0
  2  1  1  1  0  0  0
  2  3  1  0  0  0  0
  2  5  1  0  0  0  0
  3  4  1  0  0  0  0
  3 17  1  0  0  0  0
  5  6  1  0  0  0  0
  7  6  1  1  0  0  0
  7  8  1  0  0  0  0
  7  9  1  0  0  0  0
 10  9  1  6  0  0  0
 10 11  1  0  0  0  0
 10 12  1  0  0  0  0
 11 16  1  0  0  0  0
 12 13  1  1  0  0  0
 12 14  1  0  0  0  0
 14 15  1  1  0  0  0
 14 16  1  0  0  0  0
 16 27  1  6  0  0  0
 18 19  2  0  0  0  0
 18 23  1  0  0  0  0
 19 20  1  0  0  0  0
 20 21  2  0  0  0  0
 21 22  1  0  0  0  0
 21 27  1  0  0  0  0
 22 23  2  0  0  0  0
 22 25  1  0  0  0  0
 23 24  1  0  0  0  0
 25 26  2  0  0  0  0
 26 27  1  0  0  0  0
M  END
>  <CHROM.1>
-42.54776665,-177.03777844,168.83377482,176.84340966,-164.28657146,-48.57691459
72.16266126,7.92715368,1.09615245,21.88697432,0.21414818,1.35851973,-2.00460455

>  <Name>
ligand

>  <RI>
0

>  <Rbt.Current_Directory>
/home/itssahil/PROJECTS/Mol_Feturizer/Test_systems_manuscript/rnas/2ydh

>  <Rbt.Executable>
rbdock ($Id: //depot/dev/client3/rdock/2013.1/src/exe/rbdock.cxx#4 $)

>  <Rbt.Library>
libRbt.so (2013.1, Build901 2013/11/27)

>  <Rbt.Parameter_File>
/export/apps/rDock/src/rDock_2013.1_src/data/scripts/dock_solv.prm

>  <Rbt.Receptor>
prm/blind_docking_80.prm

>  <SCORE>
-12.0986

>  <SCORE.INTER>
-9.58909

>  <SCORE.INTER.CONST>
1

>  <SCORE.INTER.POLAR>
0

>  <SCORE.INTER.ROT>
7

>  <SCORE.INTER.SOLV>
7.26099

>  <SCORE.INTER.VDW>
-17.0797

>  <SCORE.INTER.norm>
-0.355152

>  <SCORE.INTRA>
-2.50949

>  <SCORE.INTRA.DIHEDRAL>
-4.32888

>  <SCORE.INTRA.DIHEDRAL.0>
9.75037

>  <SCORE.INTRA.POLAR>
0

>  <SCORE.INTRA.POLAR.0>
0

>  <SCORE.INTRA.REPUL>
0

>  <SCORE.INTRA.REPUL.0>
0

>  <SCORE.INTRA.SOLV>
-1.21675

>  <SCORE.INTRA.SOLV.lig_0>
-48.4279

>  <SCORE.INTRA.VDW>
0.263325

>  <SCORE.INTRA.VDW.0>
-4.69037

>  <SCORE.INTRA.norm>
-0.0929442

>  <SCORE.RESTR>
0

>  <SCORE.RESTR.CAVITY>
0

>  <SCORE.RESTR.norm>
0

>  <SCORE.SYSTEM>
0

>  <SCORE.SYSTEM.CONST>
0

>  <SCORE.SYSTEM.DIHEDRAL>
0

>  <SCORE.SYSTEM.SOLV>
0

>  <SCORE.SYSTEM.norm>
0

>  <SCORE.heavy>
27

>  <SCORE.norm>
-0.448096

>  <RMSD>
17.174

$$$$
ligand
 OpenBabel02271912153D
libRbt.so/2013.1/901 2013/11/27
 27 29  0  0  0  0  0  0  0  0999 V2000
    7.2334   -2.6389   20.9798 N   0  0  0  0  0  0  0  0  0  0  0  0
    8.6947   -2.9532   21.0283 C   0  0  2  0  0  0  0  0  0  0  0  0
    8.9740   -4.1567   21.9558 C   0  0  0  0  0  0  0  0  0  0  0  0
    8.4429   -4.2422   23.0672 O   0  0  0  0  0  0  0  0  0  0  0  0
    9.4671   -1.7094   21.4552 C   0  0  0  0  0  0  0  0  0  0  0  0
    9.6215   -0.6594   20.3677 C   0  0  0  0  0  0  0  0  0  0  0  0
    8.0596    0.1567   19.9301 S   0  0  2  0  0  0  0  0  0  0  0  0
    7.6477   -0.7081   18.3880 C   0  0  0  0  0  0  0  0  0  0  0  0
    8.4896    1.8015   19.3388 C   0  0  0  0  0  0  0  0  0  0  0  0
    7.2765    2.7037   19.4616 C   0  0  1  0  0  0  0  0  0  0  0  0
    6.5944    2.5338   20.6946 O   0  0  0  0  0  0  0  0  0  0  0  0
    7.6596    4.1603   19.3645 C   0  0  1  0  0  0  0  0  0  0  0  0
    7.7357    4.5731   18.0301 O   0  0  0  0  0  0  0  0  0  0  0  0
    6.5201    4.8094   20.0891 C   0  0  1  0  0  0  0  0  0  0  0  0
    5.4664    5.0507   19.1760 O   0  0  0  0  0  0  0  0  0  0  0  0
    6.0986    3.7790   21.1289 C   0  0  2  0  0  0  0  0  0  0  0  0
    9.7416   -5.0818   21.6329 O   0  0  0  0  0  0  0  0  0  0  0  0
   10.1749    5.4103   24.0582 N   0  0  0  0  0  0  0  0  0  0  0  0
   10.1243    5.2575   22.6803 C   0  0  0  0  0  0  0  0  0  0  0  0
    8.9703    4.8004   22.0551 N   0  0  0  0  0  0  0  0  0  0  0  0
    7.8846    4.5219   22.7992 C   0  0  0  0  0  0  0  0  0  0  0  0
    7.9185    4.6864   24.1868 C   0  0  0  0  0  0  0  0  0  0  0  0
    9.0664    5.1199   24.8242 C   0  0  0  0  0  0  0  0  0  0  0  0
    9.0971    5.2639   26.1406 N   0  0  0  0  0  0  0  0  0  0  0  0
    6.7174    4.3563   24.6742 N   0  0  0  0  0  0  0  0  0  0  0  0
    5.9275    3.9922   23.6400 C   0  0  0  0  0  0  0  0  0  0  0  0
    6.6336    4.0933   22.4671 N   0  0  0  0  0  0  0  0  0  0  0  0
  2  1  1  1  0  0  0
  2  3  1  0  0  0  0
  2  5  1  0  0  0  0
  3  4  1  0  0  0  0
  3 17  1  0  0  0  0
  5  6  1  0  0  0  0
  7  6  1  6  0  0  0
  7  8  1  0  0  0  0
  7  9  1  0  0  0  0
 10  9  1  1  0  0  0
 10 11  1  0  0  0  0
 10 12  1  0  0  0  0
 11 16  1  0  0  0  0
 12 13  1  6  0  0  0
 12 14  1  0  0  0  0
 14 15  1  6  0  0  0
 14 16  1  0  0  0  0
 16 27  1  1  0  0  0
 18 19  2  0  0  0  0
 18 23  1  0  0  0  0
 19 20  1  0  0  0  0
 20 21  2  0  0  0  0
 21 22  1  0  0  0  0
 21 27  1  0  0  0  0
 22 23  2  0  0  0  0
 22 25  1  0  0  0  0
 23 24  1  0  0  0  0
 25 26  2  0  0  0  0
 26 27  1  0  0  0  0
M  END
>  <CHROM.1>
-45.25182601,-76.04012134,68.91745396,-101.64710100,-158.46635698,43.38668474
75.76738155,8.00005262,1.85946724,21.46534835,1.22708648,1.22422633,-2.64238729

>  <Name>
ligand

>  <RI>
0

>  <Rbt.Current_Directory>
/home/itssahil/PROJECTS/Mol_Feturizer/Test_systems_manuscript/rnas/2ydh

>  <Rbt.Executable>
rbdock ($Id: //depot/dev/client3/rdock/2013.1/src/exe/rbdock.cxx#4 $)

>  <Rbt.Library>
libRbt.so (2013.1, Build901 2013/11/27)

>  <Rbt.Parameter_File>
/export/apps/rDock/src/rDock_2013.1_src/data/scripts/dock_solv.prm

>  <Rbt.Receptor>
prm/blind_docking_100.prm

>  <SCORE>
-10.3888

>  <SCORE.INTER>
-12.6678

>  <SCORE.INTER.CONST>
1

>  <SCORE.INTER.POLAR>
0

>  <SCORE.INTER.ROT>
7

>  <SCORE.INTER.SOLV>
9.99603

>  <SCORE.INTER.VDW>
-20.0439

>  <SCORE.INTER.norm>
-0.469178

>  <SCORE.INTRA>
2.27906

>  <SCORE.INTRA.DIHEDRAL>
0.36729

>  <SCORE.INTRA.DIHEDRAL.0>
9.75037

>  <SCORE.INTRA.POLAR>
0

>  <SCORE.INTRA.POLAR.0>
0

>  <SCORE.INTRA.REPUL>
0

>  <SCORE.INTRA.REPUL.0>
0

>  <SCORE.INTRA.SOLV>
1.36442

>  <SCORE.INTRA.SOLV.lig_0>
-48.4279

>  <SCORE.INTRA.VDW>
1.4132

>  <SCORE.INTRA.VDW.0>
-4.69037

>  <SCORE.INTRA.norm>
0.0844095

>  <SCORE.RESTR>
0

>  <SCORE.RESTR.CAVITY>
0

>  <SCORE.RESTR.norm>
0

>  <SCORE.SYSTEM>
0

>  <SCORE.SYSTEM.CONST>
0

>  <SCORE.SYSTEM.DIHEDRAL>
0

>  <SCORE.SYSTEM.SOLV>
0

>  <SCORE.SYSTEM.norm>
0

>  <SCORE.heavy>
27

>  <SCORE.norm>
-0.384769

>  <RMSD>
17.209

$$$$
ligand
 OpenBabel02271912153D
libRbt.so/2013.1/901 2013/11/27
 27 29  0  0  0  0  0  0  0  0999 V2000
    5.8109  -19.2303    3.0050 N   0  0  0  0  0  0  0  0  0  0  0  0
    5.0358  -18.4648    1.9804 C   0  0  2  0  0  0  0  0  0  0  0  0
    5.9595  -17.9526    0.8530 C   0  0  0  0  0  0  0  0  0  0  0  0
    5.6701  -16.9458    0.1992 O   0  0  0  0  0  0  0  0  0  0  0  0
    4.2787  -17.3294    2.6611 C   0  0  0  0  0  0  0  0  0  0  0  0
    5.1432  -16.4212    3.5195 C   0  0  0  0  0  0  0  0  0  0  0  0
    4.2053  -15.0980    4.3359 S   0  0  2  0  0  0  0  0  0  0  0  0
    3.9743  -13.9455    2.9524 C   0  0  0  0  0  0  0  0  0  0  0  0
    5.3739  -14.2099    5.3778 C   0  0  0  0  0  0  0  0  0  0  0  0
    4.8722  -14.2269    6.8090 C   0  0  1  0  0  0  0  0  0  0  0  0
    3.5252  -13.7936    6.9187 O   0  0  0  0  0  0  0  0  0  0  0  0
    4.9411  -15.6131    7.4019 C   0  0  1  0  0  0  0  0  0  0  0  0
    6.2117  -15.8742    7.9254 O   0  0  0  0  0  0  0  0  0  0  0  0
    3.8992  -15.5224    8.4748 C   0  0  1  0  0  0  0  0  0  0  0  0
    4.4915  -15.0145    9.6553 O   0  0  0  0  0  0  0  0  0  0  0  0
    2.8766  -14.5364    7.9249 C   0  0  2  0  0  0  0  0  0  0  0  0
    7.0221  -18.5262    0.5509 O   0  0  0  0  0  0  0  0  0  0  0  0
    0.9517  -18.5104    5.0334 N   0  0  0  0  0  0  0  0  0  0  0  0
    2.2794  -18.2400    5.3314 C   0  0  0  0  0  0  0  0  0  0  0  0
    2.6272  -17.1363    6.1009 N   0  0  0  0  0  0  0  0  0  0  0  0
    1.6580  -16.3332    6.5764 C   0  0  0  0  0  0  0  0  0  0  0  0
    0.3159  -16.6040    6.2956 C   0  0  0  0  0  0  0  0  0  0  0  0
   -0.0433  -17.6863    5.5137 C   0  0  0  0  0  0  0  0  0  0  0  0
   -1.3160  -17.9326    5.2412 N   0  0  0  0  0  0  0  0  0  0  0  0
   -0.4309  -15.6694    6.8939 N   0  0  0  0  0  0  0  0  0  0  0  0
    0.3957  -14.8209    7.5443 C   0  0  0  0  0  0  0  0  0  0  0  0
    1.6965  -15.2199    7.3625 N   0  0  0  0  0  0  0  0  0  0  0  0
  2  1  1  1  0  0  0
  2  3  1  0  0  0  0
  2  5  1  0  0  0  0
  3  4  1  0  0  0  0
  3 17  1  0  0  0  0
  5  6  1  0  0  0  0
  7  6  1  6  0  0  0
  7  8  1  0  0  0  0
  7  9  1  0  0  0  0
 10  9  1  6  0  0  0
 10 11  1  0  0  0  0
 10 12  1  0  0  0  0
 11 16  1  0  0  0  0
 12 13  1  1  0  0  0
 12 14  1  0  0  0  0
 14 15  1  1  0  0  0
 14 16  1  0  0  0  0
 16 27  1  6  0  0  0
 18 19  2  0  0  0  0
 18 23  1  0  0  0  0
 19 20  1  0  0  0  0
 20 21  2  0  0  0  0
 21 22  1  0  0  0  0
 21 27  1  0  0  0  0
 22 23  2  0  0  0  0
 22 25  1  0  0  0  0
 23 24  1  0  0  0  0
 25 26  2  0  0  0  0
 26 27  1  0  0  0  0
M  END
>  <CHROM.1>
-153.61238916,53.21405347,-179.05274644,-77.39170651,-123.04696825,-51.30768670
75.90728752,3.51477837,-16.24679968,5.20186301,1.00783896,-0.31143691,-2.10260829

>  <Name>
ligand

>  <RI>
0

>  <Rbt.Current_Directory>
/home/itssahil/PROJECTS/Mol_Feturizer/Test_systems_manuscript/rnas/2ydh

>  <Rbt.Executable>
rbdock ($Id: //depot/dev/client3/rdock/2013.1/src/exe/rbdock.cxx#4 $)

>  <Rbt.Library>
libRbt.so (2013.1, Build901 2013/11/27)

>  <Rbt.Parameter_File>
/export/apps/rDock/src/rDock_2013.1_src/data/scripts/dock_solv.prm

>  <Rbt.Receptor>
prm/blind_docking_20.prm

>  <SCORE>
-9.06601

>  <SCORE.INTER>
-9.76552

>  <SCORE.INTER.CONST>
1

>  <SCORE.INTER.POLAR>
0

>  <SCORE.INTER.ROT>
7

>  <SCORE.INTER.SOLV>
10.8464

>  <SCORE.INTER.VDW>
-18.3925

>  <SCORE.INTER.norm>
-0.361686

>  <SCORE.INTRA>
-0.510791

>  <SCORE.INTRA.DIHEDRAL>
-1.57661

>  <SCORE.INTRA.DIHEDRAL.0>
9.75037

>  <SCORE.INTRA.POLAR>
0

>  <SCORE.INTRA.POLAR.0>
0

>  <SCORE.INTRA.REPUL>
0

>  <SCORE.INTRA.REPUL.0>
0

>  <SCORE.INTRA.SOLV>
-0.51659

>  <SCORE.INTRA.SOLV.lig_0>
-48.4279

>  <SCORE.INTRA.VDW>
0.535807

>  <SCORE.INTRA.VDW.0>
-4.69037

>  <SCORE.INTRA.norm>
-0.0189182

>  <SCORE.RESTR>
1.2103

>  <SCORE.RESTR.CAVITY>
1.2103

>  <SCORE.RESTR.norm>
0.044826

>  <SCORE.SYSTEM>
0

>  <SCORE.SYSTEM.CONST>
0

>  <SCORE.SYSTEM.DIHEDRAL>
0

>  <SCORE.SYSTEM.SOLV>
0

>  <SCORE.SYSTEM.norm>
0

>  <SCORE.heavy>
27

>  <SCORE.norm>
-0.335778

>  <RMSD>
17.228

$$$$
ligand
 OpenBabel02271912153D
libRbt.so/2013.1/901 2013/11/27
 27 29  0  0  0  0  0  0  0  0999 V2000
    5.7385  -18.4234    1.1755 N   0  0  0  0  0  0  0  0  0  0  0  0
    4.9884  -18.5379    2.4643 C   0  0  2  0  0  0  0  0  0  0  0  0
    3.4718  -18.3429    2.2439 C   0  0  0  0  0  0  0  0  0  0  0  0
    2.6742  -19.2632    2.4473 O   0  0  0  0  0  0  0  0  0  0  0  0
    5.5541  -17.5415    3.4706 C   0  0  0  0  0  0  0  0  0  0  0  0
    5.4167  -16.0848    3.0604 C   0  0  0  0  0  0  0  0  0  0  0  0
    4.4657  -15.0912    4.2458 S   0  0  2  0  0  0  0  0  0  0  0  0
    3.9732  -13.6942    3.1963 C   0  0  0  0  0  0  0  0  0  0  0  0
    5.6635  -14.3297    5.3527 C   0  0  0  0  0  0  0  0  0  0  0  0
    5.0883  -14.2956    6.7557 C   0  0  1  0  0  0  0  0  0  0  0  0
    3.7528  -13.8161    6.7848 O   0  0  0  0  0  0  0  0  0  0  0  0
    5.0797  -15.6686    7.3824 C   0  0  1  0  0  0  0  0  0  0  0  0
    6.3120  -15.9581    7.9776 O   0  0  0  0  0  0  0  0  0  0  0  0
    3.9874  -15.5180    8.3969 C   0  0  1  0  0  0  0  0  0  0  0  0
    4.5347  -15.0012    9.5951 O   0  0  0  0  0  0  0  0  0  0  0  0
    3.0284  -14.5129    7.7721 C   0  0  2  0  0  0  0  0  0  0  0  0
    2.9895  -17.2647    1.8510 O   0  0  0  0  0  0  0  0  0  0  0  0
    1.1268  -18.4704    4.8428 N   0  0  0  0  0  0  0  0  0  0  0  0
    2.4466  -18.2326    5.1983 C   0  0  0  0  0  0  0  0  0  0  0  0
    2.7898  -17.1288    5.9699 N   0  0  0  0  0  0  0  0  0  0  0  0
    1.8228  -16.2932    6.3906 C   0  0  0  0  0  0  0  0  0  0  0  0
    0.4878  -16.5306    6.0515 C   0  0  0  0  0  0  0  0  0  0  0  0
    0.1345  -17.6129    5.2668 C   0  0  0  0  0  0  0  0  0  0  0  0
   -1.1309  -17.8276    4.9390 N   0  0  0  0  0  0  0  0  0  0  0  0
   -0.2589  -15.5680    6.6035 N   0  0  0  0  0  0  0  0  0  0  0  0
    0.5605  -14.7340    7.2811 C   0  0  0  0  0  0  0  0  0  0  0  0
    1.8566  -15.1711    7.1642 N   0  0  0  0  0  0  0  0  0  0  0  0
  2  1  1  6  0  0  0
  2  3  1  0  0  0  0
  2  5  1  0  0  0  0
  3  4  1  0  0  0  0
  3 17  1  0  0  0  0
  5  6  1  0  0  0  0
  7  6  1  6  0  0  0
  7  8  1  0  0  0  0
  7  9  1  0  0  0  0
 10  9  1  6  0  0  0
 10 11  1  0  0  0  0
 10 12  1  0  0  0  0
 11 16  1  0  0  0  0
 12 13  1  1  0  0  0
 12 14  1  0  0  0  0
 14 15  1  1  0  0  0
 14 16  1  0  0  0  0
 16 27  1  6  0  0  0
 18 19  2  0  0  0  0
 18 23  1  0  0  0  0
 19 20  1  0  0  0  0
 20 21  2  0  0  0  0
 21 22  1  0  0  0  0
 21 27  1  0  0  0  0
 22 23  2  0  0  0  0
 22 25  1  0  0  0  0
 23 24  1  0  0  0  0
 25 26  2  0  0  0  0
 26 27  1  0  0  0  0
M  END
>  <CHROM.1>
114.96120796,62.31788992,120.96857395,-159.40971838,-142.82204747,-46.98466630
75.13290598,3.32515365,-16.25270184,5.26538341,-1.51895561,0.29789495,1.03225951

>  <Name>
ligand

>  <RI>
0

>  <Rbt.Current_Directory>
/home/itssahil/PROJECTS/Mol_Feturizer/Test_systems_manuscript/rnas/2ydh

>  <Rbt.Executable>
rbdock ($Id: //depot/dev/client3/rdock/2013.1/src/exe/rbdock.cxx#4 $)

>  <Rbt.Library>
libRbt.so (2013.1, Build901 2013/11/27)

>  <Rbt.Parameter_File>
/export/apps/rDock/src/rDock_2013.1_src/data/scripts/dock_solv.prm

>  <Rbt.Receptor>
prm/blind_docking_20.prm

>  <SCORE>
-5.453

>  <SCORE.INTER>
-7.10981

>  <SCORE.INTER.CONST>
1

>  <SCORE.INTER.POLAR>
0

>  <SCORE.INTER.ROT>
7

>  <SCORE.INTER.SOLV>
14.1239

>  <SCORE.INTER.VDW>
-17.7145

>  <SCORE.INTER.norm>
-0.263326

>  <SCORE.INTRA>
1.3226

>  <SCORE.INTRA.DIHEDRAL>
5.07911

>  <SCORE.INTRA.DIHEDRAL.0>
9.75037

>  <SCORE.INTRA.POLAR>
0

>  <SCORE.INTRA.POLAR.0>
0

>  <SCORE.INTRA.REPUL>
0

>  <SCORE.INTRA.REPUL.0>
0

>  <SCORE.INTRA.SOLV>
-0.541352

>  <SCORE.INTRA.SOLV.lig_0>
-48.4279

>  <SCORE.INTRA.VDW>
-0.946277

>  <SCORE.INTRA.VDW.0>
-4.69037

>  <SCORE.INTRA.norm>
0.0489852

>  <SCORE.RESTR>
0.334205

>  <SCORE.RESTR.CAVITY>
0.334205

>  <SCORE.RESTR.norm>
0.012378

>  <SCORE.SYSTEM>
0

>  <SCORE.SYSTEM.CONST>
0

>  <SCORE.SYSTEM.DIHEDRAL>
0

>  <SCORE.SYSTEM.SOLV>
0

>  <SCORE.SYSTEM.norm>
0

>  <SCORE.heavy>
27

>  <SCORE.norm>
-0.201963

>  <RMSD>
17.247

$$$$
ligand
 OpenBabel02271912153D
libRbt.so/2013.1/901 2013/11/27
 27 29  0  0  0  0  0  0  0  0999 V2000
    2.8804  -17.8385    3.1501 N   0  0  0  0  0  0  0  0  0  0  0  0
    3.5349  -17.4395    1.8659 C   0  0  2  0  0  0  0  0  0  0  0  0
    5.0666  -17.3281    2.0339 C   0  0  0  0  0  0  0  0  0  0  0  0
    5.8251  -17.4554    1.0679 O   0  0  0  0  0  0  0  0  0  0  0  0
    2.9173  -16.1384    1.3647 C   0  0  0  0  0  0  0  0  0  0  0  0
    3.3836  -14.8944    2.1022 C   0  0  0  0  0  0  0  0  0  0  0  0
    3.3100  -15.0603    3.9089 S   0  0  2  0  0  0  0  0  0  0  0  0
    1.7941  -14.1296    4.2715 C   0  0  0  0  0  0  0  0  0  0  0  0
    4.5864  -13.9799    4.5747 C   0  0  0  0  0  0  0  0  0  0  0  0
    4.6630  -14.1727    6.0772 C   0  0  1  0  0  0  0  0  0  0  0  0
    3.5028  -13.7028    6.7460 O   0  0  0  0  0  0  0  0  0  0  0  0
    4.8238  -15.6290    6.4395 C   0  0  1  0  0  0  0  0  0  0  0  0
    6.1684  -16.0124    6.3992 O   0  0  0  0  0  0  0  0  0  0  0  0
    4.2771  -15.6433    7.8345 C   0  0  1  0  0  0  0  0  0  0  0  0
    5.3150  -15.3278    8.7431 O   0  0  0  0  0  0  0  0  0  0  0  0
    3.2172  -14.5493    7.8354 C   0  0  2  0  0  0  0  0  0  0  0  0
    5.6013  -17.1131    3.1372 O   0  0  0  0  0  0  0  0  0  0  0  0
    0.0582  -18.2496    5.7891 N   0  0  0  0  0  0  0  0  0  0  0  0
    1.4305  -18.1201    5.6316 C   0  0  0  0  0  0  0  0  0  0  0  0
    2.1214  -17.0729    6.2296 N   0  0  0  0  0  0  0  0  0  0  0  0
    1.4483  -16.1865    6.9855 C   0  0  0  0  0  0  0  0  0  0  0  0
    0.0680  -16.3153    7.1640 C   0  0  0  0  0  0  0  0  0  0  0  0
   -0.6355  -17.3397    6.5578 C   0  0  0  0  0  0  0  0  0  0  0  0
   -1.9452  -17.4512    6.7210 N   0  0  0  0  0  0  0  0  0  0  0  0
   -0.3425  -15.3228    7.9612 N   0  0  0  0  0  0  0  0  0  0  0  0
    0.7332  -14.5752    8.2931 C   0  0  0  0  0  0  0  0  0  0  0  0
    1.8551  -15.0991    7.7003 N   0  0  0  0  0  0  0  0  0  0  0  0
  2  1  1  1  0  0  0
  2  3  1  0  0  0  0
  2  5  1  0  0  0  0
  3  4  1  0  0  0  0
  3 17  1  0  0  0  0
  5  6  1  0  0  0  0
  7  6  1  6  0  0  0
  7  8  1  0  0  0  0
  7  9  1  0  0  0  0
 10  9  1  6  0  0  0
 10 11  1  0  0  0  0
 10 12  1  0  0  0  0
 11 16  1  0  0  0  0
 12 13  1  1  0  0  0
 12 14  1  0  0  0  0
 14 15  1  1  0  0  0
 14 16  1  0  0  0  0
 16 27  1  6  0  0  0
 18 19  2  0  0  0  0
 18 23  1  0  0  0  0
 19 20  1  0  0  0  0
 20 21  2  0  0  0  0
 21 22  1  0  0  0  0
 21 27  1  0  0  0  0
 22 23  2  0  0  0  0
 22 25  1  0  0  0  0
 23 24  1  0  0  0  0
 25 26  2  0  0  0  0
 26 27  1  0  0  0  0
M  END
>  <CHROM.1>
155.54238346,76.38874507,-48.60137323,-101.95576970,-174.72465344,-67.67590058
84.00660529,2.91447386,-15.94149068,5.32166413,0.87302149,-0.33549772,-1.94525031

>  <Name>
ligand

>  <RI>
0

>  <Rbt.Current_Directory>
/home/itssahil/PROJECTS/Mol_Feturizer/Test_systems_manuscript/rnas/2ydh

>  <Rbt.Executable>
rbdock ($Id: //depot/dev/client3/rdock/2013.1/src/exe/rbdock.cxx#4 $)

>  <Rbt.Library>
libRbt.so (2013.1, Build901 2013/11/27)

>  <Rbt.Parameter_File>
/export/apps/rDock/src/rDock_2013.1_src/data/scripts/dock_solv.prm

>  <Rbt.Receptor>
prm/blind_docking_20.prm

>  <SCORE>
-6.23862

>  <SCORE.INTER>
-7.62872

>  <SCORE.INTER.CONST>
1

>  <SCORE.INTER.POLAR>
0

>  <SCORE.INTER.ROT>
7

>  <SCORE.INTER.SOLV>
9.33513

>  <SCORE.INTER.VDW>
-16.4642

>  <SCORE.INTER.norm>
-0.282545

>  <SCORE.INTRA>
0.486649

>  <SCORE.INTRA.DIHEDRAL>
-1.76631

>  <SCORE.INTRA.DIHEDRAL.0>
9.75037

>  <SCORE.INTRA.POLAR>
0

>  <SCORE.INTRA.POLAR.0>
0

>  <SCORE.INTRA.REPUL>
0

>  <SCORE.INTRA.REPUL.0>
0

>  <SCORE.INTRA.SOLV>
2.59777

>  <SCORE.INTRA.SOLV.lig_0>
-48.4279

>  <SCORE.INTRA.VDW>
0.0709165

>  <SCORE.INTRA.VDW.0>
-4.69037

>  <SCORE.INTRA.norm>
0.018024

>  <SCORE.RESTR>
0.903454

>  <SCORE.RESTR.CAVITY>
0.903454

>  <SCORE.RESTR.norm>
0.0334613

>  <SCORE.SYSTEM>
0

>  <SCORE.SYSTEM.CONST>
0

>  <SCORE.SYSTEM.DIHEDRAL>
0

>  <SCORE.SYSTEM.SOLV>
0

>  <SCORE.SYSTEM.norm>
0

>  <SCORE.heavy>
27

>  <SCORE.norm>
-0.23106

>  <RMSD>
17.263

$$$$
ligand
 OpenBabel02271912153D
libRbt.so/2013.1/901 2013/11/27
 27 29  0  0  0  0  0  0  0  0999 V2000
   10.4689    5.9595   27.7293 N   0  0  0  0  0  0  0  0  0  0  0  0
   10.8167    5.0123   26.6255 C   0  0  2  0  0  0  0  0  0  0  0  0
   12.2821    5.1993   26.1736 C   0  0  0  0  0  0  0  0  0  0  0  0
   13.0429    4.2334   26.0604 O   0  0  0  0  0  0  0  0  0  0  0  0
    9.8342    5.1936   25.4733 C   0  0  0  0  0  0  0  0  0  0  0  0
   10.1077    4.3106   24.2671 C   0  0  0  0  0  0  0  0  0  0  0  0
    8.9101    4.5409   22.9219 S   0  0  2  0  0  0  0  0  0  0  0  0
    7.4597    3.6960   23.6133 C   0  0  0  0  0  0  0  0  0  0  0  0
    9.4045    3.4243   21.5996 C   0  0  0  0  0  0  0  0  0  0  0  0
    9.8794    2.1182   22.2072 C   0  0  1  0  0  0  0  0  0  0  0  0
    8.8204    1.1954   22.4097 O   0  0  0  0  0  0  0  0  0  0  0  0
   10.8978    1.4372   21.3257 C   0  0  1  0  0  0  0  0  0  0  0  0
   12.1843    1.9294   21.5695 O   0  0  0  0  0  0  0  0  0  0  0  0
   10.7504    0.0108   21.7599 C   0  0  1  0  0  0  0  0  0  0  0  0
   11.5920   -0.2250   22.8728 O   0  0  0  0  0  0  0  0  0  0  0  0
    9.2867   -0.1112   22.1635 C   0  0  2  0  0  0  0  0  0  0  0  0
   12.7601    6.3183   25.9111 O   0  0  0  0  0  0  0  0  0  0  0  0
    5.5486    0.3989   18.4722 N   0  0  0  0  0  0  0  0  0  0  0  0
    6.0527    1.3795   19.3142 C   0  0  0  0  0  0  0  0  0  0  0  0
    7.0346    1.0798   20.2509 N   0  0  0  0  0  0  0  0  0  0  0  0
    7.5125   -0.1758   20.3250 C   0  0  0  0  0  0  0  0  0  0  0  0
    7.0233   -1.1689   19.4718 C   0  0  0  0  0  0  0  0  0  0  0  0
    6.0314   -0.8898   18.5497 C   0  0  0  0  0  0  0  0  0  0  0  0
    5.5633   -1.8369   17.7508 N   0  0  0  0  0  0  0  0  0  0  0  0
    7.6714   -2.3069   19.7438 N   0  0  0  0  0  0  0  0  0  0  0  0
    8.5541   -2.0632   20.7375 C   0  0  0  0  0  0  0  0  0  0  0  0
    8.4732   -0.7439   21.1081 N   0  0  0  0  0  0  0  0  0  0  0  0
  2  1  1  1  0  0  0
  2  3  1  0  0  0  0
  2  5  1  0  0  0  0
  3  4  1  0  0  0  0
  3 17  1  0  0  0  0
  5  6  1  0  0  0  0
  7  6  1  1  0  0  0
  7  8  1  0  0  0  0
  7  9  1  0  0  0  0
 10  9  1  6  0  0  0
 10 11  1  0  0  0  0
 10 12  1  0  0  0  0
 11 16  1  0  0  0  0
 12 13  1  1  0  0  0
 12 14  1  0  0  0  0
 14 15  1  1  0  0  0
 14 16  1  0  0  0  0
 16 27  1  6  0  0  0
 18 19  2  0  0  0  0
 18 23  1  0  0  0  0
 19 20  1  0  0  0  0
 20 21  2  0  0  0  0
 21 22  1  0  0  0  0
 21 27  1  0  0  0  0
 22 23  2  0  0  0  0
 22 25  1  0  0  0  0
 23 24  1  0  0  0  0
 25 26  2  0  0  0  0
 26 27  1  0  0  0  0
M  END
>  <CHROM.1>
130.65815448,178.30096252,179.44007860,-73.97386053,38.91448611,87.93997626
7.74709457,9.25507187,1.97521766,22.34975006,1.05052225,-0.45361064,0.57059272

>  <Name>
ligand

>  <RI>
0

>  <Rbt.Current_Directory>
/home/itssahil/PROJECTS/Mol_Feturizer/Test_systems_manuscript/rnas/2ydh

>  <Rbt.Executable>
rbdock ($Id: //depot/dev/client3/rdock/2013.1/src/exe/rbdock.cxx#4 $)

>  <Rbt.Library>
libRbt.so (2013.1, Build901 2013/11/27)

>  <Rbt.Parameter_File>
/export/apps/rDock/src/rDock_2013.1_src/data/scripts/dock_solv.prm

>  <Rbt.Receptor>
prm/blind_docking_80.prm

>  <SCORE>
-10.5226

>  <SCORE.INTER>
-10.4452

>  <SCORE.INTER.CONST>
1

>  <SCORE.INTER.POLAR>
0

>  <SCORE.INTER.ROT>
7

>  <SCORE.INTER.SOLV>
8.96749

>  <SCORE.INTER.VDW>
-18.2193

>  <SCORE.INTER.norm>
-0.38686

>  <SCORE.INTRA>
-0.0773612

>  <SCORE.INTRA.DIHEDRAL>
-3.65957

>  <SCORE.INTRA.DIHEDRAL.0>
9.75037

>  <SCORE.INTRA.POLAR>
0

>  <SCORE.INTRA.POLAR.0>
0

>  <SCORE.INTRA.REPUL>
0

>  <SCORE.INTRA.REPUL.0>
0

>  <SCORE.INTRA.SOLV>
-1.36627

>  <SCORE.INTRA.SOLV.lig_0>
-48.4279

>  <SCORE.INTRA.VDW>
2.43556

>  <SCORE.INTRA.VDW.0>
-4.69037

>  <SCORE.INTRA.norm>
-0.00286523

>  <SCORE.RESTR>
0

>  <SCORE.RESTR.CAVITY>
0

>  <SCORE.RESTR.norm>
0

>  <SCORE.SYSTEM>
0

>  <SCORE.SYSTEM.CONST>
0

>  <SCORE.SYSTEM.DIHEDRAL>
0

>  <SCORE.SYSTEM.SOLV>
0

>  <SCORE.SYSTEM.norm>
0

>  <SCORE.heavy>
27

>  <SCORE.norm>
-0.389725

>  <RMSD>
17.278

$$$$
ligand
 OpenBabel02271912153D
libRbt.so/2013.1/901 2013/11/27
 27 29  0  0  0  0  0  0  0  0999 V2000
    5.5710  -17.0247    2.5219 N   0  0  0  0  0  0  0  0  0  0  0  0
    4.3439  -16.7528    3.3325 C   0  0  2  0  0  0  0  0  0  0  0  0
    3.4725  -18.0216    3.4644 C   0  0  0  0  0  0  0  0  0  0  0  0
    3.5832  -18.7731    4.4379 O   0  0  0  0  0  0  0  0  0  0  0  0
    3.5743  -15.5909    2.7136 C   0  0  0  0  0  0  0  0  0  0  0  0
    4.3854  -14.3172    2.5433 C   0  0  0  0  0  0  0  0  0  0  0  0
    4.5741  -13.3744    4.0836 S   0  0  2  0  0  0  0  0  0  0  0  0
    5.6911  -12.0526    3.5352 C   0  0  0  0  0  0  0  0  0  0  0  0
    5.6405  -14.3517    5.1548 C   0  0  0  0  0  0  0  0  0  0  0  0
    5.0390  -14.3930    6.5466 C   0  0  1  0  0  0  0  0  0  0  0  0
    3.6263  -14.2574    6.5332 O   0  0  0  0  0  0  0  0  0  0  0  0
    5.3526  -15.6936    7.2452 C   0  0  1  0  0  0  0  0  0  0  0  0
    6.6027  -15.6407    7.8705 O   0  0  0  0  0  0  0  0  0  0  0  0
    4.2314  -15.7686    8.2363 C   0  0  1  0  0  0  0  0  0  0  0  0
    4.6040  -15.0753    9.4122 O   0  0  0  0  0  0  0  0  0  0  0  0
    3.0708  -15.0629    7.5468 C   0  0  2  0  0  0  0  0  0  0  0  0
    2.6328  -18.3448    2.6043 O   0  0  0  0  0  0  0  0  0  0  0  0
   -1.9324  -16.6753    7.0705 N   0  0  0  0  0  0  0  0  0  0  0  0
   -1.4501  -15.6040    7.8082 C   0  0  0  0  0  0  0  0  0  0  0  0
   -0.0910  -15.3159    7.8427 N   0  0  0  0  0  0  0  0  0  0  0  0
    0.7619  -16.0781    7.1343 C   0  0  0  0  0  0  0  0  0  0  0  0
    0.2862  -17.1510    6.3752 C   0  0  0  0  0  0  0  0  0  0  0  0
   -1.0608  -17.4621    6.3486 C   0  0  0  0  0  0  0  0  0  0  0  0
   -1.5055  -18.4865    5.6363 N   0  0  0  0  0  0  0  0  0  0  0  0
    1.3299  -17.7249    5.7667 N   0  0  0  0  0  0  0  0  0  0  0  0
    2.4464  -17.0478    6.1147 C   0  0  0  0  0  0  0  0  0  0  0  0
    2.1127  -16.0188    6.9598 N   0  0  0  0  0  0  0  0  0  0  0  0
  2  1  1  6  0  0  0
  2  3  1  0  0  0  0
  2  5  1  0  0  0  0
  3  4  1  0  0  0  0
  3 17  1  0  0  0  0
  5  6  1  0  0  0  0
  7  6  1  6  0  0  0
  7  8  1  0  0  0  0
  7  9  1  0  0  0  0
 10  9  1  6  0  0  0
 10 11  1  0  0  0  0
 10 12  1  0  0  0  0
 11 16  1  0  0  0  0
 12 13  1  1  0  0  0
 12 14  1  0  0  0  0
 14 15  1  1  0  0  0
 14 16  1  0  0  0  0
 16 27  1  6  0  0  0
 18 19  2  0  0  0  0
 18 23  1  0  0  0  0
 19 20  1  0  0  0  0
 20 21  2  0  0  0  0
 21 22  1  0  0  0  0
 21 27  1  0  0  0  0
 22 23  2  0  0  0  0
 22 25  1  0  0  0  0
 23 24  1  0  0  0  0
 25 26  2  0  0  0  0
 26 27  1  0  0  0  0
M  END
>  <CHROM.1>
94.11573760,-55.64720646,-78.60348330,175.06035660,-134.06524157,27.82209519
-113.70989964,3.01506666,-15.85927493,5.63821837,0.17386592,-0.50436051,-1.95438219

>  <Name>
ligand

>  <RI>
0

>  <Rbt.Current_Directory>
/home/itssahil/PROJECTS/Mol_Feturizer/Test_systems_manuscript/rnas/2ydh

>  <Rbt.Executable>
rbdock ($Id: //depot/dev/client3/rdock/2013.1/src/exe/rbdock.cxx#4 $)

>  <Rbt.Library>
libRbt.so (2013.1, Build901 2013/11/27)

>  <Rbt.Parameter_File>
/export/apps/rDock/src/rDock_2013.1_src/data/scripts/dock_solv.prm

>  <Rbt.Receptor>
prm/blind_docking_20.prm

>  <SCORE>
-2.31928

>  <SCORE.INTER>
-7.32345

>  <SCORE.INTER.CONST>
1

>  <SCORE.INTER.POLAR>
0

>  <SCORE.INTER.ROT>
7

>  <SCORE.INTER.SOLV>
11.3898

>  <SCORE.INTER.VDW>
-16.9456

>  <SCORE.INTER.norm>
-0.271239

>  <SCORE.INTRA>
2.56928

>  <SCORE.INTRA.DIHEDRAL>
1.79425

>  <SCORE.INTRA.DIHEDRAL.0>
9.75037

>  <SCORE.INTRA.POLAR>
0

>  <SCORE.INTRA.POLAR.0>
0

>  <SCORE.INTRA.REPUL>
0

>  <SCORE.INTRA.REPUL.0>
0

>  <SCORE.INTRA.SOLV>
0.492891

>  <SCORE.INTRA.SOLV.lig_0>
-48.4279

>  <SCORE.INTRA.VDW>
1.42571

>  <SCORE.INTRA.VDW.0>
-4.69037

>  <SCORE.INTRA.norm>
0.0951585

>  <SCORE.RESTR>
2.43489

>  <SCORE.RESTR.CAVITY>
2.43489

>  <SCORE.RESTR.norm>
0.0901811

>  <SCORE.SYSTEM>
0

>  <SCORE.SYSTEM.CONST>
0

>  <SCORE.SYSTEM.DIHEDRAL>
0

>  <SCORE.SYSTEM.SOLV>
0

>  <SCORE.SYSTEM.norm>
0

>  <SCORE.heavy>
27

>  <SCORE.norm>
-0.0858993

>  <RMSD>
17.297

$$$$
ligand
 OpenBabel02271912153D
libRbt.so/2013.1/901 2013/11/27
 27 29  0  0  0  0  0  0  0  0999 V2000
   11.2589    0.9909   27.4634 N   0  0  0  0  0  0  0  0  0  0  0  0
   10.6368    1.4927   26.1994 C   0  0  2  0  0  0  0  0  0  0  0  0
   10.2200    0.3217   25.2820 C   0  0  0  0  0  0  0  0  0  0  0  0
   11.0069   -0.5922   25.0168 O   0  0  0  0  0  0  0  0  0  0  0  0
   11.6000    2.4497   25.5051 C   0  0  0  0  0  0  0  0  0  0  0  0
   10.9935    3.2240   24.3468 C   0  0  0  0  0  0  0  0  0  0  0  0
   10.7464    2.2139   22.8584 S   0  0  2  0  0  0  0  0  0  0  0  0
   12.4628    1.9994   22.3076 C   0  0  0  0  0  0  0  0  0  0  0  0
   10.0787    3.3129   21.5989 C   0  0  0  0  0  0  0  0  0  0  0  0
    8.7627    3.8854   22.0897 C   0  0  1  0  0  0  0  0  0  0  0  0
    8.3001    4.9564   21.2815 O   0  0  0  0  0  0  0  0  0  0  0  0
    7.6756    2.8385   22.1024 C   0  0  1  0  0  0  0  0  0  0  0  0
    7.7059    2.0956   23.2872 O   0  0  0  0  0  0  0  0  0  0  0  0
    6.4485    3.6928   22.0062 C   0  0  1  0  0  0  0  0  0  0  0  0
    6.0526    4.0848   23.3069 O   0  0  0  0  0  0  0  0  0  0  0  0
    6.8947    4.9040   21.1974 C   0  0  2  0  0  0  0  0  0  0  0  0
    9.0881    0.2480   24.7693 O   0  0  0  0  0  0  0  0  0  0  0  0
    7.4187    2.5130   16.5211 N   0  0  0  0  0  0  0  0  0  0  0  0
    8.0881    2.2281   17.7024 C   0  0  0  0  0  0  0  0  0  0  0  0
    7.8458    2.9654   18.8553 N   0  0  0  0  0  0  0  0  0  0  0  0
    6.9352    3.9554   18.8245 C   0  0  0  0  0  0  0  0  0  0  0  0
    6.2434    4.2419   17.6443 C   0  0  0  0  0  0  0  0  0  0  0  0
    6.4897    3.5306   16.4845 C   0  0  0  0  0  0  0  0  0  0  0  0
    5.8394    3.8130   15.3656 N   0  0  0  0  0  0  0  0  0  0  0  0
    5.3987    5.2491   17.8915 N   0  0  0  0  0  0  0  0  0  0  0  0
    5.5333    5.6046   19.1883 C   0  0  0  0  0  0  0  0  0  0  0  0
    6.4795    4.8090   19.7850 N   0  0  0  0  0  0  0  0  0  0  0  0
  2  1  1  1  0  0  0
  2  3  1  0  0  0  0
  2  5  1  0  0  0  0
  3  4  1  0  0  0  0
  3 17  1  0  0  0  0
  5  6  1  0  0  0  0
  7  6  1  1  0  0  0
  7  8  1  0  0  0  0
  7  9  1  0  0  0  0
 10  9  1  6  0  0  0
 10 11  1  0  0  0  0
 10 12  1  0  0  0  0
 11 16  1  0  0  0  0
 12 13  1  1  0  0  0
 12 14  1  0  0  0  0
 14 15  1  1  0  0  0
 14 16  1  0  0  0  0
 16 27  1  6  0  0  0
 18 19  2  0  0  0  0
 18 23  1  0  0  0  0
 19 20  1  0  0  0  0
 20 21  2  0  0  0  0
 21 22  1  0  0  0  0
 21 27  1  0  0  0  0
 22 23  2  0  0  0  0
 22 25  1  0  0  0  0
 23 24  1  0  0  0  0
 25 26  2  0  0  0  0
 26 27  1  0  0  0  0
M  END
>  <CHROM.1>
-49.60071432,-169.33956583,-74.31115791,-71.93886870,-60.24254673,168.35036038
49.44898653,8.53822159,2.92634996,21.61461868,0.92517592,-0.62795854,1.51454492

>  <Name>
ligand

>  <RI>
0

>  <Rbt.Current_Directory>
/home/itssahil/PROJECTS/Mol_Feturizer/Test_systems_manuscript/rnas/2ydh

>  <Rbt.Executable>
rbdock ($Id: //depot/dev/client3/rdock/2013.1/src/exe/rbdock.cxx#4 $)

>  <Rbt.Library>
libRbt.so (2013.1, Build901 2013/11/27)

>  <Rbt.Parameter_File>
/export/apps/rDock/src/rDock_2013.1_src/data/scripts/dock_solv.prm

>  <Rbt.Receptor>
prm/blind_docking_40.prm

>  <SCORE>
-12.1373

>  <SCORE.INTER>
-9.61915

>  <SCORE.INTER.CONST>
1

>  <SCORE.INTER.POLAR>
0

>  <SCORE.INTER.ROT>
7

>  <SCORE.INTER.SOLV>
4.3744

>  <SCORE.INTER.VDW>
-16.1376

>  <SCORE.INTER.norm>
-0.356265

>  <SCORE.INTRA>
-2.51816

>  <SCORE.INTRA.DIHEDRAL>
-4.86719

>  <SCORE.INTRA.DIHEDRAL.0>
9.75037

>  <SCORE.INTRA.POLAR>
0

>  <SCORE.INTRA.POLAR.0>
0

>  <SCORE.INTRA.REPUL>
0

>  <SCORE.INTRA.REPUL.0>
0

>  <SCORE.INTRA.SOLV>
-0.903194

>  <SCORE.INTRA.SOLV.lig_0>
-48.4279

>  <SCORE.INTRA.VDW>
0.367034

>  <SCORE.INTRA.VDW.0>
-4.69037

>  <SCORE.INTRA.norm>
-0.0932651

>  <SCORE.RESTR>
0

>  <SCORE.RESTR.CAVITY>
0

>  <SCORE.RESTR.norm>
0

>  <SCORE.SYSTEM>
0

>  <SCORE.SYSTEM.CONST>
0

>  <SCORE.SYSTEM.DIHEDRAL>
0

>  <SCORE.SYSTEM.SOLV>
0

>  <SCORE.SYSTEM.norm>
0

>  <SCORE.heavy>
27

>  <SCORE.norm>
-0.44953

>  <RMSD>
17.298

$$$$
ligand
 OpenBabel02271912153D
libRbt.so/2013.1/901 2013/11/27
 27 29  0  0  0  0  0  0  0  0999 V2000
    4.5735  -18.5368    4.5054 N   0  0  0  0  0  0  0  0  0  0  0  0
    3.9593  -17.9478    3.2755 C   0  0  2  0  0  0  0  0  0  0  0  0
    3.3533  -19.0475    2.3756 C   0  0  0  0  0  0  0  0  0  0  0  0
    4.0461  -19.9765    1.9493 O   0  0  0  0  0  0  0  0  0  0  0  0
    5.0012  -17.1134    2.5380 C   0  0  0  0  0  0  0  0  0  0  0  0
    5.6762  -16.0515    3.3900 C   0  0  0  0  0  0  0  0  0  0  0  0
    4.5023  -15.0125    4.3062 S   0  0  2  0  0  0  0  0  0  0  0  0
    3.9848  -13.8590    3.0035 C   0  0  0  0  0  0  0  0  0  0  0  0
    5.4854  -13.9545    5.3805 C   0  0  0  0  0  0  0  0  0  0  0  0
    4.9490  -14.0522    6.7959 C   0  0  1  0  0  0  0  0  0  0  0  0
    3.6188  -13.5704    6.9083 O   0  0  0  0  0  0  0  0  0  0  0  0
    4.9463  -15.4790    7.2880 C   0  0  1  0  0  0  0  0  0  0  0  0
    6.1920  -15.8313    7.8178 O   0  0  0  0  0  0  0  0  0  0  0  0
    3.8834  -15.4206    8.3425 C   0  0  1  0  0  0  0  0  0  0  0  0
    4.4676  -15.0244    9.5689 O   0  0  0  0  0  0  0  0  0  0  0  0
    2.9160  -14.3548    7.8441 C   0  0  2  0  0  0  0  0  0  0  0  0
    2.1553  -19.0459    2.0378 O   0  0  0  0  0  0  0  0  0  0  0  0
    0.7847  -18.3781    5.1741 N   0  0  0  0  0  0  0  0  0  0  0  0
    2.0941  -18.2467    5.6132 C   0  0  0  0  0  0  0  0  0  0  0  0
    2.5063  -17.1092    6.2972 N   0  0  0  0  0  0  0  0  0  0  0  0
    1.6149  -16.1339    6.5505 C   0  0  0  0  0  0  0  0  0  0  0  0
    0.2892  -16.2616    6.1265 C   0  0  0  0  0  0  0  0  0  0  0  0
   -0.1297  -17.3781    5.4265 C   0  0  0  0  0  0  0  0  0  0  0  0
   -1.3846  -17.4896    5.0172 N   0  0  0  0  0  0  0  0  0  0  0  0
   -0.3789  -15.1702    6.5158 N   0  0  0  0  0  0  0  0  0  0  0  0
    0.4808  -14.3609    7.1732 C   0  0  0  0  0  0  0  0  0  0  0  0
    1.7226  -14.9449    7.2090 N   0  0  0  0  0  0  0  0  0  0  0  0
  2  1  1  1  0  0  0
  2  3  1  0  0  0  0
  2  5  1  0  0  0  0
  3  4  1  0  0  0  0
  3 17  1  0  0  0  0
  5  6  1  0  0  0  0
  7  6  1  6  0  0  0
  7  8  1  0  0  0  0
  7  9  1  0  0  0  0
 10  9  1  6  0  0  0
 10 11  1  0  0  0  0
 10 12  1  0  0  0  0
 11 16  1  0  0  0  0
 12 13  1  1  0  0  0
 12 14  1  0  0  0  0
 14 15  1  1  0  0  0
 14 16  1  0  0  0  0
 16 27  1  6  0  0  0
 18 19  2  0  0  0  0
 18 23  1  0  0  0  0
 19 20  1  0  0  0  0
 20 21  2  0  0  0  0
 21 22  1  0  0  0  0
 21 27  1  0  0  0  0
 22 23  2  0  0  0  0
 22 25  1  0  0  0  0
 23 24  1  0  0  0  0
 25 26  2  0  0  0  0
 26 27  1  0  0  0  0
M  END
>  <CHROM.1>
-57.54561156,-53.86047949,-50.03888545,-79.89200025,-128.96250852,-63.46829438
89.44961395,3.14986191,-16.22356945,5.42279699,-1.68511331,0.28840633,0.90882739

>  <Name>
ligand

>  <RI>
0

>  <Rbt.Current_Directory>
/home/itssahil/PROJECTS/Mol_Feturizer/Test_systems_manuscript/rnas/2ydh

>  <Rbt.Executable>
rbdock ($Id: //depot/dev/client3/rdock/2013.1/src/exe/rbdock.cxx#4 $)

>  <Rbt.Library>
libRbt.so (2013.1, Build901 2013/11/27)

>  <Rbt.Parameter_File>
/export/apps/rDock/src/rDock_2013.1_src/data/scripts/dock_solv.prm

>  <Rbt.Receptor>
prm/blind_docking_20.prm

>  <SCORE>
-5.87225

>  <SCORE.INTER>
-7.55689

>  <SCORE.INTER.CONST>
1

>  <SCORE.INTER.POLAR>
0

>  <SCORE.INTER.ROT>
7

>  <SCORE.INTER.SOLV>
12.4421

>  <SCORE.INTER.VDW>
-17.452

>  <SCORE.INTER.norm>
-0.279885

>  <SCORE.INTRA>
0.723733

>  <SCORE.INTRA.DIHEDRAL>
-1.26626

>  <SCORE.INTRA.DIHEDRAL.0>
9.75037

>  <SCORE.INTRA.POLAR>
0

>  <SCORE.INTRA.POLAR.0>
0

>  <SCORE.INTRA.REPUL>
0

>  <SCORE.INTRA.REPUL.0>
0

>  <SCORE.INTRA.SOLV>
1.93744

>  <SCORE.INTRA.SOLV.lig_0>
-48.4279

>  <SCORE.INTRA.VDW>
0.388143

>  <SCORE.INTRA.VDW.0>
-4.69037

>  <SCORE.INTRA.norm>
0.0268049

>  <SCORE.RESTR>
0.960899

>  <SCORE.RESTR.CAVITY>
0.960899

>  <SCORE.RESTR.norm>
0.0355889

>  <SCORE.SYSTEM>
0

>  <SCORE.SYSTEM.CONST>
0

>  <SCORE.SYSTEM.DIHEDRAL>
0

>  <SCORE.SYSTEM.SOLV>
0

>  <SCORE.SYSTEM.norm>
0

>  <SCORE.heavy>
27

>  <SCORE.norm>
-0.217491

>  <RMSD>
17.304

$$$$
ligand
 OpenBabel02271912153D
libRbt.so/2013.1/901 2013/11/27
 27 29  0  0  0  0  0  0  0  0999 V2000
    2.5167  -19.0121    2.9199 N   0  0  0  0  0  0  0  0  0  0  0  0
    3.6564  -18.0660    2.7133 C   0  0  2  0  0  0  0  0  0  0  0  0
    4.5905  -18.0442    3.9436 C   0  0  0  0  0  0  0  0  0  0  0  0
    4.2592  -18.5799    5.0057 O   0  0  0  0  0  0  0  0  0  0  0  0
    3.1119  -16.6805    2.3826 C   0  0  0  0  0  0  0  0  0  0  0  0
    2.3634  -16.0091    3.5220 C   0  0  0  0  0  0  0  0  0  0  0  0
    2.9708  -14.3390    3.8949 S   0  0  2  0  0  0  0  0  0  0  0  0
    3.1070  -13.6483    2.2217 C   0  0  0  0  0  0  0  0  0  0  0  0
    4.6969  -14.5170    4.3731 C   0  0  0  0  0  0  0  0  0  0  0  0
    4.7883  -14.5647    5.8864 C   0  0  1  0  0  0  0  0  0  0  0  0
    3.6795  -13.9441    6.5184 O   0  0  0  0  0  0  0  0  0  0  0  0
    4.8477  -15.9858    6.3913 C   0  0  1  0  0  0  0  0  0  0  0  0
    6.1591  -16.4721    6.3736 O   0  0  0  0  0  0  0  0  0  0  0  0
    4.3289  -15.8200    7.7871 C   0  0  1  0  0  0  0  0  0  0  0  0
    5.4048  -15.4953    8.6468 O   0  0  0  0  0  0  0  0  0  0  0  0
    3.3533  -14.6541    7.6908 C   0  0  2  0  0  0  0  0  0  0  0  0
    5.7040  -17.4881    3.9241 O   0  0  0  0  0  0  0  0  0  0  0  0
   -0.1269  -18.2263    5.9625 N   0  0  0  0  0  0  0  0  0  0  0  0
    1.2452  -18.2068    5.7583 C   0  0  0  0  0  0  0  0  0  0  0  0
    2.0283  -17.1799    6.2720 N   0  0  0  0  0  0  0  0  0  0  0  0
    1.4453  -16.2043    6.9921 C   0  0  0  0  0  0  0  0  0  0  0  0
    0.0659  -16.2213    7.2173 C   0  0  0  0  0  0  0  0  0  0  0  0
   -0.7283  -17.2251    6.6943 C   0  0  0  0  0  0  0  0  0  0  0  0
   -2.0366  -17.2309    6.9014 N   0  0  0  0  0  0  0  0  0  0  0  0
   -0.2465  -15.1568    7.9646 N   0  0  0  0  0  0  0  0  0  0  0  0
    0.8901  -14.4718    8.2199 C   0  0  0  0  0  0  0  0  0  0  0  0
    1.9517  -15.1099    7.6281 N   0  0  0  0  0  0  0  0  0  0  0  0
  2  1  1  1  0  0  0
  2  3  1  0  0  0  0
  2  5  1  0  0  0  0
  3  4  1  0  0  0  0
  3 17  1  0  0  0  0
  5  6  1  0  0  0  0
  7  6  1  6  0  0  0
  7  8  1  0  0  0  0
  7  9  1  0  0  0  0
 10  9  1  6  0  0  0
 10 11  1  0  0  0  0
 10 12  1  0  0  0  0
 11 16  1  0  0  0  0
 12 13  1  1  0  0  0
 12 14  1  0  0  0  0
 14 15  1  1  0  0  0
 14 16  1  0  0  0  0
 16 27  1  6  0  0  0
 18 19  2  0  0  0  0
 18 23  1  0  0  0  0
 19 20  1  0  0  0  0
 20 21  2  0  0  0  0
 21 22  1  0  0  0  0
 21 27  1  0  0  0  0
 22 23  2  0  0  0  0
 22 25  1  0  0  0  0
 23 24  1  0  0  0  0
 25 26  2  0  0  0  0
 26 27  1  0  0  0  0
M  END
>  <CHROM.1>
-11.25208732,66.85749541,127.39999175,45.41819315,-96.55128419,-23.75129662
81.50652603,2.83941165,-16.14213124,5.58505024,0.53121886,-0.33834527,-2.07712865

>  <Name>
ligand

>  <RI>
0

>  <Rbt.Current_Directory>
/home/itssahil/PROJECTS/Mol_Feturizer/Test_systems_manuscript/rnas/2ydh

>  <Rbt.Executable>
rbdock ($Id: //depot/dev/client3/rdock/2013.1/src/exe/rbdock.cxx#4 $)

>  <Rbt.Library>
libRbt.so (2013.1, Build901 2013/11/27)

>  <Rbt.Parameter_File>
/export/apps/rDock/src/rDock_2013.1_src/data/scripts/dock_solv.prm

>  <Rbt.Receptor>
prm/blind_docking_20.prm

>  <SCORE>
0.300823

>  <SCORE.INTER>
-3.53846

>  <SCORE.INTER.CONST>
1

>  <SCORE.INTER.POLAR>
0

>  <SCORE.INTER.ROT>
7

>  <SCORE.INTER.SOLV>
10.3163

>  <SCORE.INTER.VDW>
-14.0644

>  <SCORE.INTER.norm>
-0.131054

>  <SCORE.INTRA>
2.57551

>  <SCORE.INTRA.DIHEDRAL>
4.52117

>  <SCORE.INTRA.DIHEDRAL.0>
9.75037

>  <SCORE.INTRA.POLAR>
0

>  <SCORE.INTRA.POLAR.0>
0

>  <SCORE.INTRA.REPUL>
0

>  <SCORE.INTRA.REPUL.0>
0

>  <SCORE.INTRA.SOLV>
0.252644

>  <SCORE.INTRA.SOLV.lig_0>
-48.4279

>  <SCORE.INTRA.VDW>
0.1886

>  <SCORE.INTRA.VDW.0>
-4.69037

>  <SCORE.INTRA.norm>
0.0953892

>  <SCORE.RESTR>
1.26378

>  <SCORE.RESTR.CAVITY>
1.26378

>  <SCORE.RESTR.norm>
0.0468065

>  <SCORE.SYSTEM>
0

>  <SCORE.SYSTEM.CONST>
0

>  <SCORE.SYSTEM.DIHEDRAL>
0

>  <SCORE.SYSTEM.SOLV>
0

>  <SCORE.SYSTEM.norm>
0

>  <SCORE.heavy>
27

>  <SCORE.norm>
0.0111416

>  <RMSD>
17.305

$$$$
ligand
 OpenBabel02271912153D
libRbt.so/2013.1/901 2013/11/27
 27 29  0  0  0  0  0  0  0  0999 V2000
    4.0403  -19.0093    2.0450 N   0  0  0  0  0  0  0  0  0  0  0  0
    4.9268  -17.8183    1.8648 C   0  0  2  0  0  0  0  0  0  0  0  0
    6.1541  -18.1657    0.9931 C   0  0  0  0  0  0  0  0  0  0  0  0
    6.0638  -18.9602    0.0522 O   0  0  0  0  0  0  0  0  0  0  0  0
    5.3300  -17.2748    3.2314 C   0  0  0  0  0  0  0  0  0  0  0  0
    4.1638  -16.9603    4.1535 C   0  0  0  0  0  0  0  0  0  0  0  0
    3.7708  -15.1895    4.2364 S   0  0  2  0  0  0  0  0  0  0  0  0
    4.1101  -14.6883    2.5250 C   0  0  0  0  0  0  0  0  0  0  0  0
    5.1200  -14.4072    5.1350 C   0  0  0  0  0  0  0  0  0  0  0  0
    4.7601  -14.3398    6.6069 C   0  0  1  0  0  0  0  0  0  0  0  0
    3.4637  -13.8055    6.8263 O   0  0  0  0  0  0  0  0  0  0  0  0
    4.7897  -15.7068    7.2457 C   0  0  1  0  0  0  0  0  0  0  0  0
    6.0839  -16.0428    7.6565 O   0  0  0  0  0  0  0  0  0  0  0  0
    3.8662  -15.5044    8.4081 C   0  0  1  0  0  0  0  0  0  0  0  0
    4.6046  -15.0023    9.5058 O   0  0  0  0  0  0  0  0  0  0  0  0
    2.8660  -14.4650    7.9185 C   0  0  2  0  0  0  0  0  0  0  0  0
    7.2779  -17.6718    1.1990 O   0  0  0  0  0  0  0  0  0  0  0  0
    0.3945  -18.4151    5.4392 N   0  0  0  0  0  0  0  0  0  0  0  0
    1.7600  -18.2386    5.6085 C   0  0  0  0  0  0  0  0  0  0  0  0
    2.2581  -17.1281    6.2794 N   0  0  0  0  0  0  0  0  0  0  0  0
    1.3991  -16.2248    6.7858 C   0  0  0  0  0  0  0  0  0  0  0  0
    0.0206  -16.3995    6.6349 C   0  0  0  0  0  0  0  0  0  0  0  0
   -0.4882  -17.4885    5.9513 C   0  0  0  0  0  0  0  0  0  0  0  0
   -1.7950  -17.6440    5.8014 N   0  0  0  0  0  0  0  0  0  0  0  0
   -0.5966  -15.3769    7.2369 N   0  0  0  0  0  0  0  0  0  0  0  0
    0.3468  -14.5657    7.7644 C   0  0  0  0  0  0  0  0  0  0  0  0
    1.5920  -15.0786    7.4984 N   0  0  0  0  0  0  0  0  0  0  0  0
  2  1  1  1  0  0  0
  2  3  1  0  0  0  0
  2  5  1  0  0  0  0
  3  4  1  0  0  0  0
  3 17  1  0  0  0  0
  5  6  1  0  0  0  0
  7  6  1  6  0  0  0
  7  8  1  0  0  0  0
  7  9  1  0  0  0  0
 10  9  1  6  0  0  0
 10 11  1  0  0  0  0
 10 12  1  0  0  0  0
 11 16  1  0  0  0  0
 12 13  1  1  0  0  0
 12 14  1  0  0  0  0
 14 15  1  1  0  0  0
 14 16  1  0  0  0  0
 16 27  1  6  0  0  0
 18 19  2  0  0  0  0
 18 23  1  0  0  0  0
 19 20  1  0  0  0  0
 20 21  2  0  0  0  0
 21 22  1  0  0  0  0
 21 27  1  0  0  0  0
 22 23  2  0  0  0  0
 22 25  1  0  0  0  0
 23 24  1  0  0  0  0
 25 26  2  0  0  0  0
 26 27  1  0  0  0  0
M  END
>  <CHROM.1>
35.58196466,-54.27338407,-101.54255686,35.80185720,-92.93023775,-49.33839531
77.23531954,3.32151744,-16.28960552,5.26690645,0.93570097,-0.28671475,-2.12466672

>  <Name>
ligand

>  <RI>
0

>  <Rbt.Current_Directory>
/home/itssahil/PROJECTS/Mol_Feturizer/Test_systems_manuscript/rnas/2ydh

>  <Rbt.Executable>
rbdock ($Id: //depot/dev/client3/rdock/2013.1/src/exe/rbdock.cxx#4 $)

>  <Rbt.Library>
libRbt.so (2013.1, Build901 2013/11/27)

>  <Rbt.Parameter_File>
/export/apps/rDock/src/rDock_2013.1_src/data/scripts/dock_solv.prm

>  <Rbt.Receptor>
prm/blind_docking_20.prm

>  <SCORE>
-2.68276

>  <SCORE.INTER>
-6.50371

>  <SCORE.INTER.CONST>
1

>  <SCORE.INTER.POLAR>
0

>  <SCORE.INTER.ROT>
7

>  <SCORE.INTER.SOLV>
11.4895

>  <SCORE.INTER.VDW>
-16.4323

>  <SCORE.INTER.norm>
-0.240878

>  <SCORE.INTRA>
3.49752

>  <SCORE.INTRA.DIHEDRAL>
0.677303

>  <SCORE.INTRA.DIHEDRAL.0>
9.75037

>  <SCORE.INTRA.POLAR>
0

>  <SCORE.INTRA.POLAR.0>
0

>  <SCORE.INTRA.REPUL>
0

>  <SCORE.INTRA.REPUL.0>
0

>  <SCORE.INTRA.SOLV>
0.0718433

>  <SCORE.INTRA.SOLV.lig_0>
-48.4279

>  <SCORE.INTRA.VDW>
3.12294

>  <SCORE.INTRA.VDW.0>
-4.69037

>  <SCORE.INTRA.norm>
0.129538

>  <SCORE.RESTR>
0.323432

>  <SCORE.RESTR.CAVITY>
0.323432

>  <SCORE.RESTR.norm>
0.011979

>  <SCORE.SYSTEM>
0

>  <SCORE.SYSTEM.CONST>
0

>  <SCORE.SYSTEM.DIHEDRAL>
0

>  <SCORE.SYSTEM.SOLV>
0

>  <SCORE.SYSTEM.norm>
0

>  <SCORE.heavy>
27

>  <SCORE.norm>
-0.0993615

>  <RMSD>
17.342

$$$$
ligand
 OpenBabel02271912153D
libRbt.so/2013.1/901 2013/11/27
 27 29  0  0  0  0  0  0  0  0999 V2000
   12.9589    2.9708   21.8446 N   0  0  0  0  0  0  0  0  0  0  0  0
   12.2051    2.0367   22.7367 C   0  0  2  0  0  0  0  0  0  0  0  0
   13.0994    1.5243   23.8875 C   0  0  0  0  0  0  0  0  0  0  0  0
   12.6318    1.3036   25.0089 O   0  0  0  0  0  0  0  0  0  0  0  0
   11.6304    0.8946   21.9055 C   0  0  0  0  0  0  0  0  0  0  0  0
   10.5617    0.0770   22.6117 C   0  0  0  0  0  0  0  0  0  0  0  0
    9.9952   -1.3522   21.6456 S   0  0  2  0  0  0  0  0  0  0  0  0
    9.3309   -0.5225   20.1739 C   0  0  0  0  0  0  0  0  0  0  0  0
    8.5007   -1.9532   22.4489 C   0  0  0  0  0  0  0  0  0  0  0  0
    8.1898   -3.3463   21.9359 C   0  0  1  0  0  0  0  0  0  0  0  0
    8.9316   -4.3520   22.6085 O   0  0  0  0  0  0  0  0  0  0  0  0
    6.7289   -3.6844   22.1070 C   0  0  1  0  0  0  0  0  0  0  0  0
    5.9717   -3.2037   21.0336 O   0  0  0  0  0  0  0  0  0  0  0  0
    6.7784   -5.1817   22.1335 C   0  0  1  0  0  0  0  0  0  0  0  0
    6.7115   -5.6719   20.8078 O   0  0  0  0  0  0  0  0  0  0  0  0
    8.1324   -5.5033   22.7529 C   0  0  2  0  0  0  0  0  0  0  0  0
   14.3182    1.3177   23.7420 O   0  0  0  0  0  0  0  0  0  0  0  0
    9.9756   -4.9685   27.6697 N   0  0  0  0  0  0  0  0  0  0  0  0
   10.4520   -4.3697   26.5124 C   0  0  0  0  0  0  0  0  0  0  0  0
    9.8604   -4.6260   25.2812 N   0  0  0  0  0  0  0  0  0  0  0  0
    8.8001   -5.4519   25.2193 C   0  0  0  0  0  0  0  0  0  0  0  0
    8.3017   -6.0492   26.3805 C   0  0  0  0  0  0  0  0  0  0  0  0
    8.8935   -5.8200   27.6090 C   0  0  0  0  0  0  0  0  0  0  0  0
    8.4243   -6.3970   28.7052 N   0  0  0  0  0  0  0  0  0  0  0  0
    7.2492   -6.8021   26.0421 N   0  0  0  0  0  0  0  0  0  0  0  0
    7.0664   -6.6967   24.7073 C   0  0  0  0  0  0  0  0  0  0  0  0
    8.0171   -5.8586   24.1799 N   0  0  0  0  0  0  0  0  0  0  0  0
  2  1  1  6  0  0  0
  2  3  1  0  0  0  0
  2  5  1  0  0  0  0
  3  4  1  0  0  0  0
  3 17  1  0  0  0  0
  5  6  1  0  0  0  0
  7  6  1  1  0  0  0
  7  8  1  0  0  0  0
  7  9  1  0  0  0  0
 10  9  1  1  0  0  0
 10 11  1  0  0  0  0
 10 12  1  0  0  0  0
 11 16  1  0  0  0  0
 12 13  1  6  0  0  0
 12 14  1  0  0  0  0
 14 15  1  6  0  0  0
 14 16  1  0  0  0  0
 16 27  1  1  0  0  0
 18 19  2  0  0  0  0
 18 23  1  0  0  0  0
 19 20  1  0  0  0  0
 20 21  2  0  0  0  0
 21 22  1  0  0  0  0
 21 27  1  0  0  0  0
 22 23  2  0  0  0  0
 22 25  1  0  0  0  0
 23 24  1  0  0  0  0
 25 26  2  0  0  0  0
 26 27  1  0  0  0  0
M  END
>  <CHROM.1>
145.49294735,-165.22773170,-175.39193079,-60.90874472,-164.68353092,82.70556121
-17.60984732,9.44395956,-2.87202242,23.58806097,-0.77734123,0.79452390,2.19019431

>  <Name>
ligand

>  <RI>
0

>  <Rbt.Current_Directory>
/home/itssahil/PROJECTS/Mol_Feturizer/Test_systems_manuscript/rnas/2ydh

>  <Rbt.Executable>
rbdock ($Id: //depot/dev/client3/rdock/2013.1/src/exe/rbdock.cxx#4 $)

>  <Rbt.Library>
libRbt.so (2013.1, Build901 2013/11/27)

>  <Rbt.Parameter_File>
/export/apps/rDock/src/rDock_2013.1_src/data/scripts/dock_solv.prm

>  <Rbt.Receptor>
prm/blind_docking_80.prm

>  <SCORE>
-13.2105

>  <SCORE.INTER>
-13.4757

>  <SCORE.INTER.CONST>
1

>  <SCORE.INTER.POLAR>
0

>  <SCORE.INTER.ROT>
7

>  <SCORE.INTER.SOLV>
20.3085

>  <SCORE.INTER.VDW>
-24.02

>  <SCORE.INTER.norm>
-0.499099

>  <SCORE.INTRA>
0.265222

>  <SCORE.INTRA.DIHEDRAL>
-2.69815

>  <SCORE.INTRA.DIHEDRAL.0>
9.75037

>  <SCORE.INTRA.POLAR>
0

>  <SCORE.INTRA.POLAR.0>
0

>  <SCORE.INTRA.REPUL>
0

>  <SCORE.INTRA.REPUL.0>
0

>  <SCORE.INTRA.SOLV>
-1.54057

>  <SCORE.INTRA.SOLV.lig_0>
-48.4279

>  <SCORE.INTRA.VDW>
2.38458

>  <SCORE.INTRA.VDW.0>
-4.69037

>  <SCORE.INTRA.norm>
0.00982304

>  <SCORE.RESTR>
0

>  <SCORE.RESTR.CAVITY>
0

>  <SCORE.RESTR.norm>
0

>  <SCORE.SYSTEM>
0

>  <SCORE.SYSTEM.CONST>
0

>  <SCORE.SYSTEM.DIHEDRAL>
0

>  <SCORE.SYSTEM.SOLV>
0

>  <SCORE.SYSTEM.norm>
0

>  <SCORE.heavy>
27

>  <SCORE.norm>
-0.489276

>  <RMSD>
17.346

$$$$
ligand
 OpenBabel02271912153D
libRbt.so/2013.1/901 2013/11/27
 27 29  0  0  0  0  0  0  0  0999 V2000
    5.0704  -17.0210    1.3477 N   0  0  0  0  0  0  0  0  0  0  0  0
    4.7901  -17.8471    2.5625 C   0  0  2  0  0  0  0  0  0  0  0  0
    3.4437  -18.5927    2.4291 C   0  0  0  0  0  0  0  0  0  0  0  0
    3.2602  -19.6818    2.9814 O   0  0  0  0  0  0  0  0  0  0  0  0
    4.8329  -16.9585    3.8011 C   0  0  0  0  0  0  0  0  0  0  0  0
    3.5352  -16.2245    4.0951 C   0  0  0  0  0  0  0  0  0  0  0  0
    3.7429  -14.4261    4.2350 S   0  0  2  0  0  0  0  0  0  0  0  0
    4.3538  -14.0268    2.5728 C   0  0  0  0  0  0  0  0  0  0  0  0
    5.2044  -14.1570    5.2506 C   0  0  0  0  0  0  0  0  0  0  0  0
    4.8027  -14.1873    6.7129 C   0  0  1  0  0  0  0  0  0  0  0  0
    3.4977  -13.6731    6.9295 O   0  0  0  0  0  0  0  0  0  0  0  0
    4.8215  -15.5931    7.2617 C   0  0  1  0  0  0  0  0  0  0  0  0
    6.1054  -15.9506    7.6866 O   0  0  0  0  0  0  0  0  0  0  0  0
    3.8644  -15.4704    8.4079 C   0  0  1  0  0  0  0  0  0  0  0  0
    4.5687  -15.0385    9.5567 O   0  0  0  0  0  0  0  0  0  0  0  0
    2.8730  -14.4047    7.9588 C   0  0  2  0  0  0  0  0  0  0  0  0
    2.4949  -18.1393    1.7631 O   0  0  0  0  0  0  0  0  0  0  0  0
    0.4647  -18.3701    5.4420 N   0  0  0  0  0  0  0  0  0  0  0  0
    1.8185  -18.2302    5.7109 C   0  0  0  0  0  0  0  0  0  0  0  0
    2.3014  -17.1102    6.3771 N   0  0  0  0  0  0  0  0  0  0  0  0
    1.4377  -16.1608    6.7808 C   0  0  0  0  0  0  0  0  0  0  0  0
    0.0697  -16.2979    6.5290 C   0  0  0  0  0  0  0  0  0  0  0  0
   -0.4222  -17.3965    5.8486 C   0  0  0  0  0  0  0  0  0  0  0  0
   -1.7182  -17.5166    5.6028 N   0  0  0  0  0  0  0  0  0  0  0  0
   -0.5563  -15.2332    7.0426 N   0  0  0  0  0  0  0  0  0  0  0  0
    0.3711  -14.4319    7.6118 C   0  0  0  0  0  0  0  0  0  0  0  0
    1.6147  -14.9939    7.4633 N   0  0  0  0  0  0  0  0  0  0  0  0
  2  1  1  6  0  0  0
  2  3  1  0  0  0  0
  2  5  1  0  0  0  0
  3  4  1  0  0  0  0
  3 17  1  0  0  0  0
  5  6  1  0  0  0  0
  7  6  1  6  0  0  0
  7  8  1  0  0  0  0
  7  9  1  0  0  0  0
 10  9  1  6  0  0  0
 10 11  1  0  0  0  0
 10 12  1  0  0  0  0
 11 16  1  0  0  0  0
 12 13  1  1  0  0  0
 12 14  1  0  0  0  0
 14 15  1  1  0  0  0
 14 16  1  0  0  0  0
 16 27  1  6  0  0  0
 18 19  2  0  0  0  0
 18 23  1  0  0  0  0
 19 20  1  0  0  0  0
 20 21  2  0  0  0  0
 21 22  1  0  0  0  0
 21 27  1  0  0  0  0
 22 23  2  0  0  0  0
 22 25  1  0  0  0  0
 23 24  1  0  0  0  0
 25 26  2  0  0  0  0
 26 27  1  0  0  0  0
M  END
>  <CHROM.1>
150.08314611,84.14420244,-124.96110045,61.41436069,-85.67040314,-33.11715351
84.16224549,2.94909438,-16.09906553,5.46985687,-1.38822513,0.38914218,1.03057030

>  <Name>
ligand

>  <RI>
0

>  <Rbt.Current_Directory>
/home/itssahil/PROJECTS/Mol_Feturizer/Test_systems_manuscript/rnas/2ydh

>  <Rbt.Executable>
rbdock ($Id: //depot/dev/client3/rdock/2013.1/src/exe/rbdock.cxx#4 $)

>  <Rbt.Library>
libRbt.so (2013.1, Build901 2013/11/27)

>  <Rbt.Parameter_File>
/export/apps/rDock/src/rDock_2013.1_src/data/scripts/dock_solv.prm

>  <Rbt.Receptor>
prm/blind_docking_20.prm

>  <SCORE>
-0.10125

>  <SCORE.INTER>
-4.87789

>  <SCORE.INTER.CONST>
1

>  <SCORE.INTER.POLAR>
0

>  <SCORE.INTER.ROT>
7

>  <SCORE.INTER.SOLV>
13.8104

>  <SCORE.INTER.VDW>
-16.122

>  <SCORE.INTER.norm>
-0.180662

>  <SCORE.INTRA>
3.99879

>  <SCORE.INTRA.DIHEDRAL>
4.03925

>  <SCORE.INTRA.DIHEDRAL.0>
9.75037

>  <SCORE.INTRA.POLAR>
0

>  <SCORE.INTRA.POLAR.0>
0

>  <SCORE.INTRA.REPUL>
0

>  <SCORE.INTRA.REPUL.0>
0

>  <SCORE.INTRA.SOLV>
0.772799

>  <SCORE.INTRA.SOLV.lig_0>
-48.4279

>  <SCORE.INTRA.VDW>
1.59277

>  <SCORE.INTRA.VDW.0>
-4.69037

>  <SCORE.INTRA.norm>
0.148103

>  <SCORE.RESTR>
0.777842

>  <SCORE.RESTR.CAVITY>
0.777842

>  <SCORE.RESTR.norm>
0.028809

>  <SCORE.SYSTEM>
0

>  <SCORE.SYSTEM.CONST>
0

>  <SCORE.SYSTEM.DIHEDRAL>
0

>  <SCORE.SYSTEM.SOLV>
0

>  <SCORE.SYSTEM.norm>
0

>  <SCORE.heavy>
27

>  <SCORE.norm>
-0.00374999

>  <RMSD>
17.351

$$$$
ligand
 OpenBabel02271912153D
libRbt.so/2013.1/901 2013/11/27
 27 29  0  0  0  0  0  0  0  0999 V2000
   10.7535    2.4373   23.3776 N   0  0  0  0  0  0  0  0  0  0  0  0
   11.8278    1.4123   23.1986 C   0  0  2  0  0  0  0  0  0  0  0  0
   13.1298    2.0575   22.6739 C   0  0  0  0  0  0  0  0  0  0  0  0
   14.2354    1.6745   23.0685 O   0  0  0  0  0  0  0  0  0  0  0  0
   11.3248    0.3060   22.2773 C   0  0  0  0  0  0  0  0  0  0  0  0
   10.0535   -0.3788   22.7507 C   0  0  0  0  0  0  0  0  0  0  0  0
    9.5333   -1.7485   21.6782 S   0  0  2  0  0  0  0  0  0  0  0  0
    9.1656   -0.8533   20.1423 C   0  0  0  0  0  0  0  0  0  0  0  0
    7.8927   -2.2386   22.2332 C   0  0  0  0  0  0  0  0  0  0  0  0
    7.6070   -3.6470   21.7480 C   0  0  1  0  0  0  0  0  0  0  0  0
    8.3241   -4.6302   22.4783 O   0  0  0  0  0  0  0  0  0  0  0  0
    6.1414   -3.9862   21.8698 C   0  0  1  0  0  0  0  0  0  0  0  0
    5.4266   -3.5393   20.7536 O   0  0  0  0  0  0  0  0  0  0  0  0
    6.1943   -5.4820   21.9409 C   0  0  1  0  0  0  0  0  0  0  0  0
    6.1824   -6.0098   20.6281 O   0  0  0  0  0  0  0  0  0  0  0  0
    7.5232   -5.7802   22.6231 C   0  0  2  0  0  0  0  0  0  0  0  0
   13.1254    2.9850   21.8439 O   0  0  0  0  0  0  0  0  0  0  0  0
    8.5223   -9.0482   26.6457 N   0  0  0  0  0  0  0  0  0  0  0  0
    8.9432   -9.1657   25.3290 C   0  0  0  0  0  0  0  0  0  0  0  0
    8.5807   -8.2202   24.3771 N   0  0  0  0  0  0  0  0  0  0  0  0
    7.8269   -7.1689   24.7471 C   0  0  0  0  0  0  0  0  0  0  0  0
    7.4094   -7.0316   26.0739 C   0  0  0  0  0  0  0  0  0  0  0  0
    7.7448   -7.9758   27.0268 C   0  0  0  0  0  0  0  0  0  0  0  0
    7.3375   -7.8470   28.2807 N   0  0  0  0  0  0  0  0  0  0  0  0
    6.6941   -5.9056   26.1703 N   0  0  0  0  0  0  0  0  0  0  0  0
    6.6496   -5.3277   24.9496 C   0  0  0  0  0  0  0  0  0  0  0  0
    7.3515   -6.0954   24.0539 N   0  0  0  0  0  0  0  0  0  0  0  0
  2  1  1  6  0  0  0
  2  3  1  0  0  0  0
  2  5  1  0  0  0  0
  3  4  1  0  0  0  0
  3 17  1  0  0  0  0
  5  6  1  0  0  0  0
  7  6  1  1  0  0  0
  7  8  1  0  0  0  0
  7  9  1  0  0  0  0
 10  9  1  1  0  0  0
 10 11  1  0  0  0  0
 10 12  1  0  0  0  0
 11 16  1  0  0  0  0
 12 13  1  6  0  0  0
 12 14  1  0  0  0  0
 14 15  1  6  0  0  0
 14 16  1  0  0  0  0
 16 27  1  1  0  0  0
 18 19  2  0  0  0  0
 18 23  1  0  0  0  0
 19 20  1  0  0  0  0
 20 21  2  0  0  0  0
 21 22  1  0  0  0  0
 21 27  1  0  0  0  0
 22 23  2  0  0  0  0
 22 25  1  0  0  0  0
 23 24  1  0  0  0  0
 25 26  2  0  0  0  0
 26 27  1  0  0  0  0
M  END
>  <CHROM.1>
142.24019014,-57.01451563,-176.88867235,-64.40678325,-159.80933320,74.16522732
-112.78635797,8.79403995,-3.54198011,23.27158837,-0.94806088,0.72943178,2.37953613

>  <Name>
ligand

>  <RI>
0

>  <Rbt.Current_Directory>
/home/itssahil/PROJECTS/Mol_Feturizer/Test_systems_manuscript/rnas/2ydh

>  <Rbt.Executable>
rbdock ($Id: //depot/dev/client3/rdock/2013.1/src/exe/rbdock.cxx#4 $)

>  <Rbt.Library>
libRbt.so (2013.1, Build901 2013/11/27)

>  <Rbt.Parameter_File>
/export/apps/rDock/src/rDock_2013.1_src/data/scripts/dock_solv.prm

>  <Rbt.Receptor>
prm/blind_docking_40.prm

>  <SCORE>
-17.2014

>  <SCORE.INTER>
-17.2666

>  <SCORE.INTER.CONST>
1

>  <SCORE.INTER.POLAR>
0

>  <SCORE.INTER.ROT>
7

>  <SCORE.INTER.SOLV>
18.0723

>  <SCORE.INTER.VDW>
-25.8018

>  <SCORE.INTER.norm>
-0.639503

>  <SCORE.INTRA>
0.0652239

>  <SCORE.INTRA.DIHEDRAL>
-4.00388

>  <SCORE.INTRA.DIHEDRAL.0>
9.75037

>  <SCORE.INTRA.POLAR>
0

>  <SCORE.INTRA.POLAR.0>
0

>  <SCORE.INTRA.REPUL>
0

>  <SCORE.INTRA.REPUL.0>
0

>  <SCORE.INTRA.SOLV>
-0.899194

>  <SCORE.INTRA.SOLV.lig_0>
-48.4279

>  <SCORE.INTRA.VDW>
2.51676

>  <SCORE.INTRA.VDW.0>
-4.69037

>  <SCORE.INTRA.norm>
0.0024157

>  <SCORE.RESTR>
0

>  <SCORE.RESTR.CAVITY>
0

>  <SCORE.RESTR.norm>
0

>  <SCORE.SYSTEM>
0

>  <SCORE.SYSTEM.CONST>
0

>  <SCORE.SYSTEM.DIHEDRAL>
0

>  <SCORE.SYSTEM.SOLV>
0

>  <SCORE.SYSTEM.norm>
0

>  <SCORE.heavy>
27

>  <SCORE.norm>
-0.637088

>  <RMSD>
17.391

$$$$
ligand
 OpenBabel02271912153D
libRbt.so/2013.1/901 2013/11/27
 27 29  0  0  0  0  0  0  0  0999 V2000
    9.4333    4.1562   26.8641 N   0  0  0  0  0  0  0  0  0  0  0  0
    9.0619    5.4950   26.3105 C   0  0  2  0  0  0  0  0  0  0  0  0
    8.4897    6.4132   27.4134 C   0  0  0  0  0  0  0  0  0  0  0  0
    7.6087    6.0148   28.1814 O   0  0  0  0  0  0  0  0  0  0  0  0
    8.0857    5.3124   25.1533 C   0  0  0  0  0  0  0  0  0  0  0  0
    8.6607    4.5779   23.9537 C   0  0  0  0  0  0  0  0  0  0  0  0
    7.4761    4.3907   22.5904 S   0  0  2  0  0  0  0  0  0  0  0  0
    6.3571    3.1415   23.2852 C   0  0  0  0  0  0  0  0  0  0  0  0
    8.3230    3.4650   21.2998 C   0  0  0  0  0  0  0  0  0  0  0  0
    9.1375    2.3569   21.9396 C   0  0  1  0  0  0  0  0  0  0  0  0
    8.3390    1.2505   22.3300 O   0  0  0  0  0  0  0  0  0  0  0  0
   10.1917    1.8313   20.9961 C   0  0  1  0  0  0  0  0  0  0  0  0
   11.3516    2.6113   21.0521 O   0  0  0  0  0  0  0  0  0  0  0  0
   10.4132    0.4551   21.5456 C   0  0  1  0  0  0  0  0  0  0  0  0
   11.3912    0.5146   22.5664 O   0  0  0  0  0  0  0  0  0  0  0  0
    9.0615    0.0584   22.1251 C   0  0  2  0  0  0  0  0  0  0  0  0
    8.8806    7.5840   27.5739 O   0  0  0  0  0  0  0  0  0  0  0  0
    7.8318   -1.3014   17.1756 N   0  0  0  0  0  0  0  0  0  0  0  0
    8.6799   -0.2862   17.5935 C   0  0  0  0  0  0  0  0  0  0  0  0
    8.8903   -0.0438   18.9457 N   0  0  0  0  0  0  0  0  0  0  0  0
    8.2752   -0.8191   19.8571 C   0  0  0  0  0  0  0  0  0  0  0  0
    7.4303   -1.8547   19.4481 C   0  0  0  0  0  0  0  0  0  0  0  0
    7.1952   -2.0936   18.1066 C   0  0  0  0  0  0  0  0  0  0  0  0
    6.3851   -3.0693   17.7242 N   0  0  0  0  0  0  0  0  0  0  0  0
    6.9665   -2.4694   20.5418 N   0  0  0  0  0  0  0  0  0  0  0  0
    7.4931   -1.8576   21.6255 C   0  0  0  0  0  0  0  0  0  0  0  0
    8.3122   -0.8334   21.2199 N   0  0  0  0  0  0  0  0  0  0  0  0
  2  1  1  1  0  0  0
  2  3  1  0  0  0  0
  2  5  1  0  0  0  0
  3  4  1  0  0  0  0
  3 17  1  0  0  0  0
  5  6  1  0  0  0  0
  7  6  1  1  0  0  0
  7  8  1  0  0  0  0
  7  9  1  0  0  0  0
 10  9  1  6  0  0  0
 10 11  1  0  0  0  0
 10 12  1  0  0  0  0
 11 16  1  0  0  0  0
 12 13  1  1  0  0  0
 12 14  1  0  0  0  0
 14 15  1  1  0  0  0
 14 16  1  0  0  0  0
 16 27  1  6  0  0  0
 18 19  2  0  0  0  0
 18 23  1  0  0  0  0
 19 20  1  0  0  0  0
 20 21  2  0  0  0  0
 21 22  1  0  0  0  0
 21 27  1  0  0  0  0
 22 23  2  0  0  0  0
 22 25  1  0  0  0  0
 23 24  1  0  0  0  0
 25 26  2  0  0  0  0
 26 27  1  0  0  0  0
M  END
>  <CHROM.1>
-48.65571124,-64.28478759,-179.51696823,-72.17174027,40.96163693,77.70209876
83.09833528,8.48483554,1.89515060,22.24662170,-1.51714392,-0.21739477,-2.33818459

>  <Name>
ligand

>  <RI>
0

>  <Rbt.Current_Directory>
/home/itssahil/PROJECTS/Mol_Feturizer/Test_systems_manuscript/rnas/2ydh

>  <Rbt.Executable>
rbdock ($Id: //depot/dev/client3/rdock/2013.1/src/exe/rbdock.cxx#4 $)

>  <Rbt.Library>
libRbt.so (2013.1, Build901 2013/11/27)

>  <Rbt.Parameter_File>
/export/apps/rDock/src/rDock_2013.1_src/data/scripts/dock_solv.prm

>  <Rbt.Receptor>
prm/blind_docking_80.prm

>  <SCORE>
-13.0073

>  <SCORE.INTER>
-12.8923

>  <SCORE.INTER.CONST>
1

>  <SCORE.INTER.POLAR>
0

>  <SCORE.INTER.ROT>
7

>  <SCORE.INTER.SOLV>
7.47498

>  <SCORE.INTER.VDW>
-19.3532

>  <SCORE.INTER.norm>
-0.477493

>  <SCORE.INTRA>
-0.114947

>  <SCORE.INTRA.DIHEDRAL>
-5.13635

>  <SCORE.INTRA.DIHEDRAL.0>
9.75037

>  <SCORE.INTRA.POLAR>
0

>  <SCORE.INTRA.POLAR.0>
0

>  <SCORE.INTRA.REPUL>
0

>  <SCORE.INTRA.REPUL.0>
0

>  <SCORE.INTRA.SOLV>
-0.715867

>  <SCORE.INTRA.SOLV.lig_0>
-48.4279

>  <SCORE.INTRA.VDW>
2.81116

>  <SCORE.INTRA.VDW.0>
-4.69037

>  <SCORE.INTRA.norm>
-0.00425729

>  <SCORE.RESTR>
0

>  <SCORE.RESTR.CAVITY>
0

>  <SCORE.RESTR.norm>
0

>  <SCORE.SYSTEM>
0

>  <SCORE.SYSTEM.CONST>
0

>  <SCORE.SYSTEM.DIHEDRAL>
0

>  <SCORE.SYSTEM.SOLV>
0

>  <SCORE.SYSTEM.norm>
0

>  <SCORE.heavy>
27

>  <SCORE.norm>
-0.48175

>  <RMSD>
17.392

$$$$
ligand
 OpenBabel02271912153D
libRbt.so/2013.1/901 2013/11/27
 27 29  0  0  0  0  0  0  0  0999 V2000
    5.5876  -17.1989    0.4693 N   0  0  0  0  0  0  0  0  0  0  0  0
    4.7876  -16.8014    1.6687 C   0  0  2  0  0  0  0  0  0  0  0  0
    4.6801  -17.9674    2.6765 C   0  0  0  0  0  0  0  0  0  0  0  0
    5.3708  -18.9834    2.5525 O   0  0  0  0  0  0  0  0  0  0  0  0
    3.4176  -16.3022    1.2218 C   0  0  0  0  0  0  0  0  0  0  0  0
    2.9182  -15.0778    1.9705 C   0  0  0  0  0  0  0  0  0  0  0  0
    3.0096  -15.2526    3.7755 S   0  0  2  0  0  0  0  0  0  0  0  0
    1.6468  -14.1686    4.2887 C   0  0  0  0  0  0  0  0  0  0  0  0
    4.4553  -14.3214    4.3074 C   0  0  0  0  0  0  0  0  0  0  0  0
    4.5969  -14.4454    5.8124 C   0  0  1  0  0  0  0  0  0  0  0  0
    3.4860  -13.9039    6.5100 O   0  0  0  0  0  0  0  0  0  0  0  0
    4.7268  -15.8877    6.2378 C   0  0  1  0  0  0  0  0  0  0  0  0
    6.0546  -16.3196    6.1545 O   0  0  0  0  0  0  0  0  0  0  0  0
    4.2470  -15.8167    7.6555 C   0  0  1  0  0  0  0  0  0  0  0  0
    5.3368  -15.4952    8.4988 O   0  0  0  0  0  0  0  0  0  0  0  0
    3.2249  -14.6873    7.6516 C   0  0  2  0  0  0  0  0  0  0  0  0
    3.8986  -17.9402    3.6449 O   0  0  0  0  0  0  0  0  0  0  0  0
   -0.2043  -18.1921    5.6982 N   0  0  0  0  0  0  0  0  0  0  0  0
    1.1529  -18.0888    5.4299 C   0  0  0  0  0  0  0  0  0  0  0  0
    1.9228  -17.0929    6.0189 N   0  0  0  0  0  0  0  0  0  0  0  0
    1.3427  -16.2317    6.8745 C   0  0  0  0  0  0  0  0  0  0  0  0
   -0.0207  -16.3350    7.1644 C   0  0  0  0  0  0  0  0  0  0  0  0
   -0.8031  -17.3076    6.5693 C   0  0  0  0  0  0  0  0  0  0  0  0
   -2.0970  -17.3947    6.8389 N   0  0  0  0  0  0  0  0  0  0  0  0
   -0.3327  -15.3767    8.0438 N   0  0  0  0  0  0  0  0  0  0  0  0
    0.7890  -14.6753    8.3196 C   0  0  0  0  0  0  0  0  0  0  0  0
    1.8406  -15.1947    7.6063 N   0  0  0  0  0  0  0  0  0  0  0  0
  2  1  1  6  0  0  0
  2  3  1  0  0  0  0
  2  5  1  0  0  0  0
  3  4  1  0  0  0  0
  3 17  1  0  0  0  0
  5  6  1  0  0  0  0
  7  6  1  6  0  0  0
  7  8  1  0  0  0  0
  7  9  1  0  0  0  0
 10  9  1  6  0  0  0
 10 11  1  0  0  0  0
 10 12  1  0  0  0  0
 11 16  1  0  0  0  0
 12 13  1  1  0  0  0
 12 14  1  0  0  0  0
 14 15  1  1  0  0  0
 14 16  1  0  0  0  0
 16 27  1  6  0  0  0
 18 19  2  0  0  0  0
 18 23  1  0  0  0  0
 19 20  1  0  0  0  0
 20 21  2  0  0  0  0
 21 22  1  0  0  0  0
 21 27  1  0  0  0  0
 22 23  2  0  0  0  0
 22 25  1  0  0  0  0
 23 24  1  0  0  0  0
 25 26  2  0  0  0  0
 26 27  1  0  0  0  0
M  END
>  <CHROM.1>
10.96040298,-138.95106467,-50.45117018,-151.57983011,-179.23148752,-61.91457573
77.81500205,2.86853021,-16.11640792,5.21774270,0.85976018,-0.29019435,-1.97565345

>  <Name>
ligand

>  <RI>
0

>  <Rbt.Current_Directory>
/home/itssahil/PROJECTS/Mol_Feturizer/Test_systems_manuscript/rnas/2ydh

>  <Rbt.Executable>
rbdock ($Id: //depot/dev/client3/rdock/2013.1/src/exe/rbdock.cxx#4 $)

>  <Rbt.Library>
libRbt.so (2013.1, Build901 2013/11/27)

>  <Rbt.Parameter_File>
/export/apps/rDock/src/rDock_2013.1_src/data/scripts/dock_solv.prm

>  <Rbt.Receptor>
prm/blind_docking_20.prm

>  <SCORE>
-3.57117

>  <SCORE.INTER>
-4.75378

>  <SCORE.INTER.CONST>
1

>  <SCORE.INTER.POLAR>
0

>  <SCORE.INTER.ROT>
7

>  <SCORE.INTER.SOLV>
13.4481

>  <SCORE.INTER.VDW>
-15.9186

>  <SCORE.INTER.norm>
-0.176066

>  <SCORE.INTRA>
-0.012371

>  <SCORE.INTRA.DIHEDRAL>
1.12847

>  <SCORE.INTRA.DIHEDRAL.0>
9.75037

>  <SCORE.INTRA.POLAR>
0

>  <SCORE.INTRA.POLAR.0>
0

>  <SCORE.INTRA.REPUL>
0

>  <SCORE.INTRA.REPUL.0>
0

>  <SCORE.INTRA.SOLV>
-0.878012

>  <SCORE.INTRA.SOLV.lig_0>
-48.4279

>  <SCORE.INTRA.VDW>
-0.137599

>  <SCORE.INTRA.VDW.0>
-4.69037

>  <SCORE.INTRA.norm>
-0.000458184

>  <SCORE.RESTR>
1.19498

>  <SCORE.RESTR.CAVITY>
1.19498

>  <SCORE.RESTR.norm>
0.0442584

>  <SCORE.SYSTEM>
0

>  <SCORE.SYSTEM.CONST>
0

>  <SCORE.SYSTEM.DIHEDRAL>
0

>  <SCORE.SYSTEM.SOLV>
0

>  <SCORE.SYSTEM.norm>
0

>  <SCORE.heavy>
27

>  <SCORE.norm>
-0.132266

>  <RMSD>
17.397

$$$$
ligand
 OpenBabel02271912153D
libRbt.so/2013.1/901 2013/11/27
 27 29  0  0  0  0  0  0  0  0999 V2000
    3.3788  -15.1157    2.1587 N   0  0  0  0  0  0  0  0  0  0  0  0
    3.6018  -16.4558    1.5333 C   0  0  2  0  0  0  0  0  0  0  0  0
    2.9679  -17.5787    2.3841 C   0  0  0  0  0  0  0  0  0  0  0  0
    2.3688  -18.5195    1.8543 O   0  0  0  0  0  0  0  0  0  0  0  0
    5.0960  -16.6732    1.3192 C   0  0  0  0  0  0  0  0  0  0  0  0
    5.8715  -17.0078    2.5825 C   0  0  0  0  0  0  0  0  0  0  0  0
    5.8192  -15.6880    3.8284 S   0  0  2  0  0  0  0  0  0  0  0  0
    7.5865  -15.5061    4.2013 C   0  0  0  0  0  0  0  0  0  0  0  0
    5.1879  -16.4351    5.3394 C   0  0  0  0  0  0  0  0  0  0  0  0
    4.7459  -15.3362    6.2869 C   0  0  1  0  0  0  0  0  0  0  0  0
    3.5103  -14.7522    5.9043 O   0  0  0  0  0  0  0  0  0  0  0  0
    4.5733  -15.8562    7.6932 C   0  0  1  0  0  0  0  0  0  0  0  0
    5.7902  -15.8557    8.3831 O   0  0  0  0  0  0  0  0  0  0  0  0
    3.6083  -14.8576    8.2558 C   0  0  1  0  0  0  0  0  0  0  0  0
    4.3296  -13.7575    8.7771 O   0  0  0  0  0  0  0  0  0  0  0  0
    2.7709  -14.4266    7.0585 C   0  0  2  0  0  0  0  0  0  0  0  0
    3.0257  -17.5850    3.6275 O   0  0  0  0  0  0  0  0  0  0  0  0
   -0.0196  -18.7167    5.7674 N   0  0  0  0  0  0  0  0  0  0  0  0
    1.3407  -18.5035    5.5981 C   0  0  0  0  0  0  0  0  0  0  0  0
    1.9277  -17.3032    5.9803 N   0  0  0  0  0  0  0  0  0  0  0  0
    1.1651  -16.3457    6.5387 C   0  0  0  0  0  0  0  0  0  0  0  0
   -0.2039  -16.5546    6.7284 C   0  0  0  0  0  0  0  0  0  0  0  0
   -0.8050  -17.7355    6.3334 C   0  0  0  0  0  0  0  0  0  0  0  0
   -2.1047  -17.9245    6.5052 N   0  0  0  0  0  0  0  0  0  0  0  0
   -0.7147  -15.4628    7.3081 N   0  0  0  0  0  0  0  0  0  0  0  0
    0.2869  -14.5746    7.4925 C   0  0  0  0  0  0  0  0  0  0  0  0
    1.4626  -15.1073    7.0252 N   0  0  0  0  0  0  0  0  0  0  0  0
  2  1  1  1  0  0  0
  2  3  1  0  0  0  0
  2  5  1  0  0  0  0
  3  4  1  0  0  0  0
  3 17  1  0  0  0  0
  5  6  1  0  0  0  0
  7  6  1  6  0  0  0
  7  8  1  0  0  0  0
  7  9  1  0  0  0  0
 10  9  1  6  0  0  0
 10 11  1  0  0  0  0
 10 12  1  0  0  0  0
 11 16  1  0  0  0  0
 12 13  1  1  0  0  0
 12 14  1  0  0  0  0
 14 15  1  6  0  0  0
 14 16  1  0  0  0  0
 16 27  1  6  0  0  0
 18 19  2  0  0  0  0
 18 23  1  0  0  0  0
 19 20  1  0  0  0  0
 20 21  2  0  0  0  0
 21 22  1  0  0  0  0
 21 27  1  0  0  0  0
 22 23  2  0  0  0  0
 22 25  1  0  0  0  0
 23 24  1  0  0  0  0
 25 26  2  0  0  0  0
 26 27  1  0  0  0  0
M  END
>  <CHROM.1>
139.10453087,75.68906977,-62.00695054,-129.33967465,-163.92632810,75.62178207
35.66855288,3.06118069,-16.24144342,5.33219342,0.54599666,-0.32316894,-1.98510816

>  <Name>
ligand

>  <RI>
0

>  <Rbt.Current_Directory>
/home/itssahil/PROJECTS/Mol_Feturizer/Test_systems_manuscript/rnas/2ydh

>  <Rbt.Executable>
rbdock ($Id: //depot/dev/client3/rdock/2013.1/src/exe/rbdock.cxx#4 $)

>  <Rbt.Library>
libRbt.so (2013.1, Build901 2013/11/27)

>  <Rbt.Parameter_File>
/export/apps/rDock/src/rDock_2013.1_src/data/scripts/dock_solv.prm

>  <Rbt.Receptor>
prm/blind_docking_20.prm

>  <SCORE>
-4.90246

>  <SCORE.INTER>
-7.16642

>  <SCORE.INTER.CONST>
1

>  <SCORE.INTER.POLAR>
0

>  <SCORE.INTER.ROT>
7

>  <SCORE.INTER.SOLV>
10.9112

>  <SCORE.INTER.VDW>
-16.6813

>  <SCORE.INTER.norm>
-0.265423

>  <SCORE.INTRA>
1.67861

>  <SCORE.INTRA.DIHEDRAL>
0.981264

>  <SCORE.INTRA.DIHEDRAL.0>
9.75037

>  <SCORE.INTRA.POLAR>
0

>  <SCORE.INTRA.POLAR.0>
0

>  <SCORE.INTRA.REPUL>
0

>  <SCORE.INTRA.REPUL.0>
0

>  <SCORE.INTRA.SOLV>
1.47398

>  <SCORE.INTRA.SOLV.lig_0>
-48.4279

>  <SCORE.INTRA.VDW>
0.450993

>  <SCORE.INTRA.VDW.0>
-4.69037

>  <SCORE.INTRA.norm>
0.0621709

>  <SCORE.RESTR>
0.585347

>  <SCORE.RESTR.CAVITY>
0.585347

>  <SCORE.RESTR.norm>
0.0216795

>  <SCORE.SYSTEM>
0

>  <SCORE.SYSTEM.CONST>
0

>  <SCORE.SYSTEM.DIHEDRAL>
0

>  <SCORE.SYSTEM.SOLV>
0

>  <SCORE.SYSTEM.norm>
0

>  <SCORE.heavy>
27

>  <SCORE.norm>
-0.181573

>  <RMSD>
17.437

$$$$
ligand
 OpenBabel02271912153D
libRbt.so/2013.1/901 2013/11/27
 27 29  0  0  0  0  0  0  0  0999 V2000
    5.8272  -18.3444    3.0256 N   0  0  0  0  0  0  0  0  0  0  0  0
    5.1332  -17.8381    1.8013 C   0  0  2  0  0  0  0  0  0  0  0  0
    6.0694  -17.8827    0.5732 C   0  0  0  0  0  0  0  0  0  0  0  0
    7.0343  -18.6521    0.5343 O   0  0  0  0  0  0  0  0  0  0  0  0
    4.5999  -16.4339    2.0647 C   0  0  0  0  0  0  0  0  0  0  0  0
    3.4357  -16.3745    3.0396 C   0  0  0  0  0  0  0  0  0  0  0  0
    3.4186  -14.8640    4.0470 S   0  0  2  0  0  0  0  0  0  0  0  0
    3.7173  -13.6056    2.7731 C   0  0  0  0  0  0  0  0  0  0  0  0
    4.9650  -14.8453    4.9680 C   0  0  0  0  0  0  0  0  0  0  0  0
    4.6612  -14.6426    6.4401 C   0  0  1  0  0  0  0  0  0  0  0  0
    3.3847  -14.0619    6.6574 O   0  0  0  0  0  0  0  0  0  0  0  0
    4.6874  -15.9497    7.1943 C   0  0  1  0  0  0  0  0  0  0  0  0
    5.9891  -16.2784    7.5872 O   0  0  0  0  0  0  0  0  0  0  0  0
    3.8117  -15.6264    8.3663 C   0  0  1  0  0  0  0  0  0  0  0  0
    4.6000  -15.0483    9.3894 O   0  0  0  0  0  0  0  0  0  0  0  0
    2.8149  -14.6106    7.8233 C   0  0  2  0  0  0  0  0  0  0  0  0
    5.9005  -17.1508   -0.4193 O   0  0  0  0  0  0  0  0  0  0  0  0
    0.1570  -18.4213    5.3188 N   0  0  0  0  0  0  0  0  0  0  0  0
    1.5287  -18.2147    5.3423 C   0  0  0  0  0  0  0  0  0  0  0  0
    2.0774  -17.1476    6.0435 N   0  0  0  0  0  0  0  0  0  0  0  0
    1.2643  -16.3179    6.7223 C   0  0  0  0  0  0  0  0  0  0  0  0
   -0.1181  -16.5247    6.7185 C   0  0  0  0  0  0  0  0  0  0  0  0
   -0.6794  -17.5696    6.0079 C   0  0  0  0  0  0  0  0  0  0  0  0
   -1.9909  -17.7551    5.9985 N   0  0  0  0  0  0  0  0  0  0  0  0
   -0.6824  -15.5762    7.4740 N   0  0  0  0  0  0  0  0  0  0  0  0
    0.2981  -14.7808    7.9557 C   0  0  0  0  0  0  0  0  0  0  0  0
    1.5143  -15.2288    7.5034 N   0  0  0  0  0  0  0  0  0  0  0  0
  2  1  1  1  0  0  0
  2  3  1  0  0  0  0
  2  5  1  0  0  0  0
  3  4  1  0  0  0  0
  3 17  1  0  0  0  0
  5  6  1  0  0  0  0
  7  6  1  6  0  0  0
  7  8  1  0  0  0  0
  7  9  1  0  0  0  0
 10  9  1  6  0  0  0
 10 11  1  0  0  0  0
 10 12  1  0  0  0  0
 11 16  1  0  0  0  0
 12 13  1  1  0  0  0
 12 14  1  0  0  0  0
 14 15  1  1  0  0  0
 14 16  1  0  0  0  0
 16 27  1  6  0  0  0
 18 19  2  0  0  0  0
 18 23  1  0  0  0  0
 19 20  1  0  0  0  0
 20 21  2  0  0  0  0
 21 22  1  0  0  0  0
 21 27  1  0  0  0  0
 22 23  2  0  0  0  0
 22 25  1  0  0  0  0
 23 24  1  0  0  0  0
 25 26  2  0  0  0  0
 26 27  1  0  0  0  0
M  END
>  <CHROM.1>
23.32720600,-69.94295655,147.02454067,46.37297298,-128.06829282,-20.99471287
65.98198665,3.20285983,-16.20147612,5.12318215,-0.90313544,0.28800492,1.12732185

>  <Name>
ligand

>  <RI>
0

>  <Rbt.Current_Directory>
/home/itssahil/PROJECTS/Mol_Feturizer/Test_systems_manuscript/rnas/2ydh

>  <Rbt.Executable>
rbdock ($Id: //depot/dev/client3/rdock/2013.1/src/exe/rbdock.cxx#4 $)

>  <Rbt.Library>
libRbt.so (2013.1, Build901 2013/11/27)

>  <Rbt.Parameter_File>
/export/apps/rDock/src/rDock_2013.1_src/data/scripts/dock_solv.prm

>  <Rbt.Receptor>
prm/blind_docking_20.prm

>  <SCORE>
-4.3054

>  <SCORE.INTER>
-10.6142

>  <SCORE.INTER.CONST>
1

>  <SCORE.INTER.POLAR>
0

>  <SCORE.INTER.ROT>
7

>  <SCORE.INTER.SOLV>
9.37872

>  <SCORE.INTER.VDW>
-18.469

>  <SCORE.INTER.norm>
-0.393118

>  <SCORE.INTRA>
4.86216

>  <SCORE.INTRA.DIHEDRAL>
5.27568

>  <SCORE.INTRA.DIHEDRAL.0>
9.75037

>  <SCORE.INTRA.POLAR>
0

>  <SCORE.INTRA.POLAR.0>
0

>  <SCORE.INTRA.REPUL>
0

>  <SCORE.INTRA.REPUL.0>
0

>  <SCORE.INTRA.SOLV>
-0.0745277

>  <SCORE.INTRA.SOLV.lig_0>
-48.4279

>  <SCORE.INTRA.VDW>
2.26159

>  <SCORE.INTRA.VDW.0>
-4.69037

>  <SCORE.INTRA.norm>
0.18008

>  <SCORE.RESTR>
1.44662

>  <SCORE.RESTR.CAVITY>
1.44662

>  <SCORE.RESTR.norm>
0.0535783

>  <SCORE.SYSTEM>
0

>  <SCORE.SYSTEM.CONST>
0

>  <SCORE.SYSTEM.DIHEDRAL>
0

>  <SCORE.SYSTEM.SOLV>
0

>  <SCORE.SYSTEM.norm>
0

>  <SCORE.heavy>
27

>  <SCORE.norm>
-0.159459

>  <RMSD>
17.437

$$$$
ligand
 OpenBabel02271912153D
libRbt.so/2013.1/901 2013/11/27
 27 29  0  0  0  0  0  0  0  0999 V2000
    3.4566  -19.0716    2.5484 N   0  0  0  0  0  0  0  0  0  0  0  0
    3.8630  -17.6460    2.7463 C   0  0  2  0  0  0  0  0  0  0  0  0
    3.8494  -16.8733    1.4086 C   0  0  0  0  0  0  0  0  0  0  0  0
    4.8642  -16.7895    0.7101 O   0  0  0  0  0  0  0  0  0  0  0  0
    5.2291  -17.5972    3.4224 C   0  0  0  0  0  0  0  0  0  0  0  0
    5.7920  -16.1976    3.6055 C   0  0  0  0  0  0  0  0  0  0  0  0
    4.5643  -15.0025    4.2067 S   0  0  2  0  0  0  0  0  0  0  0  0
    4.3582  -13.9611    2.7340 C   0  0  0  0  0  0  0  0  0  0  0  0
    5.4328  -13.8989    5.3326 C   0  0  0  0  0  0  0  0  0  0  0  0
    4.8805  -14.0865    6.7327 C   0  0  1  0  0  0  0  0  0  0  0  0
    3.4625  -14.0394    6.7692 O   0  0  0  0  0  0  0  0  0  0  0  0
    5.2947  -15.4153    7.3162 C   0  0  1  0  0  0  0  0  0  0  0  0
    6.5590  -15.3328    7.9091 O   0  0  0  0  0  0  0  0  0  0  0  0
    4.2130  -15.6378    8.3288 C   0  0  1  0  0  0  0  0  0  0  0  0
    4.5810  -15.0164    9.5456 O   0  0  0  0  0  0  0  0  0  0  0  0
    2.9900  -14.9549    7.7302 C   0  0  2  0  0  0  0  0  0  0  0  0
    2.8300  -16.3018    0.9804 O   0  0  0  0  0  0  0  0  0  0  0  0
   -1.9538  -16.6895    7.0908 N   0  0  0  0  0  0  0  0  0  0  0  0
   -1.5190  -15.6255    7.8677 C   0  0  0  0  0  0  0  0  0  0  0  0
   -0.1696  -15.3016    7.9427 N   0  0  0  0  0  0  0  0  0  0  0  0
    0.7206  -16.0212    7.2355 C   0  0  0  0  0  0  0  0  0  0  0  0
    0.2929  -17.0859    6.4373 C   0  0  0  0  0  0  0  0  0  0  0  0
   -1.0439  -17.4327    6.3700 C   0  0  0  0  0  0  0  0  0  0  0  0
   -1.4431  -18.4494    5.6206 N   0  0  0  0  0  0  0  0  0  0  0  0
    1.3662  -17.6147    5.8395 N   0  0  0  0  0  0  0  0  0  0  0  0
    2.4549  -16.9171    6.2321 C   0  0  0  0  0  0  0  0  0  0  0  0
    2.0730  -15.9205    7.0955 N   0  0  0  0  0  0  0  0  0  0  0  0
  2  1  1  6  0  0  0
  2  3  1  0  0  0  0
  2  5  1  0  0  0  0
  3  4  1  0  0  0  0
  3 17  1  0  0  0  0
  5  6  1  0  0  0  0
  7  6  1  6  0  0  0
  7  8  1  0  0  0  0
  7  9  1  0  0  0  0
 10  9  1  6  0  0  0
 10 11  1  0  0  0  0
 10 12  1  0  0  0  0
 11 16  1  0  0  0  0
 12 13  1  1  0  0  0
 12 14  1  0  0  0  0
 14 15  1  1  0  0  0
 14 16  1  0  0  0  0
 16 27  1  6  0  0  0
 18 19  2  0  0  0  0
 18 23  1  0  0  0  0
 19 20  1  0  0  0  0
 20 21  2  0  0  0  0
 21 22  1  0  0  0  0
 21 27  1  0  0  0  0
 22 23  2  0  0  0  0
 22 25  1  0  0  0  0
 23 24  1  0  0  0  0
 25 26  2  0  0  0  0
 26 27  1  0  0  0  0
M  END
>  <CHROM.1>
-91.95683579,176.56860105,43.92749882,-110.43330916,-114.63254564,-49.18833607
-108.96110997,3.02189484,-16.02447196,5.44315652,0.74212800,-0.34199369,-1.90260481

>  <Name>
ligand

>  <RI>
0

>  <Rbt.Current_Directory>
/home/itssahil/PROJECTS/Mol_Feturizer/Test_systems_manuscript/rnas/2ydh

>  <Rbt.Executable>
rbdock ($Id: //depot/dev/client3/rdock/2013.1/src/exe/rbdock.cxx#4 $)

>  <Rbt.Library>
libRbt.so (2013.1, Build901 2013/11/27)

>  <Rbt.Parameter_File>
/export/apps/rDock/src/rDock_2013.1_src/data/scripts/dock_solv.prm

>  <Rbt.Receptor>
prm/blind_docking_20.prm

>  <SCORE>
-5.00378

>  <SCORE.INTER>
-7.33318

>  <SCORE.INTER.CONST>
1

>  <SCORE.INTER.POLAR>
0

>  <SCORE.INTER.ROT>
7

>  <SCORE.INTER.SOLV>
10.7701

>  <SCORE.INTER.VDW>
-16.7455

>  <SCORE.INTER.norm>
-0.271599

>  <SCORE.INTRA>
1.70213

>  <SCORE.INTRA.DIHEDRAL>
2.33784

>  <SCORE.INTRA.DIHEDRAL.0>
9.75037

>  <SCORE.INTRA.POLAR>
0

>  <SCORE.INTRA.POLAR.0>
0

>  <SCORE.INTRA.REPUL>
0

>  <SCORE.INTRA.REPUL.0>
0

>  <SCORE.INTRA.SOLV>
-1.18323

>  <SCORE.INTRA.SOLV.lig_0>
-48.4279

>  <SCORE.INTRA.VDW>
1.12482

>  <SCORE.INTRA.VDW.0>
-4.69037

>  <SCORE.INTRA.norm>
0.0630417

>  <SCORE.RESTR>
0.627274

>  <SCORE.RESTR.CAVITY>
0.627274

>  <SCORE.RESTR.norm>
0.0232324

>  <SCORE.SYSTEM>
0

>  <SCORE.SYSTEM.CONST>
0

>  <SCORE.SYSTEM.DIHEDRAL>
0

>  <SCORE.SYSTEM.SOLV>
0

>  <SCORE.SYSTEM.norm>
0

>  <SCORE.heavy>
27

>  <SCORE.norm>
-0.185325

>  <RMSD>
17.455

$$$$
ligand
 OpenBabel02271912153D
libRbt.so/2013.1/901 2013/11/27
 27 29  0  0  0  0  0  0  0  0999 V2000
    5.1370  -17.4870    1.3077 N   0  0  0  0  0  0  0  0  0  0  0  0
    4.3256  -17.1442    2.5163 C   0  0  2  0  0  0  0  0  0  0  0  0
    3.4560  -18.3415    2.9600 C   0  0  0  0  0  0  0  0  0  0  0  0
    2.6739  -18.8871    2.1755 O   0  0  0  0  0  0  0  0  0  0  0  0
    3.4879  -15.9026    2.2294 C   0  0  0  0  0  0  0  0  0  0  0  0
    4.2418  -14.5897    2.3596 C   0  0  0  0  0  0  0  0  0  0  0  0
    4.2167  -13.9108    4.0434 S   0  0  2  0  0  0  0  0  0  0  0  0
    5.5534  -12.6873    3.9337 C   0  0  0  0  0  0  0  0  0  0  0  0
    4.9389  -15.1661    5.1124 C   0  0  0  0  0  0  0  0  0  0  0  0
    4.6316  -14.8214    6.5571 C   0  0  1  0  0  0  0  0  0  0  0  0
    3.3714  -14.1865    6.7090 O   0  0  0  0  0  0  0  0  0  0  0  0
    4.6139  -16.0546    7.4272 C   0  0  1  0  0  0  0  0  0  0  0  0
    5.9026  -16.3837    7.8603 O   0  0  0  0  0  0  0  0  0  0  0  0
    3.7405  -15.6006    8.5568 C   0  0  1  0  0  0  0  0  0  0  0  0
    4.5389  -14.9548    9.5303 O   0  0  0  0  0  0  0  0  0  0  0  0
    2.7779  -14.6100    7.9146 C   0  0  2  0  0  0  0  0  0  0  0  0
    3.4982  -18.8029    4.1152 O   0  0  0  0  0  0  0  0  0  0  0  0
    0.0198  -18.5154    5.6787 N   0  0  0  0  0  0  0  0  0  0  0  0
    1.3960  -18.3407    5.6849 C   0  0  0  0  0  0  0  0  0  0  0  0
    1.9729  -17.2425    6.3114 N   0  0  0  0  0  0  0  0  0  0  0  0
    1.1826  -16.3497    6.9347 C   0  0  0  0  0  0  0  0  0  0  0  0
   -0.2043  -16.5229    6.9483 C   0  0  0  0  0  0  0  0  0  0  0  0
   -0.7933  -17.5994    6.3110 C   0  0  0  0  0  0  0  0  0  0  0  0
   -2.1089  -17.7534    6.3173 N   0  0  0  0  0  0  0  0  0  0  0  0
   -0.7428  -15.5124    7.6396 N   0  0  0  0  0  0  0  0  0  0  0  0
    0.2584  -14.7103    8.0642 C   0  0  0  0  0  0  0  0  0  0  0  0
    1.4617  -15.2168    7.6401 N   0  0  0  0  0  0  0  0  0  0  0  0
  2  1  1  6  0  0  0
  2  3  1  0  0  0  0
  2  5  1  0  0  0  0
  3  4  1  0  0  0  0
  3 17  1  0  0  0  0
  5  6  1  0  0  0  0
  7  6  1  6  0  0  0
  7  8  1  0  0  0  0
  7  9  1  0  0  0  0
 10  9  1  6  0  0  0
 10 11  1  0  0  0  0
 10 12  1  0  0  0  0
 11 16  1  0  0  0  0
 12 13  1  1  0  0  0
 12 14  1  0  0  0  0
 14 15  1  1  0  0  0
 14 16  1  0  0  0  0
 16 27  1  6  0  0  0
 18 19  2  0  0  0  0
 18 23  1  0  0  0  0
 19 20  1  0  0  0  0
 20 21  2  0  0  0  0
 21 22  1  0  0  0  0
 21 27  1  0  0  0  0
 22 23  2  0  0  0  0
 22 25  1  0  0  0  0
 23 24  1  0  0  0  0
 25 26  2  0  0  0  0
 26 27  1  0  0  0  0
M  END
>  <CHROM.1>
-55.10911061,-80.62592015,-88.17782221,164.34531660,-165.73643265,33.31175202
64.44545146,2.87334248,-16.07541303,5.56478568,0.67502170,-0.54497637,-2.04413204

>  <Name>
ligand

>  <RI>
0

>  <Rbt.Current_Directory>
/home/itssahil/PROJECTS/Mol_Feturizer/Test_systems_manuscript/rnas/2ydh

>  <Rbt.Executable>
rbdock ($Id: //depot/dev/client3/rdock/2013.1/src/exe/rbdock.cxx#4 $)

>  <Rbt.Library>
libRbt.so (2013.1, Build901 2013/11/27)

>  <Rbt.Parameter_File>
/export/apps/rDock/src/rDock_2013.1_src/data/scripts/dock_solv.prm

>  <Rbt.Receptor>
prm/blind_docking_20.prm

>  <SCORE>
-5.58777

>  <SCORE.INTER>
-7.64646

>  <SCORE.INTER.CONST>
1

>  <SCORE.INTER.POLAR>
0

>  <SCORE.INTER.ROT>
7

>  <SCORE.INTER.SOLV>
13.5288

>  <SCORE.INTER.VDW>
-17.8739

>  <SCORE.INTER.norm>
-0.283202

>  <SCORE.INTRA>
1.15766

>  <SCORE.INTRA.DIHEDRAL>
1.01852

>  <SCORE.INTRA.DIHEDRAL.0>
9.75037

>  <SCORE.INTRA.POLAR>
0

>  <SCORE.INTRA.POLAR.0>
0

>  <SCORE.INTRA.REPUL>
0

>  <SCORE.INTRA.REPUL.0>
0

>  <SCORE.INTRA.SOLV>
-0.676284

>  <SCORE.INTRA.SOLV.lig_0>
-48.4279

>  <SCORE.INTRA.VDW>
0.986548

>  <SCORE.INTRA.VDW.0>
-4.69037

>  <SCORE.INTRA.norm>
0.0428764

>  <SCORE.RESTR>
0.901024

>  <SCORE.RESTR.CAVITY>
0.901024

>  <SCORE.RESTR.norm>
0.0333713

>  <SCORE.SYSTEM>
0

>  <SCORE.SYSTEM.CONST>
0

>  <SCORE.SYSTEM.DIHEDRAL>
0

>  <SCORE.SYSTEM.SOLV>
0

>  <SCORE.SYSTEM.norm>
0

>  <SCORE.heavy>
27

>  <SCORE.norm>
-0.206955

>  <RMSD>
17.466

$$$$
ligand
 OpenBabel02271912153D
libRbt.so/2013.1/901 2013/11/27
 27 29  0  0  0  0  0  0  0  0999 V2000
    0.6093  -18.4897    4.2636 N   0  0  0  0  0  0  0  0  0  0  0  0
    0.2827  -17.4403    5.2778 C   0  0  2  0  0  0  0  0  0  0  0  0
   -1.2280  -17.4301    5.6004 C   0  0  0  0  0  0  0  0  0  0  0  0
   -1.6312  -17.3387    6.7639 O   0  0  0  0  0  0  0  0  0  0  0  0
    0.7715  -16.0842    4.7799 C   0  0  0  0  0  0  0  0  0  0  0  0
    1.8683  -15.4601    5.6265 C   0  0  0  0  0  0  0  0  0  0  0  0
    1.5831  -15.6310    7.4116 S   0  0  2  0  0  0  0  0  0  0  0  0
    0.1177  -14.5801    7.6211 C   0  0  0  0  0  0  0  0  0  0  0  0
    2.8625  -14.6644    8.2293 C   0  0  0  0  0  0  0  0  0  0  0  0
    4.2191  -15.2512    7.8884 C   0  0  1  0  0  0  0  0  0  0  0  0
    4.1689  -16.6545    7.6827 O   0  0  0  0  0  0  0  0  0  0  0  0
    4.7851  -14.6390    6.6303 C   0  0  1  0  0  0  0  0  0  0  0  0
    5.4576  -13.4448    6.9099 O   0  0  0  0  0  0  0  0  0  0  0  0
    5.7209  -15.7181    6.1779 C   0  0  1  0  0  0  0  0  0  0  0  0
    6.9772  -15.5352    6.8029 O   0  0  0  0  0  0  0  0  0  0  0  0
    5.0694  -17.0083    6.6585 C   0  0  2  0  0  0  0  0  0  0  0  0
   -2.0983  -17.5179    4.7149 O   0  0  0  0  0  0  0  0  0  0  0  0
    3.2402  -16.9022    1.7086 N   0  0  0  0  0  0  0  0  0  0  0  0
    3.9449  -15.9115    2.3769 C   0  0  0  0  0  0  0  0  0  0  0  0
    4.3475  -16.0883    3.6953 N   0  0  0  0  0  0  0  0  0  0  0  0
    4.0637  -17.2452    4.3209 C   0  0  0  0  0  0  0  0  0  0  0  0
    3.3676  -18.2566    3.6531 C   0  0  0  0  0  0  0  0  0  0  0  0
    2.9423  -18.0860    2.3485 C   0  0  0  0  0  0  0  0  0  0  0  0
    2.2733  -19.0433    1.7235 N   0  0  0  0  0  0  0  0  0  0  0  0
    3.2327  -19.2911    4.4903 N   0  0  0  0  0  0  0  0  0  0  0  0
    3.8230  -18.9662    5.6617 C   0  0  0  0  0  0  0  0  0  0  0  0
    4.3488  -17.7012    5.5738 N   0  0  0  0  0  0  0  0  0  0  0  0
  2  1  1  6  0  0  0
  2  3  1  0  0  0  0
  2  5  1  0  0  0  0
  3  4  1  0  0  0  0
  3 17  1  0  0  0  0
  5  6  1  0  0  0  0
  7  6  1  6  0  0  0
  7  8  1  0  0  0  0
  7  9  1  0  0  0  0
 10  9  1  6  0  0  0
 10 11  1  0  0  0  0
 10 12  1  0  0  0  0
 11 16  1  0  0  0  0
 12 13  1  1  0  0  0
 12 14  1  0  0  0  0
 14 15  1  1  0  0  0
 14 16  1  0  0  0  0
 16 27  1  6  0  0  0
 18 19  2  0  0  0  0
 18 23  1  0  0  0  0
 19 20  1  0  0  0  0
 20 21  2  0  0  0  0
 21 22  1  0  0  0  0
 21 27  1  0  0  0  0
 22 23  2  0  0  0  0
 22 25  1  0  0  0  0
 23 24  1  0  0  0  0
 25 26  2  0  0  0  0
 26 27  1  0  0  0  0
M  END
>  <CHROM.1>
136.17923059,-115.57820850,-42.20473441,-66.90053235,-62.55983499,-31.18756269
108.92278857,2.69756494,-16.59032683,5.51454038,-2.62842456,0.14662883,1.00116312

>  <Name>
ligand

>  <RI>
0

>  <Rbt.Current_Directory>
/home/itssahil/PROJECTS/Mol_Feturizer/Test_systems_manuscript/rnas/2ydh

>  <Rbt.Executable>
rbdock ($Id: //depot/dev/client3/rdock/2013.1/src/exe/rbdock.cxx#4 $)

>  <Rbt.Library>
libRbt.so (2013.1, Build901 2013/11/27)

>  <Rbt.Parameter_File>
/export/apps/rDock/src/rDock_2013.1_src/data/scripts/dock_solv.prm

>  <Rbt.Receptor>
prm/blind_docking_20.prm

>  <SCORE>
1.03008

>  <SCORE.INTER>
-2.64283

>  <SCORE.INTER.CONST>
1

>  <SCORE.INTER.POLAR>
0

>  <SCORE.INTER.ROT>
7

>  <SCORE.INTER.SOLV>
16.4345

>  <SCORE.INTER.VDW>
-15.5067

>  <SCORE.INTER.norm>
-0.0978827

>  <SCORE.INTRA>
2.85678

>  <SCORE.INTRA.DIHEDRAL>
2.65401

>  <SCORE.INTRA.DIHEDRAL.0>
9.75037

>  <SCORE.INTRA.POLAR>
0

>  <SCORE.INTRA.POLAR.0>
0

>  <SCORE.INTRA.REPUL>
0

>  <SCORE.INTRA.REPUL.0>
0

>  <SCORE.INTRA.SOLV>
4.1838

>  <SCORE.INTRA.SOLV.lig_0>
-48.4279

>  <SCORE.INTRA.VDW>
-0.562131

>  <SCORE.INTRA.VDW.0>
-4.69037

>  <SCORE.INTRA.norm>
0.105806

>  <SCORE.RESTR>
0.816141

>  <SCORE.RESTR.CAVITY>
0.816141

>  <SCORE.RESTR.norm>
0.0302274

>  <SCORE.SYSTEM>
0

>  <SCORE.SYSTEM.CONST>
0

>  <SCORE.SYSTEM.DIHEDRAL>
0

>  <SCORE.SYSTEM.SOLV>
0

>  <SCORE.SYSTEM.norm>
0

>  <SCORE.heavy>
27

>  <SCORE.norm>
0.0381512

>  <RMSD>
17.482

$$$$
ligand
 OpenBabel02271912153D
libRbt.so/2013.1/901 2013/11/27
 27 29  0  0  0  0  0  0  0  0999 V2000
    6.0871  -14.8870    7.2507 N   0  0  0  0  0  0  0  0  0  0  0  0
    4.8385  -15.6548    7.5479 C   0  0  2  0  0  0  0  0  0  0  0  0
    4.8751  -17.0518    6.8894 C   0  0  0  0  0  0  0  0  0  0  0  0
    5.9456  -17.5815    6.5762 O   0  0  0  0  0  0  0  0  0  0  0  0
    3.6262  -14.8434    7.1034 C   0  0  0  0  0  0  0  0  0  0  0  0
    2.2972  -15.3533    7.6353 C   0  0  0  0  0  0  0  0  0  0  0  0
    0.8606  -14.5546    6.8639 S   0  0  2  0  0  0  0  0  0  0  0  0
    0.8377  -12.9714    7.7520 C   0  0  0  0  0  0  0  0  0  0  0  0
   -0.5980  -15.3791    7.5216 C   0  0  0  0  0  0  0  0  0  0  0  0
   -1.0786  -16.4091    6.5172 C   0  0  1  0  0  0  0  0  0  0  0  0
   -0.5327  -16.2036    5.2234 O   0  0  0  0  0  0  0  0  0  0  0  0
   -0.7032  -17.8087    6.9392 C   0  0  1  0  0  0  0  0  0  0  0  0
   -1.6501  -18.3398    7.8212 O   0  0  0  0  0  0  0  0  0  0  0  0
   -0.7032  -18.5196    5.6202 C   0  0  1  0  0  0  0  0  0  0  0  0
   -2.0116  -18.9808    5.3414 O   0  0  0  0  0  0  0  0  0  0  0  0
   -0.2895  -17.4515    4.6161 C   0  0  2  0  0  0  0  0  0  0  0  0
    3.8406  -17.6982    6.6418 O   0  0  0  0  0  0  0  0  0  0  0  0
    4.2798  -15.0126    3.6002 N   0  0  0  0  0  0  0  0  0  0  0  0
    3.0674  -14.4367    3.9509 C   0  0  0  0  0  0  0  0  0  0  0  0
    1.9426  -15.2221    4.1736 N   0  0  0  0  0  0  0  0  0  0  0  0
    2.0412  -16.5595    4.0647 C   0  0  0  0  0  0  0  0  0  0  0  0
    3.2611  -17.1522    3.7269 C   0  0  0  0  0  0  0  0  0  0  0  0
    4.3829  -16.3820    3.4816 C   0  0  0  0  0  0  0  0  0  0  0  0
    5.5341  -16.9477    3.1511 N   0  0  0  0  0  0  0  0  0  0  0  0
    3.0860  -18.4780    3.7008 N   0  0  0  0  0  0  0  0  0  0  0  0
    1.7978  -18.7402    4.0136 C   0  0  0  0  0  0  0  0  0  0  0  0
    1.1346  -17.5612    4.2476 N   0  0  0  0  0  0  0  0  0  0  0  0
  2  1  1  6  0  0  0
  2  3  1  0  0  0  0
  2  5  1  0  0  0  0
  3  4  1  0  0  0  0
  3 17  1  0  0  0  0
  5  6  1  0  0  0  0
  7  6  1  1  0  0  0
  7  8  1  0  0  0  0
  7  9  1  0  0  0  0
 10  9  1  1  0  0  0
 10 11  1  0  0  0  0
 10 12  1  0  0  0  0
 11 16  1  0  0  0  0
 12 13  1  1  0  0  0
 12 14  1  0  0  0  0
 14 15  1  6  0  0  0
 14 16  1  0  0  0  0
 16 27  1  1  0  0  0
 18 19  2  0  0  0  0
 18 23  1  0  0  0  0
 19 20  1  0  0  0  0
 20 21  2  0  0  0  0
 21 22  1  0  0  0  0
 21 27  1  0  0  0  0
 22 23  2  0  0  0  0
 22 25  1  0  0  0  0
 23 24  1  0  0  0  0
 25 26  2  0  0  0  0
 26 27  1  0  0  0  0
M  END
>  <CHROM.1>
22.18092912,-166.38156839,-169.90518095,-78.24316722,-98.92386465,-16.75520268
-20.75151317,1.98165937,-16.44191312,5.74049206,0.02021320,0.23334694,0.79322114

>  <Name>
ligand

>  <RI>
0

>  <Rbt.Current_Directory>
/home/itssahil/PROJECTS/Mol_Feturizer/Test_systems_manuscript/rnas/2ydh

>  <Rbt.Executable>
rbdock ($Id: //depot/dev/client3/rdock/2013.1/src/exe/rbdock.cxx#4 $)

>  <Rbt.Library>
libRbt.so (2013.1, Build901 2013/11/27)

>  <Rbt.Parameter_File>
/export/apps/rDock/src/rDock_2013.1_src/data/scripts/dock_solv.prm

>  <Rbt.Receptor>
prm/blind_docking_20.prm

>  <SCORE>
1.97446

>  <SCORE.INTER>
-0.0239271

>  <SCORE.INTER.CONST>
1

>  <SCORE.INTER.POLAR>
0

>  <SCORE.INTER.ROT>
7

>  <SCORE.INTER.SOLV>
12.2789

>  <SCORE.INTER.VDW>
-12.3756

>  <SCORE.INTER.norm>
-0.000886189

>  <SCORE.INTRA>
-0.297782

>  <SCORE.INTRA.DIHEDRAL>
1.4315

>  <SCORE.INTRA.DIHEDRAL.0>
9.75037

>  <SCORE.INTRA.POLAR>
0

>  <SCORE.INTRA.POLAR.0>
0

>  <SCORE.INTRA.REPUL>
0

>  <SCORE.INTRA.REPUL.0>
0

>  <SCORE.INTRA.SOLV>
-0.611179

>  <SCORE.INTRA.SOLV.lig_0>
-48.4279

>  <SCORE.INTRA.VDW>
-0.707943

>  <SCORE.INTRA.VDW.0>
-4.69037

>  <SCORE.INTRA.norm>
-0.011029

>  <SCORE.RESTR>
2.29617

>  <SCORE.RESTR.CAVITY>
2.29617

>  <SCORE.RESTR.norm>
0.0850433

>  <SCORE.SYSTEM>
0

>  <SCORE.SYSTEM.CONST>
0

>  <SCORE.SYSTEM.DIHEDRAL>
0

>  <SCORE.SYSTEM.SOLV>
0

>  <SCORE.SYSTEM.norm>
0

>  <SCORE.heavy>
27

>  <SCORE.norm>
0.0731281

>  <RMSD>
17.510

$$$$
ligand
 OpenBabel02271912153D
libRbt.so/2013.1/901 2013/11/27
 27 29  0  0  0  0  0  0  0  0999 V2000
    2.5491  -16.2952    0.7956 N   0  0  0  0  0  0  0  0  0  0  0  0
    3.3763  -16.2088    2.0385 C   0  0  2  0  0  0  0  0  0  0  0  0
    2.9763  -14.9821    2.8882 C   0  0  0  0  0  0  0  0  0  0  0  0
    3.7545  -14.0373    3.0502 O   0  0  0  0  0  0  0  0  0  0  0  0
    4.8544  -16.1889    1.6638 C   0  0  0  0  0  0  0  0  0  0  0  0
    5.8049  -16.1761    2.8493 C   0  0  0  0  0  0  0  0  0  0  0  0
    5.6489  -17.6407    3.9111 S   0  0  2  0  0  0  0  0  0  0  0  0
    5.2097  -18.9028    2.6823 C   0  0  0  0  0  0  0  0  0  0  0  0
    4.1098  -17.4493    4.8245 C   0  0  0  0  0  0  0  0  0  0  0  0
    4.2490  -16.2876    5.7898 C   0  0  1  0  0  0  0  0  0  0  0  0
    3.1651  -15.3755    5.7036 O   0  0  0  0  0  0  0  0  0  0  0  0
    4.3147  -16.7636    7.2205 C   0  0  1  0  0  0  0  0  0  0  0  0
    5.6216  -17.1146    7.5749 O   0  0  0  0  0  0  0  0  0  0  0  0
    3.8418  -15.5456    7.9538 C   0  0  1  0  0  0  0  0  0  0  0  0
    4.9468  -14.6997    8.2101 O   0  0  0  0  0  0  0  0  0  0  0  0
    2.8716  -14.8771    6.9883 C   0  0  2  0  0  0  0  0  0  0  0  0
    1.8674  -14.8922    3.4465 O   0  0  0  0  0  0  0  0  0  0  0  0
   -1.4363  -17.8083    6.1463 N   0  0  0  0  0  0  0  0  0  0  0  0
   -0.1999  -17.9147    5.5260 C   0  0  0  0  0  0  0  0  0  0  0  0
    0.8384  -17.0503    5.8519 N   0  0  0  0  0  0  0  0  0  0  0  0
    0.6422  -16.1118    6.7958 C   0  0  0  0  0  0  0  0  0  0  0  0
   -0.5943  -16.0046    7.4385 C   0  0  0  0  0  0  0  0  0  0  0  0
   -1.6427  -16.8439    7.1092 C   0  0  0  0  0  0  0  0  0  0  0  0
   -2.8161  -16.7313    7.7134 N   0  0  0  0  0  0  0  0  0  0  0  0
   -0.5144  -15.0115    8.3309 N   0  0  0  0  0  0  0  0  0  0  0  0
    0.7316  -14.4916    8.2737 C   0  0  0  0  0  0  0  0  0  0  0  0
    1.4657  -15.1653    7.3294 N   0  0  0  0  0  0  0  0  0  0  0  0
  2  1  1  6  0  0  0
  2  3  1  0  0  0  0
  2  5  1  0  0  0  0
  3  4  1  0  0  0  0
  3 17  1  0  0  0  0
  5  6  1  0  0  0  0
  7  6  1  6  0  0  0
  7  8  1  0  0  0  0
  7  9  1  0  0  0  0
 10  9  1  6  0  0  0
 10 11  1  0  0  0  0
 10 12  1  0  0  0  0
 11 16  1  0  0  0  0
 12 13  1  1  0  0  0
 12 14  1  0  0  0  0
 14 15  1  6  0  0  0
 14 16  1  0  0  0  0
 16 27  1  1  0  0  0
 18 19  2  0  0  0  0
 18 23  1  0  0  0  0
 19 20  1  0  0  0  0
 20 21  2  0  0  0  0
 21 22  1  0  0  0  0
 21 27  1  0  0  0  0
 22 23  2  0  0  0  0
 22 25  1  0  0  0  0
 23 24  1  0  0  0  0
 25 26  2  0  0  0  0
 26 27  1  0  0  0  0
M  END
>  <CHROM.1>
-113.30069922,-176.94140938,61.28029655,32.77225384,-67.54514558,130.37717572
21.06678596,2.67258633,-16.22679943,5.37504901,0.68340350,-0.02366818,-1.72235983

>  <Name>
ligand

>  <RI>
0

>  <Rbt.Current_Directory>
/home/itssahil/PROJECTS/Mol_Feturizer/Test_systems_manuscript/rnas/2ydh

>  <Rbt.Executable>
rbdock ($Id: //depot/dev/client3/rdock/2013.1/src/exe/rbdock.cxx#4 $)

>  <Rbt.Library>
libRbt.so (2013.1, Build901 2013/11/27)

>  <Rbt.Parameter_File>
/export/apps/rDock/src/rDock_2013.1_src/data/scripts/dock_solv.prm

>  <Rbt.Receptor>
prm/blind_docking_20.prm

>  <SCORE>
1.17325

>  <SCORE.INTER>
-3.19857

>  <SCORE.INTER.CONST>
1

>  <SCORE.INTER.POLAR>
0

>  <SCORE.INTER.ROT>
7

>  <SCORE.INTER.SOLV>
14.3451

>  <SCORE.INTER.VDW>
-15.1808

>  <SCORE.INTER.norm>
-0.118465

>  <SCORE.INTRA>
2.47053

>  <SCORE.INTRA.DIHEDRAL>
-0.627857

>  <SCORE.INTRA.DIHEDRAL.0>
9.75037

>  <SCORE.INTRA.POLAR>
0

>  <SCORE.INTRA.POLAR.0>
0

>  <SCORE.INTRA.REPUL>
0

>  <SCORE.INTRA.REPUL.0>
0

>  <SCORE.INTRA.SOLV>
-0.402905

>  <SCORE.INTRA.SOLV.lig_0>
-48.4279

>  <SCORE.INTRA.VDW>
2.98592

>  <SCORE.INTRA.VDW.0>
-4.69037

>  <SCORE.INTRA.norm>
0.0915013

>  <SCORE.RESTR>
1.90128

>  <SCORE.RESTR.CAVITY>
1.90128

>  <SCORE.RESTR.norm>
0.0704178

>  <SCORE.SYSTEM>
0

>  <SCORE.SYSTEM.CONST>
0

>  <SCORE.SYSTEM.DIHEDRAL>
0

>  <SCORE.SYSTEM.SOLV>
0

>  <SCORE.SYSTEM.norm>
0

>  <SCORE.heavy>
27

>  <SCORE.norm>
0.0434536

>  <RMSD>
17.527

$$$$
ligand
 OpenBabel02271912153D
libRbt.so/2013.1/901 2013/11/27
 27 29  0  0  0  0  0  0  0  0999 V2000
    0.5275  -18.5170    4.6932 N   0  0  0  0  0  0  0  0  0  0  0  0
   -0.2771  -17.5695    5.5248 C   0  0  2  0  0  0  0  0  0  0  0  0
   -1.7788  -17.9299    5.4822 C   0  0  0  0  0  0  0  0  0  0  0  0
   -2.3457  -18.1755    4.4131 O   0  0  0  0  0  0  0  0  0  0  0  0
   -0.0174  -16.1405    5.0601 C   0  0  0  0  0  0  0  0  0  0  0  0
    1.3200  -15.5682    5.4995 C   0  0  0  0  0  0  0  0  0  0  0  0
    1.4545  -15.3555    7.2977 S   0  0  2  0  0  0  0  0  0  0  0  0
    0.5060  -13.8248    7.5280 C   0  0  0  0  0  0  0  0  0  0  0  0
    3.1386  -14.8105    7.6242 C   0  0  0  0  0  0  0  0  0  0  0  0
    4.0898  -15.9638    7.3682 C   0  0  1  0  0  0  0  0  0  0  0  0
    3.4626  -17.0490    6.7024 O   0  0  0  0  0  0  0  0  0  0  0  0
    5.2587  -15.5363    6.5144 C   0  0  1  0  0  0  0  0  0  0  0  0
    6.2735  -14.9735    7.2954 O   0  0  0  0  0  0  0  0  0  0  0  0
    5.6729  -16.8446    5.9128 C   0  0  1  0  0  0  0  0  0  0  0  0
    6.5789  -17.4912    6.7865 O   0  0  0  0  0  0  0  0  0  0  0  0
    4.3769  -17.6379    5.8066 C   0  0  2  0  0  0  0  0  0  0  0  0
   -2.4798  -17.9836    6.5093 O   0  0  0  0  0  0  0  0  0  0  0  0
    3.3910  -14.8802    1.4155 N   0  0  0  0  0  0  0  0  0  0  0  0
    4.0042  -14.4378    2.5787 C   0  0  0  0  0  0  0  0  0  0  0  0
    4.1792  -15.2909    3.6618 N   0  0  0  0  0  0  0  0  0  0  0  0
    3.7632  -16.5670    3.5687 C   0  0  0  0  0  0  0  0  0  0  0  0
    3.1578  -17.0285    2.3965 C   0  0  0  0  0  0  0  0  0  0  0  0
    2.9581  -16.1852    1.3190 C   0  0  0  0  0  0  0  0  0  0  0  0
    2.3740  -16.6243    0.2143 N   0  0  0  0  0  0  0  0  0  0  0  0
    2.8574  -18.3210    2.5647 N   0  0  0  0  0  0  0  0  0  0  0  0
    3.2559  -18.6896    3.8022 C   0  0  0  0  0  0  0  0  0  0  0  0
    3.8251  -17.6148    4.4388 N   0  0  0  0  0  0  0  0  0  0  0  0
  2  1  1  6  0  0  0
  2  3  1  0  0  0  0
  2  5  1  0  0  0  0
  3  4  1  0  0  0  0
  3 17  1  0  0  0  0
  5  6  1  0  0  0  0
  7  6  1  6  0  0  0
  7  8  1  0  0  0  0
  7  9  1  0  0  0  0
 10  9  1  6  0  0  0
 10 11  1  0  0  0  0
 10 12  1  0  0  0  0
 11 16  1  0  0  0  0
 12 13  1  1  0  0  0
 12 14  1  0  0  0  0
 14 15  1  1  0  0  0
 14 16  1  0  0  0  0
 16 27  1  6  0  0  0
 18 19  2  0  0  0  0
 18 23  1  0  0  0  0
 19 20  1  0  0  0  0
 20 21  2  0  0  0  0
 21 22  1  0  0  0  0
 21 27  1  0  0  0  0
 22 23  2  0  0  0  0
 22 25  1  0  0  0  0
 23 24  1  0  0  0  0
 25 26  2  0  0  0  0
 26 27  1  0  0  0  0
M  END
>  <CHROM.1>
-46.85445942,-75.69671476,-65.73331486,-78.55253237,-70.49976122,11.67414644
77.76922096,2.49521954,-16.49822703,5.07889577,-3.06230348,0.19385348,1.37702625

>  <Name>
ligand

>  <RI>
0

>  <Rbt.Current_Directory>
/home/itssahil/PROJECTS/Mol_Feturizer/Test_systems_manuscript/rnas/2ydh

>  <Rbt.Executable>
rbdock ($Id: //depot/dev/client3/rdock/2013.1/src/exe/rbdock.cxx#4 $)

>  <Rbt.Library>
libRbt.so (2013.1, Build901 2013/11/27)

>  <Rbt.Parameter_File>
/export/apps/rDock/src/rDock_2013.1_src/data/scripts/dock_solv.prm

>  <Rbt.Receptor>
prm/blind_docking_20.prm

>  <SCORE>
-1.91302

>  <SCORE.INTER>
-4.21675

>  <SCORE.INTER.CONST>
1

>  <SCORE.INTER.POLAR>
0

>  <SCORE.INTER.ROT>
7

>  <SCORE.INTER.SOLV>
20.9864

>  <SCORE.INTER.VDW>
-18.0733

>  <SCORE.INTER.norm>
-0.156176

>  <SCORE.INTRA>
1.26771

>  <SCORE.INTRA.DIHEDRAL>
-0.442945

>  <SCORE.INTRA.DIHEDRAL.0>
9.75037

>  <SCORE.INTRA.POLAR>
0

>  <SCORE.INTRA.POLAR.0>
0

>  <SCORE.INTRA.REPUL>
0

>  <SCORE.INTRA.REPUL.0>
0

>  <SCORE.INTRA.SOLV>
1.86583

>  <SCORE.INTRA.SOLV.lig_0>
-48.4279

>  <SCORE.INTRA.VDW>
0.55627

>  <SCORE.INTRA.VDW.0>
-4.69037

>  <SCORE.INTRA.norm>
0.0469524

>  <SCORE.RESTR>
1.03601

>  <SCORE.RESTR.CAVITY>
1.03601

>  <SCORE.RESTR.norm>
0.0383709

>  <SCORE.SYSTEM>
0

>  <SCORE.SYSTEM.CONST>
0

>  <SCORE.SYSTEM.DIHEDRAL>
0

>  <SCORE.SYSTEM.SOLV>
0

>  <SCORE.SYSTEM.norm>
0

>  <SCORE.heavy>
27

>  <SCORE.norm>
-0.0708526

>  <RMSD>
17.532

$$$$
ligand
 OpenBabel02271912153D
libRbt.so/2013.1/901 2013/11/27
 27 29  0  0  0  0  0  0  0  0999 V2000
    3.6035  -18.7281    4.0498 N   0  0  0  0  0  0  0  0  0  0  0  0
    3.4650  -17.5601    3.1260 C   0  0  2  0  0  0  0  0  0  0  0  0
    2.6430  -17.9367    1.8734 C   0  0  0  0  0  0  0  0  0  0  0  0
    2.4101  -17.1061    0.9899 O   0  0  0  0  0  0  0  0  0  0  0  0
    4.8493  -17.0317    2.7655 C   0  0  0  0  0  0  0  0  0  0  0  0
    5.4651  -16.1145    3.8088 C   0  0  0  0  0  0  0  0  0  0  0  0
    4.3929  -14.7214    4.2633 S   0  0  2  0  0  0  0  0  0  0  0  0
    4.4630  -13.7319    2.7428 C   0  0  0  0  0  0  0  0  0  0  0  0
    5.3313  -13.7086    5.4180 C   0  0  0  0  0  0  0  0  0  0  0  0
    4.8398  -13.9809    6.8269 C   0  0  1  0  0  0  0  0  0  0  0  0
    3.4244  -13.9485    6.9252 O   0  0  0  0  0  0  0  0  0  0  0  0
    5.2868  -15.3373    7.3150 C   0  0  1  0  0  0  0  0  0  0  0  0
    6.5744  -15.2777    7.8583 O   0  0  0  0  0  0  0  0  0  0  0  0
    4.2502  -15.6270    8.3574 C   0  0  1  0  0  0  0  0  0  0  0  0
    4.6653  -15.0731    9.5915 O   0  0  0  0  0  0  0  0  0  0  0  0
    2.9987  -14.9218    7.8508 C   0  0  2  0  0  0  0  0  0  0  0  0
    2.1782  -19.0784    1.7007 O   0  0  0  0  0  0  0  0  0  0  0  0
   -1.9832  -16.5224    7.1595 N   0  0  0  0  0  0  0  0  0  0  0  0
   -1.5270  -15.4773    7.9496 C   0  0  0  0  0  0  0  0  0  0  0  0
   -0.1703  -15.1890    8.0373 N   0  0  0  0  0  0  0  0  0  0  0  0
    0.7064  -15.9245    7.3297 C   0  0  0  0  0  0  0  0  0  0  0  0
    0.2574  -16.9703    6.5183 C   0  0  0  0  0  0  0  0  0  0  0  0
   -1.0874  -17.2820    6.4381 C   0  0  0  0  0  0  0  0  0  0  0  0
   -1.5069  -18.2810    5.6762 N   0  0  0  0  0  0  0  0  0  0  0  0
    1.3212  -17.5210    5.9231 N   0  0  0  0  0  0  0  0  0  0  0  0
    2.4245  -16.8553    6.3302 C   0  0  0  0  0  0  0  0  0  0  0  0
    2.0619  -15.8574    7.2002 N   0  0  0  0  0  0  0  0  0  0  0  0
  2  1  1  1  0  0  0
  2  3  1  0  0  0  0
  2  5  1  0  0  0  0
  3  4  1  0  0  0  0
  3 17  1  0  0  0  0
  5  6  1  0  0  0  0
  7  6  1  6  0  0  0
  7  8  1  0  0  0  0
  7  9  1  0  0  0  0
 10  9  1  6  0  0  0
 10 11  1  0  0  0  0
 10 12  1  0  0  0  0
 11 16  1  0  0  0  0
 12 13  1  1  0  0  0
 12 14  1  0  0  0  0
 14 15  1  1  0  0  0
 14 16  1  0  0  0  0
 16 27  1  6  0  0  0
 18 19  2  0  0  0  0
 18 23  1  0  0  0  0
 19 20  1  0  0  0  0
 20 21  2  0  0  0  0
 21 22  1  0  0  0  0
 21 27  1  0  0  0  0
 22 23  2  0  0  0  0
 22 25  1  0  0  0  0
 23 24  1  0  0  0  0
 25 26  2  0  0  0  0
 26 27  1  0  0  0  0
M  END
>  <CHROM.1>
179.65125122,-81.41068336,-53.81372006,-70.31836681,-102.31909104,-47.69740912
-104.57935706,2.80341339,-16.05614099,5.59863920,0.53798991,-0.36434773,-1.97173650

>  <Name>
ligand

>  <RI>
0

>  <Rbt.Current_Directory>
/home/itssahil/PROJECTS/Mol_Feturizer/Test_systems_manuscript/rnas/2ydh

>  <Rbt.Executable>
rbdock ($Id: //depot/dev/client3/rdock/2013.1/src/exe/rbdock.cxx#4 $)

>  <Rbt.Library>
libRbt.so (2013.1, Build901 2013/11/27)

>  <Rbt.Parameter_File>
/export/apps/rDock/src/rDock_2013.1_src/data/scripts/dock_solv.prm

>  <Rbt.Receptor>
prm/blind_docking_20.prm

>  <SCORE>
-2.22217

>  <SCORE.INTER>
-3.78546

>  <SCORE.INTER.CONST>
1

>  <SCORE.INTER.POLAR>
0

>  <SCORE.INTER.ROT>
7

>  <SCORE.INTER.SOLV>
10.6976

>  <SCORE.INTER.VDW>
-14.3562

>  <SCORE.INTER.norm>
-0.140202

>  <SCORE.INTRA>
0.30039

>  <SCORE.INTRA.DIHEDRAL>
-1.56348

>  <SCORE.INTRA.DIHEDRAL.0>
9.75037

>  <SCORE.INTRA.POLAR>
0

>  <SCORE.INTRA.POLAR.0>
0

>  <SCORE.INTRA.REPUL>
0

>  <SCORE.INTRA.REPUL.0>
0

>  <SCORE.INTRA.SOLV>
0.628973

>  <SCORE.INTRA.SOLV.lig_0>
-48.4279

>  <SCORE.INTRA.VDW>
0.767645

>  <SCORE.INTRA.VDW.0>
-4.69037

>  <SCORE.INTRA.norm>
0.0111256

>  <SCORE.RESTR>
1.26291

>  <SCORE.RESTR.CAVITY>
1.26291

>  <SCORE.RESTR.norm>
0.0467743

>  <SCORE.SYSTEM>
0

>  <SCORE.SYSTEM.CONST>
0

>  <SCORE.SYSTEM.DIHEDRAL>
0

>  <SCORE.SYSTEM.SOLV>
0

>  <SCORE.SYSTEM.norm>
0

>  <SCORE.heavy>
27

>  <SCORE.norm>
-0.0823024

>  <RMSD>
17.569

$$$$
ligand
 OpenBabel02271912153D
libRbt.so/2013.1/901 2013/11/27
 27 29  0  0  0  0  0  0  0  0999 V2000
    8.5133   -3.8673   22.4910 N   0  0  0  0  0  0  0  0  0  0  0  0
    7.1843   -3.1869   22.5764 C   0  0  2  0  0  0  0  0  0  0  0  0
    6.0929   -4.1596   23.0758 C   0  0  0  0  0  0  0  0  0  0  0  0
    6.3761   -5.1183   23.8006 O   0  0  0  0  0  0  0  0  0  0  0  0
    6.8360   -2.5821   21.2204 C   0  0  0  0  0  0  0  0  0  0  0  0
    7.6822   -1.3819   20.8297 C   0  0  0  0  0  0  0  0  0  0  0  0
    6.9523   -0.3929   19.4932 S   0  0  2  0  0  0  0  0  0  0  0  0
    7.5983   -1.2641   18.0375 C   0  0  0  0  0  0  0  0  0  0  0  0
    7.8672    1.1564   19.4446 C   0  0  0  0  0  0  0  0  0  0  0  0
    6.9048    2.3063   19.6729 C   0  0  1  0  0  0  0  0  0  0  0  0
    6.1035    2.1237   20.8300 O   0  0  0  0  0  0  0  0  0  0  0  0
    7.6380    3.6144   19.8438 C   0  0  1  0  0  0  0  0  0  0  0  0
    7.9211    4.1985   18.6048 O   0  0  0  0  0  0  0  0  0  0  0  0
    6.6357    4.4094   20.6238 C   0  0  1  0  0  0  0  0  0  0  0  0
    5.7509    5.0508   19.7249 O   0  0  0  0  0  0  0  0  0  0  0  0
    5.8923    3.3698   21.4526 C   0  0  2  0  0  0  0  0  0  0  0  0
    4.8934   -4.0275   22.7705 O   0  0  0  0  0  0  0  0  0  0  0  0
    8.8117    0.9221   25.1056 N   0  0  0  0  0  0  0  0  0  0  0  0
    8.6411    0.5681   23.7751 C   0  0  0  0  0  0  0  0  0  0  0  0
    7.8205    1.3146   22.9379 N   0  0  0  0  0  0  0  0  0  0  0  0
    7.2006    2.4050   23.4247 C   0  0  0  0  0  0  0  0  0  0  0  0
    7.3768    2.7804   24.7594 C   0  0  0  0  0  0  0  0  0  0  0  0
    8.1733    2.0350   25.6092 C   0  0  0  0  0  0  0  0  0  0  0  0
    8.3285    2.3887   26.8762 N   0  0  0  0  0  0  0  0  0  0  0  0
    6.6681    3.8940   24.9752 N   0  0  0  0  0  0  0  0  0  0  0  0
    6.0539    4.2341   23.8206 C   0  0  0  0  0  0  0  0  0  0  0  0
    6.3766    3.3237   22.8452 N   0  0  0  0  0  0  0  0  0  0  0  0
  2  1  1  6  0  0  0
  2  3  1  0  0  0  0
  2  5  1  0  0  0  0
  3  4  1  0  0  0  0
  3 17  1  0  0  0  0
  5  6  1  0  0  0  0
  7  6  1  1  0  0  0
  7  8  1  0  0  0  0
  7  9  1  0  0  0  0
 10  9  1  1  0  0  0
 10 11  1  0  0  0  0
 10 12  1  0  0  0  0
 11 16  1  0  0  0  0
 12 13  1  6  0  0  0
 12 14  1  0  0  0  0
 14 15  1  6  0  0  0
 14 16  1  0  0  0  0
 16 27  1  1  0  0  0
 18 19  2  0  0  0  0
 18 23  1  0  0  0  0
 19 20  1  0  0  0  0
 20 21  2  0  0  0  0
 21 22  1  0  0  0  0
 21 27  1  0  0  0  0
 22 23  2  0  0  0  0
 22 25  1  0  0  0  0
 23 24  1  0  0  0  0
 25 26  2  0  0  0  0
 26 27  1  0  0  0  0
M  END
>  <CHROM.1>
27.38089006,-70.38594529,-162.75772758,-86.94083050,-120.83120401,51.40071479
15.61582381,7.09143679,0.78816154,21.96845518,-1.68532701,-1.48698216,-0.21942777

>  <Name>
ligand

>  <RI>
0

>  <Rbt.Current_Directory>
/home/itssahil/PROJECTS/Mol_Feturizer/Test_systems_manuscript/rnas/2ydh

>  <Rbt.Executable>
rbdock ($Id: //depot/dev/client3/rdock/2013.1/src/exe/rbdock.cxx#4 $)

>  <Rbt.Library>
libRbt.so (2013.1, Build901 2013/11/27)

>  <Rbt.Parameter_File>
/export/apps/rDock/src/rDock_2013.1_src/data/scripts/dock_solv.prm

>  <Rbt.Receptor>
prm/blind_docking_100.prm

>  <SCORE>
-10.7634

>  <SCORE.INTER>
-11.9471

>  <SCORE.INTER.CONST>
1

>  <SCORE.INTER.POLAR>
0

>  <SCORE.INTER.ROT>
7

>  <SCORE.INTER.SOLV>
10.3217

>  <SCORE.INTER.VDW>
-19.672

>  <SCORE.INTER.norm>
-0.442487

>  <SCORE.INTRA>
1.18378

>  <SCORE.INTRA.DIHEDRAL>
0.474251

>  <SCORE.INTRA.DIHEDRAL.0>
9.75037

>  <SCORE.INTRA.POLAR>
0

>  <SCORE.INTRA.POLAR.0>
0

>  <SCORE.INTRA.REPUL>
0

>  <SCORE.INTRA.REPUL.0>
0

>  <SCORE.INTRA.SOLV>
-0.875658

>  <SCORE.INTRA.SOLV.lig_0>
-48.4279

>  <SCORE.INTRA.VDW>
1.38448

>  <SCORE.INTRA.VDW.0>
-4.69037

>  <SCORE.INTRA.norm>
0.0438437

>  <SCORE.RESTR>
0

>  <SCORE.RESTR.CAVITY>
0

>  <SCORE.RESTR.norm>
0

>  <SCORE.SYSTEM>
0

>  <SCORE.SYSTEM.CONST>
0

>  <SCORE.SYSTEM.DIHEDRAL>
0

>  <SCORE.SYSTEM.SOLV>
0

>  <SCORE.SYSTEM.norm>
0

>  <SCORE.heavy>
27

>  <SCORE.norm>
-0.398643

>  <RMSD>
17.575

$$$$
ligand
 OpenBabel02271912153D
libRbt.so/2013.1/901 2013/11/27
 27 29  0  0  0  0  0  0  0  0999 V2000
    0.9587  -14.7833    2.2695 N   0  0  0  0  0  0  0  0  0  0  0  0
    2.4217  -14.9546    2.0103 C   0  0  2  0  0  0  0  0  0  0  0  0
    2.6973  -16.2498    1.2145 C   0  0  0  0  0  0  0  0  0  0  0  0
    2.8660  -16.2233   -0.0084 O   0  0  0  0  0  0  0  0  0  0  0  0
    3.1783  -14.9235    3.3340 C   0  0  0  0  0  0  0  0  0  0  0  0
    4.6112  -14.4286    3.2293 C   0  0  0  0  0  0  0  0  0  0  0  0
    5.8369  -15.6599    3.7573 S   0  0  2  0  0  0  0  0  0  0  0  0
    5.7160  -16.8594    2.4001 C   0  0  0  0  0  0  0  0  0  0  0  0
    5.0979  -16.5627    5.1279 C   0  0  0  0  0  0  0  0  0  0  0  0
    4.7342  -15.5824    6.2267 C   0  0  1  0  0  0  0  0  0  0  0  0
    3.4948  -14.9332    5.9886 O   0  0  0  0  0  0  0  0  0  0  0  0
    4.6239  -16.2700    7.5657 C   0  0  1  0  0  0  0  0  0  0  0  0
    5.8754  -16.3771    8.1814 O   0  0  0  0  0  0  0  0  0  0  0  0
    3.7152  -15.3319    8.3000 C   0  0  1  0  0  0  0  0  0  0  0  0
    4.4903  -14.3183    8.9117 O   0  0  0  0  0  0  0  0  0  0  0  0
    2.8262  -14.7404    7.2136 C   0  0  2  0  0  0  0  0  0  0  0  0
    2.7560  -17.3668    1.7606 O   0  0  0  0  0  0  0  0  0  0  0  0
   -0.2139  -18.6054    5.2956 N   0  0  0  0  0  0  0  0  0  0  0  0
    1.1270  -18.3668    5.0314 C   0  0  0  0  0  0  0  0  0  0  0  0
    1.7872  -17.2891    5.6096 N   0  0  0  0  0  0  0  0  0  0  0  0
    1.1170  -16.4806    6.4506 C   0  0  0  0  0  0  0  0  0  0  0  0
   -0.2302  -16.7197    6.7364 C   0  0  0  0  0  0  0  0  0  0  0  0
   -0.9052  -17.7755    6.1518 C   0  0  0  0  0  0  0  0  0  0  0  0
   -2.1848  -17.9915    6.4173 N   0  0  0  0  0  0  0  0  0  0  0  0
   -0.6438  -15.7867    7.6010 N   0  0  0  0  0  0  0  0  0  0  0  0
    0.3982  -14.9700    7.8715 C   0  0  0  0  0  0  0  0  0  0  0  0
    1.5016  -15.3881    7.1699 N   0  0  0  0  0  0  0  0  0  0  0  0
  2  1  1  1  0  0  0
  2  3  1  0  0  0  0
  2  5  1  0  0  0  0
  3  4  1  0  0  0  0
  3 17  1  0  0  0  0
  5  6  1  0  0  0  0
  7  6  1  6  0  0  0
  7  8  1  0  0  0  0
  7  9  1  0  0  0  0
 10  9  1  6  0  0  0
 10 11  1  0  0  0  0
 10 12  1  0  0  0  0
 11 16  1  0  0  0  0
 12 13  1  1  0  0  0
 12 14  1  0  0  0  0
 14 15  1  6  0  0  0
 14 16  1  0  0  0  0
 16 27  1  6  0  0  0
 18 19  2  0  0  0  0
 18 23  1  0  0  0  0
 19 20  1  0  0  0  0
 20 21  2  0  0  0  0
 21 22  1  0  0  0  0
 21 27  1  0  0  0  0
 22 23  2  0  0  0  0
 22 25  1  0  0  0  0
 23 24  1  0  0  0  0
 25 26  2  0  0  0  0
 26 27  1  0  0  0  0
M  END
>  <CHROM.1>
98.41669418,-152.20158980,-119.33068339,70.58772762,-57.86250594,81.85770236
28.84452220,2.74465810,-16.07244293,5.14563760,0.94339248,-0.27243156,-1.66291059

>  <Name>
ligand

>  <RI>
0

>  <Rbt.Current_Directory>
/home/itssahil/PROJECTS/Mol_Feturizer/Test_systems_manuscript/rnas/2ydh

>  <Rbt.Executable>
rbdock ($Id: //depot/dev/client3/rdock/2013.1/src/exe/rbdock.cxx#4 $)

>  <Rbt.Library>
libRbt.so (2013.1, Build901 2013/11/27)

>  <Rbt.Parameter_File>
/export/apps/rDock/src/rDock_2013.1_src/data/scripts/dock_solv.prm

>  <Rbt.Receptor>
prm/blind_docking_20.prm

>  <SCORE>
-2.67447

>  <SCORE.INTER>
-6.92724

>  <SCORE.INTER.CONST>
1

>  <SCORE.INTER.POLAR>
0

>  <SCORE.INTER.ROT>
7

>  <SCORE.INTER.SOLV>
12.2826

>  <SCORE.INTER.VDW>
-16.979

>  <SCORE.INTER.norm>
-0.256564

>  <SCORE.INTRA>
3.3945

>  <SCORE.INTRA.DIHEDRAL>
4.00825

>  <SCORE.INTRA.DIHEDRAL.0>
9.75037

>  <SCORE.INTRA.POLAR>
0

>  <SCORE.INTRA.POLAR.0>
0

>  <SCORE.INTRA.REPUL>
0

>  <SCORE.INTRA.REPUL.0>
0

>  <SCORE.INTRA.SOLV>
-1.23121

>  <SCORE.INTRA.SOLV.lig_0>
-48.4279

>  <SCORE.INTRA.VDW>
2.00598

>  <SCORE.INTRA.VDW.0>
-4.69037

>  <SCORE.INTRA.norm>
0.125722

>  <SCORE.RESTR>
0.858266

>  <SCORE.RESTR.CAVITY>
0.858266

>  <SCORE.RESTR.norm>
0.0317876

>  <SCORE.SYSTEM>
0

>  <SCORE.SYSTEM.CONST>
0

>  <SCORE.SYSTEM.DIHEDRAL>
0

>  <SCORE.SYSTEM.SOLV>
0

>  <SCORE.SYSTEM.norm>
0

>  <SCORE.heavy>
27

>  <SCORE.norm>
-0.0990546

>  <RMSD>
17.579

$$$$
ligand
 OpenBabel02271912153D
libRbt.so/2013.1/901 2013/11/27
 27 29  0  0  0  0  0  0  0  0999 V2000
   12.6345    5.0399   26.3562 N   0  0  0  0  0  0  0  0  0  0  0  0
   11.1973    4.6444   26.4771 C   0  0  2  0  0  0  0  0  0  0  0  0
   11.0343    3.4176   27.4018 C   0  0  0  0  0  0  0  0  0  0  0  0
   11.9485    2.5998   27.5437 O   0  0  0  0  0  0  0  0  0  0  0  0
   10.6213    4.3949   25.0873 C   0  0  0  0  0  0  0  0  0  0  0  0
   11.3498    3.3294   24.2852 C   0  0  0  0  0  0  0  0  0  0  0  0
   10.4398    2.7949   22.8077 S   0  0  2  0  0  0  0  0  0  0  0  0
   11.7087    1.8023   21.9708 C   0  0  0  0  0  0  0  0  0  0  0  0
   10.3157    4.2344   21.7342 C   0  0  0  0  0  0  0  0  0  0  0  0
    9.2250    3.9933   20.7081 C   0  0  1  0  0  0  0  0  0  0  0  0
    9.4622    2.8345   19.9238 O   0  0  0  0  0  0  0  0  0  0  0  0
    7.8782    3.8153   21.3655 C   0  0  1  0  0  0  0  0  0  0  0  0
    7.2694    5.0509   21.6090 O   0  0  0  0  0  0  0  0  0  0  0  0
    7.1481    3.0252   20.3225 C   0  0  1  0  0  0  0  0  0  0  0  0
    6.5521    3.9156   19.3983 O   0  0  0  0  0  0  0  0  0  0  0  0
    8.2350    2.2015   19.6439 C   0  0  2  0  0  0  0  0  0  0  0  0
    9.9857    3.1958   28.0347 O   0  0  0  0  0  0  0  0  0  0  0  0
    8.0849   -1.1022   23.7576 N   0  0  0  0  0  0  0  0  0  0  0  0
    8.0110    0.2830   23.7754 C   0  0  0  0  0  0  0  0  0  0  0  0
    8.0797    1.0163   22.5968 N   0  0  0  0  0  0  0  0  0  0  0  0
    8.2008    0.3680   21.4241 C   0  0  0  0  0  0  0  0  0  0  0  0
    8.2610   -1.0281   21.3921 C   0  0  0  0  0  0  0  0  0  0  0  0
    8.2152   -1.7693   22.5585 C   0  0  0  0  0  0  0  0  0  0  0  0
    8.2837   -3.0917   22.5238 N   0  0  0  0  0  0  0  0  0  0  0  0
    8.3652   -1.4106   20.1147 N   0  0  0  0  0  0  0  0  0  0  0  0
    8.3697   -0.3026   19.3410 C   0  0  0  0  0  0  0  0  0  0  0  0
    8.2635    0.8112   20.1363 N   0  0  0  0  0  0  0  0  0  0  0  0
  2  1  1  6  0  0  0
  2  3  1  0  0  0  0
  2  5  1  0  0  0  0
  3  4  1  0  0  0  0
  3 17  1  0  0  0  0
  5  6  1  0  0  0  0
  7  6  1  1  0  0  0
  7  8  1  0  0  0  0
  7  9  1  0  0  0  0
 10  9  1  1  0  0  0
 10 11  1  0  0  0  0
 10 12  1  0  0  0  0
 11 16  1  0  0  0  0
 12 13  1  6  0  0  0
 12 14  1  0  0  0  0
 14 15  1  6  0  0  0
 14 16  1  0  0  0  0
 16 27  1  1  0  0  0
 18 19  2  0  0  0  0
 18 23  1  0  0  0  0
 19 20  1  0  0  0  0
 20 21  2  0  0  0  0
 21 22  1  0  0  0  0
 21 27  1  0  0  0  0
 22 23  2  0  0  0  0
 22 25  1  0  0  0  0
 23 24  1  0  0  0  0
 25 26  2  0  0  0  0
 26 27  1  0  0  0  0
M  END
>  <CHROM.1>
-26.82795647,57.91572441,167.21338394,169.83303319,-162.61844510,-58.21506039
73.22883524,9.30850252,2.11457648,22.71088318,0.10920545,-1.10995561,-0.37089560

>  <Name>
ligand

>  <RI>
0

>  <Rbt.Current_Directory>
/home/itssahil/PROJECTS/Mol_Feturizer/Test_systems_manuscript/rnas/2ydh

>  <Rbt.Executable>
rbdock ($Id: //depot/dev/client3/rdock/2013.1/src/exe/rbdock.cxx#4 $)

>  <Rbt.Library>
libRbt.so (2013.1, Build901 2013/11/27)

>  <Rbt.Parameter_File>
/export/apps/rDock/src/rDock_2013.1_src/data/scripts/dock_solv.prm

>  <Rbt.Receptor>
prm/blind_docking_40.prm

>  <SCORE>
-8.7595

>  <SCORE.INTER>
-6.68047

>  <SCORE.INTER.CONST>
1

>  <SCORE.INTER.POLAR>
0

>  <SCORE.INTER.ROT>
7

>  <SCORE.INTER.SOLV>
9.41601

>  <SCORE.INTER.VDW>
-15.859

>  <SCORE.INTER.norm>
-0.247425

>  <SCORE.INTRA>
-2.07903

>  <SCORE.INTRA.DIHEDRAL>
-4.4738

>  <SCORE.INTRA.DIHEDRAL.0>
9.75037

>  <SCORE.INTRA.POLAR>
0

>  <SCORE.INTRA.POLAR.0>
0

>  <SCORE.INTRA.REPUL>
0

>  <SCORE.INTRA.REPUL.0>
0

>  <SCORE.INTRA.SOLV>
-0.474342

>  <SCORE.INTRA.SOLV.lig_0>
-48.4279

>  <SCORE.INTRA.VDW>
0.395043

>  <SCORE.INTRA.VDW.0>
-4.69037

>  <SCORE.INTRA.norm>
-0.0770011

>  <SCORE.RESTR>
0

>  <SCORE.RESTR.CAVITY>
0

>  <SCORE.RESTR.norm>
0

>  <SCORE.SYSTEM>
0

>  <SCORE.SYSTEM.CONST>
0

>  <SCORE.SYSTEM.DIHEDRAL>
0

>  <SCORE.SYSTEM.SOLV>
0

>  <SCORE.SYSTEM.norm>
0

>  <SCORE.heavy>
27

>  <SCORE.norm>
-0.324426

>  <RMSD>
17.610

$$$$
ligand
 OpenBabel02271912153D
libRbt.so/2013.1/901 2013/11/27
 27 29  0  0  0  0  0  0  0  0999 V2000
   -0.4867  -19.0380    6.3006 N   0  0  0  0  0  0  0  0  0  0  0  0
   -1.6527  -18.1079    6.1909 C   0  0  2  0  0  0  0  0  0  0  0  0
   -1.8876  -17.6815    4.7247 C   0  0  0  0  0  0  0  0  0  0  0  0
   -2.5692  -18.3720    3.9611 O   0  0  0  0  0  0  0  0  0  0  0  0
   -1.4334  -16.9094    7.1081 C   0  0  0  0  0  0  0  0  0  0  0  0
   -0.1347  -16.1589    6.8647 C   0  0  0  0  0  0  0  0  0  0  0  0
    0.1439  -14.8046    8.0416 S   0  0  2  0  0  0  0  0  0  0  0  0
   -1.1484  -13.6385    7.5258 C   0  0  0  0  0  0  0  0  0  0  0  0
    1.6452  -13.9656    7.5107 C   0  0  0  0  0  0  0  0  0  0  0  0
    2.8369  -14.8618    7.7885 C   0  0  1  0  0  0  0  0  0  0  0  0
    2.7890  -16.0746    7.0531 O   0  0  0  0  0  0  0  0  0  0  0  0
    4.1355  -14.1795    7.4334 C   0  0  1  0  0  0  0  0  0  0  0  0
    4.5888  -13.3796    8.4876 O   0  0  0  0  0  0  0  0  0  0  0  0
    5.0289  -15.3593    7.1991 C   0  0  1  0  0  0  0  0  0  0  0  0
    5.6032  -15.7583    8.4292 O   0  0  0  0  0  0  0  0  0  0  0  0
    4.0949  -16.4407    6.6714 C   0  0  2  0  0  0  0  0  0  0  0  0
   -1.4026  -16.6385    4.2490 O   0  0  0  0  0  0  0  0  0  0  0  0
    2.0222  -15.2905    1.9555 N   0  0  0  0  0  0  0  0  0  0  0  0
    1.5603  -14.9039    3.2052 C   0  0  0  0  0  0  0  0  0  0  0  0
    2.2161  -15.3044    4.3633 N   0  0  0  0  0  0  0  0  0  0  0  0
    3.3239  -16.0614    4.2644 C   0  0  0  0  0  0  0  0  0  0  0  0
    3.8076  -16.4445    3.0102 C   0  0  0  0  0  0  0  0  0  0  0  0
    3.1532  -16.0712    1.8507 C   0  0  0  0  0  0  0  0  0  0  0  0
    3.6093  -16.4459    0.6649 N   0  0  0  0  0  0  0  0  0  0  0  0
    4.9148  -17.1715    3.1959 N   0  0  0  0  0  0  0  0  0  0  0  0
    5.1463  -17.2567    4.5245 C   0  0  0  0  0  0  0  0  0  0  0  0
    4.1714  -16.5693    5.2039 N   0  0  0  0  0  0  0  0  0  0  0  0
  2  1  1  6  0  0  0
  2  3  1  0  0  0  0
  2  5  1  0  0  0  0
  3  4  1  0  0  0  0
  3 17  1  0  0  0  0
  5  6  1  0  0  0  0
  7  6  1  6  0  0  0
  7  8  1  0  0  0  0
  7  9  1  0  0  0  0
 10  9  1  6  0  0  0
 10 11  1  0  0  0  0
 10 12  1  0  0  0  0
 11 16  1  0  0  0  0
 12 13  1  1  0  0  0
 12 14  1  0  0  0  0
 14 15  1  1  0  0  0
 14 16  1  0  0  0  0
 16 27  1  6  0  0  0
 18 19  2  0  0  0  0
 18 23  1  0  0  0  0
 19 20  1  0  0  0  0
 20 21  2  0  0  0  0
 21 22  1  0  0  0  0
 21 27  1  0  0  0  0
 22 23  2  0  0  0  0
 22 25  1  0  0  0  0
 23 24  1  0  0  0  0
 25 26  2  0  0  0  0
 26 27  1  0  0  0  0
M  END
>  <CHROM.1>
85.84336668,55.55931465,-176.32164937,-69.28824040,-71.06218422,62.83418707
18.89535014,1.87612881,-15.96172911,5.65979639,-3.01567756,0.21158526,1.22092253

>  <Name>
ligand

>  <RI>
0

>  <Rbt.Current_Directory>
/home/itssahil/PROJECTS/Mol_Feturizer/Test_systems_manuscript/rnas/2ydh

>  <Rbt.Executable>
rbdock ($Id: //depot/dev/client3/rdock/2013.1/src/exe/rbdock.cxx#4 $)

>  <Rbt.Library>
libRbt.so (2013.1, Build901 2013/11/27)

>  <Rbt.Parameter_File>
/export/apps/rDock/src/rDock_2013.1_src/data/scripts/dock_solv.prm

>  <Rbt.Receptor>
prm/blind_docking_20.prm

>  <SCORE>
-3.85988

>  <SCORE.INTER>
-3.69585

>  <SCORE.INTER.CONST>
1

>  <SCORE.INTER.POLAR>
0

>  <SCORE.INTER.ROT>
7

>  <SCORE.INTER.SOLV>
18.2813

>  <SCORE.INTER.VDW>
-16.8243

>  <SCORE.INTER.norm>
-0.136883

>  <SCORE.INTRA>
-1.86252

>  <SCORE.INTRA.DIHEDRAL>
-6.51527

>  <SCORE.INTRA.DIHEDRAL.0>
9.75037

>  <SCORE.INTRA.POLAR>
0

>  <SCORE.INTRA.POLAR.0>
0

>  <SCORE.INTRA.REPUL>
0

>  <SCORE.INTRA.REPUL.0>
0

>  <SCORE.INTRA.SOLV>
-0.710701

>  <SCORE.INTRA.SOLV.lig_0>
-48.4279

>  <SCORE.INTRA.VDW>
1.75047

>  <SCORE.INTRA.VDW.0>
-4.69037

>  <SCORE.INTRA.norm>
-0.0689821

>  <SCORE.RESTR>
1.6985

>  <SCORE.RESTR.CAVITY>
1.6985

>  <SCORE.RESTR.norm>
0.0629073

>  <SCORE.SYSTEM>
0

>  <SCORE.SYSTEM.CONST>
0

>  <SCORE.SYSTEM.DIHEDRAL>
0

>  <SCORE.SYSTEM.SOLV>
0

>  <SCORE.SYSTEM.norm>
0

>  <SCORE.heavy>
27

>  <SCORE.norm>
-0.142958

>  <RMSD>
17.621

$$$$
ligand
 OpenBabel02271912153D
libRbt.so/2013.1/901 2013/11/27
 27 29  0  0  0  0  0  0  0  0999 V2000
    6.1463  -18.3220    1.1423 N   0  0  0  0  0  0  0  0  0  0  0  0
    5.3457  -17.5521    2.1438 C   0  0  2  0  0  0  0  0  0  0  0  0
    4.3105  -18.4600    2.8443 C   0  0  0  0  0  0  0  0  0  0  0  0
    4.3023  -18.5885    4.0723 O   0  0  0  0  0  0  0  0  0  0  0  0
    4.6898  -16.3578    1.4587 C   0  0  0  0  0  0  0  0  0  0  0  0
    3.3236  -15.9868    2.0109 C   0  0  0  0  0  0  0  0  0  0  0  0
    3.4071  -14.9179    3.4763 S   0  0  2  0  0  0  0  0  0  0  0  0
    4.1878  -13.4387    2.7707 C   0  0  0  0  0  0  0  0  0  0  0  0
    4.7183  -15.5783    4.5176 C   0  0  0  0  0  0  0  0  0  0  0  0
    4.5274  -15.0711    5.9343 C   0  0  1  0  0  0  0  0  0  0  0  0
    3.2776  -14.4238    6.1167 O   0  0  0  0  0  0  0  0  0  0  0  0
    4.5937  -16.1969    6.9374 C   0  0  1  0  0  0  0  0  0  0  0  0
    5.9169  -16.4736    7.2969 O   0  0  0  0  0  0  0  0  0  0  0  0
    3.8116  -15.6174    8.0764 C   0  0  1  0  0  0  0  0  0  0  0  0
    4.6807  -14.8642    8.9008 O   0  0  0  0  0  0  0  0  0  0  0  0
    2.7895  -14.7073    7.4076 C   0  0  2  0  0  0  0  0  0  0  0  0
    3.4509  -19.1006    2.2117 O   0  0  0  0  0  0  0  0  0  0  0  0
   -0.1897  -18.6038    5.4583 N   0  0  0  0  0  0  0  0  0  0  0  0
    1.1663  -18.3882    5.2593 C   0  0  0  0  0  0  0  0  0  0  0  0
    1.8074  -17.2983    5.8360 N   0  0  0  0  0  0  0  0  0  0  0  0
    1.1028  -16.4547    6.6119 C   0  0  0  0  0  0  0  0  0  0  0  0
   -0.2606  -16.6700    6.8321 C   0  0  0  0  0  0  0  0  0  0  0  0
   -0.9159  -17.7381    6.2475 C   0  0  0  0  0  0  0  0  0  0  0  0
   -2.2105  -17.9317    6.4504 N   0  0  0  0  0  0  0  0  0  0  0  0
   -0.7088  -15.7038    7.6412 N   0  0  0  0  0  0  0  0  0  0  0  0
    0.3271  -14.8891    7.9403 C   0  0  0  0  0  0  0  0  0  0  0  0
    1.4614  -15.3423    7.3139 N   0  0  0  0  0  0  0  0  0  0  0  0
  2  1  1  6  0  0  0
  2  3  1  0  0  0  0
  2  5  1  0  0  0  0
  3  4  1  0  0  0  0
  3 17  1  0  0  0  0
  5  6  1  0  0  0  0
  7  6  1  6  0  0  0
  7  8  1  0  0  0  0
  7  9  1  0  0  0  0
 10  9  1  6  0  0  0
 10 11  1  0  0  0  0
 10 12  1  0  0  0  0
 11 16  1  0  0  0  0
 12 13  1  1  0  0  0
 12 14  1  0  0  0  0
 14 15  1  1  0  0  0
 14 16  1  0  0  0  0
 16 27  1  6  0  0  0
 18 19  2  0  0  0  0
 18 23  1  0  0  0  0
 19 20  1  0  0  0  0
 20 21  2  0  0  0  0
 21 22  1  0  0  0  0
 21 27  1  0  0  0  0
 22 23  2  0  0  0  0
 22 25  1  0  0  0  0
 23 24  1  0  0  0  0
 25 26  2  0  0  0  0
 26 27  1  0  0  0  0
M  END
>  <CHROM.1>
122.57372184,146.11505363,84.13518193,63.51599168,-160.08262409,10.15463004
54.52685358,2.89020060,-16.38410110,5.18223433,0.76128108,-0.41505295,-2.10385967

>  <Name>
ligand

>  <RI>
0

>  <Rbt.Current_Directory>
/home/itssahil/PROJECTS/Mol_Feturizer/Test_systems_manuscript/rnas/2ydh

>  <Rbt.Executable>
rbdock ($Id: //depot/dev/client3/rdock/2013.1/src/exe/rbdock.cxx#4 $)

>  <Rbt.Library>
libRbt.so (2013.1, Build901 2013/11/27)

>  <Rbt.Parameter_File>
/export/apps/rDock/src/rDock_2013.1_src/data/scripts/dock_solv.prm

>  <Rbt.Receptor>
prm/blind_docking_20.prm

>  <SCORE>
-1.04838

>  <SCORE.INTER>
-6.90789

>  <SCORE.INTER.CONST>
1

>  <SCORE.INTER.POLAR>
0

>  <SCORE.INTER.ROT>
7

>  <SCORE.INTER.SOLV>
9.66403

>  <SCORE.INTER.VDW>
-16.0933

>  <SCORE.INTER.norm>
-0.255848

>  <SCORE.INTRA>
5.09832

>  <SCORE.INTRA.DIHEDRAL>
5.8644

>  <SCORE.INTRA.DIHEDRAL.0>
9.75037

>  <SCORE.INTRA.POLAR>
0

>  <SCORE.INTRA.POLAR.0>
0

>  <SCORE.INTRA.REPUL>
0

>  <SCORE.INTRA.REPUL.0>
0

>  <SCORE.INTRA.SOLV>
-1.11646

>  <SCORE.INTRA.SOLV.lig_0>
-48.4279

>  <SCORE.INTRA.VDW>
2.72435

>  <SCORE.INTRA.VDW.0>
-4.69037

>  <SCORE.INTRA.norm>
0.188827

>  <SCORE.RESTR>
0.761193

>  <SCORE.RESTR.CAVITY>
0.761193

>  <SCORE.RESTR.norm>
0.0281924

>  <SCORE.SYSTEM>
0

>  <SCORE.SYSTEM.CONST>
0

>  <SCORE.SYSTEM.DIHEDRAL>
0

>  <SCORE.SYSTEM.SOLV>
0

>  <SCORE.SYSTEM.norm>
0

>  <SCORE.heavy>
27

>  <SCORE.norm>
-0.038829

>  <RMSD>
17.641

$$$$
ligand
 OpenBabel02271912153D
libRbt.so/2013.1/901 2013/11/27
 27 29  0  0  0  0  0  0  0  0999 V2000
   11.6959    1.4888   24.5775 N   0  0  0  0  0  0  0  0  0  0  0  0
   11.8724    1.2423   23.1130 C   0  0  2  0  0  0  0  0  0  0  0  0
   13.0778    2.0330   22.5576 C   0  0  0  0  0  0  0  0  0  0  0  0
   14.2357    1.7200   22.8507 O   0  0  0  0  0  0  0  0  0  0  0  0
   10.5780    1.5823   22.3819 C   0  0  0  0  0  0  0  0  0  0  0  0
    9.3739    0.7648   22.8190 C   0  0  0  0  0  0  0  0  0  0  0  0
    9.5377   -1.0065   22.4548 S   0  0  2  0  0  0  0  0  0  0  0  0
    9.4797   -0.9845   20.6405 C   0  0  0  0  0  0  0  0  0  0  0  0
    7.9597   -1.7636   22.8752 C   0  0  0  0  0  0  0  0  0  0  0  0
    7.9226   -3.1726   22.3149 C   0  0  1  0  0  0  0  0  0  0  0  0
    8.7455   -4.0700   23.0440 O   0  0  0  0  0  0  0  0  0  0  0  0
    6.5235   -3.7382   22.3356 C   0  0  1  0  0  0  0  0  0  0  0  0
    5.8065   -3.3499   21.1990 O   0  0  0  0  0  0  0  0  0  0  0  0
    6.8053   -5.2098   22.3464 C   0  0  1  0  0  0  0  0  0  0  0  0
    6.9438   -5.6657   21.0140 O   0  0  0  0  0  0  0  0  0  0  0  0
    8.1273   -5.3351   23.0926 C   0  0  2  0  0  0  0  0  0  0  0  0
   12.9400    3.0132   21.8028 O   0  0  0  0  0  0  0  0  0  0  0  0
    9.5846   -4.8653   28.1438 N   0  0  0  0  0  0  0  0  0  0  0  0
   10.1048   -4.2009   27.0426 C   0  0  0  0  0  0  0  0  0  0  0  0
    9.6177   -4.4480   25.7647 N   0  0  0  0  0  0  0  0  0  0  0  0
    8.6154   -5.3306   25.6013 C   0  0  0  0  0  0  0  0  0  0  0  0
    8.0729   -5.9950   26.7048 C   0  0  0  0  0  0  0  0  0  0  0  0
    8.5620   -5.7748   27.9793 C   0  0  0  0  0  0  0  0  0  0  0  0
    8.0519   -6.4150   29.0206 N   0  0  0  0  0  0  0  0  0  0  0  0
    7.0935   -6.7947   26.2685 N   0  0  0  0  0  0  0  0  0  0  0  0
    6.9992   -6.6541   24.9278 C   0  0  0  0  0  0  0  0  0  0  0  0
    7.9331   -5.7454   24.4962 N   0  0  0  0  0  0  0  0  0  0  0  0
  2  1  1  1  0  0  0
  2  3  1  0  0  0  0
  2  5  1  0  0  0  0
  3  4  1  0  0  0  0
  3 17  1  0  0  0  0
  5  6  1  0  0  0  0
  7  6  1  1  0  0  0
  7  8  1  0  0  0  0
  7  9  1  0  0  0  0
 10  9  1  1  0  0  0
 10 11  1  0  0  0  0
 10 12  1  0  0  0  0
 11 16  1  0  0  0  0
 12 13  1  6  0  0  0
 12 14  1  0  0  0  0
 14 15  1  6  0  0  0
 14 16  1  0  0  0  0
 16 27  1  1  0  0  0
 18 19  2  0  0  0  0
 18 23  1  0  0  0  0
 19 20  1  0  0  0  0
 20 21  2  0  0  0  0
 21 22  1  0  0  0  0
 21 27  1  0  0  0  0
 22 23  2  0  0  0  0
 22 25  1  0  0  0  0
 23 24  1  0  0  0  0
 25 26  2  0  0  0  0
 26 27  1  0  0  0  0
M  END
>  <CHROM.1>
70.55744079,-60.35787075,-64.33372748,-67.71672871,167.65297958,73.54434463
-23.50588853,9.16407254,-2.74107970,23.80726457,-0.85350074,0.80557791,2.17560397

>  <Name>
ligand

>  <RI>
0

>  <Rbt.Current_Directory>
/home/itssahil/PROJECTS/Mol_Feturizer/Test_systems_manuscript/rnas/2ydh

>  <Rbt.Executable>
rbdock ($Id: //depot/dev/client3/rdock/2013.1/src/exe/rbdock.cxx#4 $)

>  <Rbt.Library>
libRbt.so (2013.1, Build901 2013/11/27)

>  <Rbt.Parameter_File>
/export/apps/rDock/src/rDock_2013.1_src/data/scripts/dock_solv.prm

>  <Rbt.Receptor>
prm/blind_docking_40.prm

>  <SCORE>
-14.262

>  <SCORE.INTER>
-14.1449

>  <SCORE.INTER.CONST>
1

>  <SCORE.INTER.POLAR>
0

>  <SCORE.INTER.ROT>
7

>  <SCORE.INTER.SOLV>
13.9541

>  <SCORE.INTER.VDW>
-22.348

>  <SCORE.INTER.norm>
-0.523883

>  <SCORE.INTRA>
-0.121966

>  <SCORE.INTRA.DIHEDRAL>
-5.97274

>  <SCORE.INTRA.DIHEDRAL.0>
9.75037

>  <SCORE.INTRA.POLAR>
0

>  <SCORE.INTRA.POLAR.0>
0

>  <SCORE.INTRA.REPUL>
0

>  <SCORE.INTRA.REPUL.0>
0

>  <SCORE.INTRA.SOLV>
-0.25295

>  <SCORE.INTRA.SOLV.lig_0>
-48.4279

>  <SCORE.INTRA.VDW>
2.99088

>  <SCORE.INTRA.VDW.0>
-4.69037

>  <SCORE.INTRA.norm>
-0.00451725

>  <SCORE.RESTR>
0.00477468

>  <SCORE.RESTR.CAVITY>
0.00477468

>  <SCORE.RESTR.norm>
0.00017684

>  <SCORE.SYSTEM>
0

>  <SCORE.SYSTEM.CONST>
0

>  <SCORE.SYSTEM.DIHEDRAL>
0

>  <SCORE.SYSTEM.SOLV>
0

>  <SCORE.SYSTEM.norm>
0

>  <SCORE.heavy>
27

>  <SCORE.norm>
-0.528224

>  <RMSD>
17.670

$$$$
ligand
 OpenBabel02271912153D
libRbt.so/2013.1/901 2013/11/27
 27 29  0  0  0  0  0  0  0  0999 V2000
    3.4150  -17.0490    3.4699 N   0  0  0  0  0  0  0  0  0  0  0  0
    4.5130  -16.3883    2.6988 C   0  0  2  0  0  0  0  0  0  0  0  0
    5.1526  -17.3692    1.6910 C   0  0  0  0  0  0  0  0  0  0  0  0
    5.8395  -16.9594    0.7503 O   0  0  0  0  0  0  0  0  0  0  0  0
    5.5395  -15.8136    3.6693 C   0  0  0  0  0  0  0  0  0  0  0  0
    6.1974  -16.8429    4.5731 C   0  0  0  0  0  0  0  0  0  0  0  0
    6.8900  -16.1274    6.0915 S   0  0  2  0  0  0  0  0  0  0  0  0
    8.1518  -17.3660    6.5029 C   0  0  0  0  0  0  0  0  0  0  0  0
    5.6661  -16.3890    7.3852 C   0  0  0  0  0  0  0  0  0  0  0  0
    4.5322  -15.3988    7.2006 C   0  0  1  0  0  0  0  0  0  0  0  0
    3.8079  -15.6184    6.0000 O   0  0  0  0  0  0  0  0  0  0  0  0
    3.5411  -15.4763    8.3362 C   0  0  1  0  0  0  0  0  0  0  0  0
    3.9508  -14.6882    9.4168 O   0  0  0  0  0  0  0  0  0  0  0  0
    2.3068  -14.9346    7.6820 C   0  0  1  0  0  0  0  0  0  0  0  0
    2.2979  -13.5248    7.8027 O   0  0  0  0  0  0  0  0  0  0  0  0
    2.4439  -15.3434    6.2210 C   0  0  2  0  0  0  0  0  0  0  0  0
    5.0029  -18.6020    1.7756 O   0  0  0  0  0  0  0  0  0  0  0  0
   -1.8943  -17.3445    3.9772 N   0  0  0  0  0  0  0  0  0  0  0  0
   -1.5001  -16.0155    4.0318 C   0  0  0  0  0  0  0  0  0  0  0  0
   -0.3266  -15.6454    4.6780 N   0  0  0  0  0  0  0  0  0  0  0  0
    0.4432  -16.5950    5.2401 C   0  0  0  0  0  0  0  0  0  0  0  0
    0.0643  -17.9390    5.1784 C   0  0  0  0  0  0  0  0  0  0  0  0
   -1.1112  -18.3192    4.5574 C   0  0  0  0  0  0  0  0  0  0  0  0
   -1.4715  -19.5930    4.5111 N   0  0  0  0  0  0  0  0  0  0  0  0
    1.0031  -18.6644    5.7959 N   0  0  0  0  0  0  0  0  0  0  0  0
    1.9618  -17.8229    6.2418 C   0  0  0  0  0  0  0  0  0  0  0  0
    1.6337  -16.5340    5.9017 N   0  0  0  0  0  0  0  0  0  0  0  0
  2  1  1  1  0  0  0
  2  3  1  0  0  0  0
  2  5  1  0  0  0  0
  3  4  1  0  0  0  0
  3 17  1  0  0  0  0
  5  6  1  0  0  0  0
  7  6  1  6  0  0  0
  7  8  1  0  0  0  0
  7  9  1  0  0  0  0
 10  9  1  1  0  0  0
 10 11  1  0  0  0  0
 10 12  1  0  0  0  0
 11 16  1  0  0  0  0
 12 13  1  1  0  0  0
 12 14  1  0  0  0  0
 14 15  1  6  0  0  0
 14 16  1  0  0  0  0
 16 27  1  1  0  0  0
 18 19  2  0  0  0  0
 18 23  1  0  0  0  0
 19 20  1  0  0  0  0
 20 21  2  0  0  0  0
 21 22  1  0  0  0  0
 21 27  1  0  0  0  0
 22 23  2  0  0  0  0
 22 25  1  0  0  0  0
 23 24  1  0  0  0  0
 25 26  2  0  0  0  0
 26 27  1  0  0  0  0
M  END
>  <CHROM.1>
162.50779187,60.24490162,-157.71212973,-155.99368939,-75.79600886,65.39511165
-138.16312001,3.17868072,-16.55860870,5.28476958,-0.12851042,-0.10024075
-1.99832598

>  <Name>
ligand

>  <RI>
0

>  <Rbt.Current_Directory>
/home/itssahil/PROJECTS/Mol_Feturizer/Test_systems_manuscript/rnas/2ydh

>  <Rbt.Executable>
rbdock ($Id: //depot/dev/client3/rdock/2013.1/src/exe/rbdock.cxx#4 $)

>  <Rbt.Library>
libRbt.so (2013.1, Build901 2013/11/27)

>  <Rbt.Parameter_File>
/export/apps/rDock/src/rDock_2013.1_src/data/scripts/dock_solv.prm

>  <Rbt.Receptor>
prm/blind_docking_20.prm

>  <SCORE>
-1.25278

>  <SCORE.INTER>
-5.58231

>  <SCORE.INTER.CONST>
1

>  <SCORE.INTER.POLAR>
0

>  <SCORE.INTER.ROT>
7

>  <SCORE.INTER.SOLV>
11.2612

>  <SCORE.INTER.VDW>
-15.7419

>  <SCORE.INTER.norm>
-0.206752

>  <SCORE.INTRA>
1.10199

>  <SCORE.INTRA.DIHEDRAL>
-2.39887

>  <SCORE.INTRA.DIHEDRAL.0>
9.75037

>  <SCORE.INTRA.POLAR>
0

>  <SCORE.INTRA.POLAR.0>
0

>  <SCORE.INTRA.REPUL>
0

>  <SCORE.INTRA.REPUL.0>
0

>  <SCORE.INTRA.SOLV>
2.96452

>  <SCORE.INTRA.SOLV.lig_0>
-48.4279

>  <SCORE.INTRA.VDW>
0.819165

>  <SCORE.INTRA.VDW.0>
-4.69037

>  <SCORE.INTRA.norm>
0.0408144

>  <SCORE.RESTR>
3.22754

>  <SCORE.RESTR.CAVITY>
3.22754

>  <SCORE.RESTR.norm>
0.119539

>  <SCORE.SYSTEM>
0

>  <SCORE.SYSTEM.CONST>
0

>  <SCORE.SYSTEM.DIHEDRAL>
0

>  <SCORE.SYSTEM.SOLV>
0

>  <SCORE.SYSTEM.norm>
0

>  <SCORE.heavy>
27

>  <SCORE.norm>
-0.0463991

>  <RMSD>
17.688

$$$$
ligand
 OpenBabel02271912153D
libRbt.so/2013.1/901 2013/11/27
 27 29  0  0  0  0  0  0  0  0999 V2000
    0.2514  -13.3623    2.6563 N   0  0  0  0  0  0  0  0  0  0  0  0
    0.5362  -14.7506    3.1341 C   0  0  2  0  0  0  0  0  0  0  0  0
   -0.4347  -15.1597    4.2639 C   0  0  0  0  0  0  0  0  0  0  0  0
   -1.1831  -16.1340    4.1401 O   0  0  0  0  0  0  0  0  0  0  0  0
    1.9947  -14.8482    3.5686 C   0  0  0  0  0  0  0  0  0  0  0  0
    2.7665  -15.9924    2.9325 C   0  0  0  0  0  0  0  0  0  0  0  0
    4.5664  -15.8295    3.1072 S   0  0  2  0  0  0  0  0  0  0  0  0
    5.1349  -16.9183    1.7705 C   0  0  0  0  0  0  0  0  0  0  0  0
    5.0247  -16.7626    4.5767 C   0  0  0  0  0  0  0  0  0  0  0  0
    4.8864  -15.8677    5.7935 C   0  0  1  0  0  0  0  0  0  0  0  0
    3.6961  -15.0953    5.7686 O   0  0  0  0  0  0  0  0  0  0  0  0
    4.8659  -16.6718    7.0706 C   0  0  1  0  0  0  0  0  0  0  0  0
    6.1640  -16.9449    7.5146 O   0  0  0  0  0  0  0  0  0  0  0  0
    4.1426  -15.7366    7.9911 C   0  0  1  0  0  0  0  0  0  0  0  0
    5.0771  -14.8576    8.5881 O   0  0  0  0  0  0  0  0  0  0  0  0
    3.1951  -14.9678    7.0792 C   0  0  2  0  0  0  0  0  0  0  0  0
   -0.5112  -14.5315    5.3358 O   0  0  0  0  0  0  0  0  0  0  0  0
   -0.2927  -18.6080    5.5166 N   0  0  0  0  0  0  0  0  0  0  0  0
    1.0443  -18.5028    5.1617 C   0  0  0  0  0  0  0  0  0  0  0  0
    1.8332  -17.4691    5.6520 N   0  0  0  0  0  0  0  0  0  0  0  0
    1.2928  -16.5719    6.4966 C   0  0  0  0  0  0  0  0  0  0  0  0
   -0.0491  -16.6763    6.8734 C   0  0  0  0  0  0  0  0  0  0  0  0
   -0.8513  -17.6871    6.3767 C   0  0  0  0  0  0  0  0  0  0  0  0
   -2.1253  -17.7755    6.7283 N   0  0  0  0  0  0  0  0  0  0  0  0
   -0.3220  -15.6779    7.7206 N   0  0  0  0  0  0  0  0  0  0  0  0
    0.8036  -14.9501    7.8922 C   0  0  0  0  0  0  0  0  0  0  0  0
    1.8182  -15.4930    7.1437 N   0  0  0  0  0  0  0  0  0  0  0  0
  2  1  1  1  0  0  0
  2  3  1  0  0  0  0
  2  5  1  0  0  0  0
  3  4  1  0  0  0  0
  3 17  1  0  0  0  0
  5  6  1  0  0  0  0
  7  6  1  6  0  0  0
  7  8  1  0  0  0  0
  7  9  1  0  0  0  0
 10  9  1  6  0  0  0
 10 11  1  0  0  0  0
 10 12  1  0  0  0  0
 11 16  1  0  0  0  0
 12 13  1  1  0  0  0
 12 14  1  0  0  0  0
 14 15  1  6  0  0  0
 14 16  1  0  0  0  0
 16 27  1  6  0  0  0
 18 19  2  0  0  0  0
 18 23  1  0  0  0  0
 19 20  1  0  0  0  0
 20 21  2  0  0  0  0
 21 22  1  0  0  0  0
 21 27  1  0  0  0  0
 22 23  2  0  0  0  0
 22 25  1  0  0  0  0
 23 24  1  0  0  0  0
 25 26  2  0  0  0  0
 26 27  1  0  0  0  0
M  END
>  <CHROM.1>
119.97760735,-127.63370966,164.59701621,-159.50846780,-86.64970377,43.34189448
37.18080759,2.15228122,-16.03511843,5.45351257,3.12733913,0.03979244,1.69352566

>  <Name>
ligand

>  <RI>
0

>  <Rbt.Current_Directory>
/home/itssahil/PROJECTS/Mol_Feturizer/Test_systems_manuscript/rnas/2ydh

>  <Rbt.Executable>
rbdock ($Id: //depot/dev/client3/rdock/2013.1/src/exe/rbdock.cxx#4 $)

>  <Rbt.Library>
libRbt.so (2013.1, Build901 2013/11/27)

>  <Rbt.Parameter_File>
/export/apps/rDock/src/rDock_2013.1_src/data/scripts/dock_solv.prm

>  <Rbt.Receptor>
prm/blind_docking_20.prm

>  <SCORE>
-5.81946

>  <SCORE.INTER>
-8.49976

>  <SCORE.INTER.CONST>
1

>  <SCORE.INTER.POLAR>
0

>  <SCORE.INTER.ROT>
7

>  <SCORE.INTER.SOLV>
12.319

>  <SCORE.INTER.VDW>
-18.0395

>  <SCORE.INTER.norm>
-0.314806

>  <SCORE.INTRA>
0.191249

>  <SCORE.INTRA.DIHEDRAL>
3.59959

>  <SCORE.INTRA.DIHEDRAL.0>
9.75037

>  <SCORE.INTRA.POLAR>
0

>  <SCORE.INTRA.POLAR.0>
0

>  <SCORE.INTRA.REPUL>
0

>  <SCORE.INTRA.REPUL.0>
0

>  <SCORE.INTRA.SOLV>
-0.235705

>  <SCORE.INTRA.SOLV.lig_0>
-48.4279

>  <SCORE.INTRA.VDW>
-1.49069

>  <SCORE.INTRA.VDW.0>
-4.69037

>  <SCORE.INTRA.norm>
0.00708331

>  <SCORE.RESTR>
2.48905

>  <SCORE.RESTR.CAVITY>
2.48905

>  <SCORE.RESTR.norm>
0.0921872

>  <SCORE.SYSTEM>
0

>  <SCORE.SYSTEM.CONST>
0

>  <SCORE.SYSTEM.DIHEDRAL>
0

>  <SCORE.SYSTEM.SOLV>
0

>  <SCORE.SYSTEM.norm>
0

>  <SCORE.heavy>
27

>  <SCORE.norm>
-0.215536

>  <RMSD>
17.697

$$$$
ligand
 OpenBabel02271912153D
libRbt.so/2013.1/901 2013/11/27
 27 29  0  0  0  0  0  0  0  0999 V2000
    1.7837  -14.8992    2.8380 N   0  0  0  0  0  0  0  0  0  0  0  0
    2.9787  -15.3478    2.0587 C   0  0  2  0  0  0  0  0  0  0  0  0
    2.6693  -16.6312    1.2564 C   0  0  0  0  0  0  0  0  0  0  0  0
    2.3727  -16.5789    0.0589 O   0  0  0  0  0  0  0  0  0  0  0  0
    4.1603  -15.5343    3.0046 C   0  0  0  0  0  0  0  0  0  0  0  0
    4.7109  -14.2433    3.5873 C   0  0  0  0  0  0  0  0  0  0  0  0
    5.8630  -14.5109    4.9650 S   0  0  2  0  0  0  0  0  0  0  0  0
    7.0904  -15.5892    4.1736 C   0  0  0  0  0  0  0  0  0  0  0  0
    5.0455  -15.6395    6.1042 C   0  0  0  0  0  0  0  0  0  0  0  0
    4.0276  -14.8664    6.9207 C   0  0  1  0  0  0  0  0  0  0  0  0
    2.8599  -14.5517    6.1780 O   0  0  0  0  0  0  0  0  0  0  0  0
    3.5840  -15.6480    8.1333 C   0  0  1  0  0  0  0  0  0  0  0  0
    4.4673  -15.4636    9.2021 O   0  0  0  0  0  0  0  0  0  0  0  0
    2.2434  -15.0342    8.4000 C   0  0  1  0  0  0  0  0  0  0  0  0
    2.4096  -13.8963    9.2245 O   0  0  0  0  0  0  0  0  0  0  0  0
    1.7353  -14.6253    7.0235 C   0  0  2  0  0  0  0  0  0  0  0  0
    2.6987  -17.7630    1.7737 O   0  0  0  0  0  0  0  0  0  0  0  0
    0.8535  -18.9589    4.1424 N   0  0  0  0  0  0  0  0  0  0  0  0
    2.0701  -18.3490    4.4117 C   0  0  0  0  0  0  0  0  0  0  0  0
    2.1340  -17.1945    5.1828 N   0  0  0  0  0  0  0  0  0  0  0  0
    0.9998  -16.6763    5.6879 C   0  0  0  0  0  0  0  0  0  0  0  0
   -0.2303  -17.2905    5.4361 C   0  0  0  0  0  0  0  0  0  0  0  0
   -0.3111  -18.4273    4.6530 C   0  0  0  0  0  0  0  0  0  0  0  0
   -1.4804  -18.9994    4.4082 N   0  0  0  0  0  0  0  0  0  0  0  0
   -1.1817  -16.5870    6.0599 N   0  0  0  0  0  0  0  0  0  0  0  0
   -0.5918  -15.5524    6.6984 C   0  0  0  0  0  0  0  0  0  0  0  0
    0.7633  -15.5942    6.4827 N   0  0  0  0  0  0  0  0  0  0  0  0
  2  1  1  1  0  0  0
  2  3  1  0  0  0  0
  2  5  1  0  0  0  0
  3  4  1  0  0  0  0
  3 17  1  0  0  0  0
  5  6  1  0  0  0  0
  7  6  1  6  0  0  0
  7  8  1  0  0  0  0
  7  9  1  0  0  0  0
 10  9  1  6  0  0  0
 10 11  1  0  0  0  0
 10 12  1  0  0  0  0
 11 16  1  0  0  0  0
 12 13  1  1  0  0  0
 12 14  1  0  0  0  0
 14 15  1  1  0  0  0
 14 16  1  0  0  0  0
 16 27  1  6  0  0  0
 18 19  2  0  0  0  0
 18 23  1  0  0  0  0
 19 20  1  0  0  0  0
 20 21  2  0  0  0  0
 21 22  1  0  0  0  0
 21 27  1  0  0  0  0
 22 23  2  0  0  0  0
 22 25  1  0  0  0  0
 23 24  1  0  0  0  0
 25 26  2  0  0  0  0
 26 27  1  0  0  0  0
M  END
>  <CHROM.1>
98.26226117,-69.32264258,167.59177226,56.33247593,-78.21372327,75.29862186
26.78492849,2.59219429,-15.98491038,5.10383061,-2.18184435,0.42688836,1.29627199

>  <Name>
ligand

>  <RI>
0

>  <Rbt.Current_Directory>
/home/itssahil/PROJECTS/Mol_Feturizer/Test_systems_manuscript/rnas/2ydh

>  <Rbt.Executable>
rbdock ($Id: //depot/dev/client3/rdock/2013.1/src/exe/rbdock.cxx#4 $)

>  <Rbt.Library>
libRbt.so (2013.1, Build901 2013/11/27)

>  <Rbt.Parameter_File>
/export/apps/rDock/src/rDock_2013.1_src/data/scripts/dock_solv.prm

>  <Rbt.Receptor>
prm/blind_docking_20.prm

>  <SCORE>
14.0811

>  <SCORE.INTER>
15.2399

>  <SCORE.INTER.CONST>
1

>  <SCORE.INTER.POLAR>
0

>  <SCORE.INTER.ROT>
7

>  <SCORE.INTER.SOLV>
15.57

>  <SCORE.INTER.VDW>
-3.29675

>  <SCORE.INTER.norm>
0.56444

>  <SCORE.INTRA>
-1.5298

>  <SCORE.INTRA.DIHEDRAL>
-4.64025

>  <SCORE.INTRA.DIHEDRAL.0>
9.75037

>  <SCORE.INTRA.POLAR>
0

>  <SCORE.INTRA.POLAR.0>
0

>  <SCORE.INTRA.REPUL>
0

>  <SCORE.INTRA.REPUL.0>
0

>  <SCORE.INTRA.SOLV>
0.983725

>  <SCORE.INTRA.SOLV.lig_0>
-48.4279

>  <SCORE.INTRA.VDW>
0.298461

>  <SCORE.INTRA.VDW.0>
-4.69037

>  <SCORE.INTRA.norm>
-0.0566593

>  <SCORE.RESTR>
0.371027

>  <SCORE.RESTR.CAVITY>
0.371027

>  <SCORE.RESTR.norm>
0.0137418

>  <SCORE.SYSTEM>
0

>  <SCORE.SYSTEM.CONST>
0

>  <SCORE.SYSTEM.DIHEDRAL>
0

>  <SCORE.SYSTEM.SOLV>
0

>  <SCORE.SYSTEM.norm>
0

>  <SCORE.heavy>
27

>  <SCORE.norm>
0.521522

>  <RMSD>
17.713

$$$$
ligand
 OpenBabel02271912153D
libRbt.so/2013.1/901 2013/11/27
 27 29  0  0  0  0  0  0  0  0999 V2000
    7.3553   -4.7083   22.5980 N   0  0  0  0  0  0  0  0  0  0  0  0
    7.1413   -3.5242   21.7099 C   0  0  2  0  0  0  0  0  0  0  0  0
    7.4821   -3.8619   20.2414 C   0  0  0  0  0  0  0  0  0  0  0  0
    8.1856   -4.8362   19.9577 O   0  0  0  0  0  0  0  0  0  0  0  0
    7.9568   -2.3455   22.2309 C   0  0  0  0  0  0  0  0  0  0  0  0
    7.7150   -1.0379   21.4955 C   0  0  0  0  0  0  0  0  0  0  0  0
    8.5351    0.3845   22.2707 S   0  0  2  0  0  0  0  0  0  0  0  0
   10.2719    0.0246   21.8836 C   0  0  0  0  0  0  0  0  0  0  0  0
    8.4768    0.1033   24.0476 C   0  0  0  0  0  0  0  0  0  0  0  0
    8.4234    1.4421   24.7585 C   0  0  1  0  0  0  0  0  0  0  0  0
    9.3719    2.3669   24.2493 O   0  0  0  0  0  0  0  0  0  0  0  0
    7.0638    2.0838   24.6258 C   0  0  1  0  0  0  0  0  0  0  0  0
    6.1869    1.6136   25.6089 O   0  0  0  0  0  0  0  0  0  0  0  0
    7.4046    3.5296   24.8220 C   0  0  1  0  0  0  0  0  0  0  0  0
    7.3835    3.8280   26.2050 O   0  0  0  0  0  0  0  0  0  0  0  0
    8.8180    3.6622   24.2697 C   0  0  2  0  0  0  0  0  0  0  0  0
    7.0734   -3.1738   19.2881 O   0  0  0  0  0  0  0  0  0  0  0  0
    6.2334    4.5327   19.7508 N   0  0  0  0  0  0  0  0  0  0  0  0
    5.7684    3.8848   20.8860 C   0  0  0  0  0  0  0  0  0  0  0  0
    6.5842    3.7226   21.9994 N   0  0  0  0  0  0  0  0  0  0  0  0
    7.8345    4.2190   21.9775 C   0  0  0  0  0  0  0  0  0  0  0  0
    8.3091    4.8871   20.8452 C   0  0  0  0  0  0  0  0  0  0  0  0
    7.5158    5.0371   19.7227 C   0  0  0  0  0  0  0  0  0  0  0  0
    7.9739    5.6614   18.6480 N   0  0  0  0  0  0  0  0  0  0  0  0
    9.5616    5.2861   21.0924 N   0  0  0  0  0  0  0  0  0  0  0  0
    9.8906    4.8943   22.3431 C   0  0  0  0  0  0  0  0  0  0  0  0
    8.8288    4.2343   22.9101 N   0  0  0  0  0  0  0  0  0  0  0  0
  2  1  1  1  0  0  0
  2  3  1  0  0  0  0
  2  5  1  0  0  0  0
  3  4  1  0  0  0  0
  3 17  1  0  0  0  0
  5  6  1  0  0  0  0
  7  6  1  6  0  0  0
  7  8  1  0  0  0  0
  7  9  1  0  0  0  0
 10  9  1  6  0  0  0
 10 11  1  0  0  0  0
 10 12  1  0  0  0  0
 11 16  1  0  0  0  0
 12 13  1  1  0  0  0
 12 14  1  0  0  0  0
 14 15  1  1  0  0  0
 14 16  1  0  0  0  0
 16 27  1  6  0  0  0
 18 19  2  0  0  0  0
 18 23  1  0  0  0  0
 19 20  1  0  0  0  0
 20 21  2  0  0  0  0
 21 22  1  0  0  0  0
 21 27  1  0  0  0  0
 22 23  2  0  0  0  0
 22 25  1  0  0  0  0
 23 24  1  0  0  0  0
 25 26  2  0  0  0  0
 26 27  1  0  0  0  0
M  END
>  <CHROM.1>
-18.93045077,-174.06050896,172.61870235,71.04508204,-149.75255227,-46.35605207
94.30002298,7.93534654,1.40474466,22.27521252,-2.34293312,-1.52516406,-0.64261678

>  <Name>
ligand

>  <RI>
0

>  <Rbt.Current_Directory>
/home/itssahil/PROJECTS/Mol_Feturizer/Test_systems_manuscript/rnas/2ydh

>  <Rbt.Executable>
rbdock ($Id: //depot/dev/client3/rdock/2013.1/src/exe/rbdock.cxx#4 $)

>  <Rbt.Library>
libRbt.so (2013.1, Build901 2013/11/27)

>  <Rbt.Parameter_File>
/export/apps/rDock/src/rDock_2013.1_src/data/scripts/dock_solv.prm

>  <Rbt.Receptor>
prm/blind_docking_100.prm

>  <SCORE>
-9.80121

>  <SCORE.INTER>
-10.168

>  <SCORE.INTER.CONST>
1

>  <SCORE.INTER.POLAR>
0

>  <SCORE.INTER.ROT>
7

>  <SCORE.INTER.SOLV>
8.65911

>  <SCORE.INTER.VDW>
-17.9317

>  <SCORE.INTER.norm>
-0.376594

>  <SCORE.INTRA>
0.366822

>  <SCORE.INTRA.DIHEDRAL>
-1.77648

>  <SCORE.INTRA.DIHEDRAL.0>
9.75037

>  <SCORE.INTRA.POLAR>
0

>  <SCORE.INTRA.POLAR.0>
0

>  <SCORE.INTRA.REPUL>
0

>  <SCORE.INTRA.REPUL.0>
0

>  <SCORE.INTRA.SOLV>
-1.29074

>  <SCORE.INTRA.SOLV.lig_0>
-48.4279

>  <SCORE.INTRA.VDW>
1.90043

>  <SCORE.INTRA.VDW.0>
-4.69037

>  <SCORE.INTRA.norm>
0.013586

>  <SCORE.RESTR>
0

>  <SCORE.RESTR.CAVITY>
0

>  <SCORE.RESTR.norm>
0

>  <SCORE.SYSTEM>
0

>  <SCORE.SYSTEM.CONST>
0

>  <SCORE.SYSTEM.DIHEDRAL>
0

>  <SCORE.SYSTEM.SOLV>
0

>  <SCORE.SYSTEM.norm>
0

>  <SCORE.heavy>
27

>  <SCORE.norm>
-0.363008

>  <RMSD>
17.719

$$$$
ligand
 OpenBabel02271912153D
libRbt.so/2013.1/901 2013/11/27
 27 29  0  0  0  0  0  0  0  0999 V2000
   11.6111    3.9696   26.4073 N   0  0  0  0  0  0  0  0  0  0  0  0
   10.8713    5.1351   25.8320 C   0  0  2  0  0  0  0  0  0  0  0  0
    9.7014    5.5579   26.7482 C   0  0  0  0  0  0  0  0  0  0  0  0
    8.9901    4.7156   27.3041 O   0  0  0  0  0  0  0  0  0  0  0  0
   10.4003    4.7914   24.4229 C   0  0  0  0  0  0  0  0  0  0  0  0
    9.5205    3.5554   24.3364 C   0  0  0  0  0  0  0  0  0  0  0  0
    8.7841    3.3113   22.6948 S   0  0  2  0  0  0  0  0  0  0  0  0
    7.4463    4.5375   22.7395 C   0  0  0  0  0  0  0  0  0  0  0  0
    7.8771    1.7581   22.7664 C   0  0  0  0  0  0  0  0  0  0  0  0
    8.8495    0.6089   22.5812 C   0  0  1  0  0  0  0  0  0  0  0  0
    8.2767   -0.6471   22.9109 O   0  0  0  0  0  0  0  0  0  0  0  0
    9.3288    0.5159   21.1531 C   0  0  1  0  0  0  0  0  0  0  0  0
   10.4144    1.3692   20.9297 O   0  0  0  0  0  0  0  0  0  0  0  0
    9.7228   -0.9274   21.0724 C   0  0  1  0  0  0  0  0  0  0  0  0
   11.0626   -1.0678   21.5055 O   0  0  0  0  0  0  0  0  0  0  0  0
    8.7751   -1.6315   22.0348 C   0  0  2  0  0  0  0  0  0  0  0  0
    9.4212    6.7518   26.9617 O   0  0  0  0  0  0  0  0  0  0  0  0
    4.5843   -4.8315   22.2726 N   0  0  0  0  0  0  0  0  0  0  0  0
    5.4274   -4.4549   23.3080 C   0  0  0  0  0  0  0  0  0  0  0  0
    6.5055   -3.6085   23.0781 N   0  0  0  0  0  0  0  0  0  0  0  0
    6.7188   -3.1362   21.8365 C   0  0  0  0  0  0  0  0  0  0  0  0
    5.8673   -3.4963   20.7882 C   0  0  0  0  0  0  0  0  0  0  0  0
    4.8035   -4.3544   20.9982 C   0  0  0  0  0  0  0  0  0  0  0  0
    4.0059   -4.7015   19.9993 N   0  0  0  0  0  0  0  0  0  0  0  0
    6.2924   -2.8834   19.6780 N   0  0  0  0  0  0  0  0  0  0  0  0
    7.3810   -2.1471   19.9925 C   0  0  0  0  0  0  0  0  0  0  0  0
    7.6580   -2.2879   21.3296 N   0  0  0  0  0  0  0  0  0  0  0  0
  2  1  1  1  0  0  0
  2  3  1  0  0  0  0
  2  5  1  0  0  0  0
  3  4  1  0  0  0  0
  3 17  1  0  0  0  0
  5  6  1  0  0  0  0
  7  6  1  1  0  0  0
  7  8  1  0  0  0  0
  7  9  1  0  0  0  0
 10  9  1  6  0  0  0
 10 11  1  0  0  0  0
 10 12  1  0  0  0  0
 11 16  1  0  0  0  0
 12 13  1  1  0  0  0
 12 14  1  0  0  0  0
 14 15  1  1  0  0  0
 14 16  1  0  0  0  0
 16 27  1  6  0  0  0
 18 19  2  0  0  0  0
 18 23  1  0  0  0  0
 19 20  1  0  0  0  0
 20 21  2  0  0  0  0
 21 22  1  0  0  0  0
 21 27  1  0  0  0  0
 22 23  2  0  0  0  0
 22 25  1  0  0  0  0
 23 24  1  0  0  0  0
 25 26  2  0  0  0  0
 26 27  1  0  0  0  0
M  END
>  <CHROM.1>
-40.69581402,57.30658708,171.68357435,-77.34784889,-81.08954473,167.13784966
-70.06119590,8.25318800,0.50423595,22.84608479,1.07632624,0.67755006,0.78799385

>  <Name>
ligand

>  <RI>
0

>  <Rbt.Current_Directory>
/home/itssahil/PROJECTS/Mol_Feturizer/Test_systems_manuscript/rnas/2ydh

>  <Rbt.Executable>
rbdock ($Id: //depot/dev/client3/rdock/2013.1/src/exe/rbdock.cxx#4 $)

>  <Rbt.Library>
libRbt.so (2013.1, Build901 2013/11/27)

>  <Rbt.Parameter_File>
/export/apps/rDock/src/rDock_2013.1_src/data/scripts/dock_solv.prm

>  <Rbt.Receptor>
prm/blind_docking_80.prm

>  <SCORE>
-10.7655

>  <SCORE.INTER>
-10.4347

>  <SCORE.INTER.CONST>
1

>  <SCORE.INTER.POLAR>
0

>  <SCORE.INTER.ROT>
7

>  <SCORE.INTER.SOLV>
6.83163

>  <SCORE.INTER.VDW>
-17.5003

>  <SCORE.INTER.norm>
-0.38647

>  <SCORE.INTRA>
-0.330797

>  <SCORE.INTRA.DIHEDRAL>
-4.99814

>  <SCORE.INTRA.DIHEDRAL.0>
9.75037

>  <SCORE.INTRA.POLAR>
0

>  <SCORE.INTRA.POLAR.0>
0

>  <SCORE.INTRA.REPUL>
0

>  <SCORE.INTRA.REPUL.0>
0

>  <SCORE.INTRA.SOLV>
-0.637998

>  <SCORE.INTRA.SOLV.lig_0>
-48.4279

>  <SCORE.INTRA.VDW>
2.48727

>  <SCORE.INTRA.VDW.0>
-4.69037

>  <SCORE.INTRA.norm>
-0.0122517

>  <SCORE.RESTR>
0

>  <SCORE.RESTR.CAVITY>
0

>  <SCORE.RESTR.norm>
0

>  <SCORE.SYSTEM>
0

>  <SCORE.SYSTEM.CONST>
0

>  <SCORE.SYSTEM.DIHEDRAL>
0

>  <SCORE.SYSTEM.SOLV>
0

>  <SCORE.SYSTEM.norm>
0

>  <SCORE.heavy>
27

>  <SCORE.norm>
-0.398722

>  <RMSD>
17.736

$$$$
ligand
 OpenBabel02271912153D
libRbt.so/2013.1/901 2013/11/27
 27 29  0  0  0  0  0  0  0  0999 V2000
    7.7688    2.6508   17.1782 N   0  0  0  0  0  0  0  0  0  0  0  0
    8.4286    1.4364   17.7495 C   0  0  2  0  0  0  0  0  0  0  0  0
    8.7416    0.4024   16.6452 C   0  0  0  0  0  0  0  0  0  0  0  0
    8.1997    0.4682   15.5377 O   0  0  0  0  0  0  0  0  0  0  0  0
    7.5491    0.8515   18.8496 C   0  0  0  0  0  0  0  0  0  0  0  0
    8.1961   -0.2710   19.6436 C   0  0  0  0  0  0  0  0  0  0  0  0
    9.5947    0.2822   20.6609 S   0  0  2  0  0  0  0  0  0  0  0  0
   10.1801   -1.3045   21.3207 C   0  0  0  0  0  0  0  0  0  0  0  0
    8.8885    1.0624   22.1212 C   0  0  0  0  0  0  0  0  0  0  0  0
    8.4232    2.4599   21.7589 C   0  0  1  0  0  0  0  0  0  0  0  0
    7.6219    3.0466   22.7726 O   0  0  0  0  0  0  0  0  0  0  0  0
    9.5908    3.3872   21.5250 C   0  0  1  0  0  0  0  0  0  0  0  0
   10.0592    3.2857   20.2109 O   0  0  0  0  0  0  0  0  0  0  0  0
    8.9620    4.7200   21.7958 C   0  0  1  0  0  0  0  0  0  0  0  0
    8.3701    5.2045   20.6053 O   0  0  0  0  0  0  0  0  0  0  0  0
    7.8935    4.4273   22.8413 C   0  0  2  0  0  0  0  0  0  0  0  0
    9.5399   -0.5366   16.8195 O   0  0  0  0  0  0  0  0  0  0  0  0
   11.8919    5.0673   26.2269 N   0  0  0  0  0  0  0  0  0  0  0  0
   11.9573    4.6831   24.8955 C   0  0  0  0  0  0  0  0  0  0  0  0
   10.8021    4.5450   24.1353 N   0  0  0  0  0  0  0  0  0  0  0  0
    9.6084    4.8070   24.6979 C   0  0  0  0  0  0  0  0  0  0  0  0
    9.5308    5.2096   26.0341 C   0  0  0  0  0  0  0  0  0  0  0  0
   10.6702    5.3305   26.8082 C   0  0  0  0  0  0  0  0  0  0  0  0
   10.5907    5.7018   28.0772 N   0  0  0  0  0  0  0  0  0  0  0  0
    8.2433    5.4155   26.3323 N   0  0  0  0  0  0  0  0  0  0  0  0
    7.5078    5.1590   25.2280 C   0  0  0  0  0  0  0  0  0  0  0  0
    8.3388    4.7843   24.2016 N   0  0  0  0  0  0  0  0  0  0  0  0
  2  1  1  6  0  0  0
  2  3  1  0  0  0  0
  2  5  1  0  0  0  0
  3  4  1  0  0  0  0
  3 17  1  0  0  0  0
  5  6  1  0  0  0  0
  7  6  1  6  0  0  0
  7  8  1  0  0  0  0
  7  9  1  0  0  0  0
 10  9  1  1  0  0  0
 10 11  1  0  0  0  0
 10 12  1  0  0  0  0
 11 16  1  0  0  0  0
 12 13  1  6  0  0  0
 12 14  1  0  0  0  0
 14 15  1  6  0  0  0
 14 16  1  0  0  0  0
 16 27  1  1  0  0  0
 18 19  2  0  0  0  0
 18 23  1  0  0  0  0
 19 20  1  0  0  0  0
 20 21  2  0  0  0  0
 21 22  1  0  0  0  0
 21 27  1  0  0  0  0
 22 23  2  0  0  0  0
 22 25  1  0  0  0  0
 23 24  1  0  0  0  0
 25 26  2  0  0  0  0
 26 27  1  0  0  0  0
M  END
>  <CHROM.1>
-16.63346399,-171.80727385,67.41112910,-175.28561381,-78.40740328,168.39153958
90.18448483,9.15695262,2.84792547,21.83642659,1.80852775,0.98510983,-2.29827894

>  <Name>
ligand

>  <RI>
0

>  <Rbt.Current_Directory>
/home/itssahil/PROJECTS/Mol_Feturizer/Test_systems_manuscript/rnas/2ydh

>  <Rbt.Executable>
rbdock ($Id: //depot/dev/client3/rdock/2013.1/src/exe/rbdock.cxx#4 $)

>  <Rbt.Library>
libRbt.so (2013.1, Build901 2013/11/27)

>  <Rbt.Parameter_File>
/export/apps/rDock/src/rDock_2013.1_src/data/scripts/dock_solv.prm

>  <Rbt.Receptor>
prm/blind_docking_100.prm

>  <SCORE>
-12.264

>  <SCORE.INTER>
-10.3129

>  <SCORE.INTER.CONST>
1

>  <SCORE.INTER.POLAR>
0

>  <SCORE.INTER.ROT>
7

>  <SCORE.INTER.SOLV>
6.798

>  <SCORE.INTER.VDW>
-17.408

>  <SCORE.INTER.norm>
-0.381961

>  <SCORE.INTRA>
-1.95102

>  <SCORE.INTRA.DIHEDRAL>
-5.07191

>  <SCORE.INTRA.DIHEDRAL.0>
9.75037

>  <SCORE.INTRA.POLAR>
0

>  <SCORE.INTRA.POLAR.0>
0

>  <SCORE.INTRA.REPUL>
0

>  <SCORE.INTRA.REPUL.0>
0

>  <SCORE.INTRA.SOLV>
-0.531553

>  <SCORE.INTRA.SOLV.lig_0>
-48.4279

>  <SCORE.INTRA.VDW>
0.850717

>  <SCORE.INTRA.VDW.0>
-4.69037

>  <SCORE.INTRA.norm>
-0.0722598

>  <SCORE.RESTR>
0

>  <SCORE.RESTR.CAVITY>
0

>  <SCORE.RESTR.norm>
0

>  <SCORE.SYSTEM>
0

>  <SCORE.SYSTEM.CONST>
0

>  <SCORE.SYSTEM.DIHEDRAL>
0

>  <SCORE.SYSTEM.SOLV>
0

>  <SCORE.SYSTEM.norm>
0

>  <SCORE.heavy>
27

>  <SCORE.norm>
-0.45422

>  <RMSD>
17.775

$$$$
ligand
 OpenBabel02271912153D
libRbt.so/2013.1/901 2013/11/27
 27 29  0  0  0  0  0  0  0  0999 V2000
    9.1713   -4.6925   22.7280 N   0  0  0  0  0  0  0  0  0  0  0  0
    8.1307   -3.8891   22.0151 C   0  0  2  0  0  0  0  0  0  0  0  0
    7.8967   -4.4260   20.5855 C   0  0  0  0  0  0  0  0  0  0  0  0
    7.5380   -3.6755   19.6730 O   0  0  0  0  0  0  0  0  0  0  0  0
    8.5362   -2.4190   22.0158 C   0  0  0  0  0  0  0  0  0  0  0  0
    8.7370   -1.8213   23.3984 C   0  0  0  0  0  0  0  0  0  0  0  0
    9.0860   -0.0397   23.3672 S   0  0  2  0  0  0  0  0  0  0  0  0
   10.5767    0.0300   24.4007 C   0  0  0  0  0  0  0  0  0  0  0  0
    7.8556    0.7415   24.4235 C   0  0  0  0  0  0  0  0  0  0  0  0
    8.1629    2.2232   24.5279 C   0  0  1  0  0  0  0  0  0  0  0  0
    8.5289    2.7923   23.2804 O   0  0  0  0  0  0  0  0  0  0  0  0
    6.9727    2.9994   25.0367 C   0  0  1  0  0  0  0  0  0  0  0  0
    6.9252    2.9892   26.4347 O   0  0  0  0  0  0  0  0  0  0  0  0
    7.2635    4.3655   24.4945 C   0  0  1  0  0  0  0  0  0  0  0  0
    8.0816    5.0651   25.4129 O   0  0  0  0  0  0  0  0  0  0  0  0
    8.0203    4.1037   23.1988 C   0  0  2  0  0  0  0  0  0  0  0  0
    8.0515   -5.6256   20.2914 O   0  0  0  0  0  0  0  0  0  0  0  0
    7.3436    5.9859   18.3143 N   0  0  0  0  0  0  0  0  0  0  0  0
    8.4547    6.1245   19.1334 C   0  0  0  0  0  0  0  0  0  0  0  0
    8.4721    5.5769   20.4106 N   0  0  0  0  0  0  0  0  0  0  0  0
    7.4016    4.8882   20.8464 C   0  0  0  0  0  0  0  0  0  0  0  0
    6.2823    4.7288   20.0246 C   0  0  0  0  0  0  0  0  0  0  0  0
    6.2428    5.2863   18.7599 C   0  0  0  0  0  0  0  0  0  0  0  0
    5.1754    5.1418   17.9889 N   0  0  0  0  0  0  0  0  0  0  0  0
    5.3788    4.0003   20.6894 N   0  0  0  0  0  0  0  0  0  0  0  0
    5.8926    3.6930   21.9009 C   0  0  0  0  0  0  0  0  0  0  0  0
    7.1500    4.2319   22.0146 N   0  0  0  0  0  0  0  0  0  0  0  0
  2  1  1  6  0  0  0
  2  3  1  0  0  0  0
  2  5  1  0  0  0  0
  3  4  1  0  0  0  0
  3 17  1  0  0  0  0
  5  6  1  0  0  0  0
  7  6  1  1  0  0  0
  7  8  1  0  0  0  0
  7  9  1  0  0  0  0
 10  9  1  6  0  0  0
 10 11  1  0  0  0  0
 10 12  1  0  0  0  0
 11 16  1  0  0  0  0
 12 13  1  1  0  0  0
 12 14  1  0  0  0  0
 14 15  1  1  0  0  0
 14 16  1  0  0  0  0
 16 27  1  6  0  0  0
 18 19  2  0  0  0  0
 18 23  1  0  0  0  0
 19 20  1  0  0  0  0
 20 21  2  0  0  0  0
 21 22  1  0  0  0  0
 21 27  1  0  0  0  0
 22 23  2  0  0  0  0
 22 25  1  0  0  0  0
 23 24  1  0  0  0  0
 25 26  2  0  0  0  0
 26 27  1  0  0  0  0
M  END
>  <CHROM.1>
-150.46938660,-58.19248917,-175.30412925,-129.01802942,175.48306206,42.56863713
-107.35315607,7.77493268,1.61323356,22.17629337,-0.87642569,-1.30789669,0.58000102

>  <Name>
ligand

>  <RI>
0

>  <Rbt.Current_Directory>
/home/itssahil/PROJECTS/Mol_Feturizer/Test_systems_manuscript/rnas/2ydh

>  <Rbt.Executable>
rbdock ($Id: //depot/dev/client3/rdock/2013.1/src/exe/rbdock.cxx#4 $)

>  <Rbt.Library>
libRbt.so (2013.1, Build901 2013/11/27)

>  <Rbt.Parameter_File>
/export/apps/rDock/src/rDock_2013.1_src/data/scripts/dock_solv.prm

>  <Rbt.Receptor>
prm/blind_docking_40.prm

>  <SCORE>
-6.36551

>  <SCORE.INTER>
-8.36662

>  <SCORE.INTER.CONST>
1

>  <SCORE.INTER.POLAR>
0

>  <SCORE.INTER.ROT>
7

>  <SCORE.INTER.SOLV>
15.9666

>  <SCORE.INTER.VDW>
-19.1666

>  <SCORE.INTER.norm>
-0.309875

>  <SCORE.INTRA>
2.0011

>  <SCORE.INTRA.DIHEDRAL>
-1.11999

>  <SCORE.INTRA.DIHEDRAL.0>
9.75037

>  <SCORE.INTRA.POLAR>
0

>  <SCORE.INTRA.POLAR.0>
0

>  <SCORE.INTRA.REPUL>
0

>  <SCORE.INTRA.REPUL.0>
0

>  <SCORE.INTRA.SOLV>
-0.808014

>  <SCORE.INTRA.SOLV.lig_0>
-48.4279

>  <SCORE.INTRA.VDW>
2.96511

>  <SCORE.INTRA.VDW.0>
-4.69037

>  <SCORE.INTRA.norm>
0.074115

>  <SCORE.RESTR>
0

>  <SCORE.RESTR.CAVITY>
0

>  <SCORE.RESTR.norm>
0

>  <SCORE.SYSTEM>
0

>  <SCORE.SYSTEM.CONST>
0

>  <SCORE.SYSTEM.DIHEDRAL>
0

>  <SCORE.SYSTEM.SOLV>
0

>  <SCORE.SYSTEM.norm>
0

>  <SCORE.heavy>
27

>  <SCORE.norm>
-0.23576

>  <RMSD>
17.793

$$$$
ligand
 OpenBabel02271912153D
libRbt.so/2013.1/901 2013/11/27
 27 29  0  0  0  0  0  0  0  0999 V2000
    2.8611  -15.9448    1.1442 N   0  0  0  0  0  0  0  0  0  0  0  0
    4.1395  -16.0813    1.9082 C   0  0  2  0  0  0  0  0  0  0  0  0
    4.8058  -17.4484    1.6371 C   0  0  0  0  0  0  0  0  0  0  0  0
    4.3552  -18.4867    2.1306 O   0  0  0  0  0  0  0  0  0  0  0  0
    3.8693  -15.8598    3.3926 C   0  0  0  0  0  0  0  0  0  0  0  0
    5.0439  -16.1809    4.3017 C   0  0  0  0  0  0  0  0  0  0  0  0
    5.8556  -14.7031    4.9758 S   0  0  2  0  0  0  0  0  0  0  0  0
    7.6007  -15.1824    4.8336 C   0  0  0  0  0  0  0  0  0  0  0  0
    5.5954  -14.7435    6.7564 C   0  0  0  0  0  0  0  0  0  0  0  0
    4.1367  -14.4489    7.0497 C   0  0  1  0  0  0  0  0  0  0  0  0
    3.2940  -14.7137    5.9388 O   0  0  0  0  0  0  0  0  0  0  0  0
    3.6262  -15.2805    8.2011 C   0  0  1  0  0  0  0  0  0  0  0  0
    3.9156  -14.6737    9.4277 O   0  0  0  0  0  0  0  0  0  0  0  0
    2.1552  -15.2986    7.9165 C   0  0  1  0  0  0  0  0  0  0  0  0
    1.5546  -14.1601    8.5043 O   0  0  0  0  0  0  0  0  0  0  0  0
    2.0640  -15.2249    6.3978 C   0  0  2  0  0  0  0  0  0  0  0  0
    5.8181  -17.5654    0.9222 O   0  0  0  0  0  0  0  0  0  0  0  0
   -1.3673  -18.5588    4.1684 N   0  0  0  0  0  0  0  0  0  0  0  0
   -1.6064  -17.2709    4.6253 C   0  0  0  0  0  0  0  0  0  0  0  0
   -0.5913  -16.5201    5.2061 N   0  0  0  0  0  0  0  0  0  0  0  0
    0.6424  -17.0473    5.3071 C   0  0  0  0  0  0  0  0  0  0  0  0
    0.8992  -18.3382    4.8365 C   0  0  0  0  0  0  0  0  0  0  0  0
   -0.1061  -19.1044    4.2759 C   0  0  0  0  0  0  0  0  0  0  0  0
    0.1397  -20.3313    3.8413 N   0  0  0  0  0  0  0  0  0  0  0  0
    2.1928  -18.6070    5.0447 N   0  0  0  0  0  0  0  0  0  0  0  0
    2.7599  -17.5278    5.6278 C   0  0  0  0  0  0  0  0  0  0  0  0
    1.8135  -16.5474    5.7943 N   0  0  0  0  0  0  0  0  0  0  0  0
  2  1  1  6  0  0  0
  2  3  1  0  0  0  0
  2  5  1  0  0  0  0
  3  4  1  0  0  0  0
  3 17  1  0  0  0  0
  5  6  1  0  0  0  0
  7  6  1  6  0  0  0
  7  8  1  0  0  0  0
  7  9  1  0  0  0  0
 10  9  1  6  0  0  0
 10 11  1  0  0  0  0
 10 12  1  0  0  0  0
 11 16  1  0  0  0  0
 12 13  1  1  0  0  0
 12 14  1  0  0  0  0
 14 15  1  1  0  0  0
 14 16  1  0  0  0  0
 16 27  1  6  0  0  0
 18 19  2  0  0  0  0
 18 23  1  0  0  0  0
 19 20  1  0  0  0  0
 20 21  2  0  0  0  0
 21 22  1  0  0  0  0
 21 27  1  0  0  0  0
 22 23  2  0  0  0  0
 22 25  1  0  0  0  0
 23 24  1  0  0  0  0
 25 26  2  0  0  0  0
 26 27  1  0  0  0  0
M  END
>  <CHROM.1>
-74.24769981,171.05024343,106.42460447,-138.75401092,-71.15699531,22.04973184
-138.87645758,3.01743181,-16.38708565,4.98077768,-2.57824629,0.39181421,1.06893815

>  <Name>
ligand

>  <RI>
0

>  <Rbt.Current_Directory>
/home/itssahil/PROJECTS/Mol_Feturizer/Test_systems_manuscript/rnas/2ydh

>  <Rbt.Executable>
rbdock ($Id: //depot/dev/client3/rdock/2013.1/src/exe/rbdock.cxx#4 $)

>  <Rbt.Library>
libRbt.so (2013.1, Build901 2013/11/27)

>  <Rbt.Parameter_File>
/export/apps/rDock/src/rDock_2013.1_src/data/scripts/dock_solv.prm

>  <Rbt.Receptor>
prm/blind_docking_20.prm

>  <SCORE>
2.79585

>  <SCORE.INTER>
-4.70285

>  <SCORE.INTER.CONST>
1

>  <SCORE.INTER.POLAR>
0

>  <SCORE.INTER.ROT>
7

>  <SCORE.INTER.SOLV>
17.2215

>  <SCORE.INTER.VDW>
-17.1424

>  <SCORE.INTER.norm>
-0.17418

>  <SCORE.INTRA>
5.3169

>  <SCORE.INTRA.DIHEDRAL>
6.262

>  <SCORE.INTRA.DIHEDRAL.0>
9.75037

>  <SCORE.INTRA.POLAR>
0

>  <SCORE.INTRA.POLAR.0>
0

>  <SCORE.INTRA.REPUL>
0

>  <SCORE.INTRA.REPUL.0>
0

>  <SCORE.INTRA.SOLV>
-1.24338

>  <SCORE.INTRA.SOLV.lig_0>
-48.4279

>  <SCORE.INTRA.VDW>
2.80759

>  <SCORE.INTRA.VDW.0>
-4.69037

>  <SCORE.INTRA.norm>
0.196922

>  <SCORE.RESTR>
2.18181

>  <SCORE.RESTR.CAVITY>
2.18181

>  <SCORE.RESTR.norm>
0.0808077

>  <SCORE.SYSTEM>
0

>  <SCORE.SYSTEM.CONST>
0

>  <SCORE.SYSTEM.DIHEDRAL>
0

>  <SCORE.SYSTEM.SOLV>
0

>  <SCORE.SYSTEM.norm>
0

>  <SCORE.heavy>
27

>  <SCORE.norm>
0.10355

>  <RMSD>
17.800

$$$$
ligand
 OpenBabel02271912153D
libRbt.so/2013.1/901 2013/11/27
 27 29  0  0  0  0  0  0  0  0999 V2000
    6.2754    4.3995   17.6297 N   0  0  0  0  0  0  0  0  0  0  0  0
    6.9198    4.4063   18.9793 C   0  0  2  0  0  0  0  0  0  0  0  0
    7.5983    5.7646   19.2644 C   0  0  0  0  0  0  0  0  0  0  0  0
    8.2616    5.9433   20.2904 O   0  0  0  0  0  0  0  0  0  0  0  0
    7.9014    3.2434   19.0784 C   0  0  0  0  0  0  0  0  0  0  0  0
    7.2518    1.8697   19.0900 C   0  0  0  0  0  0  0  0  0  0  0  0
    8.4325    0.5190   19.3704 S   0  0  2  0  0  0  0  0  0  0  0  0
    7.3090   -0.9060   19.4202 C   0  0  0  0  0  0  0  0  0  0  0  0
    8.9585    0.6470   21.0870 C   0  0  0  0  0  0  0  0  0  0  0  0
   10.1711    1.5547   21.1661 C   0  0  1  0  0  0  0  0  0  0  0  0
    9.8189    2.9250   21.2771 O   0  0  0  0  0  0  0  0  0  0  0  0
   11.0337    1.2210   22.3588 C   0  0  1  0  0  0  0  0  0  0  0  0
   11.9248    0.1845   22.0616 O   0  0  0  0  0  0  0  0  0  0  0  0
   11.7406    2.5235   22.5795 C   0  0  1  0  0  0  0  0  0  0  0  0
   12.9060    2.5610   21.7779 O   0  0  0  0  0  0  0  0  0  0  0  0
   10.7422    3.5774   22.1179 C   0  0  2  0  0  0  0  0  0  0  0  0
    7.5050    6.7316   18.4862 O   0  0  0  0  0  0  0  0  0  0  0  0
   11.0289    5.9541   26.8219 N   0  0  0  0  0  0  0  0  0  0  0  0
   12.0752    5.4923   26.0366 C   0  0  0  0  0  0  0  0  0  0  0  0
   11.8317    4.8702   24.8179 N   0  0  0  0  0  0  0  0  0  0  0  0
   10.5634    4.7335   24.3902 C   0  0  0  0  0  0  0  0  0  0  0  0
    9.5018    5.2084   25.1655 C   0  0  0  0  0  0  0  0  0  0  0  0
    9.7281    5.8102   26.3897 C   0  0  0  0  0  0  0  0  0  0  0  0
    8.7180    6.2488   27.1259 N   0  0  0  0  0  0  0  0  0  0  0  0
    8.3635    4.9600   24.5086 N   0  0  0  0  0  0  0  0  0  0  0  0
    8.6727    4.3473   23.3445 C   0  0  0  0  0  0  0  0  0  0  0  0
   10.0345    4.2024   23.2513 N   0  0  0  0  0  0  0  0  0  0  0  0
  2  1  1  6  0  0  0
  2  3  1  0  0  0  0
  2  5  1  0  0  0  0
  3  4  1  0  0  0  0
  3 17  1  0  0  0  0
  5  6  1  0  0  0  0
  7  6  1  1  0  0  0
  7  8  1  0  0  0  0
  7  9  1  0  0  0  0
 10  9  1  1  0  0  0
 10 11  1  0  0  0  0
 10 12  1  0  0  0  0
 11 16  1  0  0  0  0
 12 13  1  6  0  0  0
 12 14  1  0  0  0  0
 14 15  1  6  0  0  0
 14 16  1  0  0  0  0
 16 27  1  1  0  0  0
 18 19  2  0  0  0  0
 18 23  1  0  0  0  0
 19 20  1  0  0  0  0
 20 21  2  0  0  0  0
 21 22  1  0  0  0  0
 21 27  1  0  0  0  0
 22 23  2  0  0  0  0
 22 25  1  0  0  0  0
 23 24  1  0  0  0  0
 25 26  2  0  0  0  0
 26 27  1  0  0  0  0
M  END
>  <CHROM.1>
-175.20780067,-68.15235384,-174.40943783,176.69295416,-89.37288058,86.44009683
168.28082345,9.40164176,3.47354636,21.92226139,2.15518103,0.87188995,-2.47453203

>  <Name>
ligand

>  <RI>
0

>  <Rbt.Current_Directory>
/home/itssahil/PROJECTS/Mol_Feturizer/Test_systems_manuscript/rnas/2ydh

>  <Rbt.Executable>
rbdock ($Id: //depot/dev/client3/rdock/2013.1/src/exe/rbdock.cxx#4 $)

>  <Rbt.Library>
libRbt.so (2013.1, Build901 2013/11/27)

>  <Rbt.Parameter_File>
/export/apps/rDock/src/rDock_2013.1_src/data/scripts/dock_solv.prm

>  <Rbt.Receptor>
prm/blind_docking_60.prm

>  <SCORE>
-9.21774

>  <SCORE.INTER>
-8.99134

>  <SCORE.INTER.CONST>
1

>  <SCORE.INTER.POLAR>
0

>  <SCORE.INTER.ROT>
7

>  <SCORE.INTER.SOLV>
12.5168

>  <SCORE.INTER.VDW>
-18.4331

>  <SCORE.INTER.norm>
-0.333012

>  <SCORE.INTRA>
-0.226399

>  <SCORE.INTRA.DIHEDRAL>
-2.83965

>  <SCORE.INTRA.DIHEDRAL.0>
9.75037

>  <SCORE.INTRA.POLAR>
0

>  <SCORE.INTRA.POLAR.0>
0

>  <SCORE.INTRA.REPUL>
0

>  <SCORE.INTRA.REPUL.0>
0

>  <SCORE.INTRA.SOLV>
-0.734367

>  <SCORE.INTRA.SOLV.lig_0>
-48.4279

>  <SCORE.INTRA.VDW>
1.56061

>  <SCORE.INTRA.VDW.0>
-4.69037

>  <SCORE.INTRA.norm>
-0.00838516

>  <SCORE.RESTR>
0

>  <SCORE.RESTR.CAVITY>
0

>  <SCORE.RESTR.norm>
0

>  <SCORE.SYSTEM>
0

>  <SCORE.SYSTEM.CONST>
0

>  <SCORE.SYSTEM.DIHEDRAL>
0

>  <SCORE.SYSTEM.SOLV>
0

>  <SCORE.SYSTEM.norm>
0

>  <SCORE.heavy>
27

>  <SCORE.norm>
-0.341398

>  <RMSD>
17.874

$$$$
ligand
 OpenBabel02271912153D
libRbt.so/2013.1/901 2013/11/27
 27 29  0  0  0  0  0  0  0  0999 V2000
    5.0762  -19.7996    1.4433 N   0  0  0  0  0  0  0  0  0  0  0  0
    4.6880  -18.5962    2.2419 C   0  0  2  0  0  0  0  0  0  0  0  0
    3.1717  -18.5910    2.5379 C   0  0  0  0  0  0  0  0  0  0  0  0
    2.5117  -19.6340    2.5041 O   0  0  0  0  0  0  0  0  0  0  0  0
    5.1329  -17.3354    1.5083 C   0  0  0  0  0  0  0  0  0  0  0  0
    5.5958  -16.2082    2.4162 C   0  0  0  0  0  0  0  0  0  0  0  0
    4.3256  -15.6688    3.5964 S   0  0  2  0  0  0  0  0  0  0  0  0
    3.1731  -14.8142    2.4842 C   0  0  0  0  0  0  0  0  0  0  0  0
    5.0383  -14.3024    4.5264 C   0  0  0  0  0  0  0  0  0  0  0  0
    4.4063  -14.2596    5.9046 C   0  0  1  0  0  0  0  0  0  0  0  0
    2.9918  -14.1565    5.8517 O   0  0  0  0  0  0  0  0  0  0  0  0
    4.7305  -15.5011    6.6994 C   0  0  1  0  0  0  0  0  0  0  0  0
    5.9647  -15.3771    7.3459 O   0  0  0  0  0  0  0  0  0  0  0  0
    3.5888  -15.5313    7.6693 C   0  0  1  0  0  0  0  0  0  0  0  0
    3.9204  -14.7496    8.8012 O   0  0  0  0  0  0  0  0  0  0  0  0
    2.4300  -14.9013    6.9075 C   0  0  2  0  0  0  0  0  0  0  0  0
    2.5513  -17.5482    2.8153 O   0  0  0  0  0  0  0  0  0  0  0  0
   -1.5467  -16.0582    3.6354 N   0  0  0  0  0  0  0  0  0  0  0  0
   -0.9277  -14.8308    3.8219 C   0  0  0  0  0  0  0  0  0  0  0  0
    0.1055  -14.6850    4.7399 N   0  0  0  0  0  0  0  0  0  0  0  0
    0.5195  -15.7562    5.4409 C   0  0  0  0  0  0  0  0  0  0  0  0
   -0.0862  -17.0014    5.2508 C   0  0  0  0  0  0  0  0  0  0  0  0
   -1.1293  -17.1563    4.3564 C   0  0  0  0  0  0  0  0  0  0  0  0
   -1.7074  -18.3361    4.1876 N   0  0  0  0  0  0  0  0  0  0  0  0
    0.5186  -17.8848    6.0526 N   0  0  0  0  0  0  0  0  0  0  0  0
    1.4866  -17.2384    6.7390 C   0  0  0  0  0  0  0  0  0  0  0  0
    1.5053  -15.9166    6.3689 N   0  0  0  0  0  0  0  0  0  0  0  0
  2  1  1  6  0  0  0
  2  3  1  0  0  0  0
  2  5  1  0  0  0  0
  3  4  1  0  0  0  0
  3 17  1  0  0  0  0
  5  6  1  0  0  0  0
  7  6  1  6  0  0  0
  7  8  1  0  0  0  0
  7  9  1  0  0  0  0
 10  9  1  6  0  0  0
 10 11  1  0  0  0  0
 10 12  1  0  0  0  0
 11 16  1  0  0  0  0
 12 13  1  1  0  0  0
 12 14  1  0  0  0  0
 14 15  1  1  0  0  0
 14 16  1  0  0  0  0
 16 27  1  6  0  0  0
 18 19  2  0  0  0  0
 18 23  1  0  0  0  0
 19 20  1  0  0  0  0
 20 21  2  0  0  0  0
 21 22  1  0  0  0  0
 21 27  1  0  0  0  0
 22 23  2  0  0  0  0
 22 25  1  0  0  0  0
 23 24  1  0  0  0  0
 25 26  2  0  0  0  0
 26 27  1  0  0  0  0
M  END
>  <CHROM.1>
21.87284937,-144.53384537,-58.61515711,-71.67675144,-151.65630325,-56.36524848
-47.80631088,2.67619484,-16.32171582,4.60983945,0.32661711,-0.12988926,-2.17287786

>  <Name>
ligand

>  <RI>
0

>  <Rbt.Current_Directory>
/home/itssahil/PROJECTS/Mol_Feturizer/Test_systems_manuscript/rnas/2ydh

>  <Rbt.Executable>
rbdock ($Id: //depot/dev/client3/rdock/2013.1/src/exe/rbdock.cxx#4 $)

>  <Rbt.Library>
libRbt.so (2013.1, Build901 2013/11/27)

>  <Rbt.Parameter_File>
/export/apps/rDock/src/rDock_2013.1_src/data/scripts/dock_solv.prm

>  <Rbt.Receptor>
prm/blind_docking_20.prm

>  <SCORE>
5.07697

>  <SCORE.INTER>
1.21974

>  <SCORE.INTER.CONST>
1

>  <SCORE.INTER.POLAR>
0

>  <SCORE.INTER.ROT>
7

>  <SCORE.INTER.SOLV>
16.6706

>  <SCORE.INTER.VDW>
-13.0104

>  <SCORE.INTER.norm>
0.0451756

>  <SCORE.INTRA>
1.99098

>  <SCORE.INTRA.DIHEDRAL>
-0.0439053

>  <SCORE.INTRA.DIHEDRAL.0>
9.75037

>  <SCORE.INTRA.POLAR>
0

>  <SCORE.INTRA.POLAR.0>
0

>  <SCORE.INTRA.REPUL>
0

>  <SCORE.INTRA.REPUL.0>
0

>  <SCORE.INTRA.SOLV>
-1.10328

>  <SCORE.INTRA.SOLV.lig_0>
-48.4279

>  <SCORE.INTRA.VDW>
2.56458

>  <SCORE.INTRA.VDW.0>
-4.69037

>  <SCORE.INTRA.norm>
0.0737402

>  <SCORE.RESTR>
1.86625

>  <SCORE.RESTR.CAVITY>
1.86625

>  <SCORE.RESTR.norm>
0.0691203

>  <SCORE.SYSTEM>
0

>  <SCORE.SYSTEM.CONST>
0

>  <SCORE.SYSTEM.DIHEDRAL>
0

>  <SCORE.SYSTEM.SOLV>
0

>  <SCORE.SYSTEM.norm>
0

>  <SCORE.heavy>
27

>  <SCORE.norm>
0.188036

>  <RMSD>
17.880

$$$$
ligand
 OpenBabel02271912153D
libRbt.so/2013.1/901 2013/11/27
 27 29  0  0  0  0  0  0  0  0999 V2000
    9.3913    4.7492   27.3745 N   0  0  0  0  0  0  0  0  0  0  0  0
   10.6503    4.4865   26.6112 C   0  0  2  0  0  0  0  0  0  0  0  0
   11.5506    5.7414   26.5752 C   0  0  0  0  0  0  0  0  0  0  0  0
   11.2644    6.7507   27.2265 O   0  0  0  0  0  0  0  0  0  0  0  0
   10.3010    3.9915   25.2117 C   0  0  0  0  0  0  0  0  0  0  0  0
   11.4897    3.5016   24.4017 C   0  0  0  0  0  0  0  0  0  0  0  0
   11.0139    2.5298   22.9435 S   0  0  2  0  0  0  0  0  0  0  0  0
   12.6428    2.1935   22.2162 C   0  0  0  0  0  0  0  0  0  0  0  0
   10.3046    3.6900   21.7643 C   0  0  0  0  0  0  0  0  0  0  0  0
    8.9358    4.1202   22.2563 C   0  0  1  0  0  0  0  0  0  0  0  0
    8.3688    5.1477   21.4582 O   0  0  0  0  0  0  0  0  0  0  0  0
    7.9609    2.9681   22.2535 C   0  0  1  0  0  0  0  0  0  0  0  0
    8.0634    2.2188   23.4302 O   0  0  0  0  0  0  0  0  0  0  0  0
    6.6534    3.6942   22.1620 C   0  0  1  0  0  0  0  0  0  0  0  0
    6.2163    4.0292   23.4654 O   0  0  0  0  0  0  0  0  0  0  0  0
    6.9762    4.9536   21.3681 C   0  0  2  0  0  0  0  0  0  0  0  0
   12.5902    5.7954   25.8928 O   0  0  0  0  0  0  0  0  0  0  0  0
    7.5603    2.4856   16.7392 N   0  0  0  0  0  0  0  0  0  0  0  0
    8.2181    2.2237   17.9322 C   0  0  0  0  0  0  0  0  0  0  0  0
    7.9604    2.9795   19.0697 N   0  0  0  0  0  0  0  0  0  0  0  0
    7.0461    3.9649   19.0124 C   0  0  0  0  0  0  0  0  0  0  0  0
    6.3658    4.2282   17.8202 C   0  0  0  0  0  0  0  0  0  0  0  0
    6.6275    3.4984   16.6753 C   0  0  0  0  0  0  0  0  0  0  0  0
    5.9881    3.7589   15.5449 N   0  0  0  0  0  0  0  0  0  0  0  0
    5.5144    5.2359   18.0411 N   0  0  0  0  0  0  0  0  0  0  0  0
    5.6336    5.6139   19.3330 C   0  0  0  0  0  0  0  0  0  0  0  0
    6.5767    4.8327   19.9533 N   0  0  0  0  0  0  0  0  0  0  0  0
  2  1  1  6  0  0  0
  2  3  1  0  0  0  0
  2  5  1  0  0  0  0
  3  4  1  0  0  0  0
  3 17  1  0  0  0  0
  5  6  1  0  0  0  0
  7  6  1  1  0  0  0
  7  8  1  0  0  0  0
  7  9  1  0  0  0  0
 10  9  1  6  0  0  0
 10 11  1  0  0  0  0
 10 12  1  0  0  0  0
 11 16  1  0  0  0  0
 12 13  1  1  0  0  0
 12 14  1  0  0  0  0
 14 15  1  1  0  0  0
 14 16  1  0  0  0  0
 16 27  1  6  0  0  0
 18 19  2  0  0  0  0
 18 23  1  0  0  0  0
 19 20  1  0  0  0  0
 20 21  2  0  0  0  0
 21 22  1  0  0  0  0
 21 27  1  0  0  0  0
 22 23  2  0  0  0  0
 22 25  1  0  0  0  0
 23 24  1  0  0  0  0
 25 26  2  0  0  0  0
 26 27  1  0  0  0  0
M  END
>  <CHROM.1>
6.50873316,-171.74710697,164.84051111,177.73183466,-72.76661703,173.52358350
55.28998905,8.76455127,3.98990764,21.90543211,0.99007069,-0.47350336,1.17114038

>  <Name>
ligand

>  <RI>
0

>  <Rbt.Current_Directory>
/home/itssahil/PROJECTS/Mol_Feturizer/Test_systems_manuscript/rnas/2ydh

>  <Rbt.Executable>
rbdock ($Id: //depot/dev/client3/rdock/2013.1/src/exe/rbdock.cxx#4 $)

>  <Rbt.Library>
libRbt.so (2013.1, Build901 2013/11/27)

>  <Rbt.Parameter_File>
/export/apps/rDock/src/rDock_2013.1_src/data/scripts/dock_solv.prm

>  <Rbt.Receptor>
prm/blind_docking_40.prm

>  <SCORE>
-12.3597

>  <SCORE.INTER>
-10.6562

>  <SCORE.INTER.CONST>
1

>  <SCORE.INTER.POLAR>
0

>  <SCORE.INTER.ROT>
7

>  <SCORE.INTER.SOLV>
5.59575

>  <SCORE.INTER.VDW>
-17.236

>  <SCORE.INTER.norm>
-0.394673

>  <SCORE.INTRA>
-1.70352

>  <SCORE.INTRA.DIHEDRAL>
-5.35227

>  <SCORE.INTRA.DIHEDRAL.0>
9.75037

>  <SCORE.INTRA.POLAR>
0

>  <SCORE.INTRA.POLAR.0>
0

>  <SCORE.INTRA.REPUL>
0

>  <SCORE.INTRA.REPUL.0>
0

>  <SCORE.INTRA.SOLV>
-1.0113

>  <SCORE.INTRA.SOLV.lig_0>
-48.4279

>  <SCORE.INTRA.VDW>
1.47826

>  <SCORE.INTRA.VDW.0>
-4.69037

>  <SCORE.INTRA.norm>
-0.0630934

>  <SCORE.RESTR>
0

>  <SCORE.RESTR.CAVITY>
0

>  <SCORE.RESTR.norm>
0

>  <SCORE.SYSTEM>
0

>  <SCORE.SYSTEM.CONST>
0

>  <SCORE.SYSTEM.DIHEDRAL>
0

>  <SCORE.SYSTEM.SOLV>
0

>  <SCORE.SYSTEM.norm>
0

>  <SCORE.heavy>
27

>  <SCORE.norm>
-0.457767

>  <RMSD>
17.907

$$$$
ligand
 OpenBabel02271912153D
libRbt.so/2013.1/901 2013/11/27
 27 29  0  0  0  0  0  0  0  0999 V2000
    6.5880   -2.4647   17.6326 N   0  0  0  0  0  0  0  0  0  0  0  0
    7.1784   -1.1073   17.8463 C   0  0  2  0  0  0  0  0  0  0  0  0
    8.0894   -0.7052   16.6651 C   0  0  0  0  0  0  0  0  0  0  0  0
    9.0323   -1.4211   16.3144 O   0  0  0  0  0  0  0  0  0  0  0  0
    7.9216   -1.0813   19.1777 C   0  0  0  0  0  0  0  0  0  0  0  0
    8.4691    0.2817   19.5672 C   0  0  0  0  0  0  0  0  0  0  0  0
    9.6644    0.2123   20.9322 S   0  0  2  0  0  0  0  0  0  0  0  0
    8.5903   -0.3234   22.2941 C   0  0  0  0  0  0  0  0  0  0  0  0
   10.0262    1.9170   21.3830 C   0  0  0  0  0  0  0  0  0  0  0  0
   11.3384    1.9596   22.1426 C   0  0  1  0  0  0  0  0  0  0  0  0
   11.6947    3.2747   22.5399 O   0  0  0  0  0  0  0  0  0  0  0  0
   11.2789    1.1194   23.3950 C   0  0  1  0  0  0  0  0  0  0  0  0
   11.5718   -0.2199   23.1172 O   0  0  0  0  0  0  0  0  0  0  0  0
   12.3425    1.7657   24.2292 C   0  0  1  0  0  0  0  0  0  0  0  0
   13.5930    1.1783   23.9237 O   0  0  0  0  0  0  0  0  0  0  0  0
   12.3215    3.2274   23.8008 C   0  0  2  0  0  0  0  0  0  0  0  0
    7.9212    0.3480   16.0234 O   0  0  0  0  0  0  0  0  0  0  0  0
   12.4809    6.4551   27.9740 N   0  0  0  0  0  0  0  0  0  0  0  0
   13.5448    5.8280   27.3419 C   0  0  0  0  0  0  0  0  0  0  0  0
   13.3344    4.9894   26.2539 N   0  0  0  0  0  0  0  0  0  0  0  0
   12.0818    4.8015   25.7999 C   0  0  0  0  0  0  0  0  0  0  0  0
   11.0034    5.4398   26.4189 C   0  0  0  0  0  0  0  0  0  0  0  0
   11.1958    6.2600   27.5154 C   0  0  0  0  0  0  0  0  0  0  0  0
   10.1694    6.8540   28.1054 N   0  0  0  0  0  0  0  0  0  0  0  0
    9.8869    5.0955   25.7678 N   0  0  0  0  0  0  0  0  0  0  0  0
   10.2264    4.2641   24.7579 C   0  0  0  0  0  0  0  0  0  0  0  0
   11.5858    4.0738   24.7592 N   0  0  0  0  0  0  0  0  0  0  0  0
  2  1  1  6  0  0  0
  2  3  1  0  0  0  0
  2  5  1  0  0  0  0
  3  4  1  0  0  0  0
  3 17  1  0  0  0  0
  5  6  1  0  0  0  0
  7  6  1  6  0  0  0
  7  8  1  0  0  0  0
  7  9  1  0  0  0  0
 10  9  1  1  0  0  0
 10 11  1  0  0  0  0
 10 12  1  0  0  0  0
 11 16  1  0  0  0  0
 12 13  1  6  0  0  0
 12 14  1  0  0  0  0
 14 15  1  6  0  0  0
 14 16  1  0  0  0  0
 16 27  1  1  0  0  0
 18 19  2  0  0  0  0
 18 23  1  0  0  0  0
 19 20  1  0  0  0  0
 20 21  2  0  0  0  0
 21 22  1  0  0  0  0
 21 27  1  0  0  0  0
 22 23  2  0  0  0  0
 22 25  1  0  0  0  0
 23 24  1  0  0  0  0
 25 26  2  0  0  0  0
 26 27  1  0  0  0  0
M  END
>  <CHROM.1>
-55.61631672,-175.07504308,-166.44234945,-66.55098602,-160.09986038,-179.80613637
-146.65814907,10.42852634,2.10055312,22.59974130,1.95039552,0.45705479,-2.36741086

>  <Name>
ligand

>  <RI>
0

>  <Rbt.Current_Directory>
/home/itssahil/PROJECTS/Mol_Feturizer/Test_systems_manuscript/rnas/2ydh

>  <Rbt.Executable>
rbdock ($Id: //depot/dev/client3/rdock/2013.1/src/exe/rbdock.cxx#4 $)

>  <Rbt.Library>
libRbt.so (2013.1, Build901 2013/11/27)

>  <Rbt.Parameter_File>
/export/apps/rDock/src/rDock_2013.1_src/data/scripts/dock_solv.prm

>  <Rbt.Receptor>
prm/blind_docking_40.prm

>  <SCORE>
-12.7749

>  <SCORE.INTER>
-13.1933

>  <SCORE.INTER.CONST>
1

>  <SCORE.INTER.POLAR>
0

>  <SCORE.INTER.ROT>
7

>  <SCORE.INTER.SOLV>
10.5726

>  <SCORE.INTER.VDW>
-20.5864

>  <SCORE.INTER.norm>
-0.488641

>  <SCORE.INTRA>
0.418354

>  <SCORE.INTRA.DIHEDRAL>
-4.08971

>  <SCORE.INTRA.DIHEDRAL.0>
9.75037

>  <SCORE.INTRA.POLAR>
0

>  <SCORE.INTRA.POLAR.0>
0

>  <SCORE.INTRA.REPUL>
0

>  <SCORE.INTRA.REPUL.0>
0

>  <SCORE.INTRA.SOLV>
-1.20077

>  <SCORE.INTRA.SOLV.lig_0>
-48.4279

>  <SCORE.INTRA.VDW>
3.06359

>  <SCORE.INTRA.VDW.0>
-4.69037

>  <SCORE.INTRA.norm>
0.0154946

>  <SCORE.RESTR>
0

>  <SCORE.RESTR.CAVITY>
0

>  <SCORE.RESTR.norm>
0

>  <SCORE.SYSTEM>
0

>  <SCORE.SYSTEM.CONST>
0

>  <SCORE.SYSTEM.DIHEDRAL>
0

>  <SCORE.SYSTEM.SOLV>
0

>  <SCORE.SYSTEM.norm>
0

>  <SCORE.heavy>
27

>  <SCORE.norm>
-0.473146

>  <RMSD>
17.932

$$$$
ligand
 OpenBabel02271912153D
libRbt.so/2013.1/901 2013/11/27
 27 29  0  0  0  0  0  0  0  0999 V2000
   10.9655    3.7274   27.8597 N   0  0  0  0  0  0  0  0  0  0  0  0
   11.4733    4.2657   26.5600 C   0  0  2  0  0  0  0  0  0  0  0  0
   11.9632    5.7226   26.7153 C   0  0  0  0  0  0  0  0  0  0  0  0
   11.4754    6.4723   27.5666 O   0  0  0  0  0  0  0  0  0  0  0  0
   10.3863    4.1367   25.4982 C   0  0  0  0  0  0  0  0  0  0  0  0
    9.8740    2.7214   25.2896 C   0  0  0  0  0  0  0  0  0  0  0  0
    8.5198    2.6179   24.0844 S   0  0  2  0  0  0  0  0  0  0  0  0
    7.1994    3.4773   24.9862 C   0  0  0  0  0  0  0  0  0  0  0  0
    7.9450    0.9123   24.1053 C   0  0  0  0  0  0  0  0  0  0  0  0
    8.9645    0.0384   23.3999 C   0  0  1  0  0  0  0  0  0  0  0  0
    8.5851   -1.3289   23.3754 O   0  0  0  0  0  0  0  0  0  0  0  0
    9.1631    0.4686   21.9669 C   0  0  1  0  0  0  0  0  0  0  0  0
   10.1011    1.5024   21.8770 O   0  0  0  0  0  0  0  0  0  0  0  0
    9.6653   -0.8008   21.3494 C   0  0  1  0  0  0  0  0  0  0  0  0
   11.0708   -0.8657   21.4993 O   0  0  0  0  0  0  0  0  0  0  0  0
    8.9920   -1.9042   22.1554 C   0  0  2  0  0  0  0  0  0  0  0  0
   12.8570    6.2045   25.9954 O   0  0  0  0  0  0  0  0  0  0  0  0
    4.5834   -4.7969   22.3910 N   0  0  0  0  0  0  0  0  0  0  0  0
    5.4604   -4.4965   23.4232 C   0  0  0  0  0  0  0  0  0  0  0  0
    6.5948   -3.7270   23.1942 N   0  0  0  0  0  0  0  0  0  0  0  0
    6.8308   -3.2539   21.9570 C   0  0  0  0  0  0  0  0  0  0  0  0
    5.9465   -3.5371   20.9122 C   0  0  0  0  0  0  0  0  0  0  0  0
    4.8254   -4.3190   21.1210 C   0  0  0  0  0  0  0  0  0  0  0  0
    3.9961   -4.5938   20.1253 N   0  0  0  0  0  0  0  0  0  0  0  0
    6.4050   -2.9409   19.8062 N   0  0  0  0  0  0  0  0  0  0  0  0
    7.5467   -2.2894   20.1199 C   0  0  0  0  0  0  0  0  0  0  0  0
    7.8244   -2.4684   21.4523 N   0  0  0  0  0  0  0  0  0  0  0  0
  2  1  1  1  0  0  0
  2  3  1  0  0  0  0
  2  5  1  0  0  0  0
  3  4  1  0  0  0  0
  3 17  1  0  0  0  0
  5  6  1  0  0  0  0
  7  6  1  1  0  0  0
  7  8  1  0  0  0  0
  7  9  1  0  0  0  0
 10  9  1  6  0  0  0
 10 11  1  0  0  0  0
 10 12  1  0  0  0  0
 11 16  1  0  0  0  0
 12 13  1  1  0  0  0
 12 14  1  0  0  0  0
 14 15  1  1  0  0  0
 14 16  1  0  0  0  0
 16 27  1  6  0  0  0
 18 19  2  0  0  0  0
 18 23  1  0  0  0  0
 19 20  1  0  0  0  0
 20 21  2  0  0  0  0
 21 22  1  0  0  0  0
 21 27  1  0  0  0  0
 22 23  2  0  0  0  0
 22 25  1  0  0  0  0
 23 24  1  0  0  0  0
 25 26  2  0  0  0  0
 26 27  1  0  0  0  0
M  END
>  <CHROM.1>
-28.72496747,-56.92882657,176.88164908,-68.04366474,-73.83154877,179.88238909
-46.54491735,8.57505491,0.28272307,23.38027196,0.99969706,0.56557093,0.85186084

>  <Name>
ligand

>  <RI>
0

>  <Rbt.Current_Directory>
/home/itssahil/PROJECTS/Mol_Feturizer/Test_systems_manuscript/rnas/2ydh

>  <Rbt.Executable>
rbdock ($Id: //depot/dev/client3/rdock/2013.1/src/exe/rbdock.cxx#4 $)

>  <Rbt.Library>
libRbt.so (2013.1, Build901 2013/11/27)

>  <Rbt.Parameter_File>
/export/apps/rDock/src/rDock_2013.1_src/data/scripts/dock_solv.prm

>  <Rbt.Receptor>
prm/blind_docking_40.prm

>  <SCORE>
-11.8357

>  <SCORE.INTER>
-11.412

>  <SCORE.INTER.CONST>
1

>  <SCORE.INTER.POLAR>
0

>  <SCORE.INTER.ROT>
7

>  <SCORE.INTER.SOLV>
6.80593

>  <SCORE.INTER.VDW>
-18.1433

>  <SCORE.INTER.norm>
-0.422666

>  <SCORE.INTRA>
-0.423711

>  <SCORE.INTRA.DIHEDRAL>
-6.56051

>  <SCORE.INTRA.DIHEDRAL.0>
9.75037

>  <SCORE.INTRA.POLAR>
0

>  <SCORE.INTRA.POLAR.0>
0

>  <SCORE.INTRA.REPUL>
0

>  <SCORE.INTRA.REPUL.0>
0

>  <SCORE.INTRA.SOLV>
-0.448654

>  <SCORE.INTRA.SOLV.lig_0>
-48.4279

>  <SCORE.INTRA.VDW>
3.08087

>  <SCORE.INTRA.VDW.0>
-4.69037

>  <SCORE.INTRA.norm>
-0.015693

>  <SCORE.RESTR>
0

>  <SCORE.RESTR.CAVITY>
0

>  <SCORE.RESTR.norm>
0

>  <SCORE.SYSTEM>
0

>  <SCORE.SYSTEM.CONST>
0

>  <SCORE.SYSTEM.DIHEDRAL>
0

>  <SCORE.SYSTEM.SOLV>
0

>  <SCORE.SYSTEM.norm>
0

>  <SCORE.heavy>
27

>  <SCORE.norm>
-0.438359

>  <RMSD>
17.938

$$$$
ligand
 OpenBabel02271912153D
libRbt.so/2013.1/901 2013/11/27
 27 29  0  0  0  0  0  0  0  0999 V2000
    2.4598  -15.9778    1.0480 N   0  0  0  0  0  0  0  0  0  0  0  0
    3.6223  -16.7166    1.6305 C   0  0  2  0  0  0  0  0  0  0  0  0
    3.1970  -18.1138    2.1341 C   0  0  0  0  0  0  0  0  0  0  0  0
    3.8531  -18.7087    2.9945 O   0  0  0  0  0  0  0  0  0  0  0  0
    4.2545  -15.8772    2.7356 C   0  0  0  0  0  0  0  0  0  0  0  0
    5.5773  -16.4142    3.2564 C   0  0  0  0  0  0  0  0  0  0  0  0
    6.3486  -15.3403    4.5008 S   0  0  2  0  0  0  0  0  0  0  0  0
    8.0468  -15.9821    4.4940 C   0  0  0  0  0  0  0  0  0  0  0  0
    5.7408  -15.8938    6.1021 C   0  0  0  0  0  0  0  0  0  0  0  0
    4.5125  -15.0842    6.4714 C   0  0  1  0  0  0  0  0  0  0  0  0
    3.5514  -15.0469    5.4278 O   0  0  0  0  0  0  0  0  0  0  0  0
    3.8231  -15.6509    7.6885 C   0  0  1  0  0  0  0  0  0  0  0  0
    4.4017  -15.1666    8.8663 O   0  0  0  0  0  0  0  0  0  0  0  0
    2.4279  -15.1396    7.4965 C   0  0  1  0  0  0  0  0  0  0  0  0
    2.3235  -13.8494    8.0683 O   0  0  0  0  0  0  0  0  0  0  0  0
    2.2573  -15.0678    5.9846 C   0  0  2  0  0  0  0  0  0  0  0  0
    2.1893  -18.7002    1.6981 O   0  0  0  0  0  0  0  0  0  0  0  0
   -2.0494  -18.1075    6.2508 N   0  0  0  0  0  0  0  0  0  0  0  0
   -1.7359  -17.0054    7.0330 C   0  0  0  0  0  0  0  0  0  0  0  0
   -0.5451  -16.3136    6.8462 N   0  0  0  0  0  0  0  0  0  0  0  0
    0.3027  -16.7110    5.8800 C   0  0  0  0  0  0  0  0  0  0  0  0
   -0.0092  -17.8106    5.0755 C   0  0  0  0  0  0  0  0  0  0  0  0
   -1.1804  -18.5211    5.2642 C   0  0  0  0  0  0  0  0  0  0  0  0
   -1.4664  -19.5692    4.5064 N   0  0  0  0  0  0  0  0  0  0  0  0
    0.9855  -17.9788    4.1974 N   0  0  0  0  0  0  0  0  0  0  0  0
    1.9119  -17.0204    4.4199 C   0  0  0  0  0  0  0  0  0  0  0  0
    1.5028  -16.2208    5.4580 N   0  0  0  0  0  0  0  0  0  0  0  0
  2  1  1  1  0  0  0
  2  3  1  0  0  0  0
  2  5  1  0  0  0  0
  3  4  1  0  0  0  0
  3 17  1  0  0  0  0
  5  6  1  0  0  0  0
  7  6  1  6  0  0  0
  7  8  1  0  0  0  0
  7  9  1  0  0  0  0
 10  9  1  6  0  0  0
 10 11  1  0  0  0  0
 10 12  1  0  0  0  0
 11 16  1  0  0  0  0
 12 13  1  1  0  0  0
 12 14  1  0  0  0  0
 14 15  1  1  0  0  0
 14 16  1  0  0  0  0
 16 27  1  6  0  0  0
 18 19  2  0  0  0  0
 18 23  1  0  0  0  0
 19 20  1  0  0  0  0
 20 21  2  0  0  0  0
 21 22  1  0  0  0  0
 21 27  1  0  0  0  0
 22 23  2  0  0  0  0
 22 25  1  0  0  0  0
 23 24  1  0  0  0  0
 25 26  2  0  0  0  0
 26 27  1  0  0  0  0
M  END
>  <CHROM.1>
-157.22602994,-170.64815423,176.62757080,-163.30646377,-92.89670512,50.23376559
169.53293873,2.72306039,-16.50962888,4.99509263,-0.01398697,-0.32773723,-2.02296755

>  <Name>
ligand

>  <RI>
0

>  <Rbt.Current_Directory>
/home/itssahil/PROJECTS/Mol_Feturizer/Test_systems_manuscript/rnas/2ydh

>  <Rbt.Executable>
rbdock ($Id: //depot/dev/client3/rdock/2013.1/src/exe/rbdock.cxx#4 $)

>  <Rbt.Library>
libRbt.so (2013.1, Build901 2013/11/27)

>  <Rbt.Parameter_File>
/export/apps/rDock/src/rDock_2013.1_src/data/scripts/dock_solv.prm

>  <Rbt.Receptor>
prm/blind_docking_20.prm

>  <SCORE>
-1.51905

>  <SCORE.INTER>
-2.40053

>  <SCORE.INTER.CONST>
1

>  <SCORE.INTER.POLAR>
0

>  <SCORE.INTER.ROT>
7

>  <SCORE.INTER.SOLV>
15.2429

>  <SCORE.INTER.VDW>
-14.948

>  <SCORE.INTER.norm>
-0.0889087

>  <SCORE.INTRA>
-0.38316

>  <SCORE.INTRA.DIHEDRAL>
-2.82961

>  <SCORE.INTRA.DIHEDRAL.0>
9.75037

>  <SCORE.INTRA.POLAR>
0

>  <SCORE.INTRA.POLAR.0>
0

>  <SCORE.INTRA.REPUL>
0

>  <SCORE.INTRA.REPUL.0>
0

>  <SCORE.INTRA.SOLV>
-1.05054

>  <SCORE.INTRA.SOLV.lig_0>
-48.4279

>  <SCORE.INTRA.VDW>
1.55692

>  <SCORE.INTRA.VDW.0>
-4.69037

>  <SCORE.INTRA.norm>
-0.0141911

>  <SCORE.RESTR>
1.26465

>  <SCORE.RESTR.CAVITY>
1.26465

>  <SCORE.RESTR.norm>
0.0468388

>  <SCORE.SYSTEM>
0

>  <SCORE.SYSTEM.CONST>
0

>  <SCORE.SYSTEM.DIHEDRAL>
0

>  <SCORE.SYSTEM.SOLV>
0

>  <SCORE.SYSTEM.norm>
0

>  <SCORE.heavy>
27

>  <SCORE.norm>
-0.056261

>  <RMSD>
18.026

$$$$
ligand
 OpenBabel02271912153D
libRbt.so/2013.1/901 2013/11/27
 27 29  0  0  0  0  0  0  0  0999 V2000
    8.1070   -5.5134   24.2357 N   0  0  0  0  0  0  0  0  0  0  0  0
    8.6548   -5.2837   22.8631 C   0  0  2  0  0  0  0  0  0  0  0  0
   10.1869   -5.4800   22.8360 C   0  0  0  0  0  0  0  0  0  0  0  0
   10.8032   -5.8287   23.8475 O   0  0  0  0  0  0  0  0  0  0  0  0
    8.2462   -3.8963   22.3796 C   0  0  0  0  0  0  0  0  0  0  0  0
    8.7974   -2.7511   23.2125 C   0  0  0  0  0  0  0  0  0  0  0  0
    8.7969   -1.1605   22.3367 S   0  0  2  0  0  0  0  0  0  0  0  0
    9.7234   -1.6001   20.8387 C   0  0  0  0  0  0  0  0  0  0  0  0
    9.9618   -0.0977   23.2046 C   0  0  0  0  0  0  0  0  0  0  0  0
   10.1403    1.1865   22.4176 C   0  0  1  0  0  0  0  0  0  0  0  0
    9.1284    2.1415   22.6976 O   0  0  0  0  0  0  0  0  0  0  0  0
   11.4648    1.8421   22.7237 C   0  0  1  0  0  0  0  0  0  0  0  0
   12.4866    1.3061   21.9330 O   0  0  0  0  0  0  0  0  0  0  0  0
   11.1713    3.2685   22.3712 C   0  0  1  0  0  0  0  0  0  0  0  0
   11.4196    3.4665   20.9923 O   0  0  0  0  0  0  0  0  0  0  0  0
    9.6878    3.4343   22.6747 C   0  0  2  0  0  0  0  0  0  0  0  0
   10.8638   -5.2931   21.8083 O   0  0  0  0  0  0  0  0  0  0  0  0
    9.6508    3.1103   27.9427 N   0  0  0  0  0  0  0  0  0  0  0  0
    9.9728    2.1153   27.0311 C   0  0  0  0  0  0  0  0  0  0  0  0
    9.9200    2.3567   25.6635 N   0  0  0  0  0  0  0  0  0  0  0  0
    9.5694    3.5789   25.2236 C   0  0  0  0  0  0  0  0  0  0  0  0
    9.2575    4.5938   26.1326 C   0  0  0  0  0  0  0  0  0  0  0  0
    9.2852    4.3617   27.4955 C   0  0  0  0  0  0  0  0  0  0  0  0
    8.9782    5.3236   28.3528 N   0  0  0  0  0  0  0  0  0  0  0  0
    8.9607    5.6975   25.4378 N   0  0  0  0  0  0  0  0  0  0  0  0
    9.0780    5.4126   24.1221 C   0  0  0  0  0  0  0  0  0  0  0  0
    9.4599    4.1029   23.9697 N   0  0  0  0  0  0  0  0  0  0  0  0
  2  1  1  1  0  0  0
  2  3  1  0  0  0  0
  2  5  1  0  0  0  0
  3  4  1  0  0  0  0
  3 17  1  0  0  0  0
  5  6  1  0  0  0  0
  7  6  1  1  0  0  0
  7  8  1  0  0  0  0
  7  9  1  0  0  0  0
 10  9  1  1  0  0  0
 10 11  1  0  0  0  0
 10 12  1  0  0  0  0
 11 16  1  0  0  0  0
 12 13  1  6  0  0  0
 12 14  1  0  0  0  0
 14 15  1  6  0  0  0
 14 16  1  0  0  0  0
 16 27  1  1  0  0  0
 18 19  2  0  0  0  0
 18 23  1  0  0  0  0
 19 20  1  0  0  0  0
 20 21  2  0  0  0  0
 21 22  1  0  0  0  0
 21 27  1  0  0  0  0
 22 23  2  0  0  0  0
 22 25  1  0  0  0  0
 23 24  1  0  0  0  0
 25 26  2  0  0  0  0
 26 27  1  0  0  0  0
M  END
>  <CHROM.1>
2.34857255,62.79344076,160.11563331,-54.57163723,172.82197110,83.81723866
42.10430173,9.75476296,0.56622743,23.72562627,1.60109645,-1.24781512,-2.80999408

>  <Name>
ligand

>  <RI>
0

>  <Rbt.Current_Directory>
/home/itssahil/PROJECTS/Mol_Feturizer/Test_systems_manuscript/rnas/2ydh

>  <Rbt.Executable>
rbdock ($Id: //depot/dev/client3/rdock/2013.1/src/exe/rbdock.cxx#4 $)

>  <Rbt.Library>
libRbt.so (2013.1, Build901 2013/11/27)

>  <Rbt.Parameter_File>
/export/apps/rDock/src/rDock_2013.1_src/data/scripts/dock_solv.prm

>  <Rbt.Receptor>
prm/blind_docking_60.prm

>  <SCORE>
-6.88563

>  <SCORE.INTER>
-7.20117

>  <SCORE.INTER.CONST>
1

>  <SCORE.INTER.POLAR>
0

>  <SCORE.INTER.ROT>
7

>  <SCORE.INTER.SOLV>
9.81817

>  <SCORE.INTER.VDW>
-16.3402

>  <SCORE.INTER.norm>
-0.26671

>  <SCORE.INTRA>
0.315538

>  <SCORE.INTRA.DIHEDRAL>
-3.0874

>  <SCORE.INTRA.DIHEDRAL.0>
9.75037

>  <SCORE.INTRA.POLAR>
0

>  <SCORE.INTRA.POLAR.0>
0

>  <SCORE.INTRA.REPUL>
0

>  <SCORE.INTRA.REPUL.0>
0

>  <SCORE.INTRA.SOLV>
-0.788558

>  <SCORE.INTRA.SOLV.lig_0>
-48.4279

>  <SCORE.INTRA.VDW>
2.25352

>  <SCORE.INTRA.VDW.0>
-4.69037

>  <SCORE.INTRA.norm>
0.0116866

>  <SCORE.RESTR>
0

>  <SCORE.RESTR.CAVITY>
0

>  <SCORE.RESTR.norm>
0

>  <SCORE.SYSTEM>
0

>  <SCORE.SYSTEM.CONST>
0

>  <SCORE.SYSTEM.DIHEDRAL>
0

>  <SCORE.SYSTEM.SOLV>
0

>  <SCORE.SYSTEM.norm>
0

>  <SCORE.heavy>
27

>  <SCORE.norm>
-0.255023

>  <RMSD>
18.047

$$$$
ligand
 OpenBabel02271912153D
libRbt.so/2013.1/901 2013/11/27
 27 29  0  0  0  0  0  0  0  0999 V2000
   10.4153    2.0943   23.3156 N   0  0  0  0  0  0  0  0  0  0  0  0
   11.5671    1.2327   22.9061 C   0  0  2  0  0  0  0  0  0  0  0  0
   12.6954    2.0770   22.2730 C   0  0  0  0  0  0  0  0  0  0  0  0
   12.4410    2.9936   21.4858 O   0  0  0  0  0  0  0  0  0  0  0  0
   11.0729    0.1390   21.9651 C   0  0  0  0  0  0  0  0  0  0  0  0
   10.0058   -0.7666   22.5569 C   0  0  0  0  0  0  0  0  0  0  0  0
    9.3987   -2.0188   21.3905 S   0  0  2  0  0  0  0  0  0  0  0  0
    8.6024   -0.9632   20.1467 C   0  0  0  0  0  0  0  0  0  0  0  0
    7.9859   -2.8091   22.1774 C   0  0  0  0  0  0  0  0  0  0  0  0
    8.3222   -4.2623   22.4527 C   0  0  1  0  0  0  0  0  0  0  0  0
    9.3749   -4.4084   23.3933 O   0  0  0  0  0  0  0  0  0  0  0  0
    7.1315   -5.0103   23.0008 C   0  0  1  0  0  0  0  0  0  0  0  0
    6.3105   -5.4760   21.9684 O   0  0  0  0  0  0  0  0  0  0  0  0
    7.8044   -6.1314   23.7325 C   0  0  1  0  0  0  0  0  0  0  0  0
    8.0323   -7.2011   22.8346 O   0  0  0  0  0  0  0  0  0  0  0  0
    9.1268   -5.5368   24.1996 C   0  0  2  0  0  0  0  0  0  0  0  0
   13.8982    1.8721   22.5192 O   0  0  0  0  0  0  0  0  0  0  0  0
    6.6020   -5.7186   28.8312 N   0  0  0  0  0  0  0  0  0  0  0  0
    6.2306   -6.3159   27.6354 C   0  0  0  0  0  0  0  0  0  0  0  0
    7.0025   -6.1602   26.4902 N   0  0  0  0  0  0  0  0  0  0  0  0
    8.1340   -5.4350   26.5524 C   0  0  0  0  0  0  0  0  0  0  0  0
    8.5266   -4.8410   27.7552 C   0  0  0  0  0  0  0  0  0  0  0  0
    7.7574   -4.9698   28.8969 C   0  0  0  0  0  0  0  0  0  0  0  0
    8.1279   -4.3958   30.0317 N   0  0  0  0  0  0  0  0  0  0  0  0
    9.6805   -4.1983   27.5443 N   0  0  0  0  0  0  0  0  0  0  0  0
   10.0292   -4.3700   26.2501 C   0  0  0  0  0  0  0  0  0  0  0  0
    9.0833   -5.1394   25.6195 N   0  0  0  0  0  0  0  0  0  0  0  0
  2  1  1  6  0  0  0
  2  3  1  0  0  0  0
  2  5  1  0  0  0  0
  3  4  1  0  0  0  0
  3 17  1  0  0  0  0
  5  6  1  0  0  0  0
  7  6  1  1  0  0  0
  7  8  1  0  0  0  0
  7  9  1  0  0  0  0
 10  9  1  1  0  0  0
 10 11  1  0  0  0  0
 10 12  1  0  0  0  0
 11 16  1  0  0  0  0
 12 13  1  6  0  0  0
 12 14  1  0  0  0  0
 14 15  1  6  0  0  0
 14 16  1  0  0  0  0
 16 27  1  1  0  0  0
 18 19  2  0  0  0  0
 18 23  1  0  0  0  0
 19 20  1  0  0  0  0
 20 21  2  0  0  0  0
 21 22  1  0  0  0  0
 21 27  1  0  0  0  0
 22 23  2  0  0  0  0
 22 25  1  0  0  0  0
 23 24  1  0  0  0  0
 25 26  2  0  0  0  0
 26 27  1  0  0  0  0
M  END
>  <CHROM.1>
-41.58242403,-58.99915528,177.94858693,-65.17689909,-114.59734533,64.76369844
130.28394495,9.13383273,-3.06226395,24.11604307,-0.69531921,0.99019636,1.74101578

>  <Name>
ligand

>  <RI>
0

>  <Rbt.Current_Directory>
/home/itssahil/PROJECTS/Mol_Feturizer/Test_systems_manuscript/rnas/2ydh

>  <Rbt.Executable>
rbdock ($Id: //depot/dev/client3/rdock/2013.1/src/exe/rbdock.cxx#4 $)

>  <Rbt.Library>
libRbt.so (2013.1, Build901 2013/11/27)

>  <Rbt.Parameter_File>
/export/apps/rDock/src/rDock_2013.1_src/data/scripts/dock_solv.prm

>  <Rbt.Receptor>
prm/blind_docking_40.prm

>  <SCORE>
-17.2917

>  <SCORE.INTER>
-18.2245

>  <SCORE.INTER.CONST>
1

>  <SCORE.INTER.POLAR>
0

>  <SCORE.INTER.ROT>
7

>  <SCORE.INTER.SOLV>
16.6768

>  <SCORE.INTER.VDW>
-25.9753

>  <SCORE.INTER.norm>
-0.674982

>  <SCORE.INTRA>
0.932868

>  <SCORE.INTRA.DIHEDRAL>
-2.6705

>  <SCORE.INTRA.DIHEDRAL.0>
9.75037

>  <SCORE.INTRA.POLAR>
0

>  <SCORE.INTRA.POLAR.0>
0

>  <SCORE.INTRA.REPUL>
0

>  <SCORE.INTRA.REPUL.0>
0

>  <SCORE.INTRA.SOLV>
-0.826918

>  <SCORE.INTRA.SOLV.lig_0>
-48.4279

>  <SCORE.INTRA.VDW>
2.68158

>  <SCORE.INTRA.VDW.0>
-4.69037

>  <SCORE.INTRA.norm>
0.0345507

>  <SCORE.RESTR>
0

>  <SCORE.RESTR.CAVITY>
0

>  <SCORE.RESTR.norm>
0

>  <SCORE.SYSTEM>
0

>  <SCORE.SYSTEM.CONST>
0

>  <SCORE.SYSTEM.DIHEDRAL>
0

>  <SCORE.SYSTEM.SOLV>
0

>  <SCORE.SYSTEM.norm>
0

>  <SCORE.heavy>
27

>  <SCORE.norm>
-0.640432

>  <RMSD>
18.059

$$$$
ligand
 OpenBabel02271912153D
libRbt.so/2013.1/901 2013/11/27
 27 29  0  0  0  0  0  0  0  0999 V2000
    8.2733   -4.6842   22.9021 N   0  0  0  0  0  0  0  0  0  0  0  0
    8.5942   -3.2392   22.6885 C   0  0  2  0  0  0  0  0  0  0  0  0
    7.4103   -2.3392   23.1065 C   0  0  0  0  0  0  0  0  0  0  0  0
    6.2427   -2.6872   22.9060 O   0  0  0  0  0  0  0  0  0  0  0  0
    8.9961   -3.0186   21.2340 C   0  0  0  0  0  0  0  0  0  0  0  0
    9.3792   -1.5874   20.8963 C   0  0  0  0  0  0  0  0  0  0  0  0
    7.9489   -0.4815   20.7282 S   0  0  2  0  0  0  0  0  0  0  0  0
    7.2619   -1.0563   19.1492 C   0  0  0  0  0  0  0  0  0  0  0  0
    8.6023    1.1375   20.2902 C   0  0  0  0  0  0  0  0  0  0  0  0
    7.4697    2.1463   20.2980 C   0  0  1  0  0  0  0  0  0  0  0  0
    6.7702    2.1696   21.5326 O   0  0  0  0  0  0  0  0  0  0  0  0
    7.9756    3.5463   20.0491 C   0  0  1  0  0  0  0  0  0  0  0  0
    8.0925    3.8034   18.6791 O   0  0  0  0  0  0  0  0  0  0  0  0
    6.8921    4.3638   20.6836 C   0  0  1  0  0  0  0  0  0  0  0  0
    5.8669    4.5919   19.7354 O   0  0  0  0  0  0  0  0  0  0  0  0
    6.3799    3.4919   21.8228 C   0  0  2  0  0  0  0  0  0  0  0  0
    7.5756   -1.2331   23.6529 O   0  0  0  0  0  0  0  0  0  0  0  0
    6.7816    2.5965   27.0089 N   0  0  0  0  0  0  0  0  0  0  0  0
    6.0778    1.8569   26.0696 C   0  0  0  0  0  0  0  0  0  0  0  0
    6.0592    2.2350   24.7324 N   0  0  0  0  0  0  0  0  0  0  0  0
    6.7501    3.3229   24.3460 C   0  0  0  0  0  0  0  0  0  0  0  0
    7.4753    4.0674   25.2805 C   0  0  0  0  0  0  0  0  0  0  0  0
    7.4854    3.7152   26.6176 C   0  0  0  0  0  0  0  0  0  0  0  0
    8.1653    4.4302   27.5014 N   0  0  0  0  0  0  0  0  0  0  0  0
    8.0728    5.0754   24.6357 N   0  0  0  0  0  0  0  0  0  0  0  0
    7.7506    4.9891   23.3262 C   0  0  0  0  0  0  0  0  0  0  0  0
    6.9337    3.9041   23.1264 N   0  0  0  0  0  0  0  0  0  0  0  0
  2  1  1  6  0  0  0
  2  3  1  0  0  0  0
  2  5  1  0  0  0  0
  3  4  1  0  0  0  0
  3 17  1  0  0  0  0
  5  6  1  0  0  0  0
  7  6  1  6  0  0  0
  7  8  1  0  0  0  0
  7  9  1  0  0  0  0
 10  9  1  1  0  0  0
 10 11  1  0  0  0  0
 10 12  1  0  0  0  0
 11 16  1  0  0  0  0
 12 13  1  6  0  0  0
 12 14  1  0  0  0  0
 14 15  1  6  0  0  0
 14 16  1  0  0  0  0
 16 27  1  1  0  0  0
 18 19  2  0  0  0  0
 18 23  1  0  0  0  0
 19 20  1  0  0  0  0
 20 21  2  0  0  0  0
 21 22  1  0  0  0  0
 21 27  1  0  0  0  0
 22 23  2  0  0  0  0
 22 25  1  0  0  0  0
 23 24  1  0  0  0  0
 25 26  2  0  0  0  0
 26 27  1  0  0  0  0
M  END
>  <CHROM.1>
-37.01640693,-178.65919682,-76.48966905,-72.33961080,-173.27666637,54.99925775
-58.07655167,7.47259109,1.37807802,22.52302294,0.06070353,-1.44653036,2.03417024

>  <Name>
ligand

>  <RI>
0

>  <Rbt.Current_Directory>
/home/itssahil/PROJECTS/Mol_Feturizer/Test_systems_manuscript/rnas/2ydh

>  <Rbt.Executable>
rbdock ($Id: //depot/dev/client3/rdock/2013.1/src/exe/rbdock.cxx#4 $)

>  <Rbt.Library>
libRbt.so (2013.1, Build901 2013/11/27)

>  <Rbt.Parameter_File>
/export/apps/rDock/src/rDock_2013.1_src/data/scripts/dock_solv.prm

>  <Rbt.Receptor>
prm/blind_docking_100.prm

>  <SCORE>
-15.5764

>  <SCORE.INTER>
-14.5069

>  <SCORE.INTER.CONST>
1

>  <SCORE.INTER.POLAR>
0

>  <SCORE.INTER.ROT>
7

>  <SCORE.INTER.SOLV>
11.1105

>  <SCORE.INTER.VDW>
-21.6414

>  <SCORE.INTER.norm>
-0.537292

>  <SCORE.INTRA>
-1.06947

>  <SCORE.INTRA.DIHEDRAL>
-5.01735

>  <SCORE.INTRA.DIHEDRAL.0>
9.75037

>  <SCORE.INTRA.POLAR>
0

>  <SCORE.INTRA.POLAR.0>
0

>  <SCORE.INTRA.REPUL>
0

>  <SCORE.INTRA.REPUL.0>
0

>  <SCORE.INTRA.SOLV>
-1.41276

>  <SCORE.INTRA.SOLV.lig_0>
-48.4279

>  <SCORE.INTRA.VDW>
2.14559

>  <SCORE.INTRA.VDW.0>
-4.69037

>  <SCORE.INTRA.norm>
-0.03961

>  <SCORE.RESTR>
0

>  <SCORE.RESTR.CAVITY>
0

>  <SCORE.RESTR.norm>
0

>  <SCORE.SYSTEM>
0

>  <SCORE.SYSTEM.CONST>
0

>  <SCORE.SYSTEM.DIHEDRAL>
0

>  <SCORE.SYSTEM.SOLV>
0

>  <SCORE.SYSTEM.norm>
0

>  <SCORE.heavy>
27

>  <SCORE.norm>
-0.576902

>  <RMSD>
18.071

$$$$
ligand
 OpenBabel02271912153D
libRbt.so/2013.1/901 2013/11/27
 27 29  0  0  0  0  0  0  0  0999 V2000
    7.2689    0.4302   16.4110 N   0  0  0  0  0  0  0  0  0  0  0  0
    7.0065   -0.1197   17.7768 C   0  0  2  0  0  0  0  0  0  0  0  0
    5.8520    0.6384   18.4689 C   0  0  0  0  0  0  0  0  0  0  0  0
    6.0578    1.6872   19.0872 O   0  0  0  0  0  0  0  0  0  0  0  0
    8.2921   -0.0776   18.5960 C   0  0  0  0  0  0  0  0  0  0  0  0
    8.1870   -0.7243   19.9671 C   0  0  0  0  0  0  0  0  0  0  0  0
    9.6918   -0.5387   20.9662 S   0  0  2  0  0  0  0  0  0  0  0  0
    9.2169   -1.4487   22.4635 C   0  0  0  0  0  0  0  0  0  0  0  0
    9.7129    1.1643   21.5485 C   0  0  0  0  0  0  0  0  0  0  0  0
    8.3690    1.4903   22.1717 C   0  0  1  0  0  0  0  0  0  0  0  0
    8.2940    1.1054   23.5356 O   0  0  0  0  0  0  0  0  0  0  0  0
    8.0773    2.9699   22.1123 C   0  0  1  0  0  0  0  0  0  0  0  0
    7.5068    3.3219   20.8846 O   0  0  0  0  0  0  0  0  0  0  0  0
    7.1088    3.1208   23.2456 C   0  0  1  0  0  0  0  0  0  0  0  0
    5.7990    2.8683   22.7736 O   0  0  0  0  0  0  0  0  0  0  0  0
    7.5299    2.0522   24.2462 C   0  0  2  0  0  0  0  0  0  0  0  0
    4.6765    0.2301   18.4409 O   0  0  0  0  0  0  0  0  0  0  0  0
   11.4953    5.1836   25.7722 N   0  0  0  0  0  0  0  0  0  0  0  0
   11.0518    4.9403   24.4804 C   0  0  0  0  0  0  0  0  0  0  0  0
    9.9945    4.0705   24.2411 N   0  0  0  0  0  0  0  0  0  0  0  0
    9.3845    3.4737   25.2813 C   0  0  0  0  0  0  0  0  0  0  0  0
    9.8125    3.7227   26.5883 C   0  0  0  0  0  0  0  0  0  0  0  0
   10.8767    4.5691   26.8397 C   0  0  0  0  0  0  0  0  0  0  0  0
   11.2856    4.7934   28.0794 N   0  0  0  0  0  0  0  0  0  0  0  0
    9.0351    3.0218   27.4210 N   0  0  0  0  0  0  0  0  0  0  0  0
    8.1302    2.3422   26.6826 C   0  0  0  0  0  0  0  0  0  0  0  0
    8.3287    2.6140   25.3517 N   0  0  0  0  0  0  0  0  0  0  0  0
  2  1  1  6  0  0  0
  2  3  1  0  0  0  0
  2  5  1  0  0  0  0
  3  4  1  0  0  0  0
  3 17  1  0  0  0  0
  5  6  1  0  0  0  0
  7  6  1  6  0  0  0
  7  8  1  0  0  0  0
  7  9  1  0  0  0  0
 10  9  1  1  0  0  0
 10 11  1  0  0  0  0
 10 12  1  0  0  0  0
 11 16  1  0  0  0  0
 12 13  1  6  0  0  0
 12 14  1  0  0  0  0
 14 15  1  6  0  0  0
 14 16  1  0  0  0  0
 16 27  1  1  0  0  0
 18 19  2  0  0  0  0
 18 23  1  0  0  0  0
 19 20  1  0  0  0  0
 20 21  2  0  0  0  0
 21 22  1  0  0  0  0
 21 27  1  0  0  0  0
 22 23  2  0  0  0  0
 22 25  1  0  0  0  0
 23 24  1  0  0  0  0
 25 26  2  0  0  0  0
 26 27  1  0  0  0  0
M  END
>  <CHROM.1>
-84.95981284,-174.84990093,-175.34892905,-178.51305517,50.30369528,85.31473686
71.52350566,8.44298879,1.93523022,22.54102778,-1.97337960,-0.55340460,0.89382519

>  <Name>
ligand

>  <RI>
0

>  <Rbt.Current_Directory>
/home/itssahil/PROJECTS/Mol_Feturizer/Test_systems_manuscript/rnas/2ydh

>  <Rbt.Executable>
rbdock ($Id: //depot/dev/client3/rdock/2013.1/src/exe/rbdock.cxx#4 $)

>  <Rbt.Library>
libRbt.so (2013.1, Build901 2013/11/27)

>  <Rbt.Parameter_File>
/export/apps/rDock/src/rDock_2013.1_src/data/scripts/dock_solv.prm

>  <Rbt.Receptor>
prm/blind_docking_40.prm

>  <SCORE>
-9.06534

>  <SCORE.INTER>
-8.37709

>  <SCORE.INTER.CONST>
1

>  <SCORE.INTER.POLAR>
0

>  <SCORE.INTER.ROT>
7

>  <SCORE.INTER.SOLV>
3.27955

>  <SCORE.INTER.VDW>
-14.9446

>  <SCORE.INTER.norm>
-0.310263

>  <SCORE.INTRA>
-0.688249

>  <SCORE.INTRA.DIHEDRAL>
-4.33298

>  <SCORE.INTRA.DIHEDRAL.0>
9.75037

>  <SCORE.INTRA.POLAR>
0

>  <SCORE.INTRA.POLAR.0>
0

>  <SCORE.INTRA.REPUL>
0

>  <SCORE.INTRA.REPUL.0>
0

>  <SCORE.INTRA.SOLV>
-1.19142

>  <SCORE.INTRA.SOLV.lig_0>
-48.4279

>  <SCORE.INTRA.VDW>
2.07395

>  <SCORE.INTRA.VDW.0>
-4.69037

>  <SCORE.INTRA.norm>
-0.0254907

>  <SCORE.RESTR>
0

>  <SCORE.RESTR.CAVITY>
0

>  <SCORE.RESTR.norm>
0

>  <SCORE.SYSTEM>
0

>  <SCORE.SYSTEM.CONST>
0

>  <SCORE.SYSTEM.DIHEDRAL>
0

>  <SCORE.SYSTEM.SOLV>
0

>  <SCORE.SYSTEM.norm>
0

>  <SCORE.heavy>
27

>  <SCORE.norm>
-0.335753

>  <RMSD>
18.143

$$$$
ligand
 OpenBabel02271912153D
libRbt.so/2013.1/901 2013/11/27
 27 29  0  0  0  0  0  0  0  0999 V2000
   12.3112    7.0029   28.8949 N   0  0  0  0  0  0  0  0  0  0  0  0
   12.4825    5.6927   28.1945 C   0  0  2  0  0  0  0  0  0  0  0  0
   13.8318    5.6355   27.4444 C   0  0  0  0  0  0  0  0  0  0  0  0
   14.4955    6.6578   27.2468 O   0  0  0  0  0  0  0  0  0  0  0  0
   11.2984    5.4571   27.2627 C   0  0  0  0  0  0  0  0  0  0  0  0
   11.2247    4.0559   26.6793 C   0  0  0  0  0  0  0  0  0  0  0  0
    9.8149    3.8169   25.5602 S   0  0  2  0  0  0  0  0  0  0  0  0
    8.4323    3.9262   26.7315 C   0  0  0  0  0  0  0  0  0  0  0  0
    9.8012    2.0718   25.1195 C   0  0  0  0  0  0  0  0  0  0  0  0
   10.9619    1.7888   24.1851 C   0  0  1  0  0  0  0  0  0  0  0  0
   11.0512    0.4182   23.8277 O   0  0  0  0  0  0  0  0  0  0  0  0
   10.8418    2.5742   22.9019 C   0  0  1  0  0  0  0  0  0  0  0  0
   11.3725    3.8603   23.0471 O   0  0  0  0  0  0  0  0  0  0  0  0
   11.6572    1.7321   21.9685 C   0  0  1  0  0  0  0  0  0  0  0  0
   13.0138    2.1254   22.0537 O   0  0  0  0  0  0  0  0  0  0  0  0
   11.4803    0.3119   22.4900 C   0  0  2  0  0  0  0  0  0  0  0  0
   14.3045    4.5712   27.0049 O   0  0  0  0  0  0  0  0  0  0  0  0
    6.7538    0.2024   20.1434 N   0  0  0  0  0  0  0  0  0  0  0  0
    7.3350    1.2533   20.8379 C   0  0  0  0  0  0  0  0  0  0  0  0
    8.5921    1.1184   21.4150 N   0  0  0  0  0  0  0  0  0  0  0  0
    9.2578   -0.0429   21.2791 C   0  0  0  0  0  0  0  0  0  0  0  0
    8.6890   -1.1037   20.5687 C   0  0  0  0  0  0  0  0  0  0  0  0
    7.4303   -0.9908   20.0076 C   0  0  0  0  0  0  0  0  0  0  0  0
    6.8909   -2.0027   19.3445 N   0  0  0  0  0  0  0  0  0  0  0  0
    9.5573   -2.1211   20.5748 N   0  0  0  0  0  0  0  0  0  0  0  0
   10.6548   -1.7356   21.2626 C   0  0  0  0  0  0  0  0  0  0  0  0
   10.4890   -0.4463   21.7036 N   0  0  0  0  0  0  0  0  0  0  0  0
  2  1  1  6  0  0  0
  2  3  1  0  0  0  0
  2  5  1  0  0  0  0
  3  4  1  0  0  0  0
  3 17  1  0  0  0  0
  5  6  1  0  0  0  0
  7  6  1  1  0  0  0
  7  8  1  0  0  0  0
  7  9  1  0  0  0  0
 10  9  1  1  0  0  0
 10 11  1  0  0  0  0
 10 12  1  0  0  0  0
 11 16  1  0  0  0  0
 12 13  1  1  0  0  0
 12 14  1  0  0  0  0
 14 15  1  1  0  0  0
 14 16  1  0  0  0  0
 16 27  1  6  0  0  0
 18 19  2  0  0  0  0
 18 23  1  0  0  0  0
 19 20  1  0  0  0  0
 20 21  2  0  0  0  0
 21 22  1  0  0  0  0
 21 27  1  0  0  0  0
 22 23  2  0  0  0  0
 22 25  1  0  0  0  0
 23 24  1  0  0  0  0
 25 26  2  0  0  0  0
 26 27  1  0  0  0  0
M  END
>  <CHROM.1>
-14.13180434,-169.64081028,-179.32043429,-67.88558644,-71.83307264,177.83360786
73.20088239,10.55889743,2.23463379,23.79324118,1.16613224,0.00333468,0.82598189

>  <Name>
ligand

>  <RI>
0

>  <Rbt.Current_Directory>
/home/itssahil/PROJECTS/Mol_Feturizer/Test_systems_manuscript/rnas/2ydh

>  <Rbt.Executable>
rbdock ($Id: //depot/dev/client3/rdock/2013.1/src/exe/rbdock.cxx#4 $)

>  <Rbt.Library>
libRbt.so (2013.1, Build901 2013/11/27)

>  <Rbt.Parameter_File>
/export/apps/rDock/src/rDock_2013.1_src/data/scripts/dock_solv.prm

>  <Rbt.Receptor>
prm/blind_docking_100.prm

>  <SCORE>
-11.5416

>  <SCORE.INTER>
-9.93837

>  <SCORE.INTER.CONST>
1

>  <SCORE.INTER.POLAR>
0

>  <SCORE.INTER.ROT>
7

>  <SCORE.INTER.SOLV>
12.8989

>  <SCORE.INTER.VDW>
-19.1919

>  <SCORE.INTER.norm>
-0.368088

>  <SCORE.INTRA>
-1.60325

>  <SCORE.INTRA.DIHEDRAL>
-6.27432

>  <SCORE.INTRA.DIHEDRAL.0>
9.75037

>  <SCORE.INTRA.POLAR>
0

>  <SCORE.INTRA.POLAR.0>
0

>  <SCORE.INTRA.REPUL>
0

>  <SCORE.INTRA.REPUL.0>
0

>  <SCORE.INTRA.SOLV>
-1.19616

>  <SCORE.INTRA.SOLV.lig_0>
-48.4279

>  <SCORE.INTRA.VDW>
2.13199

>  <SCORE.INTRA.VDW.0>
-4.69037

>  <SCORE.INTRA.norm>
-0.0593797

>  <SCORE.RESTR>
0

>  <SCORE.RESTR.CAVITY>
0

>  <SCORE.RESTR.norm>
0

>  <SCORE.SYSTEM>
0

>  <SCORE.SYSTEM.CONST>
0

>  <SCORE.SYSTEM.DIHEDRAL>
0

>  <SCORE.SYSTEM.SOLV>
0

>  <SCORE.SYSTEM.norm>
0

>  <SCORE.heavy>
27

>  <SCORE.norm>
-0.427467

>  <RMSD>
18.176

$$$$
ligand
 OpenBabel02271912153D
libRbt.so/2013.1/901 2013/11/27
 27 29  0  0  0  0  0  0  0  0999 V2000
    4.0355  -18.8240    2.1284 N   0  0  0  0  0  0  0  0  0  0  0  0
    4.0451  -17.4381    2.6904 C   0  0  2  0  0  0  0  0  0  0  0  0
    3.1579  -16.4919    1.8512 C   0  0  0  0  0  0  0  0  0  0  0  0
    3.2261  -16.4799    0.6184 O   0  0  0  0  0  0  0  0  0  0  0  0
    5.4831  -16.9398    2.7868 C   0  0  0  0  0  0  0  0  0  0  0  0
    5.7810  -16.1104    4.0247 C   0  0  0  0  0  0  0  0  0  0  0  0
    4.4371  -14.9725    4.4675 S   0  0  2  0  0  0  0  0  0  0  0  0
    4.9274  -13.4931    3.5365 C   0  0  0  0  0  0  0  0  0  0  0  0
    4.7350  -14.4656    6.1687 C   0  0  0  0  0  0  0  0  0  0  0  0
    3.4028  -14.2756    6.8685 C   0  0  1  0  0  0  0  0  0  0  0  0
    2.3044  -14.3290    5.9714 O   0  0  0  0  0  0  0  0  0  0  0  0
    3.1723  -15.3387    7.9147 C   0  0  1  0  0  0  0  0  0  0  0  0
    3.7726  -14.9890    9.1288 O   0  0  0  0  0  0  0  0  0  0  0  0
    1.6767  -15.3366    8.0064 C   0  0  1  0  0  0  0  0  0  0  0  0
    1.2706  -14.3589    8.9452 O   0  0  0  0  0  0  0  0  0  0  0  0
    1.2137  -14.9555    6.6061 C   0  0  2  0  0  0  0  0  0  0  0  0
    2.3473  -15.7037    2.3717 O   0  0  0  0  0  0  0  0  0  0  0  0
   -2.4209  -18.6834    5.7396 N   0  0  0  0  0  0  0  0  0  0  0  0
   -2.4525  -17.6670    6.6833 C   0  0  0  0  0  0  0  0  0  0  0  0
   -1.4011  -16.7652    6.7959 N   0  0  0  0  0  0  0  0  0  0  0  0
   -0.3496  -16.8725    5.9635 C   0  0  0  0  0  0  0  0  0  0  0  0
   -0.3133  -17.8831    4.9985 C   0  0  0  0  0  0  0  0  0  0  0  0
   -1.3424  -18.8001    4.8894 C   0  0  0  0  0  0  0  0  0  0  0  0
   -1.2984  -19.7627    3.9805 N   0  0  0  0  0  0  0  0  0  0  0  0
    0.8228  -17.7547    4.3045 N   0  0  0  0  0  0  0  0  0  0  0  0
    1.5018  -16.6956    4.7979 C   0  0  0  0  0  0  0  0  0  0  0  0
    0.7870  -16.1322    5.8256 N   0  0  0  0  0  0  0  0  0  0  0  0
  2  1  1  6  0  0  0
  2  3  1  0  0  0  0
  2  5  1  0  0  0  0
  3  4  1  0  0  0  0
  3 17  1  0  0  0  0
  5  6  1  0  0  0  0
  7  6  1  6  0  0  0
  7  8  1  0  0  0  0
  7  9  1  0  0  0  0
 10  9  1  6  0  0  0
 10 11  1  0  0  0  0
 10 12  1  0  0  0  0
 11 16  1  0  0  0  0
 12 13  1  1  0  0  0
 12 14  1  0  0  0  0
 14 15  1  1  0  0  0
 14 16  1  0  0  0  0
 16 27  1  6  0  0  0
 18 19  2  0  0  0  0
 18 23  1  0  0  0  0
 19 20  1  0  0  0  0
 20 21  2  0  0  0  0
 21 22  1  0  0  0  0
 21 27  1  0  0  0  0
 22 23  2  0  0  0  0
 22 25  1  0  0  0  0
 23 24  1  0  0  0  0
 25 26  2  0  0  0  0
 26 27  1  0  0  0  0
M  END
>  <CHROM.1>
-46.32644953,-141.89745904,-39.82587024,-90.40974509,-145.65607303,-9.51636743
-168.01181474,2.13423546,-16.22997659,5.07798717,0.22350674,-0.47779622,-2.05678053

>  <Name>
ligand

>  <RI>
0

>  <Rbt.Current_Directory>
/home/itssahil/PROJECTS/Mol_Feturizer/Test_systems_manuscript/rnas/2ydh

>  <Rbt.Executable>
rbdock ($Id: //depot/dev/client3/rdock/2013.1/src/exe/rbdock.cxx#4 $)

>  <Rbt.Library>
libRbt.so (2013.1, Build901 2013/11/27)

>  <Rbt.Parameter_File>
/export/apps/rDock/src/rDock_2013.1_src/data/scripts/dock_solv.prm

>  <Rbt.Receptor>
prm/blind_docking_20.prm

>  <SCORE>
6.88536

>  <SCORE.INTER>
-0.38936

>  <SCORE.INTER.CONST>
1

>  <SCORE.INTER.POLAR>
0

>  <SCORE.INTER.ROT>
7

>  <SCORE.INTER.SOLV>
13.2535

>  <SCORE.INTER.VDW>
-12.9441

>  <SCORE.INTER.norm>
-0.0144208

>  <SCORE.INTRA>
5.07673

>  <SCORE.INTRA.DIHEDRAL>
8.67298

>  <SCORE.INTRA.DIHEDRAL.0>
9.75037

>  <SCORE.INTRA.POLAR>
0

>  <SCORE.INTRA.POLAR.0>
0

>  <SCORE.INTRA.REPUL>
0

>  <SCORE.INTRA.REPUL.0>
0

>  <SCORE.INTRA.SOLV>
-1.08991

>  <SCORE.INTRA.SOLV.lig_0>
-48.4279

>  <SCORE.INTRA.VDW>
1.28519

>  <SCORE.INTRA.VDW.0>
-4.69037

>  <SCORE.INTRA.norm>
0.188027

>  <SCORE.RESTR>
2.19799

>  <SCORE.RESTR.CAVITY>
2.19799

>  <SCORE.RESTR.norm>
0.081407

>  <SCORE.SYSTEM>
0

>  <SCORE.SYSTEM.CONST>
0

>  <SCORE.SYSTEM.DIHEDRAL>
0

>  <SCORE.SYSTEM.SOLV>
0

>  <SCORE.SYSTEM.norm>
0

>  <SCORE.heavy>
27

>  <SCORE.norm>
0.255013

>  <RMSD>
18.290

$$$$
ligand
 OpenBabel02271912153D
libRbt.so/2013.1/901 2013/11/27
 27 29  0  0  0  0  0  0  0  0999 V2000
    5.9538   -8.9071   16.0304 N   0  0  0  0  0  0  0  0  0  0  0  0
    5.6672  -10.0680   16.9287 C   0  0  2  0  0  0  0  0  0  0  0  0
    5.8232   -9.6732   18.4141 C   0  0  0  0  0  0  0  0  0  0  0  0
    4.8404   -9.3868   19.1045 O   0  0  0  0  0  0  0  0  0  0  0  0
    6.5689  -11.2378   16.5489 C   0  0  0  0  0  0  0  0  0  0  0  0
    6.2664  -12.5317   17.2861 C   0  0  0  0  0  0  0  0  0  0  0  0
    7.6361  -13.7227   17.2384 S   0  0  2  0  0  0  0  0  0  0  0  0
    7.5325  -14.2871   15.5161 C   0  0  0  0  0  0  0  0  0  0  0  0
    7.0836  -15.1750   18.1470 C   0  0  0  0  0  0  0  0  0  0  0  0
    7.7534  -15.1911   19.5078 C   0  0  1  0  0  0  0  0  0  0  0  0
    6.9147  -14.6820   20.5332 O   0  0  0  0  0  0  0  0  0  0  0  0
    8.1480  -16.5906   19.9124 C   0  0  1  0  0  0  0  0  0  0  0  0
    9.3946  -16.9360   19.3802 O   0  0  0  0  0  0  0  0  0  0  0  0
    8.1907  -16.4605   21.4044 C   0  0  1  0  0  0  0  0  0  0  0  0
    9.4747  -16.0118   21.7947 O   0  0  0  0  0  0  0  0  0  0  0  0
    7.1385  -15.4056   21.7213 C   0  0  2  0  0  0  0  0  0  0  0  0
    6.9327   -9.6207   18.9758 O   0  0  0  0  0  0  0  0  0  0  0  0
    2.9923  -15.1661   24.9785 N   0  0  0  0  0  0  0  0  0  0  0  0
    4.0494  -14.2732   24.8795 C   0  0  0  0  0  0  0  0  0  0  0  0
    5.0808  -14.4865   23.9727 N   0  0  0  0  0  0  0  0  0  0  0  0
    5.0388  -15.5650   23.1695 C   0  0  0  0  0  0  0  0  0  0  0  0
    3.9712  -16.4637   23.2494 C   0  0  0  0  0  0  0  0  0  0  0  0
    2.9492  -16.2754   24.1615 C   0  0  0  0  0  0  0  0  0  0  0  0
    1.9451  -17.1356   24.2410 N   0  0  0  0  0  0  0  0  0  0  0  0
    4.1688  -17.4258   22.3415 N   0  0  0  0  0  0  0  0  0  0  0  0
    5.3233  -17.1618   21.6907 C   0  0  0  0  0  0  0  0  0  0  0  0
    5.8753  -16.0075   22.1880 N   0  0  0  0  0  0  0  0  0  0  0  0
  2  1  1  6  0  0  0
  2  3  1  0  0  0  0
  2  5  1  0  0  0  0
  3  4  1  0  0  0  0
  3 17  1  0  0  0  0
  5  6  1  0  0  0  0
  7  6  1  6  0  0  0
  7  8  1  0  0  0  0
  7  9  1  0  0  0  0
 10  9  1  6  0  0  0
 10 11  1  0  0  0  0
 10 12  1  0  0  0  0
 11 16  1  0  0  0  0
 12 13  1  6  0  0  0
 12 14  1  0  0  0  0
 14 15  1  6  0  0  0
 14 16  1  0  0  0  0
 16 27  1  6  0  0  0
 18 19  2  0  0  0  0
 18 23  1  0  0  0  0
 19 20  1  0  0  0  0
 20 21  2  0  0  0  0
 21 22  1  0  0  0  0
 21 27  1  0  0  0  0
 22 23  2  0  0  0  0
 22 25  1  0  0  0  0
 23 24  1  0  0  0  0
 25 26  2  0  0  0  0
 26 27  1  0  0  0  0
M  END
>  <CHROM.1>
98.81590803,-173.44418345,-161.30981863,-73.41168972,-104.29792285,98.67599600
-100.28581015,6.17174584,-14.21513298,20.25854097,1.21070123,0.76128033,-0.64809373

>  <Name>
ligand

>  <RI>
0

>  <Rbt.Current_Directory>
/home/itssahil/PROJECTS/Mol_Feturizer/Test_systems_manuscript/rnas/2ydh

>  <Rbt.Executable>
rbdock ($Id: //depot/dev/client3/rdock/2013.1/src/exe/rbdock.cxx#4 $)

>  <Rbt.Library>
libRbt.so (2013.1, Build901 2013/11/27)

>  <Rbt.Parameter_File>
/export/apps/rDock/src/rDock_2013.1_src/data/scripts/dock_solv.prm

>  <Rbt.Receptor>
prm/blind_docking_80.prm

>  <SCORE>
-8.27269

>  <SCORE.INTER>
-10.6929

>  <SCORE.INTER.CONST>
1

>  <SCORE.INTER.POLAR>
0

>  <SCORE.INTER.ROT>
7

>  <SCORE.INTER.SOLV>
17.8442

>  <SCORE.INTER.VDW>
-21.3433

>  <SCORE.INTER.norm>
-0.396035

>  <SCORE.INTRA>
2.3873

>  <SCORE.INTRA.DIHEDRAL>
1.57175

>  <SCORE.INTRA.DIHEDRAL.0>
9.75037

>  <SCORE.INTRA.POLAR>
0

>  <SCORE.INTRA.POLAR.0>
0

>  <SCORE.INTRA.REPUL>
0

>  <SCORE.INTRA.REPUL.0>
0

>  <SCORE.INTRA.SOLV>
-1.61571

>  <SCORE.INTRA.SOLV.lig_0>
-48.4279

>  <SCORE.INTRA.VDW>
2.40928

>  <SCORE.INTRA.VDW.0>
-4.69037

>  <SCORE.INTRA.norm>
0.0884185

>  <SCORE.RESTR>
0.032944

>  <SCORE.RESTR.CAVITY>
0.032944

>  <SCORE.RESTR.norm>
0.00122015

>  <SCORE.SYSTEM>
0

>  <SCORE.SYSTEM.CONST>
0

>  <SCORE.SYSTEM.DIHEDRAL>
0

>  <SCORE.SYSTEM.SOLV>
0

>  <SCORE.SYSTEM.norm>
0

>  <SCORE.heavy>
27

>  <SCORE.norm>
-0.306396

>  <RMSD>
18.355

$$$$
ligand
 OpenBabel02271912153D
libRbt.so/2013.1/901 2013/11/27
 27 29  0  0  0  0  0  0  0  0999 V2000
   14.5865    4.8498   29.2006 N   0  0  0  0  0  0  0  0  0  0  0  0
   13.8981    6.0622   28.6594 C   0  0  2  0  0  0  0  0  0  0  0  0
   12.6269    6.3896   29.4739 C   0  0  0  0  0  0  0  0  0  0  0  0
   11.9442    7.3862   29.2177 O   0  0  0  0  0  0  0  0  0  0  0  0
   13.5928    5.8540   27.1798 C   0  0  0  0  0  0  0  0  0  0  0  0
   12.7656    4.6162   26.8752 C   0  0  0  0  0  0  0  0  0  0  0  0
   11.9101    4.6997   25.2758 S   0  0  2  0  0  0  0  0  0  0  0  0
   10.1837    4.8261   25.8230 C   0  0  0  0  0  0  0  0  0  0  0  0
   11.9660    3.0413   24.5782 C   0  0  0  0  0  0  0  0  0  0  0  0
   11.9195    3.1396   23.0653 C   0  0  1  0  0  0  0  0  0  0  0  0
   12.2487    1.9140   22.4299 O   0  0  0  0  0  0  0  0  0  0  0  0
   10.5464    3.5355   22.5797 C   0  0  1  0  0  0  0  0  0  0  0  0
   10.3871    4.9250   22.5980 O   0  0  0  0  0  0  0  0  0  0  0  0
   10.5635    2.9904   21.1841 C   0  0  1  0  0  0  0  0  0  0  0  0
   11.1229    3.9568   20.3150 O   0  0  0  0  0  0  0  0  0  0  0  0
   11.4645    1.7650   21.2689 C   0  0  2  0  0  0  0  0  0  0  0  0
   12.2391    5.6768   30.4177 O   0  0  0  0  0  0  0  0  0  0  0  0
    7.3764   -1.0882   19.5354 N   0  0  0  0  0  0  0  0  0  0  0  0
    7.7659    0.1781   19.1238 C   0  0  0  0  0  0  0  0  0  0  0  0
    8.8673    0.8059   19.6932 N   0  0  0  0  0  0  0  0  0  0  0  0
    9.5727    0.1648   20.6427 C   0  0  0  0  0  0  0  0  0  0  0  0
    9.1991   -1.1175   21.0549 C   0  0  0  0  0  0  0  0  0  0  0  0
    8.0931   -1.7454   20.5123 C   0  0  0  0  0  0  0  0  0  0  0  0
    7.7366   -2.9562   20.9140 N   0  0  0  0  0  0  0  0  0  0  0  0
   10.0675   -1.5240   21.9875 N   0  0  0  0  0  0  0  0  0  0  0  0
   10.9770   -0.5421   22.1743 C   0  0  0  0  0  0  0  0  0  0  0  0
   10.6887    0.5126   21.3444 N   0  0  0  0  0  0  0  0  0  0  0  0
  2  1  1  1  0  0  0
  2  3  1  0  0  0  0
  2  5  1  0  0  0  0
  3  4  1  0  0  0  0
  3 17  1  0  0  0  0
  5  6  1  0  0  0  0
  7  6  1  1  0  0  0
  7  8  1  0  0  0  0
  7  9  1  0  0  0  0
 10  9  1  1  0  0  0
 10 11  1  0  0  0  0
 10 12  1  0  0  0  0
 11 16  1  0  0  0  0
 12 13  1  6  0  0  0
 12 14  1  0  0  0  0
 14 15  1  6  0  0  0
 14 16  1  0  0  0  0
 16 27  1  1  0  0  0
 18 19  2  0  0  0  0
 18 23  1  0  0  0  0
 19 20  1  0  0  0  0
 20 21  2  0  0  0  0
 21 22  1  0  0  0  0
 21 27  1  0  0  0  0
 22 23  2  0  0  0  0
 22 25  1  0  0  0  0
 23 24  1  0  0  0  0
 25 26  2  0  0  0  0
 26 27  1  0  0  0  0
M  END
>  <CHROM.1>
177.17632268,56.38402691,158.68971286,-111.24451092,-152.41090850,167.18345484
160.61716555,10.98982019,2.74248048,23.76387613,0.24242333,1.20022723,2.21119885

>  <Name>
ligand

>  <RI>
0

>  <Rbt.Current_Directory>
/home/itssahil/PROJECTS/Mol_Feturizer/Test_systems_manuscript/rnas/2ydh

>  <Rbt.Executable>
rbdock ($Id: //depot/dev/client3/rdock/2013.1/src/exe/rbdock.cxx#4 $)

>  <Rbt.Library>
libRbt.so (2013.1, Build901 2013/11/27)

>  <Rbt.Parameter_File>
/export/apps/rDock/src/rDock_2013.1_src/data/scripts/dock_solv.prm

>  <Rbt.Receptor>
prm/blind_docking_80.prm

>  <SCORE>
-12.1015

>  <SCORE.INTER>
-15.112

>  <SCORE.INTER.CONST>
1

>  <SCORE.INTER.POLAR>
0

>  <SCORE.INTER.ROT>
7

>  <SCORE.INTER.SOLV>
11.7873

>  <SCORE.INTER.VDW>
-22.2705

>  <SCORE.INTER.norm>
-0.559705

>  <SCORE.INTRA>
3.01055

>  <SCORE.INTRA.DIHEDRAL>
2.02832

>  <SCORE.INTRA.DIHEDRAL.0>
9.75037

>  <SCORE.INTRA.POLAR>
0

>  <SCORE.INTRA.POLAR.0>
0

>  <SCORE.INTRA.REPUL>
0

>  <SCORE.INTRA.REPUL.0>
0

>  <SCORE.INTRA.SOLV>
-0.510049

>  <SCORE.INTRA.SOLV.lig_0>
-48.4279

>  <SCORE.INTRA.VDW>
2.25142

>  <SCORE.INTRA.VDW.0>
-4.69037

>  <SCORE.INTRA.norm>
0.111502

>  <SCORE.RESTR>
0

>  <SCORE.RESTR.CAVITY>
0

>  <SCORE.RESTR.norm>
0

>  <SCORE.SYSTEM>
0

>  <SCORE.SYSTEM.CONST>
0

>  <SCORE.SYSTEM.DIHEDRAL>
0

>  <SCORE.SYSTEM.SOLV>
0

>  <SCORE.SYSTEM.norm>
0

>  <SCORE.heavy>
27

>  <SCORE.norm>
-0.448203

>  <RMSD>
18.391

$$$$
ligand
 OpenBabel02271912153D
libRbt.so/2013.1/901 2013/11/27
 27 29  0  0  0  0  0  0  0  0999 V2000
    9.9598    1.9486   23.5627 N   0  0  0  0  0  0  0  0  0  0  0  0
   11.1507    1.1134   23.2149 C   0  0  2  0  0  0  0  0  0  0  0  0
   11.9722    1.7627   22.0789 C   0  0  0  0  0  0  0  0  0  0  0  0
   13.2035    1.8306   22.1408 O   0  0  0  0  0  0  0  0  0  0  0  0
   10.6941   -0.2971   22.8578 C   0  0  0  0  0  0  0  0  0  0  0  0
    9.7312   -0.3697   21.6845 C   0  0  0  0  0  0  0  0  0  0  0  0
    9.1627   -2.0563   21.3249 S   0  0  2  0  0  0  0  0  0  0  0  0
    7.9960   -1.7374   19.9711 C   0  0  0  0  0  0  0  0  0  0  0  0
    8.0628   -2.5237   22.6709 C   0  0  0  0  0  0  0  0  0  0  0  0
    8.1650   -4.0202   22.8957 C   0  0  1  0  0  0  0  0  0  0  0  0
    9.2178   -4.3667   23.7822 O   0  0  0  0  0  0  0  0  0  0  0  0
    6.8911   -4.5788   23.4813 C   0  0  1  0  0  0  0  0  0  0  0  0
    5.9613   -4.8708   22.4778 O   0  0  0  0  0  0  0  0  0  0  0  0
    7.3992   -5.8175   24.1539 C   0  0  1  0  0  0  0  0  0  0  0  0
    7.4084   -6.8817   23.2214 O   0  0  0  0  0  0  0  0  0  0  0  0
    8.8204   -5.4633   24.5724 C   0  0  2  0  0  0  0  0  0  0  0  0
   11.4382    2.2463   21.0639 O   0  0  0  0  0  0  0  0  0  0  0  0
    6.4550   -5.2586   29.2864 N   0  0  0  0  0  0  0  0  0  0  0  0
    5.9314   -5.7300   28.0913 C   0  0  0  0  0  0  0  0  0  0  0  0
    6.6837   -5.7029   26.9230 N   0  0  0  0  0  0  0  0  0  0  0  0
    7.9425   -5.2294   26.9612 C   0  0  0  0  0  0  0  0  0  0  0  0
    8.4862   -4.7658   28.1625 C   0  0  0  0  0  0  0  0  0  0  0  0
    7.7420   -4.7671   29.3279 C   0  0  0  0  0  0  0  0  0  0  0  0
    8.2580   -4.3166   30.4616 N   0  0  0  0  0  0  0  0  0  0  0  0
    9.7414   -4.3694   27.9251 N   0  0  0  0  0  0  0  0  0  0  0  0
   10.0074   -4.5705   26.6155 C   0  0  0  0  0  0  0  0  0  0  0  0
    8.9036   -5.1084   26.0018 N   0  0  0  0  0  0  0  0  0  0  0  0
  2  1  1  6  0  0  0
  2  3  1  0  0  0  0
  2  5  1  0  0  0  0
  3  4  1  0  0  0  0
  3 17  1  0  0  0  0
  5  6  1  0  0  0  0
  7  6  1  1  0  0  0
  7  8  1  0  0  0  0
  7  9  1  0  0  0  0
 10  9  1  1  0  0  0
 10 11  1  0  0  0  0
 10 12  1  0  0  0  0
 11 16  1  0  0  0  0
 12 13  1  6  0  0  0
 12 14  1  0  0  0  0
 14 15  1  6  0  0  0
 14 16  1  0  0  0  0
 16 27  1  1  0  0  0
 18 19  2  0  0  0  0
 18 23  1  0  0  0  0
 19 20  1  0  0  0  0
 20 21  2  0  0  0  0
 21 22  1  0  0  0  0
 21 27  1  0  0  0  0
 22 23  2  0  0  0  0
 22 25  1  0  0  0  0
 23 24  1  0  0  0  0
 25 26  2  0  0  0  0
 26 27  1  0  0  0  0
M  END
>  <CHROM.1>
135.09385806,59.44534639,-177.94774720,176.98745976,-148.56234811,86.86149022
127.75030604,8.83121237,-3.00506081,24.35100667,-0.87797299,0.96009447,1.79310490

>  <Name>
ligand

>  <RI>
0

>  <Rbt.Current_Directory>
/home/itssahil/PROJECTS/Mol_Feturizer/Test_systems_manuscript/rnas/2ydh

>  <Rbt.Executable>
rbdock ($Id: //depot/dev/client3/rdock/2013.1/src/exe/rbdock.cxx#4 $)

>  <Rbt.Library>
libRbt.so (2013.1, Build901 2013/11/27)

>  <Rbt.Parameter_File>
/export/apps/rDock/src/rDock_2013.1_src/data/scripts/dock_solv.prm

>  <Rbt.Receptor>
prm/blind_docking_80.prm

>  <SCORE>
-14.4478

>  <SCORE.INTER>
-15.7035

>  <SCORE.INTER.CONST>
1

>  <SCORE.INTER.POLAR>
0

>  <SCORE.INTER.ROT>
7

>  <SCORE.INTER.SOLV>
18.7242

>  <SCORE.INTER.VDW>
-24.977

>  <SCORE.INTER.norm>
-0.58161

>  <SCORE.INTRA>
1.25564

>  <SCORE.INTRA.DIHEDRAL>
-1.24189

>  <SCORE.INTRA.DIHEDRAL.0>
9.75037

>  <SCORE.INTRA.POLAR>
0

>  <SCORE.INTRA.POLAR.0>
0

>  <SCORE.INTRA.REPUL>
0

>  <SCORE.INTRA.REPUL.0>
0

>  <SCORE.INTRA.SOLV>
-0.884917

>  <SCORE.INTRA.SOLV.lig_0>
-48.4279

>  <SCORE.INTRA.VDW>
2.31904

>  <SCORE.INTRA.VDW.0>
-4.69037

>  <SCORE.INTRA.norm>
0.0465052

>  <SCORE.RESTR>
0

>  <SCORE.RESTR.CAVITY>
0

>  <SCORE.RESTR.norm>
0

>  <SCORE.SYSTEM>
0

>  <SCORE.SYSTEM.CONST>
0

>  <SCORE.SYSTEM.DIHEDRAL>
0

>  <SCORE.SYSTEM.SOLV>
0

>  <SCORE.SYSTEM.norm>
0

>  <SCORE.heavy>
27

>  <SCORE.norm>
-0.535105

>  <RMSD>
18.395

$$$$
ligand
 OpenBabel02271912153D
libRbt.so/2013.1/901 2013/11/27
 27 29  0  0  0  0  0  0  0  0999 V2000
    8.3089   -0.6832   19.7528 N   0  0  0  0  0  0  0  0  0  0  0  0
    9.5905   -0.9177   20.4872 C   0  0  2  0  0  0  0  0  0  0  0  0
    9.5513   -2.2543   21.2609 C   0  0  0  0  0  0  0  0  0  0  0  0
   10.5131   -3.0285   21.2458 O   0  0  0  0  0  0  0  0  0  0  0  0
    9.8736    0.2672   21.4044 C   0  0  0  0  0  0  0  0  0  0  0  0
   10.0144    1.5996   20.6874 C   0  0  0  0  0  0  0  0  0  0  0  0
   10.2678    2.9994   21.8158 S   0  0  2  0  0  0  0  0  0  0  0  0
   10.3642    4.3730   20.6327 C   0  0  0  0  0  0  0  0  0  0  0  0
   11.9659    2.8839   22.4015 C   0  0  0  0  0  0  0  0  0  0  0  0
   12.0704    1.7399   23.3919 C   0  0  1  0  0  0  0  0  0  0  0  0
   13.3482    1.6660   24.0051 O   0  0  0  0  0  0  0  0  0  0  0  0
   11.0545    1.8743   24.4999 C   0  0  1  0  0  0  0  0  0  0  0  0
    9.8218    1.3323   24.1214 O   0  0  0  0  0  0  0  0  0  0  0  0
   11.7067    1.0796   25.5899 C   0  0  1  0  0  0  0  0  0  0  0  0
   11.3424   -0.2809   25.4541 O   0  0  0  0  0  0  0  0  0  0  0  0
   13.1995    1.2586   25.3456 C   0  0  2  0  0  0  0  0  0  0  0  0
    8.5593   -2.6115   21.9226 O   0  0  0  0  0  0  0  0  0  0  0  0
   13.3139    6.2679   27.0046 N   0  0  0  0  0  0  0  0  0  0  0  0
   12.4972    5.7125   26.0304 C   0  0  0  0  0  0  0  0  0  0  0  0
   12.5998    4.3676   25.6952 N   0  0  0  0  0  0  0  0  0  0  0  0
   13.4920    3.5944   26.3405 C   0  0  0  0  0  0  0  0  0  0  0  0
   14.3098    4.1392   27.3345 C   0  0  0  0  0  0  0  0  0  0  0  0
   14.2333    5.4801   27.6634 C   0  0  0  0  0  0  0  0  0  0  0  0
   15.0181    5.9941   28.5985 N   0  0  0  0  0  0  0  0  0  0  0  0
   15.0846    3.1617   27.8174 N   0  0  0  0  0  0  0  0  0  0  0  0
   14.7802    2.0192   27.1631 C   0  0  0  0  0  0  0  0  0  0  0  0
   13.7899    2.2674   26.2454 N   0  0  0  0  0  0  0  0  0  0  0  0
  2  1  1  1  0  0  0
  2  3  1  0  0  0  0
  2  5  1  0  0  0  0
  3  4  1  0  0  0  0
  3 17  1  0  0  0  0
  5  6  1  0  0  0  0
  7  6  1  6  0  0  0
  7  8  1  0  0  0  0
  7  9  1  0  0  0  0
 10  9  1  6  0  0  0
 10 11  1  0  0  0  0
 10 12  1  0  0  0  0
 11 16  1  0  0  0  0
 12 13  1  6  0  0  0
 12 14  1  0  0  0  0
 14 15  1  6  0  0  0
 14 16  1  0  0  0  0
 16 27  1  1  0  0  0
 18 19  2  0  0  0  0
 18 23  1  0  0  0  0
 19 20  1  0  0  0  0
 20 21  2  0  0  0  0
 21 22  1  0  0  0  0
 21 27  1  0  0  0  0
 22 23  2  0  0  0  0
 22 25  1  0  0  0  0
 23 24  1  0  0  0  0
 25 26  2  0  0  0  0
 26 27  1  0  0  0  0
M  END
>  <CHROM.1>
135.92292062,-60.10989582,177.11042660,-179.24047878,-73.41285354,-173.99226045
56.83493626,11.73411812,1.97561024,24.02670474,2.65937260,0.97776593,2.99888127

>  <Name>
ligand

>  <RI>
0

>  <Rbt.Current_Directory>
/home/itssahil/PROJECTS/Mol_Feturizer/Test_systems_manuscript/rnas/2ydh

>  <Rbt.Executable>
rbdock ($Id: //depot/dev/client3/rdock/2013.1/src/exe/rbdock.cxx#4 $)

>  <Rbt.Library>
libRbt.so (2013.1, Build901 2013/11/27)

>  <Rbt.Parameter_File>
/export/apps/rDock/src/rDock_2013.1_src/data/scripts/dock_solv.prm

>  <Rbt.Receptor>
prm/blind_docking_60.prm

>  <SCORE>
-14.5723

>  <SCORE.INTER>
-13.2287

>  <SCORE.INTER.CONST>
1

>  <SCORE.INTER.POLAR>
0

>  <SCORE.INTER.ROT>
7

>  <SCORE.INTER.SOLV>
15.4168

>  <SCORE.INTER.VDW>
-22.2247

>  <SCORE.INTER.norm>
-0.489951

>  <SCORE.INTRA>
-1.34364

>  <SCORE.INTRA.DIHEDRAL>
-6.28162

>  <SCORE.INTRA.DIHEDRAL.0>
9.75037

>  <SCORE.INTRA.POLAR>
0

>  <SCORE.INTRA.POLAR.0>
0

>  <SCORE.INTRA.REPUL>
0

>  <SCORE.INTRA.REPUL.0>
0

>  <SCORE.INTRA.SOLV>
-0.159814

>  <SCORE.INTRA.SOLV.lig_0>
-48.4279

>  <SCORE.INTRA.VDW>
1.87707

>  <SCORE.INTRA.VDW.0>
-4.69037

>  <SCORE.INTRA.norm>
-0.0497646

>  <SCORE.RESTR>
0

>  <SCORE.RESTR.CAVITY>
0

>  <SCORE.RESTR.norm>
0

>  <SCORE.SYSTEM>
0

>  <SCORE.SYSTEM.CONST>
0

>  <SCORE.SYSTEM.DIHEDRAL>
0

>  <SCORE.SYSTEM.SOLV>
0

>  <SCORE.SYSTEM.norm>
0

>  <SCORE.heavy>
27

>  <SCORE.norm>
-0.539715

>  <RMSD>
18.581

$$$$
ligand
 OpenBabel02271912153D
libRbt.so/2013.1/901 2013/11/27
 27 29  0  0  0  0  0  0  0  0999 V2000
   10.6680    5.6864   27.9034 N   0  0  0  0  0  0  0  0  0  0  0  0
   11.3465    4.5138   27.2699 C   0  0  2  0  0  0  0  0  0  0  0  0
   12.2304    4.9575   26.0830 C   0  0  0  0  0  0  0  0  0  0  0  0
   12.3089    4.2759   25.0564 O   0  0  0  0  0  0  0  0  0  0  0  0
   10.2995    3.4868   26.8520 C   0  0  0  0  0  0  0  0  0  0  0  0
   10.8571    2.1064   26.5474 C   0  0  0  0  0  0  0  0  0  0  0  0
    9.6438    0.9948   25.7799 S   0  0  2  0  0  0  0  0  0  0  0  0
   10.6297   -0.5212   25.6195 C   0  0  0  0  0  0  0  0  0  0  0  0
    9.4781    1.5221   24.0670 C   0  0  0  0  0  0  0  0  0  0  0  0
    8.5231    2.6987   24.0021 C   0  0  1  0  0  0  0  0  0  0  0  0
    8.7367    3.5105   22.8578 O   0  0  0  0  0  0  0  0  0  0  0  0
    7.0855    2.2413   23.9587 C   0  0  1  0  0  0  0  0  0  0  0  0
    6.5915    2.0101   25.2468 O   0  0  0  0  0  0  0  0  0  0  0  0
    6.4258    3.4181   23.3069 C   0  0  1  0  0  0  0  0  0  0  0  0
    6.0704    4.3605   24.3008 O   0  0  0  0  0  0  0  0  0  0  0  0
    7.4979    3.9906   22.3887 C   0  0  2  0  0  0  0  0  0  0  0  0
   12.9004    6.0063   26.1077 O   0  0  0  0  0  0  0  0  0  0  0  0
    5.5009    5.1070   17.6322 N   0  0  0  0  0  0  0  0  0  0  0  0
    5.4410    5.8794   18.7830 C   0  0  0  0  0  0  0  0  0  0  0  0
    6.0091    5.4349   19.9709 N   0  0  0  0  0  0  0  0  0  0  0  0
    6.6407    4.2471   19.9947 C   0  0  0  0  0  0  0  0  0  0  0  0
    6.7208    3.4669   18.8378 C   0  0  0  0  0  0  0  0  0  0  0  0
    6.1418    3.8869   17.6546 C   0  0  0  0  0  0  0  0  0  0  0  0
    6.2109    3.1389   16.5636 N   0  0  0  0  0  0  0  0  0  0  0  0
    7.4057    2.3563   19.1320 N   0  0  0  0  0  0  0  0  0  0  0  0
    7.7621    2.4123   20.4343 C   0  0  0  0  0  0  0  0  0  0  0  0
    7.2999    3.5816   20.9853 N   0  0  0  0  0  0  0  0  0  0  0  0
  2  1  1  6  0  0  0
  2  3  1  0  0  0  0
  2  5  1  0  0  0  0
  3  4  1  0  0  0  0
  3 17  1  0  0  0  0
  5  6  1  0  0  0  0
  7  6  1  1  0  0  0
  7  8  1  0  0  0  0
  7  9  1  0  0  0  0
 10  9  1  6  0  0  0
 10 11  1  0  0  0  0
 10 12  1  0  0  0  0
 11 16  1  0  0  0  0
 12 13  1  1  0  0  0
 12 14  1  0  0  0  0
 14 15  1  1  0  0  0
 14 16  1  0  0  0  0
 16 27  1  6  0  0  0
 18 19  2  0  0  0  0
 18 23  1  0  0  0  0
 19 20  1  0  0  0  0
 20 21  2  0  0  0  0
 21 22  1  0  0  0  0
 21 27  1  0  0  0  0
 22 23  2  0  0  0  0
 22 25  1  0  0  0  0
 23 24  1  0  0  0  0
 25 26  2  0  0  0  0
 26 27  1  0  0  0  0
M  END
>  <CHROM.1>
-141.81703346,-164.18940704,-169.92839488,-178.34892397,-81.82457726,155.75646785
-147.55242093,8.50455602,3.37859026,23.11607763,-0.51123801,-0.92666718,-0.51645807

>  <Name>
ligand

>  <RI>
0

>  <Rbt.Current_Directory>
/home/itssahil/PROJECTS/Mol_Feturizer/Test_systems_manuscript/rnas/2ydh

>  <Rbt.Executable>
rbdock ($Id: //depot/dev/client3/rdock/2013.1/src/exe/rbdock.cxx#4 $)

>  <Rbt.Library>
libRbt.so (2013.1, Build901 2013/11/27)

>  <Rbt.Parameter_File>
/export/apps/rDock/src/rDock_2013.1_src/data/scripts/dock_solv.prm

>  <Rbt.Receptor>
prm/blind_docking_60.prm

>  <SCORE>
-9.8753

>  <SCORE.INTER>
-9.67636

>  <SCORE.INTER.CONST>
1

>  <SCORE.INTER.POLAR>
0

>  <SCORE.INTER.ROT>
7

>  <SCORE.INTER.SOLV>
6.8654

>  <SCORE.INTER.VDW>
-17.006

>  <SCORE.INTER.norm>
-0.358384

>  <SCORE.INTRA>
-0.198949

>  <SCORE.INTRA.DIHEDRAL>
-2.79071

>  <SCORE.INTRA.DIHEDRAL.0>
9.75037

>  <SCORE.INTRA.POLAR>
0

>  <SCORE.INTRA.POLAR.0>
0

>  <SCORE.INTRA.REPUL>
0

>  <SCORE.INTRA.REPUL.0>
0

>  <SCORE.INTRA.SOLV>
-1.34869

>  <SCORE.INTRA.SOLV.lig_0>
-48.4279

>  <SCORE.INTRA.VDW>
1.87075

>  <SCORE.INTRA.VDW.0>
-4.69037

>  <SCORE.INTRA.norm>
-0.00736849

>  <SCORE.RESTR>
0

>  <SCORE.RESTR.CAVITY>
0

>  <SCORE.RESTR.norm>
0

>  <SCORE.SYSTEM>
0

>  <SCORE.SYSTEM.CONST>
0

>  <SCORE.SYSTEM.DIHEDRAL>
0

>  <SCORE.SYSTEM.SOLV>
0

>  <SCORE.SYSTEM.norm>
0

>  <SCORE.heavy>
27

>  <SCORE.norm>
-0.365752

>  <RMSD>
18.590

$$$$
ligand
 OpenBabel02271912153D
libRbt.so/2013.1/901 2013/11/27
 27 29  0  0  0  0  0  0  0  0999 V2000
    8.6400    6.6091   28.7543 N   0  0  0  0  0  0  0  0  0  0  0  0
    9.1734    5.7429   27.6580 C   0  0  2  0  0  0  0  0  0  0  0  0
   10.6323    6.1170   27.3139 C   0  0  0  0  0  0  0  0  0  0  0  0
   11.2267    7.0037   27.9345 O   0  0  0  0  0  0  0  0  0  0  0  0
    8.2557    5.8388   26.4438 C   0  0  0  0  0  0  0  0  0  0  0  0
    8.5683    4.8451   25.3375 C   0  0  0  0  0  0  0  0  0  0  0  0
    7.8894    3.1895   25.6461 S   0  0  2  0  0  0  0  0  0  0  0  0
    8.9524    2.6381   27.0105 C   0  0  0  0  0  0  0  0  0  0  0  0
    8.4449    2.1471   24.2879 C   0  0  0  0  0  0  0  0  0  0  0  0
    7.9160    2.7117   22.9832 C   0  0  1  0  0  0  0  0  0  0  0  0
    8.4477    2.0472   21.8474 O   0  0  0  0  0  0  0  0  0  0  0  0
    6.4134    2.5964   22.9006 C   0  0  1  0  0  0  0  0  0  0  0  0
    5.7900    3.6777   23.5321 O   0  0  0  0  0  0  0  0  0  0  0  0
    6.2018    2.6140   21.4174 C   0  0  1  0  0  0  0  0  0  0  0  0
    6.0987    3.9554   20.9790 O   0  0  0  0  0  0  0  0  0  0  0  0
    7.4565    1.9629   20.8498 C   0  0  2  0  0  0  0  0  0  0  0  0
   11.2670    5.5535   26.4034 O   0  0  0  0  0  0  0  0  0  0  0  0
    7.6570   -3.1198   22.2586 N   0  0  0  0  0  0  0  0  0  0  0  0
    8.0028   -2.0118   23.0184 C   0  0  0  0  0  0  0  0  0  0  0  0
    7.9060   -0.7286   22.4936 N   0  0  0  0  0  0  0  0  0  0  0  0
    7.4524   -0.5632   21.2378 C   0  0  0  0  0  0  0  0  0  0  0  0
    7.0864   -1.6709   20.4678 C   0  0  0  0  0  0  0  0  0  0  0  0
    7.1978   -2.9545   20.9696 C   0  0  0  0  0  0  0  0  0  0  0  0
    6.8600   -4.0017   20.2321 N   0  0  0  0  0  0  0  0  0  0  0  0
    6.6624   -1.2288   19.2788 N   0  0  0  0  0  0  0  0  0  0  0  0
    6.7462    0.1199   19.2752 C   0  0  0  0  0  0  0  0  0  0  0  0
    7.2302    0.5516   20.4850 N   0  0  0  0  0  0  0  0  0  0  0  0
  2  1  1  1  0  0  0
  2  3  1  0  0  0  0
  2  5  1  0  0  0  0
  3  4  1  0  0  0  0
  3 17  1  0  0  0  0
  5  6  1  0  0  0  0
  7  6  1  6  0  0  0
  7  8  1  0  0  0  0
  7  9  1  0  0  0  0
 10  9  1  1  0  0  0
 10 11  1  0  0  0  0
 10 12  1  0  0  0  0
 11 16  1  0  0  0  0
 12 13  1  1  0  0  0
 12 14  1  0  0  0  0
 14 15  1  6  0  0  0
 14 16  1  0  0  0  0
 16 27  1  1  0  0  0
 18 19  2  0  0  0  0
 18 23  1  0  0  0  0
 19 20  1  0  0  0  0
 20 21  2  0  0  0  0
 21 22  1  0  0  0  0
 21 27  1  0  0  0  0
 22 23  2  0  0  0  0
 22 25  1  0  0  0  0
 23 24  1  0  0  0  0
 25 26  2  0  0  0  0
 26 27  1  0  0  0  0
M  END
>  <CHROM.1>
1.84810680,-171.12040996,80.93058971,-70.47953915,-60.38707342,172.49117986
25.04063598,7.95814008,2.15871034,23.54895103,-1.06427068,1.03491241,-2.84877482

>  <Name>
ligand

>  <RI>
0

>  <Rbt.Current_Directory>
/home/itssahil/PROJECTS/Mol_Feturizer/Test_systems_manuscript/rnas/2ydh

>  <Rbt.Executable>
rbdock ($Id: //depot/dev/client3/rdock/2013.1/src/exe/rbdock.cxx#4 $)

>  <Rbt.Library>
libRbt.so (2013.1, Build901 2013/11/27)

>  <Rbt.Parameter_File>
/export/apps/rDock/src/rDock_2013.1_src/data/scripts/dock_solv.prm

>  <Rbt.Receptor>
prm/blind_docking_100.prm

>  <SCORE>
-8.91351

>  <SCORE.INTER>
-8.19203

>  <SCORE.INTER.CONST>
1

>  <SCORE.INTER.POLAR>
0

>  <SCORE.INTER.ROT>
7

>  <SCORE.INTER.SOLV>
8.76801

>  <SCORE.INTER.VDW>
-16.6507

>  <SCORE.INTER.norm>
-0.303408

>  <SCORE.INTRA>
-0.721481

>  <SCORE.INTRA.DIHEDRAL>
-4.54558

>  <SCORE.INTRA.DIHEDRAL.0>
9.75037

>  <SCORE.INTRA.POLAR>
0

>  <SCORE.INTRA.POLAR.0>
0

>  <SCORE.INTRA.REPUL>
0

>  <SCORE.INTRA.REPUL.0>
0

>  <SCORE.INTRA.SOLV>
-0.744789

>  <SCORE.INTRA.SOLV.lig_0>
-48.4279

>  <SCORE.INTRA.VDW>
1.9237

>  <SCORE.INTRA.VDW.0>
-4.69037

>  <SCORE.INTRA.norm>
-0.0267215

>  <SCORE.RESTR>
0

>  <SCORE.RESTR.CAVITY>
0

>  <SCORE.RESTR.norm>
0

>  <SCORE.SYSTEM>
0

>  <SCORE.SYSTEM.CONST>
0

>  <SCORE.SYSTEM.DIHEDRAL>
0

>  <SCORE.SYSTEM.SOLV>
0

>  <SCORE.SYSTEM.norm>
0

>  <SCORE.heavy>
27

>  <SCORE.norm>
-0.33013

>  <RMSD>
18.685

$$$$
ligand
 OpenBabel02271912153D
libRbt.so/2013.1/901 2013/11/27
 27 29  0  0  0  0  0  0  0  0999 V2000
   10.6209    5.9030   29.8600 N   0  0  0  0  0  0  0  0  0  0  0  0
   11.1499    6.9246   28.9044 C   0  0  2  0  0  0  0  0  0  0  0  0
   10.8025    8.3555   29.3719 C   0  0  0  0  0  0  0  0  0  0  0  0
   11.6841    9.2043   29.5366 O   0  0  0  0  0  0  0  0  0  0  0  0
   10.6176    6.6339   27.5052 C   0  0  0  0  0  0  0  0  0  0  0  0
   11.0810    5.3117   26.9168 C   0  0  0  0  0  0  0  0  0  0  0  0
   10.6745    5.1267   25.1568 S   0  0  2  0  0  0  0  0  0  0  0  0
    8.8718    4.9314   25.2459 C   0  0  0  0  0  0  0  0  0  0  0  0
   11.2112    3.4767   24.6781 C   0  0  0  0  0  0  0  0  0  0  0  0
   11.5634    3.4801   23.2028 C   0  0  1  0  0  0  0  0  0  0  0  0
   12.0710    2.2304   22.7616 O   0  0  0  0  0  0  0  0  0  0  0  0
   10.3599    3.7958   22.3485 C   0  0  1  0  0  0  0  0  0  0  0  0
   10.1757    5.1773   22.2289 O   0  0  0  0  0  0  0  0  0  0  0  0
   10.7544    3.1669   21.0471 C   0  0  1  0  0  0  0  0  0  0  0  0
   11.5051    4.0976   20.2904 O   0  0  0  0  0  0  0  0  0  0  0  0
   11.6236    1.9823   21.4488 C   0  0  2  0  0  0  0  0  0  0  0  0
    9.6338    8.7137   29.6067 O   0  0  0  0  0  0  0  0  0  0  0  0
    7.5786   -0.7788   19.4810 N   0  0  0  0  0  0  0  0  0  0  0  0
    7.9321    0.5323   19.1972 C   0  0  0  0  0  0  0  0  0  0  0  0
    9.0267    1.1256   19.8147 N   0  0  0  0  0  0  0  0  0  0  0  0
    9.7610    0.4081   20.6844 C   0  0  0  0  0  0  0  0  0  0  0  0
    9.4237   -0.9185   20.9669 C   0  0  0  0  0  0  0  0  0  0  0  0
    8.3248   -1.5148   20.3761 C   0  0  0  0  0  0  0  0  0  0  0  0
    8.0028   -2.7689   20.6554 N   0  0  0  0  0  0  0  0  0  0  0  0
   10.3150   -1.3969   21.8420 N   0  0  0  0  0  0  0  0  0  0  0  0
   11.2038   -0.4170   22.1178 C   0  0  0  0  0  0  0  0  0  0  0  0
   10.8787    0.7098   21.4045 N   0  0  0  0  0  0  0  0  0  0  0  0
  2  1  1  1  0  0  0
  2  3  1  0  0  0  0
  2  5  1  0  0  0  0
  3  4  1  0  0  0  0
  3 17  1  0  0  0  0
  5  6  1  0  0  0  0
  7  6  1  1  0  0  0
  7  8  1  0  0  0  0
  7  9  1  0  0  0  0
 10  9  1  1  0  0  0
 10 11  1  0  0  0  0
 10 12  1  0  0  0  0
 11 16  1  0  0  0  0
 12 13  1  6  0  0  0
 12 14  1  0  0  0  0
 14 15  1  6  0  0  0
 14 16  1  0  0  0  0
 16 27  1  1  0  0  0
 18 19  2  0  0  0  0
 18 23  1  0  0  0  0
 19 20  1  0  0  0  0
 20 21  2  0  0  0  0
 21 22  1  0  0  0  0
 21 27  1  0  0  0  0
 22 23  2  0  0  0  0
 22 25  1  0  0  0  0
 23 24  1  0  0  0  0
 25 26  2  0  0  0  0
 26 27  1  0  0  0  0
M  END
>  <CHROM.1>
124.36506377,-63.94244147,-169.91983535,-70.46957589,-151.67907636,176.60475455
141.90501304,10.29919744,3.31491157,23.73792373,1.25782254,1.15512888,1.10098598

>  <Name>
ligand

>  <RI>
0

>  <Rbt.Current_Directory>
/home/itssahil/PROJECTS/Mol_Feturizer/Test_systems_manuscript/rnas/2ydh

>  <Rbt.Executable>
rbdock ($Id: //depot/dev/client3/rdock/2013.1/src/exe/rbdock.cxx#4 $)

>  <Rbt.Library>
libRbt.so (2013.1, Build901 2013/11/27)

>  <Rbt.Parameter_File>
/export/apps/rDock/src/rDock_2013.1_src/data/scripts/dock_solv.prm

>  <Rbt.Receptor>
prm/blind_docking_40.prm

>  <SCORE>
-12.9875

>  <SCORE.INTER>
-13.8647

>  <SCORE.INTER.CONST>
1

>  <SCORE.INTER.POLAR>
0

>  <SCORE.INTER.ROT>
7

>  <SCORE.INTER.SOLV>
10.9654

>  <SCORE.INTER.VDW>
-21.1649

>  <SCORE.INTER.norm>
-0.513508

>  <SCORE.INTRA>
0.877268

>  <SCORE.INTRA.DIHEDRAL>
-3.32174

>  <SCORE.INTRA.DIHEDRAL.0>
9.75037

>  <SCORE.INTRA.POLAR>
0

>  <SCORE.INTRA.POLAR.0>
0

>  <SCORE.INTRA.REPUL>
0

>  <SCORE.INTRA.REPUL.0>
0

>  <SCORE.INTRA.SOLV>
-0.559065

>  <SCORE.INTRA.SOLV.lig_0>
-48.4279

>  <SCORE.INTRA.VDW>
2.81767

>  <SCORE.INTRA.VDW.0>
-4.69037

>  <SCORE.INTRA.norm>
0.0324914

>  <SCORE.RESTR>
0

>  <SCORE.RESTR.CAVITY>
0

>  <SCORE.RESTR.norm>
0

>  <SCORE.SYSTEM>
0

>  <SCORE.SYSTEM.CONST>
0

>  <SCORE.SYSTEM.DIHEDRAL>
0

>  <SCORE.SYSTEM.SOLV>
0

>  <SCORE.SYSTEM.norm>
0

>  <SCORE.heavy>
27

>  <SCORE.norm>
-0.481017

>  <RMSD>
18.765

$$$$
ligand
 OpenBabel02271912153D
libRbt.so/2013.1/901 2013/11/27
 27 29  0  0  0  0  0  0  0  0999 V2000
   10.0406    1.8447   20.6147 N   0  0  0  0  0  0  0  0  0  0  0  0
   11.1801    1.3572   21.4517 C   0  0  2  0  0  0  0  0  0  0  0  0
   10.9054   -0.0643   21.9909 C   0  0  0  0  0  0  0  0  0  0  0  0
   11.0322   -1.0566   21.2671 O   0  0  0  0  0  0  0  0  0  0  0  0
   11.4477    2.3541   22.5743 C   0  0  0  0  0  0  0  0  0  0  0  0
   12.5762    1.9590   23.5121 C   0  0  0  0  0  0  0  0  0  0  0  0
   12.5544    2.8664   25.0848 S   0  0  2  0  0  0  0  0  0  0  0  0
   13.6288    1.8108   26.0981 C   0  0  0  0  0  0  0  0  0  0  0  0
   10.9370    2.5776   25.8200 C   0  0  0  0  0  0  0  0  0  0  0  0
   10.1694    3.8854   25.8554 C   0  0  1  0  0  0  0  0  0  0  0  0
   10.3321    4.6442   24.6672 O   0  0  0  0  0  0  0  0  0  0  0  0
    8.6889    3.6520   26.0327 C   0  0  1  0  0  0  0  0  0  0  0  0
    8.3597    3.5110   27.3849 O   0  0  0  0  0  0  0  0  0  0  0  0
    8.1242    4.9093   25.4452 C   0  0  1  0  0  0  0  0  0  0  0  0
    8.0629    5.9043   26.4494 O   0  0  0  0  0  0  0  0  0  0  0  0
    9.1239    5.3031   24.3653 C   0  0  2  0  0  0  0  0  0  0  0  0
   10.5428   -0.2729   23.1632 O   0  0  0  0  0  0  0  0  0  0  0  0
    5.3489    3.1649   21.3593 N   0  0  0  0  0  0  0  0  0  0  0  0
    5.3403    3.3474   22.7345 C   0  0  0  0  0  0  0  0  0  0  0  0
    6.4278    3.9180   23.3852 N   0  0  0  0  0  0  0  0  0  0  0  0
    7.4927    4.3140   22.6645 C   0  0  0  0  0  0  0  0  0  0  0  0
    7.5067    4.1493   21.2766 C   0  0  0  0  0  0  0  0  0  0  0  0
    6.4408    3.5637   20.6187 C   0  0  0  0  0  0  0  0  0  0  0  0
    6.4633    3.3998   19.3044 N   0  0  0  0  0  0  0  0  0  0  0  0
    8.6633    4.6344   20.8120 N   0  0  0  0  0  0  0  0  0  0  0  0
    9.3768    5.1017   21.8602 C   0  0  0  0  0  0  0  0  0  0  0  0
    8.6638    4.9157   23.0184 N   0  0  0  0  0  0  0  0  0  0  0  0
  2  1  1  1  0  0  0
  2  3  1  0  0  0  0
  2  5  1  0  0  0  0
  3  4  1  0  0  0  0
  3 17  1  0  0  0  0
  5  6  1  0  0  0  0
  7  6  1  6  0  0  0
  7  8  1  0  0  0  0
  7  9  1  0  0  0  0
 10  9  1  6  0  0  0
 10 11  1  0  0  0  0
 10 12  1  0  0  0  0
 11 16  1  0  0  0  0
 12 13  1  1  0  0  0
 12 14  1  0  0  0  0
 14 15  1  1  0  0  0
 14 16  1  0  0  0  0
 16 27  1  6  0  0  0
 18 19  2  0  0  0  0
 18 23  1  0  0  0  0
 19 20  1  0  0  0  0
 20 21  2  0  0  0  0
 21 22  1  0  0  0  0
 21 27  1  0  0  0  0
 22 23  2  0  0  0  0
 22 25  1  0  0  0  0
 23 24  1  0  0  0  0
 25 26  2  0  0  0  0
 26 27  1  0  0  0  0
M  END
>  <CHROM.1>
77.44599692,179.12793324,-162.73249792,162.72731562,-113.71334330,41.32134601
120.54620395,9.45439120,3.12469090,23.43988619,-2.85585318,-0.54733854,1.04964652

>  <Name>
ligand

>  <RI>
0

>  <Rbt.Current_Directory>
/home/itssahil/PROJECTS/Mol_Feturizer/Test_systems_manuscript/rnas/2ydh

>  <Rbt.Executable>
rbdock ($Id: //depot/dev/client3/rdock/2013.1/src/exe/rbdock.cxx#4 $)

>  <Rbt.Library>
libRbt.so (2013.1, Build901 2013/11/27)

>  <Rbt.Parameter_File>
/export/apps/rDock/src/rDock_2013.1_src/data/scripts/dock_solv.prm

>  <Rbt.Receptor>
prm/blind_docking_60.prm

>  <SCORE>
-11.3946

>  <SCORE.INTER>
-12.8964

>  <SCORE.INTER.CONST>
1

>  <SCORE.INTER.POLAR>
0

>  <SCORE.INTER.ROT>
7

>  <SCORE.INTER.SOLV>
12.258

>  <SCORE.INTER.VDW>
-20.9503

>  <SCORE.INTER.norm>
-0.477646

>  <SCORE.INTRA>
1.50187

>  <SCORE.INTRA.DIHEDRAL>
-0.301351

>  <SCORE.INTRA.DIHEDRAL.0>
9.75037

>  <SCORE.INTRA.POLAR>
0

>  <SCORE.INTRA.POLAR.0>
0

>  <SCORE.INTRA.REPUL>
0

>  <SCORE.INTRA.REPUL.0>
0

>  <SCORE.INTRA.SOLV>
0.1903

>  <SCORE.INTRA.SOLV.lig_0>
-48.4279

>  <SCORE.INTRA.VDW>
1.5574

>  <SCORE.INTRA.VDW.0>
-4.69037

>  <SCORE.INTRA.norm>
0.0556248

>  <SCORE.RESTR>
0

>  <SCORE.RESTR.CAVITY>
0

>  <SCORE.RESTR.norm>
0

>  <SCORE.SYSTEM>
0

>  <SCORE.SYSTEM.CONST>
0

>  <SCORE.SYSTEM.DIHEDRAL>
0

>  <SCORE.SYSTEM.SOLV>
0

>  <SCORE.SYSTEM.norm>
0

>  <SCORE.heavy>
27

>  <SCORE.norm>
-0.422021

>  <RMSD>
18.780

$$$$
ligand
 OpenBabel02271912153D
libRbt.so/2013.1/901 2013/11/27
 27 29  0  0  0  0  0  0  0  0999 V2000
   14.6026    1.4773   25.7687 N   0  0  0  0  0  0  0  0  0  0  0  0
   13.2714    1.7822   26.3784 C   0  0  2  0  0  0  0  0  0  0  0  0
   12.1796    0.8360   25.8313 C   0  0  0  0  0  0  0  0  0  0  0  0
   11.5811    0.0543   26.5765 O   0  0  0  0  0  0  0  0  0  0  0  0
   12.9293    3.2494   26.1417 C   0  0  0  0  0  0  0  0  0  0  0  0
   11.7090    3.7424   26.9014 C   0  0  0  0  0  0  0  0  0  0  0  0
   11.1381    5.3787   26.3595 S   0  0  2  0  0  0  0  0  0  0  0  0
    9.9424    5.7691   27.6685 C   0  0  0  0  0  0  0  0  0  0  0  0
   10.0680    5.1029   24.9387 C   0  0  0  0  0  0  0  0  0  0  0  0
    8.7961    4.4193   25.4031 C   0  0  1  0  0  0  0  0  0  0  0  0
    7.6342    4.9590   24.7926 O   0  0  0  0  0  0  0  0  0  0  0  0
    8.8164    2.9432   25.0893 C   0  0  1  0  0  0  0  0  0  0  0  0
    9.4771    2.2244   26.0911 O   0  0  0  0  0  0  0  0  0  0  0  0
    7.3508    2.6344   25.0499 C   0  0  1  0  0  0  0  0  0  0  0  0
    6.9062    2.3255   26.3573 O   0  0  0  0  0  0  0  0  0  0  0  0
    6.7067    3.9245   24.5589 C   0  0  2  0  0  0  0  0  0  0  0  0
   11.8600    0.8136   24.6285 O   0  0  0  0  0  0  0  0  0  0  0  0
    8.0656    5.0666   19.5882 N   0  0  0  0  0  0  0  0  0  0  0  0
    8.7739    5.3422   20.7488 C   0  0  0  0  0  0  0  0  0  0  0  0
    8.2695    4.9859   21.9939 N   0  0  0  0  0  0  0  0  0  0  0  0
    7.0868    4.3487   22.0674 C   0  0  0  0  0  0  0  0  0  0  0  0
    6.3711    4.0521   20.9041 C   0  0  0  0  0  0  0  0  0  0  0  0
    6.8507    4.4195   19.6603 C   0  0  0  0  0  0  0  0  0  0  0  0
    6.1636    4.1459   18.5614 N   0  0  0  0  0  0  0  0  0  0  0  0
    5.2511    3.4116   21.2568 N   0  0  0  0  0  0  0  0  0  0  0  0
    5.2389    3.2923   22.6028 C   0  0  0  0  0  0  0  0  0  0  0  0
    6.3731    3.8642   23.1232 N   0  0  0  0  0  0  0  0  0  0  0  0
  2  1  1  6  0  0  0
  2  3  1  0  0  0  0
  2  5  1  0  0  0  0
  3  4  1  0  0  0  0
  3 17  1  0  0  0  0
  5  6  1  0  0  0  0
  7  6  1  1  0  0  0
  7  8  1  0  0  0  0
  7  9  1  0  0  0  0
 10  9  1  6  0  0  0
 10 11  1  0  0  0  0
 10 12  1  0  0  0  0
 11 16  1  0  0  0  0
 12 13  1  1  0  0  0
 12 14  1  0  0  0  0
 14 15  1  1  0  0  0
 14 16  1  0  0  0  0
 16 27  1  6  0  0  0
 18 19  2  0  0  0  0
 18 23  1  0  0  0  0
 19 20  1  0  0  0  0
 20 21  2  0  0  0  0
 21 22  1  0  0  0  0
 21 27  1  0  0  0  0
 22 23  2  0  0  0  0
 22 25  1  0  0  0  0
 23 24  1  0  0  0  0
 25 26  2  0  0  0  0
 26 27  1  0  0  0  0
M  END
>  <CHROM.1>
116.98458621,-170.65429550,-168.78637704,-168.94124314,68.88384769,137.43986855
20.98004174,9.16762439,3.55685476,24.24551058,-0.65947877,0.48277578,-1.80093764

>  <Name>
ligand

>  <RI>
0

>  <Rbt.Current_Directory>
/home/itssahil/PROJECTS/Mol_Feturizer/Test_systems_manuscript/rnas/2ydh

>  <Rbt.Executable>
rbdock ($Id: //depot/dev/client3/rdock/2013.1/src/exe/rbdock.cxx#4 $)

>  <Rbt.Library>
libRbt.so (2013.1, Build901 2013/11/27)

>  <Rbt.Parameter_File>
/export/apps/rDock/src/rDock_2013.1_src/data/scripts/dock_solv.prm

>  <Rbt.Receptor>
prm/blind_docking_40.prm

>  <SCORE>
-8.03041

>  <SCORE.INTER>
-10.0976

>  <SCORE.INTER.CONST>
1

>  <SCORE.INTER.POLAR>
0

>  <SCORE.INTER.ROT>
7

>  <SCORE.INTER.SOLV>
9.66806

>  <SCORE.INTER.VDW>
-18.2211

>  <SCORE.INTER.norm>
-0.373985

>  <SCORE.INTRA>
2.06719

>  <SCORE.INTRA.DIHEDRAL>
-0.0082292

>  <SCORE.INTRA.DIHEDRAL.0>
9.75037

>  <SCORE.INTRA.POLAR>
0

>  <SCORE.INTRA.POLAR.0>
0

>  <SCORE.INTRA.REPUL>
0

>  <SCORE.INTRA.REPUL.0>
0

>  <SCORE.INTRA.SOLV>
-0.646144

>  <SCORE.INTRA.SOLV.lig_0>
-48.4279

>  <SCORE.INTRA.VDW>
2.39438

>  <SCORE.INTRA.VDW.0>
-4.69037

>  <SCORE.INTRA.norm>
0.0765628

>  <SCORE.RESTR>
0

>  <SCORE.RESTR.CAVITY>
0

>  <SCORE.RESTR.norm>
0

>  <SCORE.SYSTEM>
0

>  <SCORE.SYSTEM.CONST>
0

>  <SCORE.SYSTEM.DIHEDRAL>
0

>  <SCORE.SYSTEM.SOLV>
0

>  <SCORE.SYSTEM.norm>
0

>  <SCORE.heavy>
27

>  <SCORE.norm>
-0.297423

>  <RMSD>
19.422

$$$$
ligand
 OpenBabel02271912153D
libRbt.so/2013.1/901 2013/11/27
 27 29  0  0  0  0  0  0  0  0999 V2000
    7.0348   -5.2412   20.8531 N   0  0  0  0  0  0  0  0  0  0  0  0
    7.3187   -4.4101   22.0636 C   0  0  2  0  0  0  0  0  0  0  0  0
    6.1413   -4.4626   23.0624 C   0  0  0  0  0  0  0  0  0  0  0  0
    5.0254   -4.0316   22.7563 O   0  0  0  0  0  0  0  0  0  0  0  0
    7.6428   -2.9831   21.6344 C   0  0  0  0  0  0  0  0  0  0  0  0
    7.9542   -2.0356   22.7809 C   0  0  0  0  0  0  0  0  0  0  0  0
    8.5621   -0.4159   22.2294 S   0  0  2  0  0  0  0  0  0  0  0  0
   10.2897   -0.8179   21.8429 C   0  0  0  0  0  0  0  0  0  0  0  0
    8.7305    0.5980   23.7071 C   0  0  0  0  0  0  0  0  0  0  0  0
    7.5255    1.5123   23.8191 C   0  0  1  0  0  0  0  0  0  0  0  0
    7.2696    1.9140   25.1560 O   0  0  0  0  0  0  0  0  0  0  0  0
    7.7097    2.7705   23.0061 C   0  0  1  0  0  0  0  0  0  0  0  0
    7.3358    2.5682   21.6735 O   0  0  0  0  0  0  0  0  0  0  0  0
    6.7824    3.7115   23.7131 C   0  0  1  0  0  0  0  0  0  0  0  0
    5.4830    3.5792   23.1688 O   0  0  0  0  0  0  0  0  0  0  0  0
    6.8033    3.2435   25.1625 C   0  0  2  0  0  0  0  0  0  0  0  0
    6.2620   -4.9306   24.2095 O   0  0  0  0  0  0  0  0  0  0  0  0
   10.6556    3.4921   28.7620 N   0  0  0  0  0  0  0  0  0  0  0  0
   10.0891    2.3579   28.1987 C   0  0  0  0  0  0  0  0  0  0  0  0
    9.0640    2.4606   27.2660 N   0  0  0  0  0  0  0  0  0  0  0  0
    8.6319    3.6793   26.8940 C   0  0  0  0  0  0  0  0  0  0  0  0
    9.2053    4.8296   27.4432 C   0  0  0  0  0  0  0  0  0  0  0  0
   10.2112    4.7420   28.3878 C   0  0  0  0  0  0  0  0  0  0  0  0
   10.7439    5.8349   28.9135 N   0  0  0  0  0  0  0  0  0  0  0  0
    8.6073    5.8939   26.8965 N   0  0  0  0  0  0  0  0  0  0  0  0
    7.6788    5.4525   26.0195 C   0  0  0  0  0  0  0  0  0  0  0  0
    7.6829    4.0799   26.0009 N   0  0  0  0  0  0  0  0  0  0  0  0
  2  1  1  6  0  0  0
  2  3  1  0  0  0  0
  2  5  1  0  0  0  0
  3  4  1  0  0  0  0
  3 17  1  0  0  0  0
  5  6  1  0  0  0  0
  7  6  1  1  0  0  0
  7  8  1  0  0  0  0
  7  9  1  0  0  0  0
 10  9  1  1  0  0  0
 10 11  1  0  0  0  0
 10 12  1  0  0  0  0
 11 16  1  0  0  0  0
 12 13  1  6  0  0  0
 12 14  1  0  0  0  0
 14 15  1  6  0  0  0
 14 16  1  0  0  0  0
 16 27  1  1  0  0  0
 18 19  2  0  0  0  0
 18 23  1  0  0  0  0
 19 20  1  0  0  0  0
 20 21  2  0  0  0  0
 21 22  1  0  0  0  0
 21 27  1  0  0  0  0
 22 23  2  0  0  0  0
 22 25  1  0  0  0  0
 23 24  1  0  0  0  0
 25 26  2  0  0  0  0
 26 27  1  0  0  0  0
M  END
>  <CHROM.1>
-62.88935442,-179.87621263,171.83894886,-78.67947981,-99.95138735,154.93981545
-13.82248919,7.99336299,1.06973445,24.45279607,-2.00903284,-1.05067141,0.16375976

>  <Name>
ligand

>  <RI>
0

>  <Rbt.Current_Directory>
/home/itssahil/PROJECTS/Mol_Feturizer/Test_systems_manuscript/rnas/2ydh

>  <Rbt.Executable>
rbdock ($Id: //depot/dev/client3/rdock/2013.1/src/exe/rbdock.cxx#4 $)

>  <Rbt.Library>
libRbt.so (2013.1, Build901 2013/11/27)

>  <Rbt.Parameter_File>
/export/apps/rDock/src/rDock_2013.1_src/data/scripts/dock_solv.prm

>  <Rbt.Receptor>
prm/blind_docking_60.prm

>  <SCORE>
-11.6723

>  <SCORE.INTER>
-12.2934

>  <SCORE.INTER.CONST>
1

>  <SCORE.INTER.POLAR>
0

>  <SCORE.INTER.ROT>
7

>  <SCORE.INTER.SOLV>
7.15257

>  <SCORE.INTER.VDW>
-18.8465

>  <SCORE.INTER.norm>
-0.455312

>  <SCORE.INTRA>
0.621082

>  <SCORE.INTRA.DIHEDRAL>
-1.59806

>  <SCORE.INTRA.DIHEDRAL.0>
9.75037

>  <SCORE.INTRA.POLAR>
0

>  <SCORE.INTRA.POLAR.0>
0

>  <SCORE.INTRA.REPUL>
0

>  <SCORE.INTRA.REPUL.0>
0

>  <SCORE.INTRA.SOLV>
-1.42026

>  <SCORE.INTRA.SOLV.lig_0>
-48.4279

>  <SCORE.INTRA.VDW>
2.13024

>  <SCORE.INTRA.VDW.0>
-4.69037

>  <SCORE.INTRA.norm>
0.023003

>  <SCORE.RESTR>
0

>  <SCORE.RESTR.CAVITY>
0

>  <SCORE.RESTR.norm>
0

>  <SCORE.SYSTEM>
0

>  <SCORE.SYSTEM.CONST>
0

>  <SCORE.SYSTEM.DIHEDRAL>
0

>  <SCORE.SYSTEM.SOLV>
0

>  <SCORE.SYSTEM.norm>
0

>  <SCORE.heavy>
27

>  <SCORE.norm>
-0.432309

>  <RMSD>
19.514

$$$$
ligand
 OpenBabel02271912153D
libRbt.so/2013.1/901 2013/11/27
 27 29  0  0  0  0  0  0  0  0999 V2000
    8.3111   -1.5038   20.2277 N   0  0  0  0  0  0  0  0  0  0  0  0
    9.3351   -1.4359   21.3156 C   0  0  2  0  0  0  0  0  0  0  0  0
    8.6884   -1.6518   22.7019 C   0  0  0  0  0  0  0  0  0  0  0  0
    8.8704   -2.6963   23.3349 O   0  0  0  0  0  0  0  0  0  0  0  0
   10.0779   -0.1067   21.2306 C   0  0  0  0  0  0  0  0  0  0  0  0
   11.1625    0.0772   22.2789 C   0  0  0  0  0  0  0  0  0  0  0  0
   11.8998    1.7364   22.2663 S   0  0  2  0  0  0  0  0  0  0  0  0
   12.9470    1.6513   23.7468 C   0  0  0  0  0  0  0  0  0  0  0  0
   10.6055    2.8757   22.7827 C   0  0  0  0  0  0  0  0  0  0  0  0
    9.5657    2.1134   23.5816 C   0  0  1  0  0  0  0  0  0  0  0  0
   10.0802    1.6113   24.8053 O   0  0  0  0  0  0  0  0  0  0  0  0
    8.3829    2.9863   23.9233 C   0  0  1  0  0  0  0  0  0  0  0  0
    7.4533    3.0065   22.8783 O   0  0  0  0  0  0  0  0  0  0  0  0
    7.8484    2.2892   25.1371 C   0  0  1  0  0  0  0  0  0  0  0  0
    6.9506    1.2734   24.7315 O   0  0  0  0  0  0  0  0  0  0  0  0
    9.0799    1.6802   25.7951 C   0  0  2  0  0  0  0  0  0  0  0  0
    7.9588   -0.7967   23.2365 O   0  0  0  0  0  0  0  0  0  0  0  0
    8.7673    6.1770   28.5411 N   0  0  0  0  0  0  0  0  0  0  0  0
    8.0387    5.8132   27.4180 C   0  0  0  0  0  0  0  0  0  0  0  0
    8.2502    4.5884   26.7963 N   0  0  0  0  0  0  0  0  0  0  0  0
    9.1619    3.7401   27.3057 C   0  0  0  0  0  0  0  0  0  0  0  0
    9.8914    4.0891   28.4457 C   0  0  0  0  0  0  0  0  0  0  0  0
    9.7065    5.3130   29.0620 C   0  0  0  0  0  0  0  0  0  0  0  0
   10.4081    5.6436   30.1358 N   0  0  0  0  0  0  0  0  0  0  0  0
   10.7080    3.0726   28.7440 N   0  0  0  0  0  0  0  0  0  0  0  0
   10.5152    2.0943   27.8320 C   0  0  0  0  0  0  0  0  0  0  0  0
    9.5552    2.4889   26.9336 N   0  0  0  0  0  0  0  0  0  0  0  0
  2  1  1  6  0  0  0
  2  3  1  0  0  0  0
  2  5  1  0  0  0  0
  3  4  1  0  0  0  0
  3 17  1  0  0  0  0
  5  6  1  0  0  0  0
  7  6  1  1  0  0  0
  7  8  1  0  0  0  0
  7  9  1  0  0  0  0
 10  9  1  1  0  0  0
 10 11  1  0  0  0  0
 10 12  1  0  0  0  0
 11 16  1  0  0  0  0
 12 13  1  6  0  0  0
 12 14  1  0  0  0  0
 14 15  1  6  0  0  0
 14 16  1  0  0  0  0
 16 27  1  1  0  0  0
 18 19  2  0  0  0  0
 18 23  1  0  0  0  0
 19 20  1  0  0  0  0
 20 21  2  0  0  0  0
 21 22  1  0  0  0  0
 21 27  1  0  0  0  0
 22 23  2  0  0  0  0
 22 25  1  0  0  0  0
 23 24  1  0  0  0  0
 25 26  2  0  0  0  0
 26 27  1  0  0  0  0
M  END
>  <CHROM.1>
108.19668133,-179.30389065,-173.63740691,172.72108175,23.04517005,65.49129898
108.20140758,9.52026041,1.99251153,24.79389196,1.55891818,-0.22677492,-2.26135070

>  <Name>
ligand

>  <RI>
0

>  <Rbt.Current_Directory>
/home/itssahil/PROJECTS/Mol_Feturizer/Test_systems_manuscript/rnas/2ydh

>  <Rbt.Executable>
rbdock ($Id: //depot/dev/client3/rdock/2013.1/src/exe/rbdock.cxx#4 $)

>  <Rbt.Library>
libRbt.so (2013.1, Build901 2013/11/27)

>  <Rbt.Parameter_File>
/export/apps/rDock/src/rDock_2013.1_src/data/scripts/dock_solv.prm

>  <Rbt.Receptor>
prm/blind_docking_100.prm

>  <SCORE>
-12.3552

>  <SCORE.INTER>
-11.7405

>  <SCORE.INTER.CONST>
1

>  <SCORE.INTER.POLAR>
0

>  <SCORE.INTER.ROT>
7

>  <SCORE.INTER.SOLV>
6.387

>  <SCORE.INTER.VDW>
-18.2226

>  <SCORE.INTER.norm>
-0.434832

>  <SCORE.INTRA>
-0.614767

>  <SCORE.INTRA.DIHEDRAL>
-4.32194

>  <SCORE.INTRA.DIHEDRAL.0>
9.75037

>  <SCORE.INTRA.POLAR>
0

>  <SCORE.INTRA.POLAR.0>
0

>  <SCORE.INTRA.REPUL>
0

>  <SCORE.INTRA.REPUL.0>
0

>  <SCORE.INTRA.SOLV>
-1.10355

>  <SCORE.INTRA.SOLV.lig_0>
-48.4279

>  <SCORE.INTRA.VDW>
2.09798

>  <SCORE.INTRA.VDW.0>
-4.69037

>  <SCORE.INTRA.norm>
-0.0227691

>  <SCORE.RESTR>
0

>  <SCORE.RESTR.CAVITY>
0

>  <SCORE.RESTR.norm>
0

>  <SCORE.SYSTEM>
0

>  <SCORE.SYSTEM.CONST>
0

>  <SCORE.SYSTEM.DIHEDRAL>
0

>  <SCORE.SYSTEM.SOLV>
0

>  <SCORE.SYSTEM.norm>
0

>  <SCORE.heavy>
27

>  <SCORE.norm>
-0.457601

>  <RMSD>
19.693

$$$$
ligand
 OpenBabel02271912153D
libRbt.so/2013.1/901 2013/11/27
 27 29  0  0  0  0  0  0  0  0999 V2000
   10.6382    5.2773   28.9832 N   0  0  0  0  0  0  0  0  0  0  0  0
   11.3941    6.4590   28.4647 C   0  0  2  0  0  0  0  0  0  0  0  0
   10.5387    7.7431   28.5410 C   0  0  0  0  0  0  0  0  0  0  0  0
    9.3971    7.7779   28.0716 O   0  0  0  0  0  0  0  0  0  0  0  0
   11.8721    6.1724   27.0452 C   0  0  0  0  0  0  0  0  0  0  0  0
   12.9571    5.1130   26.9475 C   0  0  0  0  0  0  0  0  0  0  0  0
   12.3159    3.4169   27.0433 S   0  0  2  0  0  0  0  0  0  0  0  0
   13.8033    2.4693   26.6131 C   0  0  0  0  0  0  0  0  0  0  0  0
   11.2809    3.1780   25.5901 C   0  0  0  0  0  0  0  0  0  0  0  0
   10.4910    1.8933   25.7516 C   0  0  1  0  0  0  0  0  0  0  0  0
    9.1645    2.0045   25.2593 O   0  0  0  0  0  0  0  0  0  0  0  0
   11.1424    0.7483   25.0150 C   0  0  1  0  0  0  0  0  0  0  0  0
   12.1342    0.1462   25.7962 O   0  0  0  0  0  0  0  0  0  0  0  0
    9.9711   -0.1601   24.7960 C   0  0  1  0  0  0  0  0  0  0  0  0
    9.8202   -1.0028   25.9227 O   0  0  0  0  0  0  0  0  0  0  0  0
    8.7808    0.7825   24.6723 C   0  0  2  0  0  0  0  0  0  0  0  0
   10.9564    8.7909   29.0674 O   0  0  0  0  0  0  0  0  0  0  0  0
    5.6240    3.2276   21.2206 N   0  0  0  0  0  0  0  0  0  0  0  0
    5.6296    3.3487   22.6026 C   0  0  0  0  0  0  0  0  0  0  0  0
    6.5224    2.6196   23.3790 N   0  0  0  0  0  0  0  0  0  0  0  0
    7.4034    1.8010   22.7757 C   0  0  0  0  0  0  0  0  0  0  0  0
    7.4175    1.6820   21.3831 C   0  0  0  0  0  0  0  0  0  0  0  0
    6.5210    2.3852   20.5997 C   0  0  0  0  0  0  0  0  0  0  0  0
    6.5310    2.2608   19.2810 N   0  0  0  0  0  0  0  0  0  0  0  0
    8.3881    0.8245   21.0489 N   0  0  0  0  0  0  0  0  0  0  0  0
    8.9875    0.4017   22.1838 C   0  0  0  0  0  0  0  0  0  0  0  0
    8.3926    1.0010   23.2661 N   0  0  0  0  0  0  0  0  0  0  0  0
  2  1  1  6  0  0  0
  2  3  1  0  0  0  0
  2  5  1  0  0  0  0
  3  4  1  0  0  0  0
  3 17  1  0  0  0  0
  5  6  1  0  0  0  0
  7  6  1  6  0  0  0
  7  8  1  0  0  0  0
  7  9  1  0  0  0  0
 10  9  1  6  0  0  0
 10 11  1  0  0  0  0
 10 12  1  0  0  0  0
 11 16  1  0  0  0  0
 12 13  1  1  0  0  0
 12 14  1  0  0  0  0
 14 15  1  1  0  0  0
 14 16  1  0  0  0  0
 16 27  1  6  0  0  0
 18 19  2  0  0  0  0
 18 23  1  0  0  0  0
 19 20  1  0  0  0  0
 20 21  2  0  0  0  0
 21 22  1  0  0  0  0
 21 27  1  0  0  0  0
 22 23  2  0  0  0  0
 22 25  1  0  0  0  0
 23 24  1  0  0  0  0
 25 26  2  0  0  0  0
 26 27  1  0  0  0  0
M  END
>  <CHROM.1>
-51.33994617,-69.14033537,79.77736084,170.76440245,-168.45491227,141.37201078
-59.63081839,9.76160659,3.02574797,25.06506272,0.89041472,-0.70517917,0.46036528

>  <Name>
ligand

>  <RI>
0

>  <Rbt.Current_Directory>
/home/itssahil/PROJECTS/Mol_Feturizer/Test_systems_manuscript/rnas/2ydh

>  <Rbt.Executable>
rbdock ($Id: //depot/dev/client3/rdock/2013.1/src/exe/rbdock.cxx#4 $)

>  <Rbt.Library>
libRbt.so (2013.1, Build901 2013/11/27)

>  <Rbt.Parameter_File>
/export/apps/rDock/src/rDock_2013.1_src/data/scripts/dock_solv.prm

>  <Rbt.Receptor>
prm/blind_docking_60.prm

>  <SCORE>
-6.98312

>  <SCORE.INTER>
-9.65246

>  <SCORE.INTER.CONST>
1

>  <SCORE.INTER.POLAR>
0

>  <SCORE.INTER.ROT>
7

>  <SCORE.INTER.SOLV>
6.89519

>  <SCORE.INTER.VDW>
-17

>  <SCORE.INTER.norm>
-0.357498

>  <SCORE.INTRA>
2.65839

>  <SCORE.INTRA.DIHEDRAL>
-0.23225

>  <SCORE.INTRA.DIHEDRAL.0>
9.75037

>  <SCORE.INTRA.POLAR>
0

>  <SCORE.INTRA.POLAR.0>
0

>  <SCORE.INTRA.REPUL>
0

>  <SCORE.INTRA.REPUL.0>
0

>  <SCORE.INTRA.SOLV>
0.923209

>  <SCORE.INTRA.SOLV.lig_0>
-48.4279

>  <SCORE.INTRA.VDW>
2.31291

>  <SCORE.INTRA.VDW.0>
-4.69037

>  <SCORE.INTRA.norm>
0.0984588

>  <SCORE.RESTR>
0.0109478

>  <SCORE.RESTR.CAVITY>
0.0109478

>  <SCORE.RESTR.norm>
0.000405475

>  <SCORE.SYSTEM>
0

>  <SCORE.SYSTEM.CONST>
0

>  <SCORE.SYSTEM.DIHEDRAL>
0

>  <SCORE.SYSTEM.SOLV>
0

>  <SCORE.SYSTEM.norm>
0

>  <SCORE.heavy>
27

>  <SCORE.norm>
-0.258634

>  <RMSD>
19.728

$$$$
ligand
 OpenBabel02271912153D
libRbt.so/2013.1/901 2013/11/27
 27 29  0  0  0  0  0  0  0  0999 V2000
   11.9258    6.7358   28.5318 N   0  0  0  0  0  0  0  0  0  0  0  0
   10.6028    7.2140   28.0242 C   0  0  2  0  0  0  0  0  0  0  0  0
   10.0571    8.3673   28.8954 C   0  0  0  0  0  0  0  0  0  0  0  0
    8.8514    8.4637   29.1436 O   0  0  0  0  0  0  0  0  0  0  0  0
    9.6320    6.0400   27.9541 C   0  0  0  0  0  0  0  0  0  0  0  0
    9.8650    5.0986   26.7842 C   0  0  0  0  0  0  0  0  0  0  0  0
    9.1459    3.4502   27.0343 S   0  0  2  0  0  0  0  0  0  0  0  0
   10.3760    2.7107   28.1459 C   0  0  0  0  0  0  0  0  0  0  0  0
    9.4170    2.5364   25.5075 C   0  0  0  0  0  0  0  0  0  0  0  0
    8.4790    3.0674   24.4403 C   0  0  1  0  0  0  0  0  0  0  0  0
    8.8220    2.6143   23.1398 O   0  0  0  0  0  0  0  0  0  0  0  0
    7.0539    2.6412   24.6962 C   0  0  1  0  0  0  0  0  0  0  0  0
    6.4178    3.5171   25.5822 O   0  0  0  0  0  0  0  0  0  0  0  0
    6.4751    2.7195   23.3164 C   0  0  1  0  0  0  0  0  0  0  0  0
    6.0134    4.0361   23.0807 O   0  0  0  0  0  0  0  0  0  0  0  0
    7.6452    2.3926   22.3976 C   0  0  2  0  0  0  0  0  0  0  0  0
   10.7966    9.2450   29.3771 O   0  0  0  0  0  0  0  0  0  0  0  0
    8.8396   -2.6725   23.2788 N   0  0  0  0  0  0  0  0  0  0  0  0
    9.0965   -1.5826   24.0978 C   0  0  0  0  0  0  0  0  0  0  0  0
    8.7281   -0.2989   23.7134 N   0  0  0  0  0  0  0  0  0  0  0  0
    8.0975   -0.1188   22.5386 C   0  0  0  0  0  0  0  0  0  0  0  0
    7.8197   -1.2110   21.7118 C   0  0  0  0  0  0  0  0  0  0  0  0
    8.1993   -2.4909   22.0718 C   0  0  0  0  0  0  0  0  0  0  0  0
    7.9435   -3.5214   21.2798 N   0  0  0  0  0  0  0  0  0  0  0  0
    7.1820   -0.7592   20.6263 N   0  0  0  0  0  0  0  0  0  0  0  0
    7.0463    0.5803   20.7431 C   0  0  0  0  0  0  0  0  0  0  0  0
    7.6046    0.9953   21.9265 N   0  0  0  0  0  0  0  0  0  0  0  0
  2  1  1  1  0  0  0
  2  3  1  0  0  0  0
  2  5  1  0  0  0  0
  3  4  1  0  0  0  0
  3 17  1  0  0  0  0
  5  6  1  0  0  0  0
  7  6  1  6  0  0  0
  7  8  1  0  0  0  0
  7  9  1  0  0  0  0
 10  9  1  1  0  0  0
 10 11  1  0  0  0  0
 10 12  1  0  0  0  0
 11 16  1  0  0  0  0
 12 13  1  1  0  0  0
 12 14  1  0  0  0  0
 14 15  1  6  0  0  0
 14 16  1  0  0  0  0
 16 27  1  1  0  0  0
 18 19  2  0  0  0  0
 18 23  1  0  0  0  0
 19 20  1  0  0  0  0
 20 21  2  0  0  0  0
 21 22  1  0  0  0  0
 21 27  1  0  0  0  0
 22 23  2  0  0  0  0
 22 25  1  0  0  0  0
 23 24  1  0  0  0  0
 25 26  2  0  0  0  0
 26 27  1  0  0  0  0
M  END
>  <CHROM.1>
-142.60075088,-75.80626617,159.07643683,-77.93837836,-73.16724490,167.01316475
32.59119642,8.63047579,2.74932875,24.93625940,-1.25439816,0.82274500,-2.70833450

>  <Name>
ligand

>  <RI>
0

>  <Rbt.Current_Directory>
/home/itssahil/PROJECTS/Mol_Feturizer/Test_systems_manuscript/rnas/2ydh

>  <Rbt.Executable>
rbdock ($Id: //depot/dev/client3/rdock/2013.1/src/exe/rbdock.cxx#4 $)

>  <Rbt.Library>
libRbt.so (2013.1, Build901 2013/11/27)

>  <Rbt.Parameter_File>
/export/apps/rDock/src/rDock_2013.1_src/data/scripts/dock_solv.prm

>  <Rbt.Receptor>
prm/blind_docking_60.prm

>  <SCORE>
-8.3656

>  <SCORE.INTER>
-8.45064

>  <SCORE.INTER.CONST>
1

>  <SCORE.INTER.POLAR>
0

>  <SCORE.INTER.ROT>
7

>  <SCORE.INTER.SOLV>
10.8769

>  <SCORE.INTER.VDW>
-17.5261

>  <SCORE.INTER.norm>
-0.312987

>  <SCORE.INTRA>
0.0850342

>  <SCORE.INTRA.DIHEDRAL>
-3.22192

>  <SCORE.INTRA.DIHEDRAL.0>
9.75037

>  <SCORE.INTRA.POLAR>
0

>  <SCORE.INTRA.POLAR.0>
0

>  <SCORE.INTRA.REPUL>
0

>  <SCORE.INTRA.REPUL.0>
0

>  <SCORE.INTRA.SOLV>
-0.335533

>  <SCORE.INTRA.SOLV.lig_0>
-48.4279

>  <SCORE.INTRA.VDW>
1.86376

>  <SCORE.INTRA.VDW.0>
-4.69037

>  <SCORE.INTRA.norm>
0.00314941

>  <SCORE.RESTR>
0

>  <SCORE.RESTR.CAVITY>
0

>  <SCORE.RESTR.norm>
0

>  <SCORE.SYSTEM>
0

>  <SCORE.SYSTEM.CONST>
0

>  <SCORE.SYSTEM.DIHEDRAL>
0

>  <SCORE.SYSTEM.SOLV>
0

>  <SCORE.SYSTEM.norm>
0

>  <SCORE.heavy>
27

>  <SCORE.norm>
-0.309837

>  <RMSD>
19.866

$$$$
ligand
 OpenBabel02271912153D
libRbt.so/2013.1/901 2013/11/27
 27 29  0  0  0  0  0  0  0  0999 V2000
    6.0767    1.4357   16.0865 N   0  0  0  0  0  0  0  0  0  0  0  0
    6.6180    1.4197   17.4806 C   0  0  2  0  0  0  0  0  0  0  0  0
    5.8869    0.3717   18.3488 C   0  0  0  0  0  0  0  0  0  0  0  0
    4.6573    0.2627   18.3168 O   0  0  0  0  0  0  0  0  0  0  0  0
    6.5273    2.8208   18.0759 C   0  0  0  0  0  0  0  0  0  0  0  0
    7.1552    2.9624   19.4525 C   0  0  0  0  0  0  0  0  0  0  0  0
    6.7190    4.5162   20.2846 S   0  0  2  0  0  0  0  0  0  0  0  0
    7.3281    5.7277   19.0776 C   0  0  0  0  0  0  0  0  0  0  0  0
    7.8845    4.7147   21.6419 C   0  0  0  0  0  0  0  0  0  0  0  0
    7.5865    3.6751   22.7054 C   0  0  1  0  0  0  0  0  0  0  0  0
    8.6172    3.5790   23.6763 O   0  0  0  0  0  0  0  0  0  0  0  0
    6.3096    3.9921   23.4448 C   0  0  1  0  0  0  0  0  0  0  0  0
    5.1948    3.4984   22.7592 O   0  0  0  0  0  0  0  0  0  0  0  0
    6.5371    3.2724   24.7392 C   0  0  1  0  0  0  0  0  0  0  0  0
    6.1003    1.9329   24.6086 O   0  0  0  0  0  0  0  0  0  0  0  0
    8.0464    3.3237   24.9389 C   0  0  2  0  0  0  0  0  0  0  0  0
    6.4943   -0.3983   19.1153 O   0  0  0  0  0  0  0  0  0  0  0  0
   10.5101    4.6200   29.4231 N   0  0  0  0  0  0  0  0  0  0  0  0
   10.3854    3.3610   28.8539 C   0  0  0  0  0  0  0  0  0  0  0  0
    9.6872    3.1814   27.6657 N   0  0  0  0  0  0  0  0  0  0  0  0
    9.1432    4.2490   27.0537 C   0  0  0  0  0  0  0  0  0  0  0  0
    9.2752    5.5246   27.6096 C   0  0  0  0  0  0  0  0  0  0  0  0
    9.9487    5.7150   28.8021 C   0  0  0  0  0  0  0  0  0  0  0  0
   10.0618    6.9244   29.3305 N   0  0  0  0  0  0  0  0  0  0  0  0
    8.6607    6.3958   26.8018 N   0  0  0  0  0  0  0  0  0  0  0  0
    8.1487    5.7121   25.7546 C   0  0  0  0  0  0  0  0  0  0  0  0
    8.4425    4.3781   25.8914 N   0  0  0  0  0  0  0  0  0  0  0  0
  2  1  1  6  0  0  0
  2  3  1  0  0  0  0
  2  5  1  0  0  0  0
  3  4  1  0  0  0  0
  3 17  1  0  0  0  0
  5  6  1  0  0  0  0
  7  6  1  6  0  0  0
  7  8  1  0  0  0  0
  7  9  1  0  0  0  0
 10  9  1  6  0  0  0
 10 11  1  0  0  0  0
 10 12  1  0  0  0  0
 11 16  1  0  0  0  0
 12 13  1  6  0  0  0
 12 14  1  0  0  0  0
 14 15  1  6  0  0  0
 14 16  1  0  0  0  0
 16 27  1  1  0  0  0
 18 19  2  0  0  0  0
 18 23  1  0  0  0  0
 19 20  1  0  0  0  0
 20 21  2  0  0  0  0
 21 22  1  0  0  0  0
 21 27  1  0  0  0  0
 22 23  2  0  0  0  0
 22 25  1  0  0  0  0
 23 24  1  0  0  0  0
 25 26  2  0  0  0  0
 26 27  1  0  0  0  0
M  END
>  <CHROM.1>
-44.53743617,-175.10118714,-167.31182107,-58.24156378,-69.95622867,167.87067748
-119.38140884,7.59422366,3.58904689,23.13287725,-2.77650726,1.22984421,2.44488121

>  <Name>
ligand

>  <RI>
0

>  <Rbt.Current_Directory>
/home/itssahil/PROJECTS/Mol_Feturizer/Test_systems_manuscript/rnas/2ydh

>  <Rbt.Executable>
rbdock ($Id: //depot/dev/client3/rdock/2013.1/src/exe/rbdock.cxx#4 $)

>  <Rbt.Library>
libRbt.so (2013.1, Build901 2013/11/27)

>  <Rbt.Parameter_File>
/export/apps/rDock/src/rDock_2013.1_src/data/scripts/dock_solv.prm

>  <Rbt.Receptor>
prm/blind_docking_60.prm

>  <SCORE>
-9.90322

>  <SCORE.INTER>
-9.15661

>  <SCORE.INTER.CONST>
1

>  <SCORE.INTER.POLAR>
0

>  <SCORE.INTER.ROT>
7

>  <SCORE.INTER.SOLV>
6.4303

>  <SCORE.INTER.VDW>
-16.5145

>  <SCORE.INTER.norm>
-0.339134

>  <SCORE.INTRA>
-0.746612

>  <SCORE.INTRA.DIHEDRAL>
-5.3115

>  <SCORE.INTRA.DIHEDRAL.0>
9.75037

>  <SCORE.INTRA.POLAR>
0

>  <SCORE.INTRA.POLAR.0>
0

>  <SCORE.INTRA.REPUL>
0

>  <SCORE.INTRA.REPUL.0>
0

>  <SCORE.INTRA.SOLV>
-1.3401

>  <SCORE.INTRA.SOLV.lig_0>
-48.4279

>  <SCORE.INTRA.VDW>
2.57919

>  <SCORE.INTRA.VDW.0>
-4.69037

>  <SCORE.INTRA.norm>
-0.0276523

>  <SCORE.RESTR>
0

>  <SCORE.RESTR.CAVITY>
0

>  <SCORE.RESTR.norm>
0

>  <SCORE.SYSTEM>
0

>  <SCORE.SYSTEM.CONST>
0

>  <SCORE.SYSTEM.DIHEDRAL>
0

>  <SCORE.SYSTEM.SOLV>
0

>  <SCORE.SYSTEM.norm>
0

>  <SCORE.heavy>
27

>  <SCORE.norm>
-0.366786

>  <RMSD>
19.899

$$$$
ligand
 OpenBabel02271912153D
libRbt.so/2013.1/901 2013/11/27
 27 29  0  0  0  0  0  0  0  0999 V2000
    8.5865    0.0273   20.9706 N   0  0  0  0  0  0  0  0  0  0  0  0
    9.8143   -0.8239   20.9020 C   0  0  2  0  0  0  0  0  0  0  0  0
    9.4553   -2.3246   20.9775 C   0  0  0  0  0  0  0  0  0  0  0  0
    8.3080   -2.7183   20.7464 O   0  0  0  0  0  0  0  0  0  0  0  0
   10.7810   -0.4097   22.0063 C   0  0  0  0  0  0  0  0  0  0  0  0
   11.0289    1.0867   22.0982 C   0  0  0  0  0  0  0  0  0  0  0  0
   12.0899    1.5546   23.4955 S   0  0  2  0  0  0  0  0  0  0  0  0
   11.2237    0.7368   24.8653 C   0  0  0  0  0  0  0  0  0  0  0  0
   11.7642    3.2938   23.8257 C   0  0  0  0  0  0  0  0  0  0  0  0
   10.2688    3.5384   23.7572 C   0  0  1  0  0  0  0  0  0  0  0  0
    9.6047    3.1904   24.9622 O   0  0  0  0  0  0  0  0  0  0  0  0
    9.9587    4.9899   23.4837 C   0  0  1  0  0  0  0  0  0  0  0  0
    9.9881    5.2613   22.1119 O   0  0  0  0  0  0  0  0  0  0  0  0
    8.5757    5.1030   24.0492 C   0  0  1  0  0  0  0  0  0  0  0  0
    7.6366    4.7402   23.0549 O   0  0  0  0  0  0  0  0  0  0  0  0
    8.5535    4.0992   25.1948 C   0  0  2  0  0  0  0  0  0  0  0  0
   10.2932   -3.1952   21.2762 O   0  0  0  0  0  0  0  0  0  0  0  0
   10.6324    3.9213   30.0430 N   0  0  0  0  0  0  0  0  0  0  0  0
   10.7432    2.9753   29.0342 C   0  0  0  0  0  0  0  0  0  0  0  0
   10.1194    3.1649   27.8069 N   0  0  0  0  0  0  0  0  0  0  0  0
    9.4154    4.2914   27.5931 C   0  0  0  0  0  0  0  0  0  0  0  0
    9.3092    5.2586   28.5964 C   0  0  0  0  0  0  0  0  0  0  0  0
    9.9068    5.0735   29.8295 C   0  0  0  0  0  0  0  0  0  0  0  0
    9.7941    5.9882   30.7810 N   0  0  0  0  0  0  0  0  0  0  0  0
    8.5752    6.2711   28.1219 N   0  0  0  0  0  0  0  0  0  0  0  0
    8.2181    5.9753   26.8526 C   0  0  0  0  0  0  0  0  0  0  0  0
    8.7348    4.7518   26.5052 N   0  0  0  0  0  0  0  0  0  0  0  0
  2  1  1  1  0  0  0
  2  3  1  0  0  0  0
  2  5  1  0  0  0  0
  3  4  1  0  0  0  0
  3 17  1  0  0  0  0
  5  6  1  0  0  0  0
  7  6  1  6  0  0  0
  7  8  1  0  0  0  0
  7  9  1  0  0  0  0
 10  9  1  1  0  0  0
 10 11  1  0  0  0  0
 10 12  1  0  0  0  0
 11 16  1  0  0  0  0
 12 13  1  6  0  0  0
 12 14  1  0  0  0  0
 14 15  1  6  0  0  0
 14 16  1  0  0  0  0
 16 27  1  1  0  0  0
 18 19  2  0  0  0  0
 18 23  1  0  0  0  0
 19 20  1  0  0  0  0
 20 21  2  0  0  0  0
 21 22  1  0  0  0  0
 21 27  1  0  0  0  0
 22 23  2  0  0  0  0
 22 25  1  0  0  0  0
 23 24  1  0  0  0  0
 25 26  2  0  0  0  0
 26 27  1  0  0  0  0
M  END
>  <CHROM.1>
18.28592849,-48.63028637,175.90285829,-52.50049686,43.08492228,82.00585817
-24.67586692,9.86348346,2.68027295,24.74364264,1.44504906,1.20150216,-2.17039673

>  <Name>
ligand

>  <RI>
0

>  <Rbt.Current_Directory>
/home/itssahil/PROJECTS/Mol_Feturizer/Test_systems_manuscript/rnas/2ydh

>  <Rbt.Executable>
rbdock ($Id: //depot/dev/client3/rdock/2013.1/src/exe/rbdock.cxx#4 $)

>  <Rbt.Library>
libRbt.so (2013.1, Build901 2013/11/27)

>  <Rbt.Parameter_File>
/export/apps/rDock/src/rDock_2013.1_src/data/scripts/dock_solv.prm

>  <Rbt.Receptor>
prm/blind_docking_60.prm

>  <SCORE>
-9.8024

>  <SCORE.INTER>
-11.72

>  <SCORE.INTER.CONST>
1

>  <SCORE.INTER.POLAR>
0

>  <SCORE.INTER.ROT>
7

>  <SCORE.INTER.SOLV>
9.18196

>  <SCORE.INTER.VDW>
-19.1406

>  <SCORE.INTER.norm>
-0.434072

>  <SCORE.INTRA>
1.91756

>  <SCORE.INTRA.DIHEDRAL>
-3.75632

>  <SCORE.INTRA.DIHEDRAL.0>
9.75037

>  <SCORE.INTRA.POLAR>
0

>  <SCORE.INTRA.POLAR.0>
0

>  <SCORE.INTRA.REPUL>
0

>  <SCORE.INTRA.REPUL.0>
0

>  <SCORE.INTRA.SOLV>
-0.531846

>  <SCORE.INTRA.SOLV.lig_0>
-48.4279

>  <SCORE.INTRA.VDW>
4.06164

>  <SCORE.INTRA.VDW.0>
-4.69037

>  <SCORE.INTRA.norm>
0.0710206

>  <SCORE.RESTR>
0

>  <SCORE.RESTR.CAVITY>
0

>  <SCORE.RESTR.norm>
0

>  <SCORE.SYSTEM>
0

>  <SCORE.SYSTEM.CONST>
0

>  <SCORE.SYSTEM.DIHEDRAL>
0

>  <SCORE.SYSTEM.SOLV>
0

>  <SCORE.SYSTEM.norm>
0

>  <SCORE.heavy>
27

>  <SCORE.norm>
-0.363052

>  <RMSD>
19.907

$$$$
ligand
 OpenBabel02271912153D
libRbt.so/2013.1/901 2013/11/27
 27 29  0  0  0  0  0  0  0  0999 V2000
   14.9227    5.8190   28.9714 N   0  0  0  0  0  0  0  0  0  0  0  0
   13.6858    6.1202   28.1864 C   0  0  2  0  0  0  0  0  0  0  0  0
   12.5511    6.6209   29.1075 C   0  0  0  0  0  0  0  0  0  0  0  0
   12.4729    6.2499   30.2826 O   0  0  0  0  0  0  0  0  0  0  0  0
   13.2759    4.8848   27.3919 C   0  0  0  0  0  0  0  0  0  0  0  0
   12.1073    5.1033   26.4454 C   0  0  0  0  0  0  0  0  0  0  0  0
   11.2567    3.5660   25.9873 S   0  0  2  0  0  0  0  0  0  0  0  0
   12.5693    2.7163   25.0649 C   0  0  0  0  0  0  0  0  0  0  0  0
   10.0929    3.9941   24.6826 C   0  0  0  0  0  0  0  0  0  0  0  0
    8.6799    3.8639   25.2184 C   0  0  1  0  0  0  0  0  0  0  0  0
    7.7067    4.3618   24.3133 O   0  0  0  0  0  0  0  0  0  0  0  0
    8.3268    2.4238   25.5003 C   0  0  1  0  0  0  0  0  0  0  0  0
    8.7623    2.0383   26.7724 O   0  0  0  0  0  0  0  0  0  0  0  0
    6.8320    2.4677   25.4077 C   0  0  1  0  0  0  0  0  0  0  0  0
    6.2988    2.8202   26.6702 O   0  0  0  0  0  0  0  0  0  0  0  0
    6.5494    3.5614   24.3858 C   0  0  2  0  0  0  0  0  0  0  0  0
   11.6708    7.4070   28.7121 O   0  0  0  0  0  0  0  0  0  0  0  0
    8.1762    0.8231   20.1770 N   0  0  0  0  0  0  0  0  0  0  0  0
    8.8932    1.1231   21.3262 C   0  0  0  0  0  0  0  0  0  0  0  0
    8.3223    1.8728   22.3478 N   0  0  0  0  0  0  0  0  0  0  0  0
    7.0508    2.2948   22.2234 C   0  0  0  0  0  0  0  0  0  0  0  0
    6.3134    1.9859   21.0769 C   0  0  0  0  0  0  0  0  0  0  0  0
    6.8755    1.2591   20.0436 C   0  0  0  0  0  0  0  0  0  0  0  0
    6.1761    0.9782   18.9543 N   0  0  0  0  0  0  0  0  0  0  0  0
    5.0900    2.5083   21.2161 N   0  0  0  0  0  0  0  0  0  0  0  0
    5.0313    3.1333   22.4129 C   0  0  0  0  0  0  0  0  0  0  0  0
    6.2382    3.0071   23.0547 N   0  0  0  0  0  0  0  0  0  0  0  0
  2  1  1  1  0  0  0
  2  3  1  0  0  0  0
  2  5  1  0  0  0  0
  3  4  1  0  0  0  0
  3 17  1  0  0  0  0
  5  6  1  0  0  0  0
  7  6  1  6  0  0  0
  7  8  1  0  0  0  0
  7  9  1  0  0  0  0
 10  9  1  6  0  0  0
 10 11  1  0  0  0  0
 10 12  1  0  0  0  0
 11 16  1  0  0  0  0
 12 13  1  1  0  0  0
 12 14  1  0  0  0  0
 14 15  1  1  0  0  0
 14 16  1  0  0  0  0
 16 27  1  6  0  0  0
 18 19  2  0  0  0  0
 18 23  1  0  0  0  0
 19 20  1  0  0  0  0
 20 21  2  0  0  0  0
 21 22  1  0  0  0  0
 21 27  1  0  0  0  0
 22 23  2  0  0  0  0
 22 25  1  0  0  0  0
 23 24  1  0  0  0  0
 25 26  2  0  0  0  0
 26 27  1  0  0  0  0
M  END
>  <CHROM.1>
-29.76371660,-174.31586941,-158.81405506,-65.06951987,-111.16821736,171.74287403
53.80256726,9.26861098,3.49601504,24.84191209,-0.90229056,-0.03166369,-2.04743427

>  <Name>
ligand

>  <RI>
0

>  <Rbt.Current_Directory>
/home/itssahil/PROJECTS/Mol_Feturizer/Test_systems_manuscript/rnas/2ydh

>  <Rbt.Executable>
rbdock ($Id: //depot/dev/client3/rdock/2013.1/src/exe/rbdock.cxx#4 $)

>  <Rbt.Library>
libRbt.so (2013.1, Build901 2013/11/27)

>  <Rbt.Parameter_File>
/export/apps/rDock/src/rDock_2013.1_src/data/scripts/dock_solv.prm

>  <Rbt.Receptor>
prm/blind_docking_60.prm

>  <SCORE>
-11.5854

>  <SCORE.INTER>
-12.0945

>  <SCORE.INTER.CONST>
1

>  <SCORE.INTER.POLAR>
0

>  <SCORE.INTER.ROT>
7

>  <SCORE.INTER.SOLV>
13.2775

>  <SCORE.INTER.VDW>
-20.7555

>  <SCORE.INTER.norm>
-0.447943

>  <SCORE.INTRA>
0.509115

>  <SCORE.INTRA.DIHEDRAL>
-1.15577

>  <SCORE.INTRA.DIHEDRAL.0>
9.75037

>  <SCORE.INTRA.POLAR>
0

>  <SCORE.INTRA.POLAR.0>
0

>  <SCORE.INTRA.REPUL>
0

>  <SCORE.INTRA.REPUL.0>
0

>  <SCORE.INTRA.SOLV>
-1.28915

>  <SCORE.INTRA.SOLV.lig_0>
-48.4279

>  <SCORE.INTRA.VDW>
1.73158

>  <SCORE.INTRA.VDW.0>
-4.69037

>  <SCORE.INTRA.norm>
0.0188561

>  <SCORE.RESTR>
0

>  <SCORE.RESTR.CAVITY>
0

>  <SCORE.RESTR.norm>
0

>  <SCORE.SYSTEM>
0

>  <SCORE.SYSTEM.CONST>
0

>  <SCORE.SYSTEM.DIHEDRAL>
0

>  <SCORE.SYSTEM.SOLV>
0

>  <SCORE.SYSTEM.norm>
0

>  <SCORE.heavy>
27

>  <SCORE.norm>
-0.429087

>  <RMSD>
19.942

$$$$
ligand
 OpenBabel02271912153D
libRbt.so/2013.1/901 2013/11/27
 27 29  0  0  0  0  0  0  0  0999 V2000
    7.3747    0.8162   16.4586 N   0  0  0  0  0  0  0  0  0  0  0  0
    7.9828    1.1348   17.7873 C   0  0  2  0  0  0  0  0  0  0  0  0
    8.2168   -0.1493   18.6137 C   0  0  0  0  0  0  0  0  0  0  0  0
    8.9905   -0.1564   19.5761 O   0  0  0  0  0  0  0  0  0  0  0  0
    7.0987    2.1364   18.5227 C   0  0  0  0  0  0  0  0  0  0  0  0
    7.7032    2.6898   19.8024 C   0  0  0  0  0  0  0  0  0  0  0  0
    6.6770    3.9648   20.5888 S   0  0  2  0  0  0  0  0  0  0  0  0
    6.8540    5.3226   19.3969 C   0  0  0  0  0  0  0  0  0  0  0  0
    7.6119    4.5755   22.0005 C   0  0  0  0  0  0  0  0  0  0  0  0
    7.6735    3.4910   23.0591 C   0  0  1  0  0  0  0  0  0  0  0  0
    8.7056    3.7141   24.0074 O   0  0  0  0  0  0  0  0  0  0  0  0
    6.3784    3.3961   23.8283 C   0  0  1  0  0  0  0  0  0  0  0  0
    5.4547    2.5849   23.1609 O   0  0  0  0  0  0  0  0  0  0  0  0
    6.8464    2.7772   25.1100 C   0  0  1  0  0  0  0  0  0  0  0  0
    6.8410    1.3687   24.9746 O   0  0  0  0  0  0  0  0  0  0  0  0
    8.2705    3.2908   25.2788 C   0  0  2  0  0  0  0  0  0  0  0  0
    7.6482   -1.2243   18.3486 O   0  0  0  0  0  0  0  0  0  0  0  0
   10.0876    5.1611   29.8678 N   0  0  0  0  0  0  0  0  0  0  0  0
   10.3049    3.9079   29.3137 C   0  0  0  0  0  0  0  0  0  0  0  0
    9.7397    3.5602   28.0925 N   0  0  0  0  0  0  0  0  0  0  0  0
    8.9881    4.4614   27.4343 C   0  0  0  0  0  0  0  0  0  0  0  0
    8.7746    5.7324   27.9753 C   0  0  0  0  0  0  0  0  0  0  0  0
    9.3131    6.0846   29.1992 C   0  0  0  0  0  0  0  0  0  0  0  0
    9.0989    7.2866   29.7129 N   0  0  0  0  0  0  0  0  0  0  0  0
    8.0136    6.4254   27.1211 N   0  0  0  0  0  0  0  0  0  0  0  0
    7.7432    5.6346   26.0592 C   0  0  0  0  0  0  0  0  0  0  0  0
    8.3440    4.4127   26.2337 N   0  0  0  0  0  0  0  0  0  0  0  0
  2  1  1  6  0  0  0
  2  3  1  0  0  0  0
  2  5  1  0  0  0  0
  3  4  1  0  0  0  0
  3 17  1  0  0  0  0
  5  6  1  0  0  0  0
  7  6  1  6  0  0  0
  7  8  1  0  0  0  0
  7  9  1  0  0  0  0
 10  9  1  6  0  0  0
 10 11  1  0  0  0  0
 10 12  1  0  0  0  0
 11 16  1  0  0  0  0
 12 13  1  6  0  0  0
 12 14  1  0  0  0  0
 14 15  1  6  0  0  0
 14 16  1  0  0  0  0
 16 27  1  1  0  0  0
 18 19  2  0  0  0  0
 18 23  1  0  0  0  0
 19 20  1  0  0  0  0
 20 21  2  0  0  0  0
 21 22  1  0  0  0  0
 21 27  1  0  0  0  0
 22 23  2  0  0  0  0
 22 25  1  0  0  0  0
 23 24  1  0  0  0  0
 25 26  2  0  0  0  0
 26 27  1  0  0  0  0
M  END
>  <CHROM.1>
162.06764504,-171.87277372,175.91111809,-69.55559319,-69.63584023,161.93601945
-125.37799651,7.92997194,3.37837439,23.48433549,1.96264790,1.17572519,-2.32032568

>  <Name>
ligand

>  <RI>
0

>  <Rbt.Current_Directory>
/home/itssahil/PROJECTS/Mol_Feturizer/Test_systems_manuscript/rnas/2ydh

>  <Rbt.Executable>
rbdock ($Id: //depot/dev/client3/rdock/2013.1/src/exe/rbdock.cxx#4 $)

>  <Rbt.Library>
libRbt.so (2013.1, Build901 2013/11/27)

>  <Rbt.Parameter_File>
/export/apps/rDock/src/rDock_2013.1_src/data/scripts/dock_solv.prm

>  <Rbt.Receptor>
prm/blind_docking_60.prm

>  <SCORE>
-10.1258

>  <SCORE.INTER>
-8.96192

>  <SCORE.INTER.CONST>
1

>  <SCORE.INTER.POLAR>
0

>  <SCORE.INTER.ROT>
7

>  <SCORE.INTER.SOLV>
6.64988

>  <SCORE.INTER.VDW>
-16.4579

>  <SCORE.INTER.norm>
-0.331923

>  <SCORE.INTRA>
-1.1639

>  <SCORE.INTRA.DIHEDRAL>
-5.29157

>  <SCORE.INTRA.DIHEDRAL.0>
9.75037

>  <SCORE.INTRA.POLAR>
0

>  <SCORE.INTRA.POLAR.0>
0

>  <SCORE.INTRA.REPUL>
0

>  <SCORE.INTRA.REPUL.0>
0

>  <SCORE.INTRA.SOLV>
-1.3622

>  <SCORE.INTRA.SOLV.lig_0>
-48.4279

>  <SCORE.INTRA.VDW>
2.16298

>  <SCORE.INTRA.VDW.0>
-4.69037

>  <SCORE.INTRA.norm>
-0.0431076

>  <SCORE.RESTR>
0

>  <SCORE.RESTR.CAVITY>
0

>  <SCORE.RESTR.norm>
0

>  <SCORE.SYSTEM>
0

>  <SCORE.SYSTEM.CONST>
0

>  <SCORE.SYSTEM.DIHEDRAL>
0

>  <SCORE.SYSTEM.SOLV>
0

>  <SCORE.SYSTEM.norm>
0

>  <SCORE.heavy>
27

>  <SCORE.norm>
-0.37503

>  <RMSD>
19.950

$$$$
ligand
 OpenBabel02271912153D
libRbt.so/2013.1/901 2013/11/27
 27 29  0  0  0  0  0  0  0  0999 V2000
    7.6697    4.1611   21.1630 N   0  0  0  0  0  0  0  0  0  0  0  0
    6.5768    3.1620   20.9533 C   0  0  2  0  0  0  0  0  0  0  0  0
    5.5173    3.2538   22.0739 C   0  0  0  0  0  0  0  0  0  0  0  0
    5.8365    3.5416   23.2315 O   0  0  0  0  0  0  0  0  0  0  0  0
    7.1798    1.7653   20.8478 C   0  0  0  0  0  0  0  0  0  0  0  0
    7.8340    1.2634   22.1242 C   0  0  0  0  0  0  0  0  0  0  0  0
    9.4342    2.0496   22.4685 S   0  0  2  0  0  0  0  0  0  0  0  0
   10.5309    1.0572   21.4158 C   0  0  0  0  0  0  0  0  0  0  0  0
    9.9177    1.5243   24.1208 C   0  0  0  0  0  0  0  0  0  0  0  0
   11.2948    2.0784   24.4324 C   0  0  1  0  0  0  0  0  0  0  0  0
   11.3517    3.4917   24.3171 O   0  0  0  0  0  0  0  0  0  0  0  0
   11.7249    1.7309   25.8368 C   0  0  1  0  0  0  0  0  0  0  0  0
   12.3094    0.4609   25.8847 O   0  0  0  0  0  0  0  0  0  0  0  0
   12.7188    2.8175   26.1134 C   0  0  1  0  0  0  0  0  0  0  0  0
   13.9922    2.4111   25.6490 O   0  0  0  0  0  0  0  0  0  0  0  0
   12.2119    4.0063   25.3072 C   0  0  2  0  0  0  0  0  0  0  0  0
    4.3088    3.0395   21.8665 O   0  0  0  0  0  0  0  0  0  0  0  0
   12.3577    7.5243   29.2393 N   0  0  0  0  0  0  0  0  0  0  0  0
   13.4073    6.7738   28.7294 C   0  0  0  0  0  0  0  0  0  0  0  0
   13.2015    5.8720   27.6922 N   0  0  0  0  0  0  0  0  0  0  0  0
   11.9696    5.7426   27.1668 C   0  0  0  0  0  0  0  0  0  0  0  0
   10.9074    6.5043   27.6619 C   0  0  0  0  0  0  0  0  0  0  0  0
   11.0932    7.3897   28.7076 C   0  0  0  0  0  0  0  0  0  0  0  0
   10.0811    8.1014   29.1806 N   0  0  0  0  0  0  0  0  0  0  0  0
    9.8112    6.1942   26.9610 N   0  0  0  0  0  0  0  0  0  0  0  0
   10.1480    5.2651   26.0394 C   0  0  0  0  0  0  0  0  0  0  0  0
   11.4854    4.9757   26.1489 N   0  0  0  0  0  0  0  0  0  0  0  0
  2  1  1  1  0  0  0
  2  3  1  0  0  0  0
  2  5  1  0  0  0  0
  3  4  1  0  0  0  0
  3 17  1  0  0  0  0
  5  6  1  0  0  0  0
  7  6  1  6  0  0  0
  7  8  1  0  0  0  0
  7  9  1  0  0  0  0
 10  9  1  1  0  0  0
 10 11  1  0  0  0  0
 10 12  1  0  0  0  0
 11 16  1  0  0  0  0
 12 13  1  6  0  0  0
 12 14  1  0  0  0  0
 14 15  1  6  0  0  0
 14 16  1  0  0  0  0
 16 27  1  1  0  0  0
 18 19  2  0  0  0  0
 18 23  1  0  0  0  0
 19 20  1  0  0  0  0
 20 21  2  0  0  0  0
 21 22  1  0  0  0  0
 21 27  1  0  0  0  0
 22 23  2  0  0  0  0
 22 25  1  0  0  0  0
 23 24  1  0  0  0  0
 25 26  2  0  0  0  0
 26 27  1  0  0  0  0
M  END
>  <CHROM.1>
-34.05189489,65.95356740,-74.36064529,-82.36589717,176.36171163,56.69742340
-176.36136358,10.11151787,3.75937585,24.81724473,2.25198752,0.44959141,-2.44874856

>  <Name>
ligand

>  <RI>
0

>  <Rbt.Current_Directory>
/home/itssahil/PROJECTS/Mol_Feturizer/Test_systems_manuscript/rnas/2ydh

>  <Rbt.Executable>
rbdock ($Id: //depot/dev/client3/rdock/2013.1/src/exe/rbdock.cxx#4 $)

>  <Rbt.Library>
libRbt.so (2013.1, Build901 2013/11/27)

>  <Rbt.Parameter_File>
/export/apps/rDock/src/rDock_2013.1_src/data/scripts/dock_solv.prm

>  <Rbt.Receptor>
prm/blind_docking_40.prm

>  <SCORE>
-10.2628

>  <SCORE.INTER>
-10.1621

>  <SCORE.INTER.CONST>
1

>  <SCORE.INTER.POLAR>
0

>  <SCORE.INTER.ROT>
7

>  <SCORE.INTER.SOLV>
9.4163

>  <SCORE.INTER.VDW>
-18.1802

>  <SCORE.INTER.norm>
-0.376373

>  <SCORE.INTRA>
-0.100746

>  <SCORE.INTRA.DIHEDRAL>
-5.09763

>  <SCORE.INTRA.DIHEDRAL.0>
9.75037

>  <SCORE.INTRA.POLAR>
0

>  <SCORE.INTRA.POLAR.0>
0

>  <SCORE.INTRA.REPUL>
0

>  <SCORE.INTRA.REPUL.0>
0

>  <SCORE.INTRA.SOLV>
0.806824

>  <SCORE.INTRA.SOLV.lig_0>
-48.4279

>  <SCORE.INTRA.VDW>
2.04466

>  <SCORE.INTRA.VDW.0>
-4.69037

>  <SCORE.INTRA.norm>
-0.00373134

>  <SCORE.RESTR>
0

>  <SCORE.RESTR.CAVITY>
0

>  <SCORE.RESTR.norm>
0

>  <SCORE.SYSTEM>
0

>  <SCORE.SYSTEM.CONST>
0

>  <SCORE.SYSTEM.DIHEDRAL>
0

>  <SCORE.SYSTEM.SOLV>
0

>  <SCORE.SYSTEM.norm>
0

>  <SCORE.heavy>
27

>  <SCORE.norm>
-0.380105

>  <RMSD>
20.220

$$$$
ligand
 OpenBabel02271912153D
libRbt.so/2013.1/901 2013/11/27
 27 29  0  0  0  0  0  0  0  0999 V2000
    7.9309   -0.5986   21.2022 N   0  0  0  0  0  0  0  0  0  0  0  0
    9.1689    0.0554   20.6767 C   0  0  2  0  0  0  0  0  0  0  0  0
   10.4334   -0.7193   21.1096 C   0  0  0  0  0  0  0  0  0  0  0  0
   10.5323   -1.9355   20.9205 O   0  0  0  0  0  0  0  0  0  0  0  0
    9.2053    1.5109   21.1305 C   0  0  0  0  0  0  0  0  0  0  0  0
    7.9494    2.3032   20.8078 C   0  0  0  0  0  0  0  0  0  0  0  0
    7.9804    3.9967   21.4619 S   0  0  2  0  0  0  0  0  0  0  0  0
    9.1769    4.7707   20.3372 C   0  0  0  0  0  0  0  0  0  0  0  0
    8.9004    3.9318   23.0076 C   0  0  0  0  0  0  0  0  0  0  0  0
    8.1877    2.9990   23.9682 C   0  0  1  0  0  0  0  0  0  0  0  0
    9.0525    2.4836   24.9685 O   0  0  0  0  0  0  0  0  0  0  0  0
    7.0553    3.6988   24.6793 C   0  0  1  0  0  0  0  0  0  0  0  0
    5.8868    3.6752   23.9106 O   0  0  0  0  0  0  0  0  0  0  0  0
    6.9300    2.8644   25.9175 C   0  0  1  0  0  0  0  0  0  0  0  0
    6.0629    1.7766   25.6585 O   0  0  0  0  0  0  0  0  0  0  0  0
    8.3452    2.3666   26.1814 C   0  0  2  0  0  0  0  0  0  0  0  0
   11.3970   -0.1624   21.6670 O   0  0  0  0  0  0  0  0  0  0  0  0
    9.0178    7.0279   28.5643 N   0  0  0  0  0  0  0  0  0  0  0  0
    8.1789    6.7291   27.5006 C   0  0  0  0  0  0  0  0  0  0  0  0
    8.1260    5.4445   26.9728 N   0  0  0  0  0  0  0  0  0  0  0  0
    8.8868    4.4773   27.5168 C   0  0  0  0  0  0  0  0  0  0  0  0
    9.7246    4.7627   28.5986 C   0  0  0  0  0  0  0  0  0  0  0  0
    9.8032    6.0409   29.1200 C   0  0  0  0  0  0  0  0  0  0  0  0
   10.6069    6.3089   30.1382 N   0  0  0  0  0  0  0  0  0  0  0  0
   10.3502    3.6337   28.9492 N   0  0  0  0  0  0  0  0  0  0  0  0
    9.9323    2.6463   28.1265 C   0  0  0  0  0  0  0  0  0  0  0  0
    9.0197    3.1504   27.2334 N   0  0  0  0  0  0  0  0  0  0  0  0
  2  1  1  1  0  0  0
  2  3  1  0  0  0  0
  2  5  1  0  0  0  0
  3  4  1  0  0  0  0
  3 17  1  0  0  0  0
  5  6  1  0  0  0  0
  7  6  1  6  0  0  0
  7  8  1  0  0  0  0
  7  9  1  0  0  0  0
 10  9  1  6  0  0  0
 10 11  1  0  0  0  0
 10 12  1  0  0  0  0
 11 16  1  0  0  0  0
 12 13  1  6  0  0  0
 12 14  1  0  0  0  0
 14 15  1  6  0  0  0
 14 16  1  0  0  0  0
 16 27  1  1  0  0  0
 18 19  2  0  0  0  0
 18 23  1  0  0  0  0
 19 20  1  0  0  0  0
 20 21  2  0  0  0  0
 21 22  1  0  0  0  0
 21 27  1  0  0  0  0
 22 23  2  0  0  0  0
 22 25  1  0  0  0  0
 23 24  1  0  0  0  0
 25 26  2  0  0  0  0
 26 27  1  0  0  0  0
M  END
>  <CHROM.1>
51.57269165,-52.74705656,176.03031262,72.96328471,-60.51151722,157.19312157
85.00404935,8.75594141,3.06152031,24.56349430,-1.57000537,-0.99227079,1.02447333

>  <Name>
ligand

>  <RI>
0

>  <Rbt.Current_Directory>
/home/itssahil/PROJECTS/Mol_Feturizer/Test_systems_manuscript/rnas/2ydh

>  <Rbt.Executable>
rbdock ($Id: //depot/dev/client3/rdock/2013.1/src/exe/rbdock.cxx#4 $)

>  <Rbt.Library>
libRbt.so (2013.1, Build901 2013/11/27)

>  <Rbt.Parameter_File>
/export/apps/rDock/src/rDock_2013.1_src/data/scripts/dock_solv.prm

>  <Rbt.Receptor>
prm/blind_docking_60.prm

>  <SCORE>
-9.7219

>  <SCORE.INTER>
-10.5004

>  <SCORE.INTER.CONST>
1

>  <SCORE.INTER.POLAR>
0

>  <SCORE.INTER.ROT>
7

>  <SCORE.INTER.SOLV>
8.49501

>  <SCORE.INTER.VDW>
-18.0986

>  <SCORE.INTER.norm>
-0.388903

>  <SCORE.INTRA>
0.77848

>  <SCORE.INTRA.DIHEDRAL>
-3.5714

>  <SCORE.INTRA.DIHEDRAL.0>
9.75037

>  <SCORE.INTRA.POLAR>
0

>  <SCORE.INTRA.POLAR.0>
0

>  <SCORE.INTRA.REPUL>
0

>  <SCORE.INTRA.REPUL.0>
0

>  <SCORE.INTRA.SOLV>
-0.454736

>  <SCORE.INTRA.SOLV.lig_0>
-48.4279

>  <SCORE.INTRA.VDW>
2.79155

>  <SCORE.INTRA.VDW.0>
-4.69037

>  <SCORE.INTRA.norm>
0.0288326

>  <SCORE.RESTR>
0

>  <SCORE.RESTR.CAVITY>
0

>  <SCORE.RESTR.norm>
0

>  <SCORE.SYSTEM>
0

>  <SCORE.SYSTEM.CONST>
0

>  <SCORE.SYSTEM.DIHEDRAL>
0

>  <SCORE.SYSTEM.SOLV>
0

>  <SCORE.SYSTEM.norm>
0

>  <SCORE.heavy>
27

>  <SCORE.norm>
-0.36007

>  <RMSD>
20.244

$$$$
ligand
 OpenBabel02271912153D
libRbt.so/2013.1/901 2013/11/27
 27 29  0  0  0  0  0  0  0  0999 V2000
    6.7797    3.7717   18.8901 N   0  0  0  0  0  0  0  0  0  0  0  0
    7.3736    2.4168   19.1099 C   0  0  2  0  0  0  0  0  0  0  0  0
    6.4935    1.5710   20.0568 C   0  0  0  0  0  0  0  0  0  0  0  0
    6.5779    0.3393   20.0757 O   0  0  0  0  0  0  0  0  0  0  0  0
    8.7983    2.5664   19.6329 C   0  0  0  0  0  0  0  0  0  0  0  0
    8.9018    3.2154   21.0030 C   0  0  0  0  0  0  0  0  0  0  0  0
   10.6105    3.3711   21.5970 S   0  0  2  0  0  0  0  0  0  0  0  0
   11.0692    1.6228   21.7664 C   0  0  0  0  0  0  0  0  0  0  0  0
   10.5093    3.9043   23.3132 C   0  0  0  0  0  0  0  0  0  0  0  0
    9.5262    3.0148   24.0501 C   0  0  1  0  0  0  0  0  0  0  0  0
   10.0759    2.4613   25.2357 O   0  0  0  0  0  0  0  0  0  0  0  0
    8.2858    3.7758   24.4502 C   0  0  1  0  0  0  0  0  0  0  0  0
    7.3558    3.8078   23.4059 O   0  0  0  0  0  0  0  0  0  0  0  0
    7.8028    2.9560   25.6076 C   0  0  1  0  0  0  0  0  0  0  0  0
    6.9775    1.9127   25.1252 O   0  0  0  0  0  0  0  0  0  0  0  0
    9.0746    2.3877   26.2240 C   0  0  2  0  0  0  0  0  0  0  0  0
    5.6649    2.0842   20.8310 O   0  0  0  0  0  0  0  0  0  0  0  0
    8.9899    6.9226   28.9233 N   0  0  0  0  0  0  0  0  0  0  0  0
    8.3787    6.6431   27.7096 C   0  0  0  0  0  0  0  0  0  0  0  0
    8.5087    5.3929   27.1167 N   0  0  0  0  0  0  0  0  0  0  0  0
    9.2225    4.4388   27.7415 C   0  0  0  0  0  0  0  0  0  0  0  0
    9.8303    4.7037   28.9720 C   0  0  0  0  0  0  0  0  0  0  0  0
    9.7270    5.9494   29.5632 C   0  0  0  0  0  0  0  0  0  0  0  0
   10.3139    6.1991   30.7241 N   0  0  0  0  0  0  0  0  0  0  0  0
   10.4572    3.5927   29.3739 N   0  0  0  0  0  0  0  0  0  0  0  0
   10.2622    2.6362   28.4395 C   0  0  0  0  0  0  0  0  0  0  0  0
    9.4937    3.1418   27.4205 N   0  0  0  0  0  0  0  0  0  0  0  0
  2  1  1  1  0  0  0
  2  3  1  0  0  0  0
  2  5  1  0  0  0  0
  3  4  1  0  0  0  0
  3 17  1  0  0  0  0
  5  6  1  0  0  0  0
  7  6  1  1  0  0  0
  7  8  1  0  0  0  0
  7  9  1  0  0  0  0
 10  9  1  1  0  0  0
 10 11  1  0  0  0  0
 10 12  1  0  0  0  0
 11 16  1  0  0  0  0
 12 13  1  6  0  0  0
 12 14  1  0  0  0  0
 14 15  1  6  0  0  0
 14 16  1  0  0  0  0
 16 27  1  1  0  0  0
 18 19  2  0  0  0  0
 18 23  1  0  0  0  0
 19 20  1  0  0  0  0
 20 21  2  0  0  0  0
 21 22  1  0  0  0  0
 21 27  1  0  0  0  0
 22 23  2  0  0  0  0
 22 25  1  0  0  0  0
 23 24  1  0  0  0  0
 25 26  2  0  0  0  0
 26 27  1  0  0  0  0
M  END
>  <CHROM.1>
159.27977605,64.80313619,179.75783774,-64.84944543,49.05300362,127.72553220
93.54474082,8.83217043,3.44678253,24.42101992,1.76827450,0.03800086,-1.88440276

>  <Name>
ligand

>  <RI>
0

>  <Rbt.Current_Directory>
/home/itssahil/PROJECTS/Mol_Feturizer/Test_systems_manuscript/rnas/2ydh

>  <Rbt.Executable>
rbdock ($Id: //depot/dev/client3/rdock/2013.1/src/exe/rbdock.cxx#4 $)

>  <Rbt.Library>
libRbt.so (2013.1, Build901 2013/11/27)

>  <Rbt.Parameter_File>
/export/apps/rDock/src/rDock_2013.1_src/data/scripts/dock_solv.prm

>  <Rbt.Receptor>
prm/blind_docking_60.prm

>  <SCORE>
-5.76336

>  <SCORE.INTER>
-7.48527

>  <SCORE.INTER.CONST>
1

>  <SCORE.INTER.POLAR>
0

>  <SCORE.INTER.ROT>
7

>  <SCORE.INTER.SOLV>
4.95466

>  <SCORE.INTER.VDW>
-14.9084

>  <SCORE.INTER.norm>
-0.277232

>  <SCORE.INTRA>
1.72192

>  <SCORE.INTRA.DIHEDRAL>
-1.53988

>  <SCORE.INTRA.DIHEDRAL.0>
9.75037

>  <SCORE.INTRA.POLAR>
0

>  <SCORE.INTRA.POLAR.0>
0

>  <SCORE.INTRA.REPUL>
0

>  <SCORE.INTRA.REPUL.0>
0

>  <SCORE.INTRA.SOLV>
-0.449139

>  <SCORE.INTRA.SOLV.lig_0>
-48.4279

>  <SCORE.INTRA.VDW>
2.71643

>  <SCORE.INTRA.VDW.0>
-4.69037

>  <SCORE.INTRA.norm>
0.0637747

>  <SCORE.RESTR>
0

>  <SCORE.RESTR.CAVITY>
0

>  <SCORE.RESTR.norm>
0

>  <SCORE.SYSTEM>
0

>  <SCORE.SYSTEM.CONST>
0

>  <SCORE.SYSTEM.DIHEDRAL>
0

>  <SCORE.SYSTEM.SOLV>
0

>  <SCORE.SYSTEM.norm>
0

>  <SCORE.heavy>
27

>  <SCORE.norm>
-0.213458

>  <RMSD>
20.356

$$$$
ligand
 OpenBabel02271912153D
libRbt.so/2013.1/901 2013/11/27
 27 29  0  0  0  0  0  0  0  0999 V2000
    8.5246    0.5064   20.6420 N   0  0  0  0  0  0  0  0  0  0  0  0
    8.5699    1.9763   20.3698 C   0  0  2  0  0  0  0  0  0  0  0  0
    8.4832    2.2639   18.8544 C   0  0  0  0  0  0  0  0  0  0  0  0
    8.6451    1.3643   18.0242 O   0  0  0  0  0  0  0  0  0  0  0  0
    9.8284    2.5692   20.9945 C   0  0  0  0  0  0  0  0  0  0  0  0
    9.8867    2.4698   22.5097 C   0  0  0  0  0  0  0  0  0  0  0  0
   11.3990    3.1819   23.2187 S   0  0  2  0  0  0  0  0  0  0  0  0
   12.6439    2.0148   22.5992 C   0  0  0  0  0  0  0  0  0  0  0  0
   11.3671    2.8033   24.9781 C   0  0  0  0  0  0  0  0  0  0  0  0
   12.6852    3.2255   25.5986 C   0  0  1  0  0  0  0  0  0  0  0  0
   12.8373    4.6358   25.6462 O   0  0  0  0  0  0  0  0  0  0  0  0
   12.8169    2.7179   27.0138 C   0  0  1  0  0  0  0  0  0  0  0  0
   13.3137    1.4104   27.0356 O   0  0  0  0  0  0  0  0  0  0  0  0
   13.7941    3.6997   27.5849 C   0  0  1  0  0  0  0  0  0  0  0  0
   15.1102    3.2486   27.3264 O   0  0  0  0  0  0  0  0  0  0  0  0
   13.5156    4.9922   26.8285 C   0  0  2  0  0  0  0  0  0  0  0  0
    8.2545    3.4019   18.4049 O   0  0  0  0  0  0  0  0  0  0  0  0
    8.7836    7.1630   27.6971 N   0  0  0  0  0  0  0  0  0  0  0  0
    9.1230    6.2157   26.7420 C   0  0  0  0  0  0  0  0  0  0  0  0
   10.4279    5.7507   26.6308 N   0  0  0  0  0  0  0  0  0  0  0  0
   11.3667    6.2150   27.4754 C   0  0  0  0  0  0  0  0  0  0  0  0
   11.0336    7.1582   28.4517 C   0  0  0  0  0  0  0  0  0  0  0  0
    9.7441    7.6454   28.5600 C   0  0  0  0  0  0  0  0  0  0  0  0
    9.4358    8.5474   29.4797 N   0  0  0  0  0  0  0  0  0  0  0  0
   12.1365    7.4345   29.1563 N   0  0  0  0  0  0  0  0  0  0  0  0
   13.1520    6.6949   28.6585 C   0  0  0  0  0  0  0  0  0  0  0  0
   12.6919    5.9278   27.6172 N   0  0  0  0  0  0  0  0  0  0  0  0
  2  1  1  6  0  0  0
  2  3  1  0  0  0  0
  2  5  1  0  0  0  0
  3  4  1  0  0  0  0
  3 17  1  0  0  0  0
  5  6  1  0  0  0  0
  7  6  1  6  0  0  0
  7  8  1  0  0  0  0
  7  9  1  0  0  0  0
 10  9  1  1  0  0  0
 10 11  1  0  0  0  0
 10 12  1  0  0  0  0
 11 16  1  0  0  0  0
 12 13  1  6  0  0  0
 12 14  1  0  0  0  0
 14 15  1  6  0  0  0
 14 16  1  0  0  0  0
 16 27  1  1  0  0  0
 18 19  2  0  0  0  0
 18 23  1  0  0  0  0
 19 20  1  0  0  0  0
 20 21  2  0  0  0  0
 21 22  1  0  0  0  0
 21 27  1  0  0  0  0
 22 23  2  0  0  0  0
 22 25  1  0  0  0  0
 23 24  1  0  0  0  0
 25 26  2  0  0  0  0
 26 27  1  0  0  0  0
M  END
>  <CHROM.1>
-13.90053959,-63.52689894,179.87827735,-67.49459940,173.21438271,69.68418317
14.64839155,11.13073439,4.13222933,24.92766515,1.90636467,0.59948755,-2.23336242

>  <Name>
ligand

>  <RI>
0

>  <Rbt.Current_Directory>
/home/itssahil/PROJECTS/Mol_Feturizer/Test_systems_manuscript/rnas/2ydh

>  <Rbt.Executable>
rbdock ($Id: //depot/dev/client3/rdock/2013.1/src/exe/rbdock.cxx#4 $)

>  <Rbt.Library>
libRbt.so (2013.1, Build901 2013/11/27)

>  <Rbt.Parameter_File>
/export/apps/rDock/src/rDock_2013.1_src/data/scripts/dock_solv.prm

>  <Rbt.Receptor>
prm/blind_docking_60.prm

>  <SCORE>
-11.2347

>  <SCORE.INTER>
-9.72648

>  <SCORE.INTER.CONST>
1

>  <SCORE.INTER.POLAR>
0

>  <SCORE.INTER.ROT>
7

>  <SCORE.INTER.SOLV>
11.1042

>  <SCORE.INTER.VDW>
-18.4524

>  <SCORE.INTER.norm>
-0.36024

>  <SCORE.INTRA>
-1.50821

>  <SCORE.INTRA.DIHEDRAL>
-6.34865

>  <SCORE.INTRA.DIHEDRAL.0>
9.75037

>  <SCORE.INTRA.POLAR>
0

>  <SCORE.INTRA.POLAR.0>
0

>  <SCORE.INTRA.REPUL>
0

>  <SCORE.INTRA.REPUL.0>
0

>  <SCORE.INTRA.SOLV>
-0.825038

>  <SCORE.INTRA.SOLV.lig_0>
-48.4279

>  <SCORE.INTRA.VDW>
2.07863

>  <SCORE.INTRA.VDW.0>
-4.69037

>  <SCORE.INTRA.norm>
-0.0558597

>  <SCORE.RESTR>
0

>  <SCORE.RESTR.CAVITY>
0

>  <SCORE.RESTR.norm>
0

>  <SCORE.SYSTEM>
0

>  <SCORE.SYSTEM.CONST>
0

>  <SCORE.SYSTEM.DIHEDRAL>
0

>  <SCORE.SYSTEM.SOLV>
0

>  <SCORE.SYSTEM.norm>
0

>  <SCORE.heavy>
27

>  <SCORE.norm>
-0.4161

>  <RMSD>
20.606

$$$$
ligand
 OpenBabel02271912153D
libRbt.so/2013.1/901 2013/11/27
 27 29  0  0  0  0  0  0  0  0999 V2000
   10.8523    1.1030   22.5006 N   0  0  0  0  0  0  0  0  0  0  0  0
    9.6461    0.7751   21.6795 C   0  0  2  0  0  0  0  0  0  0  0  0
    9.7525   -0.6437   21.0775 C   0  0  0  0  0  0  0  0  0  0  0  0
   10.8156   -1.2710   21.1068 O   0  0  0  0  0  0  0  0  0  0  0  0
    9.4590    1.8409   20.6049 C   0  0  0  0  0  0  0  0  0  0  0  0
    9.2949    3.2536   21.1404 C   0  0  0  0  0  0  0  0  0  0  0  0
    7.6724    3.5501   21.8996 S   0  0  2  0  0  0  0  0  0  0  0  0
    6.9087    4.6269   20.6534 C   0  0  0  0  0  0  0  0  0  0  0  0
    7.9472    4.6883   23.2667 C   0  0  0  0  0  0  0  0  0  0  0  0
    8.5699    3.9303   24.4235 C   0  0  1  0  0  0  0  0  0  0  0  0
    9.6079    4.6616   25.0575 O   0  0  0  0  0  0  0  0  0  0  0  0
    7.5469    3.6034   25.4839 C   0  0  1  0  0  0  0  0  0  0  0  0
    6.8641    2.4216   25.1776 O   0  0  0  0  0  0  0  0  0  0  0  0
    8.4196    3.4509   26.6923 C   0  0  1  0  0  0  0  0  0  0  0  0
    8.8843    2.1163   26.7638 O   0  0  0  0  0  0  0  0  0  0  0  0
    9.5794    4.4064   26.4428 C   0  0  2  0  0  0  0  0  0  0  0  0
    8.7857   -1.2115   20.5368 O   0  0  0  0  0  0  0  0  0  0  0  0
   11.7636    8.1175   29.4949 N   0  0  0  0  0  0  0  0  0  0  0  0
   12.3655    6.9813   28.9740 C   0  0  0  0  0  0  0  0  0  0  0  0
   11.6442    6.0865   28.1926 N   0  0  0  0  0  0  0  0  0  0  0  0
   10.3502    6.3402   27.9254 C   0  0  0  0  0  0  0  0  0  0  0  0
    9.7369    7.4894   28.4320 C   0  0  0  0  0  0  0  0  0  0  0  0
   10.4365    8.3773   29.2283 C   0  0  0  0  0  0  0  0  0  0  0  0
    9.8478    9.4595   29.7151 N   0  0  0  0  0  0  0  0  0  0  0  0
    8.4682    7.5045   28.0088 N   0  0  0  0  0  0  0  0  0  0  0  0
    8.2628    6.4051   27.2504 C   0  0  0  0  0  0  0  0  0  0  0  0
    9.4217    5.6724   27.1834 N   0  0  0  0  0  0  0  0  0  0  0  0
  2  1  1  6  0  0  0
  2  3  1  0  0  0  0
  2  5  1  0  0  0  0
  3  4  1  0  0  0  0
  3 17  1  0  0  0  0
  5  6  1  0  0  0  0
  7  6  1  6  0  0  0
  7  8  1  0  0  0  0
  7  9  1  0  0  0  0
 10  9  1  6  0  0  0
 10 11  1  0  0  0  0
 10 12  1  0  0  0  0
 11 16  1  0  0  0  0
 12 13  1  6  0  0  0
 12 14  1  0  0  0  0
 14 15  1  6  0  0  0
 14 16  1  0  0  0  0
 16 27  1  1  0  0  0
 18 19  2  0  0  0  0
 18 23  1  0  0  0  0
 19 20  1  0  0  0  0
 20 21  2  0  0  0  0
 21 22  1  0  0  0  0
 21 27  1  0  0  0  0
 22 23  2  0  0  0  0
 22 25  1  0  0  0  0
 23 24  1  0  0  0  0
 25 26  2  0  0  0  0
 26 27  1  0  0  0  0
M  END
>  <CHROM.1>
-11.82787008,-58.52151900,-73.67692524,-108.17102782,-75.80374167,138.29088648
-107.47710748,9.25606026,4.07244092,24.88740540,-1.73211167,-0.73150640,0.74393193

>  <Name>
ligand

>  <RI>
0

>  <Rbt.Current_Directory>
/home/itssahil/PROJECTS/Mol_Feturizer/Test_systems_manuscript/rnas/2ydh

>  <Rbt.Executable>
rbdock ($Id: //depot/dev/client3/rdock/2013.1/src/exe/rbdock.cxx#4 $)

>  <Rbt.Library>
libRbt.so (2013.1, Build901 2013/11/27)

>  <Rbt.Parameter_File>
/export/apps/rDock/src/rDock_2013.1_src/data/scripts/dock_solv.prm

>  <Rbt.Receptor>
prm/blind_docking_60.prm

>  <SCORE>
-7.33008

>  <SCORE.INTER>
-9.99226

>  <SCORE.INTER.CONST>
1

>  <SCORE.INTER.POLAR>
0

>  <SCORE.INTER.ROT>
7

>  <SCORE.INTER.SOLV>
10.758

>  <SCORE.INTER.VDW>
-18.5142

>  <SCORE.INTER.norm>
-0.370084

>  <SCORE.INTRA>
2.66218

>  <SCORE.INTRA.DIHEDRAL>
1.81501

>  <SCORE.INTRA.DIHEDRAL.0>
9.75037

>  <SCORE.INTRA.POLAR>
0

>  <SCORE.INTRA.POLAR.0>
0

>  <SCORE.INTRA.REPUL>
0

>  <SCORE.INTRA.REPUL.0>
0

>  <SCORE.INTRA.SOLV>
0.0651568

>  <SCORE.INTRA.SOLV.lig_0>
-48.4279

>  <SCORE.INTRA.VDW>
1.72209

>  <SCORE.INTRA.VDW.0>
-4.69037

>  <SCORE.INTRA.norm>
0.0985991

>  <SCORE.RESTR>
0

>  <SCORE.RESTR.CAVITY>
0

>  <SCORE.RESTR.norm>
0

>  <SCORE.SYSTEM>
0

>  <SCORE.SYSTEM.CONST>
0

>  <SCORE.SYSTEM.DIHEDRAL>
0

>  <SCORE.SYSTEM.SOLV>
0

>  <SCORE.SYSTEM.norm>
0

>  <SCORE.heavy>
27

>  <SCORE.norm>
-0.271485

>  <RMSD>
20.817

$$$$
ligand
 OpenBabel02271912153D
libRbt.so/2013.1/901 2013/11/27
 27 29  0  0  0  0  0  0  0  0999 V2000
    8.3260    0.4468   22.2260 N   0  0  0  0  0  0  0  0  0  0  0  0
    9.4725    0.8091   21.3366 C   0  0  2  0  0  0  0  0  0  0  0  0
    9.1195    0.5738   19.8511 C   0  0  0  0  0  0  0  0  0  0  0  0
    8.9182    1.5214   19.0855 O   0  0  0  0  0  0  0  0  0  0  0  0
   10.7111    0.0278   21.7620 C   0  0  0  0  0  0  0  0  0  0  0  0
   11.1465    0.2697   23.1976 C   0  0  0  0  0  0  0  0  0  0  0  0
   11.5895    1.9985   23.5323 S   0  0  2  0  0  0  0  0  0  0  0  0
   13.1433    2.1344   22.6035 C   0  0  0  0  0  0  0  0  0  0  0  0
   12.1611    2.0595   25.2380 C   0  0  0  0  0  0  0  0  0  0  0  0
   12.6528    3.4612   25.5448 C   0  0  1  0  0  0  0  0  0  0  0  0
   11.6254    4.4342   25.4363 O   0  0  0  0  0  0  0  0  0  0  0  0
   13.2079    3.5575   26.9450 C   0  0  1  0  0  0  0  0  0  0  0  0
   14.5490    3.1616   26.9833 O   0  0  0  0  0  0  0  0  0  0  0  0
   13.0461    5.0211   27.2216 C   0  0  1  0  0  0  0  0  0  0  0  0
   14.1867    5.7119   26.7480 O   0  0  0  0  0  0  0  0  0  0  0  0
   11.8115    5.4214   26.4241 C   0  0  2  0  0  0  0  0  0  0  0  0
    9.0174   -0.5670   19.3639 O   0  0  0  0  0  0  0  0  0  0  0  0
    8.9316    8.2484   29.8260 N   0  0  0  0  0  0  0  0  0  0  0  0
   10.1211    8.6112   29.2110 C   0  0  0  0  0  0  0  0  0  0  0  0
   10.7699    7.7409   28.3432 N   0  0  0  0  0  0  0  0  0  0  0  0
   10.2229    6.5391   28.0851 C   0  0  0  0  0  0  0  0  0  0  0  0
    9.0171    6.1683   28.6869 C   0  0  0  0  0  0  0  0  0  0  0  0
    8.3717    7.0155   29.5687 C   0  0  0  0  0  0  0  0  0  0  0  0
    7.2347    6.6552   30.1449 N   0  0  0  0  0  0  0  0  0  0  0  0
    8.6942    4.9453   28.2521 N   0  0  0  0  0  0  0  0  0  0  0  0
    9.6546    4.5347   27.3946 C   0  0  0  0  0  0  0  0  0  0  0  0
   10.6098    5.5132   27.2747 N   0  0  0  0  0  0  0  0  0  0  0  0
  2  1  1  1  0  0  0
  2  3  1  0  0  0  0
  2  5  1  0  0  0  0
  3  4  1  0  0  0  0
  3 17  1  0  0  0  0
  5  6  1  0  0  0  0
  7  6  1  1  0  0  0
  7  8  1  0  0  0  0
  7  9  1  0  0  0  0
 10  9  1  1  0  0  0
 10 11  1  0  0  0  0
 10 12  1  0  0  0  0
 11 16  1  0  0  0  0
 12 13  1  6  0  0  0
 12 14  1  0  0  0  0
 14 15  1  6  0  0  0
 14 16  1  0  0  0  0
 16 27  1  1  0  0  0
 18 19  2  0  0  0  0
 18 23  1  0  0  0  0
 19 20  1  0  0  0  0
 20 21  2  0  0  0  0
 21 22  1  0  0  0  0
 21 27  1  0  0  0  0
 22 23  2  0  0  0  0
 22 25  1  0  0  0  0
 23 24  1  0  0  0  0
 25 26  2  0  0  0  0
 26 27  1  0  0  0  0
M  END
>  <CHROM.1>
107.77381765,-59.03742793,-61.22187071,-70.60274500,175.47976674,62.43040855
-160.57204443,10.77345751,3.75760487,25.36468781,1.56734024,0.12328659,-2.24239903

>  <Name>
ligand

>  <RI>
0

>  <Rbt.Current_Directory>
/home/itssahil/PROJECTS/Mol_Feturizer/Test_systems_manuscript/rnas/2ydh

>  <Rbt.Executable>
rbdock ($Id: //depot/dev/client3/rdock/2013.1/src/exe/rbdock.cxx#4 $)

>  <Rbt.Library>
libRbt.so (2013.1, Build901 2013/11/27)

>  <Rbt.Parameter_File>
/export/apps/rDock/src/rDock_2013.1_src/data/scripts/dock_solv.prm

>  <Rbt.Receptor>
prm/blind_docking_40.prm

>  <SCORE>
-12.2875

>  <SCORE.INTER>
-11.205

>  <SCORE.INTER.CONST>
1

>  <SCORE.INTER.POLAR>
0

>  <SCORE.INTER.ROT>
7

>  <SCORE.INTER.SOLV>
11.9681

>  <SCORE.INTER.VDW>
-19.726

>  <SCORE.INTER.norm>
-0.415

>  <SCORE.INTRA>
-1.08252

>  <SCORE.INTRA.DIHEDRAL>
-6.6597

>  <SCORE.INTRA.DIHEDRAL.0>
9.75037

>  <SCORE.INTRA.POLAR>
0

>  <SCORE.INTRA.POLAR.0>
0

>  <SCORE.INTRA.REPUL>
0

>  <SCORE.INTRA.REPUL.0>
0

>  <SCORE.INTRA.SOLV>
-0.240039

>  <SCORE.INTRA.SOLV.lig_0>
-48.4279

>  <SCORE.INTRA.VDW>
2.36735

>  <SCORE.INTRA.VDW.0>
-4.69037

>  <SCORE.INTRA.norm>
-0.0400933

>  <SCORE.RESTR>
0

>  <SCORE.RESTR.CAVITY>
0

>  <SCORE.RESTR.norm>
0

>  <SCORE.SYSTEM>
0

>  <SCORE.SYSTEM.CONST>
0

>  <SCORE.SYSTEM.DIHEDRAL>
0

>  <SCORE.SYSTEM.SOLV>
0

>  <SCORE.SYSTEM.norm>
0

>  <SCORE.heavy>
27

>  <SCORE.norm>
-0.455093

>  <RMSD>
20.881

$$$$
ligand
 OpenBabel02271912153D
libRbt.so/2013.1/901 2013/11/27
 27 29  0  0  0  0  0  0  0  0999 V2000
   10.8761    6.0853   32.5585 N   0  0  0  0  0  0  0  0  0  0  0  0
   10.3998    4.8942   31.7897 C   0  0  2  0  0  0  0  0  0  0  0  0
   11.4973    3.8100   31.7084 C   0  0  0  0  0  0  0  0  0  0  0  0
   12.1923    3.5309   32.6902 O   0  0  0  0  0  0  0  0  0  0  0  0
    9.9285    5.3371   30.4087 C   0  0  0  0  0  0  0  0  0  0  0  0
   10.9868    6.0440   29.5784 C   0  0  0  0  0  0  0  0  0  0  0  0
   10.4221    6.4693   27.9059 S   0  0  2  0  0  0  0  0  0  0  0  0
    8.9728    7.4931   28.2894 C   0  0  0  0  0  0  0  0  0  0  0  0
    9.6671    4.9830   27.2271 C   0  0  0  0  0  0  0  0  0  0  0  0
   10.7367    3.9224   27.0488 C   0  0  1  0  0  0  0  0  0  0  0  0
   10.1964    2.6125   26.9694 O   0  0  0  0  0  0  0  0  0  0  0  0
   11.5348    4.1496   25.7881 C   0  0  1  0  0  0  0  0  0  0  0  0
   12.5780    5.0549   26.0087 O   0  0  0  0  0  0  0  0  0  0  0  0
   12.0404    2.7665   25.5113 C   0  0  1  0  0  0  0  0  0  0  0  0
   13.2525    2.5662   26.2134 O   0  0  0  0  0  0  0  0  0  0  0  0
   10.9516    1.8510   26.0558 C   0  0  2  0  0  0  0  0  0  0  0  0
   11.7333    3.1790   30.6617 O   0  0  0  0  0  0  0  0  0  0  0  0
   10.5143   -0.1330   21.1843 N   0  0  0  0  0  0  0  0  0  0  0  0
   11.6726    0.2402   21.8504 C   0  0  0  0  0  0  0  0  0  0  0  0
   11.6186    0.7640   23.1366 N   0  0  0  0  0  0  0  0  0  0  0  0
   10.4259    0.8911   23.7462 C   0  0  0  0  0  0  0  0  0  0  0  0
    9.2534    0.5044   23.0910 C   0  0  0  0  0  0  0  0  0  0  0  0
    9.2902    0.0017   21.8035 C   0  0  0  0  0  0  0  0  0  0  0  0
    8.1753   -0.3532   21.1826 N   0  0  0  0  0  0  0  0  0  0  0  0
    8.2244    0.7213   23.9176 N   0  0  0  0  0  0  0  0  0  0  0  0
    8.7097    1.2288   25.0721 C   0  0  0  0  0  0  0  0  0  0  0  0
   10.0755    1.3369   24.9861 N   0  0  0  0  0  0  0  0  0  0  0  0
  2  1  1  6  0  0  0
  2  3  1  0  0  0  0
  2  5  1  0  0  0  0
  3  4  1  0  0  0  0
  3 17  1  0  0  0  0
  5  6  1  0  0  0  0
  7  6  1  1  0  0  0
  7  8  1  0  0  0  0
  7  9  1  0  0  0  0
 10  9  1  6  0  0  0
 10 11  1  0  0  0  0
 10 12  1  0  0  0  0
 11 16  1  0  0  0  0
 12 13  1  1  0  0  0
 12 14  1  0  0  0  0
 14 15  1  1  0  0  0
 14 16  1  0  0  0  0
 16 27  1  6  0  0  0
 18 19  2  0  0  0  0
 18 23  1  0  0  0  0
 19 20  1  0  0  0  0
 20 21  2  0  0  0  0
 21 22  1  0  0  0  0
 21 27  1  0  0  0  0
 22 23  2  0  0  0  0
 22 25  1  0  0  0  0
 23 24  1  0  0  0  0
 25 26  2  0  0  0  0
 26 27  1  0  0  0  0
M  END
>  <CHROM.1>
41.99226186,58.42431473,176.58084197,57.67316836,-66.07788298,159.52518621
160.05779318,10.62042432,3.19629374,26.70371931,-1.35502726,1.08233827,-2.30713162

>  <Name>
ligand

>  <RI>
0

>  <Rbt.Current_Directory>
/home/itssahil/PROJECTS/Mol_Feturizer/Test_systems_manuscript/rnas/2ydh

>  <Rbt.Executable>
rbdock ($Id: //depot/dev/client3/rdock/2013.1/src/exe/rbdock.cxx#4 $)

>  <Rbt.Library>
libRbt.so (2013.1, Build901 2013/11/27)

>  <Rbt.Parameter_File>
/export/apps/rDock/src/rDock_2013.1_src/data/scripts/dock_solv.prm

>  <Rbt.Receptor>
prm/blind_docking_60.prm

>  <SCORE>
-8.05915

>  <SCORE.INTER>
-8.25607

>  <SCORE.INTER.CONST>
1

>  <SCORE.INTER.POLAR>
0

>  <SCORE.INTER.ROT>
7

>  <SCORE.INTER.SOLV>
7.0968

>  <SCORE.INTER.VDW>
-16.1363

>  <SCORE.INTER.norm>
-0.30578

>  <SCORE.INTRA>
0.196916

>  <SCORE.INTRA.DIHEDRAL>
-5.21469

>  <SCORE.INTRA.DIHEDRAL.0>
9.75037

>  <SCORE.INTRA.POLAR>
0

>  <SCORE.INTRA.POLAR.0>
0

>  <SCORE.INTRA.REPUL>
0

>  <SCORE.INTRA.REPUL.0>
0

>  <SCORE.INTRA.SOLV>
-0.624589

>  <SCORE.INTRA.SOLV.lig_0>
-48.4279

>  <SCORE.INTRA.VDW>
3.11656

>  <SCORE.INTRA.VDW.0>
-4.69037

>  <SCORE.INTRA.norm>
0.00729319

>  <SCORE.RESTR>
0

>  <SCORE.RESTR.CAVITY>
0

>  <SCORE.RESTR.norm>
0

>  <SCORE.SYSTEM>
0

>  <SCORE.SYSTEM.CONST>
0

>  <SCORE.SYSTEM.DIHEDRAL>
0

>  <SCORE.SYSTEM.SOLV>
0

>  <SCORE.SYSTEM.norm>
0

>  <SCORE.heavy>
27

>  <SCORE.norm>
-0.298487

>  <RMSD>
20.948

$$$$
ligand
 OpenBabel02271912153D
libRbt.so/2013.1/901 2013/11/27
 27 29  0  0  0  0  0  0  0  0999 V2000
    7.8140   -2.3277   21.2400 N   0  0  0  0  0  0  0  0  0  0  0  0
    8.6011   -1.1651   21.7553 C   0  0  2  0  0  0  0  0  0  0  0  0
   10.1022   -1.3199   21.4248 C   0  0  0  0  0  0  0  0  0  0  0  0
   10.5966   -2.4305   21.2087 O   0  0  0  0  0  0  0  0  0  0  0  0
    8.3569   -1.0110   23.2527 C   0  0  0  0  0  0  0  0  0  0  0  0
    9.0213    0.2044   23.8777 C   0  0  0  0  0  0  0  0  0  0  0  0
   10.7460   -0.0898   24.3631 S   0  0  2  0  0  0  0  0  0  0  0  0
   10.5125   -0.8387   26.0002 C   0  0  0  0  0  0  0  0  0  0  0  0
   11.4425    1.5175   24.7775 C   0  0  0  0  0  0  0  0  0  0  0  0
   10.3592    2.3814   25.3947 C   0  0  1  0  0  0  0  0  0  0  0  0
    9.9958    1.9507   26.6972 O   0  0  0  0  0  0  0  0  0  0  0  0
   10.7998    3.8202   25.5107 C   0  0  1  0  0  0  0  0  0  0  0  0
   10.5681    4.5154   24.3192 O   0  0  0  0  0  0  0  0  0  0  0  0
    9.9209    4.3043   26.6235 C   0  0  1  0  0  0  0  0  0  0  0  0
    8.6912    4.7498   26.0836 O   0  0  0  0  0  0  0  0  0  0  0  0
    9.7054    3.0744   27.4960 C   0  0  2  0  0  0  0  0  0  0  0  0
   10.8750   -0.3457   21.3670 O   0  0  0  0  0  0  0  0  0  0  0  0
   10.8209    5.1456   32.2209 N   0  0  0  0  0  0  0  0  0  0  0  0
    9.7840    5.4877   31.3650 C   0  0  0  0  0  0  0  0  0  0  0  0
    9.6326    4.8524   30.1382 N   0  0  0  0  0  0  0  0  0  0  0  0
   10.4950    3.8804   29.7892 C   0  0  0  0  0  0  0  0  0  0  0  0
   11.5346    3.5165   30.6496 C   0  0  0  0  0  0  0  0  0  0  0  0
   11.7099    4.1546   31.8637 C   0  0  0  0  0  0  0  0  0  0  0  0
   12.7032    3.8137   32.6710 N   0  0  0  0  0  0  0  0  0  0  0  0
   12.2260    2.5282   30.0716 N   0  0  0  0  0  0  0  0  0  0  0  0
   11.6551    2.2555   28.8775 C   0  0  0  0  0  0  0  0  0  0  0  0
   10.5758    3.0821   28.6870 N   0  0  0  0  0  0  0  0  0  0  0  0
  2  1  1  1  0  0  0
  2  3  1  0  0  0  0
  2  5  1  0  0  0  0
  3  4  1  0  0  0  0
  3 17  1  0  0  0  0
  5  6  1  0  0  0  0
  7  6  1  1  0  0  0
  7  8  1  0  0  0  0
  7  9  1  0  0  0  0
 10  9  1  1  0  0  0
 10 11  1  0  0  0  0
 10 12  1  0  0  0  0
 11 16  1  0  0  0  0
 12 13  1  6  0  0  0
 12 14  1  0  0  0  0
 14 15  1  6  0  0  0
 14 16  1  0  0  0  0
 16 27  1  1  0  0  0
 18 19  2  0  0  0  0
 18 23  1  0  0  0  0
 19 20  1  0  0  0  0
 20 21  2  0  0  0  0
 21 22  1  0  0  0  0
 21 27  1  0  0  0  0
 22 23  2  0  0  0  0
 22 25  1  0  0  0  0
 23 24  1  0  0  0  0
 25 26  2  0  0  0  0
 26 27  1  0  0  0  0
M  END
>  <CHROM.1>
-23.12020065,-175.59777988,-85.19513482,-84.35339925,33.63877468,71.03952241
-170.16098159,10.34577878,1.91221421,26.35179871,-1.87700509,-1.11332779
0.73718235

>  <Name>
ligand

>  <RI>
0

>  <Rbt.Current_Directory>
/home/itssahil/PROJECTS/Mol_Feturizer/Test_systems_manuscript/rnas/2ydh

>  <Rbt.Executable>
rbdock ($Id: //depot/dev/client3/rdock/2013.1/src/exe/rbdock.cxx#4 $)

>  <Rbt.Library>
libRbt.so (2013.1, Build901 2013/11/27)

>  <Rbt.Parameter_File>
/export/apps/rDock/src/rDock_2013.1_src/data/scripts/dock_solv.prm

>  <Rbt.Receptor>
prm/blind_docking_60.prm

>  <SCORE>
-8.95371

>  <SCORE.INTER>
-9.61619

>  <SCORE.INTER.CONST>
1

>  <SCORE.INTER.POLAR>
0

>  <SCORE.INTER.ROT>
7

>  <SCORE.INTER.SOLV>
9.55744

>  <SCORE.INTER.VDW>
-17.8633

>  <SCORE.INTER.norm>
-0.356155

>  <SCORE.INTRA>
0.662477

>  <SCORE.INTRA.DIHEDRAL>
-2.30233

>  <SCORE.INTRA.DIHEDRAL.0>
9.75037

>  <SCORE.INTRA.POLAR>
0

>  <SCORE.INTRA.POLAR.0>
0

>  <SCORE.INTRA.REPUL>
0

>  <SCORE.INTRA.REPUL.0>
0

>  <SCORE.INTRA.SOLV>
-1.29028

>  <SCORE.INTRA.SOLV.lig_0>
-48.4279

>  <SCORE.INTRA.VDW>
2.45878

>  <SCORE.INTRA.VDW.0>
-4.69037

>  <SCORE.INTRA.norm>
0.0245362

>  <SCORE.RESTR>
0

>  <SCORE.RESTR.CAVITY>
0

>  <SCORE.RESTR.norm>
0

>  <SCORE.SYSTEM>
0

>  <SCORE.SYSTEM.CONST>
0

>  <SCORE.SYSTEM.DIHEDRAL>
0

>  <SCORE.SYSTEM.SOLV>
0

>  <SCORE.SYSTEM.norm>
0

>  <SCORE.heavy>
27

>  <SCORE.norm>
-0.331619

>  <RMSD>
21.000

$$$$
ligand
 OpenBabel02271912153D
libRbt.so/2013.1/901 2013/11/27
 27 29  0  0  0  0  0  0  0  0999 V2000
   10.6552    8.8575   30.4159 N   0  0  0  0  0  0  0  0  0  0  0  0
    9.3476    9.1783   29.7648 C   0  0  2  0  0  0  0  0  0  0  0  0
    8.4818   10.0809   30.6717 C   0  0  0  0  0  0  0  0  0  0  0  0
    8.0497   11.1646   30.2673 O   0  0  0  0  0  0  0  0  0  0  0  0
    8.6331    7.8824   29.3962 C   0  0  0  0  0  0  0  0  0  0  0  0
    9.0002    7.3270   28.0303 C   0  0  0  0  0  0  0  0  0  0  0  0
    8.2703    5.6981   27.6973 S   0  0  2  0  0  0  0  0  0  0  0  0
    9.6320    4.6088   28.2023 C   0  0  0  0  0  0  0  0  0  0  0  0
    8.2660    5.4950   25.9088 C   0  0  0  0  0  0  0  0  0  0  0  0
    7.4961    4.2366   25.5561 C   0  0  1  0  0  0  0  0  0  0  0  0
    6.4949    4.4675   24.5771 O   0  0  0  0  0  0  0  0  0  0  0  0
    8.4092    3.1651   25.0117 C   0  0  1  0  0  0  0  0  0  0  0  0
    8.9917    2.4263   26.0468 O   0  0  0  0  0  0  0  0  0  0  0  0
    7.4471    2.3444   24.2081 C   0  0  1  0  0  0  0  0  0  0  0  0
    6.8499    1.3747   25.0479 O   0  0  0  0  0  0  0  0  0  0  0  0
    6.4058    3.3470   23.7276 C   0  0  2  0  0  0  0  0  0  0  0  0
    8.1874    9.7648   31.8391 O   0  0  0  0  0  0  0  0  0  0  0  0
    6.2797    2.0831   18.6046 N   0  0  0  0  0  0  0  0  0  0  0  0
    5.9249    1.2897   19.6859 C   0  0  0  0  0  0  0  0  0  0  0  0
    6.0291    1.7683   20.9865 N   0  0  0  0  0  0  0  0  0  0  0  0
    6.4628    3.0251   21.1929 C   0  0  0  0  0  0  0  0  0  0  0  0
    6.8088    3.8392   20.1107 C   0  0  0  0  0  0  0  0  0  0  0  0
    6.7303    3.3690   18.8128 C   0  0  0  0  0  0  0  0  0  0  0  0
    7.0698    4.1407   17.7911 N   0  0  0  0  0  0  0  0  0  0  0  0
    7.1889    5.0287   20.5900 N   0  0  0  0  0  0  0  0  0  0  0  0
    7.0911    4.9919   21.9373 C   0  0  0  0  0  0  0  0  0  0  0  0
    6.6372    3.7572   22.3297 N   0  0  0  0  0  0  0  0  0  0  0  0
  2  1  1  1  0  0  0
  2  3  1  0  0  0  0
  2  5  1  0  0  0  0
  3  4  1  0  0  0  0
  3 17  1  0  0  0  0
  5  6  1  0  0  0  0
  7  6  1  6  0  0  0
  7  8  1  0  0  0  0
  7  9  1  0  0  0  0
 10  9  1  6  0  0  0
 10 11  1  0  0  0  0
 10 12  1  0  0  0  0
 11 16  1  0  0  0  0
 12 13  1  1  0  0  0
 12 14  1  0  0  0  0
 14 15  1  1  0  0  0
 14 16  1  0  0  0  0
 16 27  1  6  0  0  0
 18 19  2  0  0  0  0
 18 23  1  0  0  0  0
 19 20  1  0  0  0  0
 20 21  2  0  0  0  0
 21 22  1  0  0  0  0
 21 27  1  0  0  0  0
 22 23  2  0  0  0  0
 22 25  1  0  0  0  0
 23 24  1  0  0  0  0
 25 26  2  0  0  0  0
 26 27  1  0  0  0  0
M  END
>  <CHROM.1>
124.36335938,-87.58054503,173.84340831,-94.89113626,-172.33046139,128.51898614
-170.29945500,7.71646253,5.06694484,25.04407304,0.55116038,-1.33941545,0.01568585

>  <Name>
ligand

>  <RI>
0

>  <Rbt.Current_Directory>
/home/itssahil/PROJECTS/Mol_Feturizer/Test_systems_manuscript/rnas/2ydh

>  <Rbt.Executable>
rbdock ($Id: //depot/dev/client3/rdock/2013.1/src/exe/rbdock.cxx#4 $)

>  <Rbt.Library>
libRbt.so (2013.1, Build901 2013/11/27)

>  <Rbt.Parameter_File>
/export/apps/rDock/src/rDock_2013.1_src/data/scripts/dock_solv.prm

>  <Rbt.Receptor>
prm/blind_docking_40.prm

>  <SCORE>
-10.9015

>  <SCORE.INTER>
-14.213

>  <SCORE.INTER.CONST>
1

>  <SCORE.INTER.POLAR>
0

>  <SCORE.INTER.ROT>
7

>  <SCORE.INTER.SOLV>
8.88875

>  <SCORE.INTER.VDW>
-20.7049

>  <SCORE.INTER.norm>
-0.526407

>  <SCORE.INTRA>
3.31153

>  <SCORE.INTRA.DIHEDRAL>
3.65921

>  <SCORE.INTRA.DIHEDRAL.0>
9.75037

>  <SCORE.INTRA.POLAR>
0

>  <SCORE.INTRA.POLAR.0>
0

>  <SCORE.INTRA.REPUL>
0

>  <SCORE.INTRA.REPUL.0>
0

>  <SCORE.INTRA.SOLV>
-0.897267

>  <SCORE.INTRA.SOLV.lig_0>
-48.4279

>  <SCORE.INTRA.VDW>
1.93056

>  <SCORE.INTRA.VDW.0>
-4.69037

>  <SCORE.INTRA.norm>
0.122649

>  <SCORE.RESTR>
0

>  <SCORE.RESTR.CAVITY>
0

>  <SCORE.RESTR.norm>
0

>  <SCORE.SYSTEM>
0

>  <SCORE.SYSTEM.CONST>
0

>  <SCORE.SYSTEM.DIHEDRAL>
0

>  <SCORE.SYSTEM.SOLV>
0

>  <SCORE.SYSTEM.norm>
0

>  <SCORE.heavy>
27

>  <SCORE.norm>
-0.403757

>  <RMSD>
21.147

$$$$
ligand
 OpenBabel02271912153D
libRbt.so/2013.1/901 2013/11/27
 27 29  0  0  0  0  0  0  0  0999 V2000
   10.8768    8.7840   30.0863 N   0  0  0  0  0  0  0  0  0  0  0  0
    9.4807    9.1210   29.6692 C   0  0  2  0  0  0  0  0  0  0  0  0
    8.7624    9.9545   30.7536 C   0  0  0  0  0  0  0  0  0  0  0  0
    8.7034    9.5638   31.9235 O   0  0  0  0  0  0  0  0  0  0  0  0
    8.7261    7.8374   29.3396 C   0  0  0  0  0  0  0  0  0  0  0  0
    8.9991    7.2849   27.9506 C   0  0  0  0  0  0  0  0  0  0  0  0
    8.2798    5.6402   27.6775 S   0  0  2  0  0  0  0  0  0  0  0  0
    9.6558    4.5789   28.2025 C   0  0  0  0  0  0  0  0  0  0  0  0
    8.2586    5.3800   25.8965 C   0  0  0  0  0  0  0  0  0  0  0  0
    7.3473    4.2100   25.5787 C   0  0  1  0  0  0  0  0  0  0  0  0
    6.4211    4.5067   24.5451 O   0  0  0  0  0  0  0  0  0  0  0  0
    8.1348    3.0016   25.1342 C   0  0  1  0  0  0  0  0  0  0  0  0
    8.5788    2.2580   26.2326 O   0  0  0  0  0  0  0  0  0  0  0  0
    7.1058    2.2624   24.3343 C   0  0  1  0  0  0  0  0  0  0  0  0
    6.3583    1.4273   25.1981 O   0  0  0  0  0  0  0  0  0  0  0  0
    6.2204    3.3580   23.7545 C   0  0  2  0  0  0  0  0  0  0  0  0
    8.2119   11.0420   30.5013 O   0  0  0  0  0  0  0  0  0  0  0  0
    9.8028    5.0090   20.2474 N   0  0  0  0  0  0  0  0  0  0  0  0
    9.9548    4.8733   21.6196 C   0  0  0  0  0  0  0  0  0  0  0  0
    8.9020    4.4355   22.4142 N   0  0  0  0  0  0  0  0  0  0  0  0
    7.7275    4.1225   21.8372 C   0  0  0  0  0  0  0  0  0  0  0  0
    7.5669    4.2406   20.4538 C   0  0  0  0  0  0  0  0  0  0  0  0
    8.5990    4.6952   19.6538 C   0  0  0  0  0  0  0  0  0  0  0  0
    8.4385    4.8159   18.3445 N   0  0  0  0  0  0  0  0  0  0  0  0
    6.3233    3.8568   20.1453 N   0  0  0  0  0  0  0  0  0  0  0  0
    5.6964    3.4982   21.2875 C   0  0  0  0  0  0  0  0  0  0  0  0
    6.5543    3.6520   22.3480 N   0  0  0  0  0  0  0  0  0  0  0  0
  2  1  1  1  0  0  0
  2  3  1  0  0  0  0
  2  5  1  0  0  0  0
  3  4  1  0  0  0  0
  3 17  1  0  0  0  0
  5  6  1  0  0  0  0
  7  6  1  6  0  0  0
  7  8  1  0  0  0  0
  7  9  1  0  0  0  0
 10  9  1  6  0  0  0
 10 11  1  0  0  0  0
 10 12  1  0  0  0  0
 11 16  1  0  0  0  0
 12 13  1  1  0  0  0
 12 14  1  0  0  0  0
 14 15  1  1  0  0  0
 14 16  1  0  0  0  0
 16 27  1  6  0  0  0
 18 19  2  0  0  0  0
 18 23  1  0  0  0  0
 19 20  1  0  0  0  0
 20 21  2  0  0  0  0
 21 22  1  0  0  0  0
 21 27  1  0  0  0  0
 22 23  2  0  0  0  0
 22 25  1  0  0  0  0
 23 24  1  0  0  0  0
 25 26  2  0  0  0  0
 26 27  1  0  0  0  0
M  END
>  <CHROM.1>
-53.35482070,-81.11043568,171.64798926,-90.69467594,-165.02576848,131.01629872
56.68383908,8.14362179,5.35054260,25.27053551,-1.18515915,-1.20035383,-1.71500166

>  <Name>
ligand

>  <RI>
0

>  <Rbt.Current_Directory>
/home/itssahil/PROJECTS/Mol_Feturizer/Test_systems_manuscript/rnas/2ydh

>  <Rbt.Executable>
rbdock ($Id: //depot/dev/client3/rdock/2013.1/src/exe/rbdock.cxx#4 $)

>  <Rbt.Library>
libRbt.so (2013.1, Build901 2013/11/27)

>  <Rbt.Parameter_File>
/export/apps/rDock/src/rDock_2013.1_src/data/scripts/dock_solv.prm

>  <Rbt.Receptor>
prm/blind_docking_80.prm

>  <SCORE>
-11.159

>  <SCORE.INTER>
-13.3875

>  <SCORE.INTER.CONST>
1

>  <SCORE.INTER.POLAR>
0

>  <SCORE.INTER.ROT>
7

>  <SCORE.INTER.SOLV>
11.5978

>  <SCORE.INTER.VDW>
-21.0576

>  <SCORE.INTER.norm>
-0.495832

>  <SCORE.INTRA>
2.22846

>  <SCORE.INTRA.DIHEDRAL>
2.89175

>  <SCORE.INTRA.DIHEDRAL.0>
9.75037

>  <SCORE.INTRA.POLAR>
0

>  <SCORE.INTRA.POLAR.0>
0

>  <SCORE.INTRA.REPUL>
0

>  <SCORE.INTRA.REPUL.0>
0

>  <SCORE.INTRA.SOLV>
-0.762974

>  <SCORE.INTRA.SOLV.lig_0>
-48.4279

>  <SCORE.INTRA.VDW>
1.16407

>  <SCORE.INTRA.VDW.0>
-4.69037

>  <SCORE.INTRA.norm>
0.0825355

>  <SCORE.RESTR>
0

>  <SCORE.RESTR.CAVITY>
0

>  <SCORE.RESTR.norm>
0

>  <SCORE.SYSTEM>
0

>  <SCORE.SYSTEM.CONST>
0

>  <SCORE.SYSTEM.DIHEDRAL>
0

>  <SCORE.SYSTEM.SOLV>
0

>  <SCORE.SYSTEM.norm>
0

>  <SCORE.heavy>
27

>  <SCORE.norm>
-0.413296

>  <RMSD>
21.185

$$$$
ligand
 OpenBabel02271912153D
libRbt.so/2013.1/901 2013/11/27
 27 29  0  0  0  0  0  0  0  0999 V2000
    9.7635   -0.6310   23.2512 N   0  0  0  0  0  0  0  0  0  0  0  0
    9.8892   -0.0138   21.8948 C   0  0  2  0  0  0  0  0  0  0  0  0
    9.8211   -1.0881   20.7867 C   0  0  0  0  0  0  0  0  0  0  0  0
    9.4990   -0.7935   19.6316 O   0  0  0  0  0  0  0  0  0  0  0  0
   11.1769    0.8003   21.8253 C   0  0  0  0  0  0  0  0  0  0  0  0
   11.2336    1.9733   22.7896 C   0  0  0  0  0  0  0  0  0  0  0  0
    9.8680    3.1499   22.5707 S   0  0  2  0  0  0  0  0  0  0  0  0
   10.4702    4.1048   21.1490 C   0  0  0  0  0  0  0  0  0  0  0  0
   10.0003    4.3430   23.9119 C   0  0  0  0  0  0  0  0  0  0  0  0
    9.3713    3.7549   25.1605 C   0  0  1  0  0  0  0  0  0  0  0  0
   10.0358    4.1602   26.3473 O   0  0  0  0  0  0  0  0  0  0  0  0
    7.9265    4.1692   25.2984 C   0  0  1  0  0  0  0  0  0  0  0  0
    7.0875    3.3203   24.5690 O   0  0  0  0  0  0  0  0  0  0  0  0
    7.7231    4.0262   26.7760 C   0  0  1  0  0  0  0  0  0  0  0  0
    7.3435    2.6942   27.0656 O   0  0  0  0  0  0  0  0  0  0  0  0
    9.0890    4.3336   27.3761 C   0  0  2  0  0  0  0  0  0  0  0  0
   10.0790   -2.2862   21.0045 O   0  0  0  0  0  0  0  0  0  0  0  0
    7.4148    7.8852   30.9034 N   0  0  0  0  0  0  0  0  0  0  0  0
    7.0240    6.5599   30.7789 C   0  0  0  0  0  0  0  0  0  0  0  0
    7.5524    5.7512   29.7797 N   0  0  0  0  0  0  0  0  0  0  0  0
    8.4688    6.2604   28.9364 C   0  0  0  0  0  0  0  0  0  0  0  0
    8.8817    7.5899   29.0614 C   0  0  0  0  0  0  0  0  0  0  0  0
    8.3488    8.4118   30.0373 C   0  0  0  0  0  0  0  0  0  0  0  0
    8.7352    9.6742   30.1449 N   0  0  0  0  0  0  0  0  0  0  0  0
    9.7984    7.8311   28.1177 N   0  0  0  0  0  0  0  0  0  0  0  0
    9.9787    6.6975   27.4046 C   0  0  0  0  0  0  0  0  0  0  0  0
    9.1650    5.7099   27.9015 N   0  0  0  0  0  0  0  0  0  0  0  0
  2  1  1  1  0  0  0
  2  3  1  0  0  0  0
  2  5  1  0  0  0  0
  3  4  1  0  0  0  0
  3 17  1  0  0  0  0
  5  6  1  0  0  0  0
  7  6  1  1  0  0  0
  7  8  1  0  0  0  0
  7  9  1  0  0  0  0
 10  9  1  6  0  0  0
 10 11  1  0  0  0  0
 10 12  1  0  0  0  0
 11 16  1  0  0  0  0
 12 13  1  6  0  0  0
 12 14  1  0  0  0  0
 14 15  1  6  0  0  0
 14 16  1  0  0  0  0
 16 27  1  6  0  0  0
 18 19  2  0  0  0  0
 18 23  1  0  0  0  0
 19 20  1  0  0  0  0
 20 21  2  0  0  0  0
 21 22  1  0  0  0  0
 21 27  1  0  0  0  0
 22 23  2  0  0  0  0
 22 25  1  0  0  0  0
 23 24  1  0  0  0  0
 25 26  2  0  0  0  0
 26 27  1  0  0  0  0
M  END
>  <CHROM.1>
157.68829415,-62.84495657,-57.60484292,-80.30166344,-81.67321551,145.75633057
-176.62425336,9.14800331,3.86486235,25.45257764,1.29942478,-0.94830232,-2.51514100

>  <Name>
ligand

>  <RI>
0

>  <Rbt.Current_Directory>
/home/itssahil/PROJECTS/Mol_Feturizer/Test_systems_manuscript/rnas/2ydh

>  <Rbt.Executable>
rbdock ($Id: //depot/dev/client3/rdock/2013.1/src/exe/rbdock.cxx#4 $)

>  <Rbt.Library>
libRbt.so (2013.1, Build901 2013/11/27)

>  <Rbt.Parameter_File>
/export/apps/rDock/src/rDock_2013.1_src/data/scripts/dock_solv.prm

>  <Rbt.Receptor>
prm/blind_docking_40.prm

>  <SCORE>
-10.1085

>  <SCORE.INTER>
-10.7043

>  <SCORE.INTER.CONST>
1

>  <SCORE.INTER.POLAR>
0

>  <SCORE.INTER.ROT>
7

>  <SCORE.INTER.SOLV>
13.045

>  <SCORE.INTER.VDW>
-19.7512

>  <SCORE.INTER.norm>
-0.396457

>  <SCORE.INTRA>
0.595834

>  <SCORE.INTRA.DIHEDRAL>
-2.3247

>  <SCORE.INTRA.DIHEDRAL.0>
9.75037

>  <SCORE.INTRA.POLAR>
0

>  <SCORE.INTRA.POLAR.0>
0

>  <SCORE.INTRA.REPUL>
0

>  <SCORE.INTRA.REPUL.0>
0

>  <SCORE.INTRA.SOLV>
-0.166674

>  <SCORE.INTRA.SOLV.lig_0>
-48.4279

>  <SCORE.INTRA.VDW>
1.84152

>  <SCORE.INTRA.VDW.0>
-4.69037

>  <SCORE.INTRA.norm>
0.0220679

>  <SCORE.RESTR>
0

>  <SCORE.RESTR.CAVITY>
0

>  <SCORE.RESTR.norm>
0

>  <SCORE.SYSTEM>
0

>  <SCORE.SYSTEM.CONST>
0

>  <SCORE.SYSTEM.DIHEDRAL>
0

>  <SCORE.SYSTEM.SOLV>
0

>  <SCORE.SYSTEM.norm>
0

>  <SCORE.heavy>
27

>  <SCORE.norm>
-0.374389

>  <RMSD>
21.409

$$$$
ligand
 OpenBabel02271912153D
libRbt.so/2013.1/901 2013/11/27
 27 29  0  0  0  0  0  0  0  0999 V2000
    9.7788   -1.3477   24.6472 N   0  0  0  0  0  0  0  0  0  0  0  0
    8.8158   -0.2142   24.4908 C   0  0  2  0  0  0  0  0  0  0  0  0
    8.2653   -0.1475   23.0488 C   0  0  0  0  0  0  0  0  0  0  0  0
    7.7712   -1.1415   22.5081 O   0  0  0  0  0  0  0  0  0  0  0  0
    9.4927    1.0875   24.9065 C   0  0  0  0  0  0  0  0  0  0  0  0
    9.7700    1.2059   26.3959 C   0  0  0  0  0  0  0  0  0  0  0  0
   10.6099    2.7504   26.8497 S   0  0  2  0  0  0  0  0  0  0  0  0
    9.4469    3.9750   26.1839 C   0  0  0  0  0  0  0  0  0  0  0  0
   12.0138    2.9162   25.7355 C   0  0  0  0  0  0  0  0  0  0  0  0
   12.7879    4.1690   26.0987 C   0  0  1  0  0  0  0  0  0  0  0  0
   11.9836    5.3375   26.0551 O   0  0  0  0  0  0  0  0  0  0  0  0
   13.3626    4.0786   27.4913 C   0  0  1  0  0  0  0  0  0  0  0  0
   14.5928    3.4128   27.4862 O   0  0  0  0  0  0  0  0  0  0  0  0
   13.5100    5.5285   27.8394 C   0  0  1  0  0  0  0  0  0  0  0  0
   14.7650    5.9914   27.3779 O   0  0  0  0  0  0  0  0  0  0  0  0
   12.3786    6.2144   27.0846 C   0  0  2  0  0  0  0  0  0  0  0  0
    8.2986    0.8962   22.3713 O   0  0  0  0  0  0  0  0  0  0  0  0
    9.4207    4.8146   31.2259 N   0  0  0  0  0  0  0  0  0  0  0  0
   10.5317    4.1605   30.7137 C   0  0  0  0  0  0  0  0  0  0  0  0
   11.1988    4.6537   29.5987 N   0  0  0  0  0  0  0  0  0  0  0  0
   10.7683    5.7913   29.0236 C   0  0  0  0  0  0  0  0  0  0  0  0
    9.6592    6.4675   29.5398 C   0  0  0  0  0  0  0  0  0  0  0  0
    8.9732    5.9769   30.6355 C   0  0  0  0  0  0  0  0  0  0  0  0
    7.9160    6.6155   31.1143 N   0  0  0  0  0  0  0  0  0  0  0  0
    9.4569    7.5617   28.7976 N   0  0  0  0  0  0  0  0  0  0  0  0
   10.4029    7.5988   27.8333 C   0  0  0  0  0  0  0  0  0  0  0  0
   11.2292    6.5101   27.9607 N   0  0  0  0  0  0  0  0  0  0  0  0
  2  1  1  6  0  0  0
  2  3  1  0  0  0  0
  2  5  1  0  0  0  0
  3  4  1  0  0  0  0
  3 17  1  0  0  0  0
  5  6  1  0  0  0  0
  7  6  1  6  0  0  0
  7  8  1  0  0  0  0
  7  9  1  0  0  0  0
 10  9  1  1  0  0  0
 10 11  1  0  0  0  0
 10 12  1  0  0  0  0
 11 16  1  0  0  0  0
 12 13  1  6  0  0  0
 12 14  1  0  0  0  0
 14 15  1  6  0  0  0
 14 16  1  0  0  0  0
 16 27  1  1  0  0  0
 18 19  2  0  0  0  0
 18 23  1  0  0  0  0
 19 20  1  0  0  0  0
 20 21  2  0  0  0  0
 21 22  1  0  0  0  0
 21 27  1  0  0  0  0
 22 23  2  0  0  0  0
 22 25  1  0  0  0  0
 23 24  1  0  0  0  0
 25 26  2  0  0  0  0
 26 27  1  0  0  0  0
M  END
>  <CHROM.1>
51.94267631,-69.61729007,178.69061683,56.55667892,-178.00096608,-57.26840231
84.98844934,10.66149160,3.77183474,27.04782066,-1.82839102,0.27610154,0.79869757

>  <Name>
ligand

>  <RI>
0

>  <Rbt.Current_Directory>
/home/itssahil/PROJECTS/Mol_Feturizer/Test_systems_manuscript/rnas/2ydh

>  <Rbt.Executable>
rbdock ($Id: //depot/dev/client3/rdock/2013.1/src/exe/rbdock.cxx#4 $)

>  <Rbt.Library>
libRbt.so (2013.1, Build901 2013/11/27)

>  <Rbt.Parameter_File>
/export/apps/rDock/src/rDock_2013.1_src/data/scripts/dock_solv.prm

>  <Rbt.Receptor>
prm/blind_docking_60.prm

>  <SCORE>
-7.82349

>  <SCORE.INTER>
-6.78075

>  <SCORE.INTER.CONST>
1

>  <SCORE.INTER.POLAR>
0

>  <SCORE.INTER.ROT>
7

>  <SCORE.INTER.SOLV>
13.6329

>  <SCORE.INTER.VDW>
-17.3315

>  <SCORE.INTER.norm>
-0.251139

>  <SCORE.INTRA>
-1.04273

>  <SCORE.INTRA.DIHEDRAL>
-6.03584

>  <SCORE.INTRA.DIHEDRAL.0>
9.75037

>  <SCORE.INTRA.POLAR>
0

>  <SCORE.INTRA.POLAR.0>
0

>  <SCORE.INTRA.REPUL>
0

>  <SCORE.INTRA.REPUL.0>
0

>  <SCORE.INTRA.SOLV>
-0.593684

>  <SCORE.INTRA.SOLV.lig_0>
-48.4279

>  <SCORE.INTRA.VDW>
2.27203

>  <SCORE.INTRA.VDW.0>
-4.69037

>  <SCORE.INTRA.norm>
-0.0386197

>  <SCORE.RESTR>
0

>  <SCORE.RESTR.CAVITY>
0

>  <SCORE.RESTR.norm>
0

>  <SCORE.SYSTEM>
0

>  <SCORE.SYSTEM.CONST>
0

>  <SCORE.SYSTEM.DIHEDRAL>
0

>  <SCORE.SYSTEM.SOLV>
0

>  <SCORE.SYSTEM.norm>
0

>  <SCORE.heavy>
27

>  <SCORE.norm>
-0.289759

>  <RMSD>
22.018

$$$$
