@<TRIPOS>MOLECULE
2ydh_rdock.pdb
 2023 2267 0 0 0
SMALL
GASTEIGER

@<TRIPOS>ATOM
      1  P         -3.7110   -7.6910    6.4830 P.3     1  G1          0.1280
      2  C5'       -4.7650  -10.1790    6.5420 C.3     1  G1          0.1795
      3  O5'       -4.8470   -8.7830    6.1790 O.3     1  G1         -0.3259
      4  C4'       -5.7730  -11.0420    5.7650 C.3     1  G1          0.1772
      5  O4'       -6.6370  -10.2240    4.9140 O.3     1  G1         -0.3307
      6  C3'       -5.1760  -12.0450    4.7780 C.3     1  G1          0.1860
      7  O3'       -4.9810  -13.3230    5.3560 O.3     1  G1         -0.3112
      8  C2'       -6.1240  -12.0960    3.5680 C.3     1  G1          0.2309
      9  O2'       -7.1640  -13.0570    3.6810 O.3     1  G1         -0.2156
     10  C1'       -6.6070  -10.6450    3.5500 C.3     1  G1          0.2408
     11  N1        -4.3830   -9.3390   -0.8440 N.ar    1  G1         -0.1709
     12  C2        -5.2000  -10.4170   -0.5780 C.ar    1  G1          0.2606
     13  N2        -5.4540  -11.2410   -1.5980 N.pl3   1  G1         -0.0859
     14  N3        -5.7360  -10.6650    0.6140 N.ar    1  G1         -0.1918
     15  C4        -5.3690   -9.7330    1.5230 C.ar    1  G1          0.1723
     16  C5        -4.5580   -8.6280    1.3530 C.ar    1  G1          0.1748
     17  C6        -4.0030   -8.3680    0.0970 C.ar    1  G1          0.3023
     18  O6        -3.2680   -7.3990   -0.1680 O.2     1  G1         -0.2633
     19  N7        -4.4050   -7.8870    2.5090 N.ar    1  G1         -0.2173
     20  C8        -5.1230   -8.5710    3.3540 C.ar    1  G1          0.1817
     21  N9        -5.7420   -9.6990    2.8380 N.ar    1  G1         -0.2693
     22  OP1       -4.4380   -6.4890    6.9810 O.3     1  G1         -0.1955
     23  OP2       -2.8030   -7.5030    5.3120 O.co2   1  G1         -0.7863
     24  P         -3.6560  -14.0970    4.8610 P.3     2  G2          0.2141
     25  C5'       -4.3520  -15.9580    3.1280 C.3     2  G2          0.1812
     26  O5'       -4.0540  -14.5900    3.3870 O.3     2  G2         -0.3114
     27  C4'       -4.1620  -16.1600    1.6470 C.3     2  G2          0.1773
     28  O4'       -4.5350  -14.9360    0.9600 O.3     2  G2         -0.3307
     29  C3'       -2.7200  -16.3990    1.2370 C.3     2  G2          0.1860
     30  O3'       -2.3090  -17.7590    1.4930 O.3     2  G2         -0.3112
     31  C2'       -2.8170  -16.0120   -0.2370 C.3     2  G2          0.2309
     32  O2'       -3.4410  -17.0030   -1.0310 O.3     2  G2         -0.2156
     33  C1'       -3.7000  -14.7700   -0.1640 C.3     2  G2          0.2408
     34  N1        -0.8180  -11.2470   -2.4670 N.ar    2  G2         -0.1709
     35  C2        -1.3140  -12.4230   -2.9930 C.ar    2  G2          0.2606
     36  N2        -1.0000  -12.6840   -4.2780 N.pl3   2  G2         -0.0859
     37  N3        -2.0660  -13.2750   -2.2860 N.ar    2  G2         -0.1918
     38  C4        -2.2710  -12.8480   -1.0030 C.ar    2  G2          0.1723
     39  C5        -1.8120  -11.6880   -0.4050 C.ar    2  G2          0.1748
     40  C6        -1.0260  -10.7870   -1.1620 C.ar    2  G2          0.3023
     41  O6        -0.5470   -9.7050   -0.7910 O.2     2  G2         -0.2633
     42  N7        -2.2330  -11.6010    0.9120 N.ar    2  G2         -0.2173
     43  C8        -2.9290  -12.6930    1.0940 C.ar    2  G2          0.1817
     44  N9        -2.9970  -13.4980   -0.0210 N.ar    2  G2         -0.2693
     45  OP1       -3.4630  -15.3310    5.6810 O.3     2  G2         -0.4373
     46  OP2       -2.5930  -13.0430    4.7490 O.co2   2  G2         -0.5172
     47  P         -0.7740  -18.1330    1.2220 P.3     3  C3          0.2141
     48  C5'       -0.6510  -18.7260   -1.3750 C.3     3  C3          0.1812
     49  O5'       -0.6260  -17.7760   -0.3230 O.3     3  C3         -0.3114
     50  C4'        0.0710  -18.1200   -2.5700 C.3     3  C3          0.1773
     51  O4'       -0.3370  -16.7480   -2.8210 O.3     3  C3         -0.3307
     52  C3'        1.5650  -17.9360   -2.3790 C.3     3  C3          0.1860
     53  O3'        2.2600  -19.1460   -2.4690 O.3     3  C3         -0.3112
     54  C2'        1.8670  -17.0280   -3.5430 C.3     3  C3          0.2309
     55  O2'        1.7470  -17.6890   -4.7810 O.3     3  C3         -0.2156
     56  C1'        0.7500  -16.0270   -3.3790 C.3     3  C3          0.2420
     57  N1         1.1570  -14.8850   -2.5340 N.ar    3  C3         -0.2535
     58  C2         1.9680  -13.8920   -3.1030 C.ar    3  C3          0.3532
     59  O2         2.3350  -13.9930   -4.2780 O.2     3  C3         -0.2443
     60  N3         2.3520  -12.8280   -2.3500 N.ar    3  C3         -0.1739
     61  C4         1.9710  -12.7420   -1.0800 C.ar    3  C3          0.1759
     62  N4         2.3890  -11.6760   -0.4120 N.pl3   3  C3         -0.1070
     63  C5         1.1510  -13.7300   -0.4720 C.ar    3  C3          0.0566
     64  C6         0.7660  -14.7720   -1.2260 C.ar    3  C3          0.0850
     65  OP1       -0.5590  -19.5850    1.3600 O.2     3  C3         -0.5172
     66  OP2        0.0620  -17.1430    1.9470 O.co2   3  C3         -0.4373
     67  P          3.7010  -19.2510   -1.8050 P.3     4  U4          0.2141
     68  C5'        5.0050  -18.7370   -3.9190 C.3     4  U4          0.1812
     69  O5'        4.6170  -18.2640   -2.6600 O.3     4  U4         -0.3114
     70  C4'        5.8230  -17.7210   -4.6680 C.3     4  U4          0.1773
     71  O4'        5.2190  -16.4270   -4.6390 O.3     4  U4         -0.3307
     72  C3'        7.1560  -17.5060   -4.0010 C.3     4  U4          0.1860
     73  O3'        8.0290  -18.5930   -4.3520 O.3     4  U4         -0.3112
     74  C2'        7.5660  -16.1150   -4.4910 C.3     4  U4          0.2309
     75  O2'        8.0370  -16.0440   -5.8210 O.3     4  U4         -0.2156
     76  C1'        6.2170  -15.4380   -4.3910 C.3     4  U4          0.2420
     77  N1         5.9450  -14.6920   -3.0960 N.ar    4  U4         -0.2534
     78  C2         6.4860  -13.4310   -2.9670 C.ar    4  U4          0.3546
     79  O2         7.1970  -12.9300   -3.8170 O.2     4  U4         -0.2443
     80  N3         6.1840  -12.7710   -1.8080 N.ar    4  U4         -0.1530
     81  C4         5.3940  -13.2170   -0.7750 C.ar    4  U4          0.2846
     82  O4         5.2230  -12.4980    0.2230 O.2     4  U4         -0.2650
     83  C5         4.8500  -14.5380   -0.9710 C.ar    4  U4          0.0814
     84  C6         5.1400  -15.2040   -2.0960 C.ar    4  U4          0.0870
     85  OP1        4.1880  -20.6180   -2.1040 O.2     4  U4         -0.5172
     86  OP2        3.5920  -18.7370   -0.4250 O.co2   4  U4         -0.4373
     87  P          9.0360  -19.0950   -3.2190 P.3     5  U5          0.2141
     88  C5'       10.8420  -17.4090   -3.9480 C.3     5  U5          0.1812
     89  O5'        9.8880  -17.7650   -2.9900 O.3     5  U5         -0.3114
     90  C4'       11.4500  -16.1010   -3.5000 C.3     5  U5          0.1773
     91  O4'       10.3860  -15.1820   -3.1590 O.3     5  U5         -0.3307
     92  C3'       12.2550  -16.1280   -2.2110 C.3     5  U5          0.1860
     93  O3'       13.5510  -16.6470   -2.3930 O.3     5  U5         -0.3112
     94  C2'       12.2900  -14.6470   -1.8390 C.3     5  U5          0.2309
     95  O2'       13.2840  -13.9230   -2.5590 O.3     5  U5         -0.2156
     96  C1'       10.8590  -14.2440   -2.2120 C.3     5  U5          0.2420
     97  N1         9.8460  -14.2180   -1.0980 N.ar    5  U5         -0.2534
     98  C2         9.7180  -13.0430   -0.3930 C.ar    5  U5          0.3546
     99  O2        10.3950  -12.0410   -0.6000 O.2     5  U5         -0.2443
    100  N3         8.7710  -13.0740    0.5840 N.ar    5  U5         -0.1530
    101  C4         7.9370  -14.0930    0.9470 C.ar    5  U5          0.2846
    102  O4         7.1380  -13.8860    1.8800 O.2     5  U5         -0.2650
    103  C5         8.1130  -15.2860    0.1710 C.ar    5  U5          0.0814
    104  C6         9.0410  -15.3050   -0.7980 C.ar    5  U5          0.0870
    105  OP1        9.9160  -20.1070   -3.8650 O.2     5  U5         -0.5172
    106  OP2        8.2950  -19.3650   -1.9520 O.co2   5  U5         -0.4373
    107  P         14.3260  -17.1510   -1.0900 P.3     6  A6          0.2141
    108  C5'       15.9680  -15.2080   -0.6380 C.3     6  A6          0.1812
    109  O5'       14.6910  -15.7740   -0.3640 O.3     6  A6         -0.3114
    110  C4'       16.1900  -13.9140    0.1270 C.3     6  A6          0.1773
    111  O4'       14.9810  -13.1260    0.1610 O.3     6  A6         -0.3307
    112  C3'       16.5120  -14.0250    1.5950 C.3     6  A6          0.1860
    113  O3'       17.8730  -14.3130    1.7770 O.3     6  A6         -0.3112
    114  C2'       16.1710  -12.6320    2.1090 C.3     6  A6          0.2309
    115  O2'       17.1520  -11.6320    1.8130 O.3     6  A6         -0.2156
    116  C1'       14.8680  -12.3980    1.3570 C.3     6  A6          0.2408
    117  N1        10.9220  -11.0670    4.3330 N.ar    6  A6         -0.2040
    118  C2        12.0340  -10.4150    3.9470 C.ar    6  A6          0.2016
    119  N3        13.0310  -10.8300    3.1520 N.ar    6  A6         -0.2048
    120  C4        12.7910  -12.0870    2.7590 C.ar    6  A6          0.1692
    121  C5        11.6920  -12.8800    3.0700 C.ar    6  A6          0.1518
    122  C6        10.7110  -12.3290    3.8950 C.ar    6  A6          0.1919
    123  N6         9.5960  -12.9730    4.2690 N.pl3   6  A6         -0.1054
    124  N7        11.7940  -14.1060    2.4690 N.ar    6  A6         -0.2193
    125  C8        12.9440  -14.0400    1.8150 C.ar    6  A6          0.1816
    126  N9        13.6120  -12.8440    1.9630 N.ar    6  A6         -0.2693
    127  OP1       15.5930  -17.8030   -1.5290 O.2     6  A6         -0.5172
    128  OP2       13.3850  -17.9710   -0.2930 O.co2   6  A6         -0.4373
    129  P         18.2530  -15.2910    2.9750 P.3     7  U7          0.2141
    130  C5'       18.5450  -13.2540    4.4510 C.3     7  U7          0.1812
    131  O5'       17.8300  -14.4470    4.2620 O.3     7  U7         -0.3114
    132  C4'       18.0840  -12.4430    5.6460 C.3     7  U7          0.1773
    133  O4'       16.8240  -11.7600    5.3900 O.3     7  U7         -0.3307
    134  C3'       17.8450  -13.2040    6.9400 C.3     7  U7          0.1860
    135  O3'       19.0850  -13.5080    7.5680 O.3     7  U7         -0.3112
    136  C2'       17.0500  -12.1360    7.6740 C.3     7  U7          0.2309
    137  O2'       17.8610  -11.0590    8.0970 O.3     7  U7         -0.2156
    138  C1'       16.0930  -11.6620    6.5940 C.3     7  U7          0.2420
    139  N1        14.8610  -12.4950    6.5160 N.ar    7  U7         -0.2534
    140  C2        13.7580  -12.1920    7.3100 C.ar    7  U7          0.3546
    141  O2        13.6890  -11.2550    8.0960 O.2     7  U7         -0.2443
    142  N3        12.7060  -13.0510    7.1520 N.ar    7  U7         -0.1530
    143  C4        12.6370  -14.1400    6.3290 C.ar    7  U7          0.2846
    144  O4        11.6230  -14.7900    6.3130 O.2     7  U7         -0.2650
    145  C5        13.7890  -14.4070    5.5440 C.ar    7  U7          0.0814
    146  C6        14.8330  -13.5870    5.6660 C.ar    7  U7          0.0870
    147  OP1       19.7280  -15.3640    2.9240 O.3     7  U7         -0.4373
    148  OP2       17.4360  -16.5290    2.8890 O.co2   7  U7         -0.5172
    149  P         19.2290  -14.7200    8.6010 P.3     8  C8          0.2141
    150  C5'       18.9150  -13.0900   10.5810 C.3     8  C8          0.1812
    151  O5'       18.4810  -14.1760    9.8800 O.3     8  C8         -0.3114
    152  C4'       17.8590  -12.8660   11.6470 C.3     8  C8          0.1773
    153  O4'       16.6400  -12.4750   10.9700 O.3     8  C8         -0.3307
    154  C3'       17.3850  -14.0450   12.5080 C.3     8  C8          0.1860
    155  O3'       18.2440  -14.3470   13.5860 O.3     8  C8         -0.3112
    156  C2'       16.1010  -13.4150   13.0210 C.3     8  C8          0.2309
    157  O2'       16.3180  -12.3140   13.8880 O.3     8  C8         -0.2156
    158  C1'       15.5170  -12.9300   11.7010 C.3     8  C8          0.2420
    159  N1        14.7160  -13.9670   10.9430 N.ar    8  C8         -0.2535
    160  C2        13.3630  -14.0590   11.2630 C.ar    8  C8          0.3532
    161  O2        12.9590  -13.2740   12.1340 O.2     8  C8         -0.2443
    162  N3        12.5550  -14.9620   10.6270 N.ar    8  C8         -0.1739
    163  C4        13.0930  -15.7690    9.6990 C.ar    8  C8          0.1759
    164  N4        12.2950  -16.6520    9.0940 N.pl3   8  C8         -0.1070
    165  C5        14.4880  -15.6970    9.3520 C.ar    8  C8          0.0566
    166  C6        15.2510  -14.7940    9.9940 C.ar    8  C8          0.0850
    167  OP1       20.6690  -14.8790    8.8430 O.3     8  C8         -0.4373
    168  OP2       18.4710  -15.9260    8.1920 O.co2   8  C8         -0.5172
    169  P         18.7800  -15.7420   14.0480 P.3     9  A9          0.2141
    170  C5'       19.2210  -15.0140   16.4430 C.3     9  A9          0.1812
    171  O5'       19.7190  -15.1710   15.1620 O.3     9  A9         -0.3114
    172  C4'       20.3640  -14.4710   17.2960 C.3     9  A9          0.1773
    173  O4'       21.3890  -15.4860   17.5050 O.3     9  A9         -0.3307
    174  C3'       21.0320  -13.2400   16.6600 C.3     9  A9          0.1860
    175  O3'       20.9800  -12.0580   17.5120 O.3     9  A9         -0.3112
    176  C2'       22.4570  -13.6770   16.3160 C.3     9  A9          0.2309
    177  O2'       23.3960  -12.6890   16.7060 O.3     9  A9         -0.2156
    178  C1'       22.6460  -15.0330   17.0190 C.3     9  A9          0.2408
    179  N1        24.6030  -19.6680   15.7160 N.ar    9  A9         -0.2040
    180  C2        24.4580  -19.1000   16.9120 C.ar    9  A9          0.2016
    181  N3        23.9490  -17.9070   17.2170 N.ar    9  A9         -0.2048
    182  C4        23.5510  -17.2500   16.1170 C.ar    9  A9          0.1692
    183  C5        23.6420  -17.7170   14.8260 C.ar    9  A9          0.1518
    184  C6        24.1920  -18.9840   14.6360 C.ar    9  A9          0.1919
    185  N6        24.3120  -19.5160   13.4260 N.pl3   9  A9         -0.1054
    186  N7        23.1470  -16.8010   13.9260 N.ar    9  A9         -0.2193
    187  C8        22.7760  -15.8030   14.6830 C.ar    9  A9          0.1816
    188  N9        22.9870  -15.9980   16.0090 N.ar    9  A9         -0.2693
    189  OP1       19.5800  -16.3740   13.0090 O.2     9  A9         -0.5172
    190  OP2       17.7450  -16.4990   14.7230 O.co2   9  A9         -0.4373
    191  P         21.5820  -11.8740   18.9510 P.3    10  A10         0.2141
    192  C5'       23.8570  -10.5940   19.0550 C.3    10  A10         0.1812
    193  O5'       22.4630  -10.5420   18.8000 O.3    10  A10        -0.3114
    194  C4'       24.6330   -9.5810   18.2540 C.3    10  A10         0.1773
    195  O4'       24.4550   -9.8220   16.8420 O.3    10  A10        -0.3307
    196  C3'       24.1900   -8.1500   18.4670 C.3    10  A10         0.1860
    197  O3'       24.8660   -7.5500   19.5550 O.3    10  A10        -0.3112
    198  C2'       24.6170   -7.4810   17.1890 C.3    10  A10         0.2309
    199  O2'       25.9660   -7.1030   17.3190 O.3    10  A10        -0.2156
    200  C1'       24.3450   -8.5790   16.1640 C.3    10  A10         0.2408
    201  N1        20.9120   -5.8020   13.4120 N.ar   10  A10        -0.2040
    202  C2        22.1810   -5.5560   13.7600 C.ar   10  A10         0.2016
    203  N3        23.0280   -6.3070   14.4720 N.ar   10  A10        -0.2048
    204  C4        22.4550   -7.4590   14.8640 C.ar   10  A10         0.1692
    205  C5        21.1570   -7.8510   14.5860 C.ar   10  A10         0.1518
    206  C6        20.3620   -6.9660   13.8180 C.ar   10  A10         0.1919
    207  N6        19.1010   -7.2360   13.4890 N.pl3  10  A10        -0.1054
    208  N7        20.8980   -9.0970   15.1340 N.ar   10  A10        -0.2193
    209  C8        22.0200   -9.4240   15.7190 C.ar   10  A10         0.1816
    210  N9        23.0030   -8.4870   15.6020 N.ar   10  A10        -0.2693
    211  OP1       22.4640  -13.0380   19.1830 O.2    10  A10        -0.5172
    212  OP2       20.4910  -11.5800   19.8850 O.co2  10  A10        -0.4373
    213  P         23.9790   -6.7830   20.6500 P.3    11  G11         0.2141
    214  C5'       24.8090   -4.6690   19.2700 C.3    11  G11         0.1812
    215  O5'       23.8240   -5.2920   20.0940 O.3    11  G11        -0.3114
    216  C4'       24.1440   -3.5800   18.4670 C.3    11  G11         0.1773
    217  O4'       23.5280   -4.0990   17.2710 O.3    11  G11        -0.3307
    218  C3'       22.9930   -2.9620   19.2230 C.3    11  G11         0.1860
    219  O3'       23.5170   -1.9920   20.0850 O.3    11  G11        -0.3112
    220  C2'       22.1350   -2.3820   18.1240 C.3    11  G11         0.2309
    221  O2'       22.6240   -1.1210   17.7270 O.3    11  G11        -0.2156
    222  C1'       22.2880   -3.4510   17.0440 C.3    11  G11         0.2408
    223  N1        17.7040   -4.9470   15.2440 N.ar   11  G11        -0.1709
    224  C2        18.4060   -3.8110   14.9550 C.ar   11  G11         0.2606
    225  N2        17.8020   -2.9860   14.0940 N.pl3  11  G11        -0.0859
    226  N3        19.5880   -3.5030   15.4810 N.ar   11  G11        -0.1918
    227  C4        20.0370   -4.4620   16.3340 C.ar   11  G11         0.1723
    228  C5        19.3970   -5.6410   16.6730 C.ar   11  G11         0.1748
    229  C6        18.1340   -5.9410   16.1040 C.ar   11  G11         0.3023
    230  O6        17.4120   -6.9270   16.2760 O.2    11  G11        -0.2633
    231  N7        20.1680   -6.3700   17.5640 N.ar   11  G11        -0.2173
    232  C8        21.2310   -5.6350   17.7480 C.ar   11  G11         0.1817
    233  N9        21.2300   -4.4600   17.0430 N.ar   11  G11        -0.2693
    234  OP1       24.8050   -6.6670   21.8770 O.3    11  G11        -0.4373
    235  OP2       22.6470   -7.4370   20.7170 O.co2  11  G11        -0.5172
    236  P         23.0260   -1.9310   21.5930 P.3    12  A12         0.2141
    237  C5'       22.2370    0.4890   21.2170 C.3    12  A12         0.1812
    238  O5'       21.8810   -0.8390   21.5320 O.3    12  A12        -0.3114
    239  C4'       21.0130    1.2030   20.6970 C.3    12  A12         0.1773
    240  O4'       20.4580    0.4700   19.5800 O.3    12  A12        -0.3307
    241  C3'       19.8880    1.2780   21.7140 C.3    12  A12         0.1860
    242  O3'       20.0730    2.4130   22.5550 O.3    12  A12        -0.3112
    243  C2'       18.6360    1.3670   20.8440 C.3    12  A12         0.2309
    244  O2'       18.3240    2.7000   20.4820 O.3    12  A12        -0.2156
    245  C1'       19.0410    0.5300   19.6300 C.3    12  A12         0.2408
    246  N1        16.4810   -3.1400   17.0900 N.ar   12  A12        -0.2040
    247  C2        16.7180   -1.8520   16.8010 C.ar   12  A12         0.2016
    248  N3        17.3910   -0.9430   17.5100 N.ar   12  A12        -0.2048
    249  C4        17.8640   -1.4840   18.6540 C.ar   12  A12         0.1692
    250  C5        17.7030   -2.7930   19.0870 C.ar   12  A12         0.1518
    251  C6        16.9690   -3.6530   18.2400 C.ar   12  A12         0.1919
    252  N6        16.7290   -4.9330   18.5260 N.pl3  12  A12        -0.1054
    253  N7        18.3240   -2.9840   20.3110 N.ar   12  A12        -0.2193
    254  C8        18.8410   -1.8100   20.5850 C.ar   12  A12         0.1816
    255  N9        18.5930   -0.8570   19.6380 N.ar   12  A12        -0.2693
    256  OP1       24.1280   -1.3100   22.3530 O.3    12  A12        -0.4373
    257  OP2       22.4520   -3.2390   21.9910 O.co2  12  A12        -0.5172
    258  P         20.1910    2.2430   24.1420 P.3    13  G13         0.2141
    259  C5'       20.2170    4.8650   24.4640 C.3    13  G13         0.1812
    260  O5'       19.5740    3.6210   24.6660 O.3    13  G13        -0.3114
    261  C4'       19.7350    5.8830   25.4830 C.3    13  G13         0.1773
    262  O4'       18.4550    6.4330   25.0880 O.3    13  G13        -0.3307
    263  C3'       19.4530    5.3730   26.8900 C.3    13  G13         0.1860
    264  O3'       19.4960    6.4640   27.7870 O.3    13  G13        -0.3112
    265  C2'       18.0280    4.8380   26.7950 C.3    13  G13         0.2309
    266  O2'       17.3640    4.7210   28.0410 O.3    13  G13        -0.2156
    267  C1'       17.4230    5.9410   25.9320 C.3    13  G13         0.2408
    268  N1        13.6650    7.6400   23.0470 N.ar   13  G13        -0.1709
    269  C2        14.5670    8.3420   23.8200 C.ar   13  G13         0.2606
    270  N2        14.4520    9.6790   23.8230 N.pl3  13  G13        -0.0859
    271  N3        15.5200    7.7600   24.5410 N.ar   13  G13        -0.1918
    272  C4        15.4940    6.4090   24.4220 C.ar   13  G13         0.1723
    273  C5        14.6460    5.6230   23.6820 C.ar   13  G13         0.1748
    274  C6        13.6380    6.2480   22.9240 C.ar   13  G13         0.3023
    275  O6        12.8030    5.6960   22.2050 O.2    13  G13        -0.2633
    276  N7        14.9470    4.2790   23.8250 N.ar   13  G13        -0.2173
    277  C8        15.9620    4.2760   24.6420 C.ar   13  G13         0.1817
    278  N9        16.3410    5.5380   25.0470 N.ar   13  G13        -0.2693
    279  OP1       21.6350    2.1550   24.4500 O.2    13  G13        -0.5172
    280  OP2       19.2610    1.1830   24.6020 O.co2  13  G13        -0.4373
    281  P         20.8500    6.9250   28.5010 P.3    14  A14         0.2141
    282  C5'       18.9250    7.8560   30.0760 C.3    14  A14         0.1812
    283  O5'       20.3060    7.5210   29.8860 O.3    14  A14        -0.3114
    284  C4'       18.4760    7.5860   31.5050 C.3    14  A14         0.1773
    285  O4'       19.6390    7.3520   32.3460 O.3    14  A14        -0.3307
    286  C3'       17.6740    8.7120   32.1590 C.3    14  A14         0.1860
    287  O3'       16.2560    8.4730   32.0570 O.3    14  A14        -0.3112
    288  C2'       18.1760    8.7410   33.6120 C.3    14  A14         0.2309
    289  O2'       17.3440    8.0340   34.5220 O.3    14  A14        -0.2156
    290  C1'       19.5740    8.1100   33.5390 C.3    14  A14         0.2408
    291  N1        21.9200   12.0640   31.1210 N.ar   14  A14        -0.2040
    292  C2        20.8360   11.3450   30.7930 C.ar   14  A14         0.2016
    293  N3        20.2830   10.3330   31.4640 N.ar   14  A14        -0.2048
    294  C4        20.9520   10.0580   32.6070 C.ar   14  A14         0.1692
    295  C5        22.0810   10.7130   33.0760 C.ar   14  A14         0.1518
    296  C6        22.5740   11.7690   32.2730 C.ar   14  A14         0.1919
    297  N6        23.6510   12.4860   32.6010 N.pl3  14  A14        -0.1054
    298  N7        22.5070   10.1700   34.2830 N.ar   14  A14        -0.2193
    299  C8        21.6400    9.2110   34.5180 C.ar   14  A14         0.1816
    300  N9        20.6740    9.0840   33.5510 N.ar   14  A14        -0.2693
    301  OP1       21.4180    8.0320   27.6880 O.2    14  A14        -0.5172
    302  OP2       21.6540    5.7090   28.7980 O.co2  14  A14        -0.4373
    303  P         15.3700    9.0970   30.8730 P.3    15  G15         0.2141
    304  C5'       16.0070   11.6570   30.4600 C.3    15  G15         0.1812
    305  O5'       15.2710   10.6690   31.1930 O.3    15  G15        -0.3114
    306  C4'       15.1420   12.4900   29.5150 C.3    15  G15         0.1773
    307  O4'       15.2690   12.0290   28.1370 O.3    15  G15        -0.3307
    308  C3'       13.6300   12.4700   29.7140 C.3    15  G15         0.1860
    309  O3'       13.1920   13.2240   30.8360 O.3    15  G15        -0.3112
    310  C2'       13.1800   13.0820   28.3880 C.3    15  G15         0.2309
    311  O2'       13.4180   14.4710   28.2890 O.3    15  G15        -0.2156
    312  C1'       14.0640   12.3020   27.4200 C.3    15  G15         0.2408
    313  N1        10.4060   10.2500   24.4990 N.ar   15  G15        -0.1709
    314  C2        10.7540   11.5740   24.6580 C.ar   15  G15         0.2606
    315  N2        10.0340   12.4560   23.9550 N.pl3  15  G15        -0.0859
    316  N3        11.7350   11.9970   25.4550 N.ar   15  G15        -0.1918
    317  C4        12.3540   10.9670   26.0870 C.ar   15  G15         0.1723
    318  C5        12.0760    9.6170   25.9910 C.ar   15  G15         0.1748
    319  C6        11.0330    9.1840   25.1430 C.ar   15  G15         0.3023
    320  O6        10.6550    8.0250   24.9420 O.2    15  G15        -0.2633
    321  N7        12.9250    8.8720   26.7910 N.ar   15  G15        -0.2173
    322  C8        13.6870    9.7720   27.3480 C.ar   15  G15         0.1817
    323  N9        13.4070   11.0680   26.9690 N.ar   15  G15        -0.2693
    324  OP1       14.0130    8.5250   31.0200 O.3    15  G15        -0.4373
    325  OP2       16.1290    8.8930   29.6190 O.co2  15  G15        -0.5172
    326  P         11.6420   13.1930   31.2660 P.3    16  G16         0.2141
    327  C5'        9.6310   14.7630   30.7650 C.3    16  G16         0.1812
    328  O5'       11.0350   14.5580   30.6990 O.3    16  G16        -0.3114
    329  C4'        9.0460   15.0190   29.3880 C.3    16  G16         0.1773
    330  O4'        9.7010   14.2490   28.3460 O.3    16  G16        -0.3307
    331  C3'        7.6000   14.5930   29.2350 C.3    16  G16         0.1860
    332  O3'        6.7340   15.5060   29.8650 O.3    16  G16        -0.3112
    333  C2'        7.4500   14.6290   27.7280 C.3    16  G16         0.2309
    334  O2'        7.3220   15.9460   27.2340 O.3    16  G16        -0.2156
    335  C1'        8.7710   13.9930   27.2970 C.3    16  G16         0.2408
    336  N1         6.3070   10.2810   24.7930 N.ar   16  G16        -0.1709
    337  C2         6.0650   11.6350   24.7900 C.ar   16  G16         0.2606
    338  N2         5.0520   12.0560   24.0260 N.pl3  16  G16        -0.0859
    339  N3         6.7780   12.5120   25.4850 N.ar   16  G16        -0.1918
    340  C4         7.7710   11.9210   26.2020 C.ar   16  G16         0.1723
    341  C5         8.0850   10.5800   26.2710 C.ar   16  G16         0.1748
    342  C6         7.3220    9.6570   25.5220 C.ar   16  G16         0.3023
    343  O6         7.4700    8.4320   25.4640 O.2    16  G16        -0.2633
    344  N7         9.1630   10.3600   27.1100 N.ar   16  G16        -0.2173
    345  C8         9.4750   11.5520   27.5340 C.ar   16  G16         0.1817
    346  N9         8.6770   12.5540   27.0290 N.ar   16  G16        -0.2693
    347  OP1       11.5840   13.2320   32.7470 O.3    16  G16        -0.4373
    348  OP2       10.9630   12.0990   30.5380 O.co2  16  G16        -0.5172
    349  P          5.6420   14.9720   30.8970 P.3    17  U17         0.2141
    350  C5'        3.4250   15.2220   29.5890 C.3    17  U17         0.1812
    351  O5'        4.5010   14.3760   29.9560 O.3    17  U17        -0.3114
    352  C4'        2.6530   14.6070   28.4460 C.3    17  U17         0.1773
    353  O4'        3.5620   13.9670   27.5060 O.3    17  U17        -0.3307
    354  C3'        1.6960   13.5040   28.8650 C.3    17  U17         0.1860
    355  O3'        0.4900   14.0320   29.4380 O.3    17  U17        -0.3112
    356  C2'        1.5120   12.8290   27.5080 C.3    17  U17         0.2309
    357  O2'        0.6870   13.5450   26.6080 O.3    17  U17        -0.2156
    358  C1'        2.9600   12.7830   27.0040 C.3    17  U17         0.2420
    359  N1         3.7600   11.5500   27.4230 N.ar   17  U17        -0.2534
    360  C2         3.2910   10.2740   27.1180 C.ar   17  U17         0.3546
    361  O2         2.2500   10.0440   26.5250 O.2    17  U17        -0.2443
    362  N3         4.0860    9.2320   27.5380 N.ar   17  U17        -0.1530
    363  C4         5.2870    9.3150   28.2190 C.ar   17  U17         0.2846
    364  O4         5.8880    8.2870   28.5290 O.2    17  U17        -0.2650
    365  C5         5.7180   10.6610   28.5030 C.ar   17  U17         0.0814
    366  C6         4.9610   11.6950   28.1030 C.ar   17  U17         0.0870
    367  OP1        5.0690   16.1460   31.5970 O.2    17  U17        -0.5172
    368  OP2        6.2540   13.8550   31.6570 O.co2  17  U17        -0.4373
    369  P          0.0230   13.6400   30.9240 P.3    18  U18         0.2141
    370  C5'       -1.4480   11.8410   29.6680 C.3    18  U18         0.1812
    371  O5'       -0.5620   12.1590   30.7440 O.3    18  U18        -0.3114
    372  C4'       -1.2410   10.4120   29.1820 C.3    18  U18         0.1773
    373  O4'        0.1300   10.1860   28.7890 O.3    18  U18        -0.3307
    374  C3'       -1.4520    9.3280   30.2170 C.3    18  U18         0.1860
    375  O3'       -2.8200    9.0820   30.3370 O.3    18  U18        -0.3112
    376  C2'       -0.7030    8.1340   29.6590 C.3    18  U18         0.2309
    377  O2'       -1.4430    7.4070   28.6920 O.3    18  U18        -0.2156
    378  C1'        0.5110    8.8500   29.0740 C.3    18  U18         0.2420
    379  N1         1.6850    8.8630   29.9970 N.ar   18  U18        -0.2534
    380  C2         2.3890    7.6860   30.1510 C.ar   18  U18         0.3546
    381  O2         2.0990    6.6500   29.5840 O.2    18  U18        -0.2443
    382  N3         3.4610    7.7540   31.0020 N.ar   18  U18        -0.1530
    383  C4         3.8950    8.8690   31.6970 C.ar   18  U18         0.2846
    384  O4         4.8760    8.7740   32.4350 O.2    18  U18        -0.2650
    385  C5         3.1070   10.0650   31.4890 C.ar   18  U18         0.0814
    386  C6         2.0570   10.0180   30.6620 C.ar   18  U18         0.0870
    387  OP1       -1.0840   14.5440   31.3340 O.2    18  U18        -0.5172
    388  OP2        1.2400   13.5590   31.7650 O.co2  18  U18        -0.4373
    389  P         -3.5560    9.7090   31.6070 P.3    19  U19         0.2141
    390  C5'       -4.2170    7.4940   32.9540 C.3    19  U19         0.1812
    391  O5'       -4.5450    8.4910   31.9780 O.3    19  U19        -0.3114
    392  C4'       -3.6200    6.2580   32.3030 C.3    19  U19         0.1773
    393  O4'       -2.2600    6.5220   31.8650 O.3    19  U19        -0.3307
    394  C3'       -3.5360    5.0510   33.2250 C.3    19  U19         0.1860
    395  O3'       -3.7850    3.8370   32.5450 O.3    19  U19        -0.3112
    396  C2'       -2.1030    5.0570   33.7140 C.3    19  U19         0.2309
    397  O2'       -1.6450    3.7580   34.0310 O.3    19  U19        -0.2156
    398  C1'       -1.3490    5.6610   32.5260 C.3    19  U19         0.2420
    399  N1        -0.1760    6.4540   32.9970 N.ar   19  U19        -0.2534
    400  C2         1.1040    5.9420   32.9100 C.ar   19  U19         0.3546
    401  O2         1.3540    4.8480   32.4320 O.2    19  U19        -0.2443
    402  N3         2.0830    6.7810   33.4120 N.ar   19  U19        -0.1530
    403  C4         1.9020    8.0450   33.9830 C.ar   19  U19         0.2846
    404  O4         2.8540    8.7050   34.3950 O.2    19  U19        -0.2650
    405  C5         0.5370    8.5010   34.0370 C.ar   19  U19         0.0814
    406  C6        -0.4200    7.6990   33.5560 C.ar   19  U19         0.0870
    407  OP1       -4.3510   10.8870   31.1630 O.2    19  U19        -0.5172
    408  OP2       -2.5460    9.9090   32.6870 O.co2  19  U19        -0.4373
    409  P         -4.6710    2.7680   33.3200 P.3    20  A20         0.2141
    410  C5'       -4.7250    0.2930   32.5100 C.3    20  A20         0.1812
    411  O5'       -3.9470    1.3780   32.9970 O.3    20  A20        -0.3114
    412  C4'       -4.0100   -1.0410   32.6180 C.3    20  A20         0.1773
    413  O4'       -2.5690   -0.9310   32.4560 O.3    20  A20        -0.3307
    414  C3'       -4.2090   -1.7620   33.9470 C.3    20  A20         0.1860
    415  O3'       -4.3030   -3.1400   33.7310 O.3    20  A20        -0.3112
    416  C2'       -2.9430   -1.4920   34.7330 C.3    20  A20         0.2309
    417  O2'       -2.6710   -2.5200   35.6840 O.3    20  A20        -0.2156
    418  C1'       -1.9120   -1.4300   33.6020 C.3    20  A20         0.2408
    419  N1         3.1620   -0.7480   34.1530 N.ar   20  A20        -0.2040
    420  C2         2.4400   -1.8340   33.8190 C.ar   20  A20         0.2016
    421  N3         1.1160   -1.9680   33.6800 N.ar   20  A20        -0.2048
    422  C4         0.5090   -0.7980   33.9380 C.ar   20  A20         0.1692
    423  C5         1.1080    0.4010   34.2930 C.ar   20  A20         0.1518
    424  C6         2.5080    0.4100   34.4050 C.ar   20  A20         0.1919
    425  N6         3.1830    1.5110   34.7330 N.pl3  20  A20        -0.1054
    426  N7         0.1730    1.4020   34.4760 N.ar   20  A20        -0.2193
    427  C8        -0.9620    0.7950   34.2320 C.ar   20  A20         0.1816
    428  N9        -0.8280   -0.5210   33.9030 N.ar   20  A20        -0.2693
    429  OP1       -6.0110    2.7980   32.6930 O.2    20  A20        -0.5172
    430  OP2       -4.5520    3.0140   34.7800 O.co2  20  A20        -0.4373
    431  P         -5.5860   -3.6850   32.9780 P.3    21  G21         0.2141
    432  C5'       -4.1650   -4.6750   30.9480 C.3    21  G21         0.1812
    433  O5'       -5.0940   -3.6970   31.4440 O.3    21  G21        -0.3114
    434  C4'       -2.9360   -4.0260   30.3320 C.3    21  G21         0.1773
    435  O4'       -1.9850   -3.6700   31.3790 O.3    21  G21        -0.3307
    436  C3'       -2.1590   -4.9230   29.3680 C.3    21  G21         0.1860
    437  O3'       -2.6770   -4.8800   28.0360 O.3    21  G21        -0.3112
    438  C2'       -0.7370   -4.3690   29.5000 C.3    21  G21         0.2309
    439  O2'       -0.4630   -3.2000   28.7520 O.3    21  G21        -0.2156
    440  C1'       -0.6960   -4.1330   31.0160 C.3    21  G21         0.2408
    441  N1         2.8860   -7.6050   31.6780 N.ar   21  G21        -0.1709
    442  C2         2.9410   -6.3920   31.0290 C.ar   21  G21         0.2606
    443  N2         4.1080   -6.0680   30.4620 N.pl3  21  G21        -0.0859
    444  N3         1.9170   -5.5600   30.9290 N.ar   21  G21        -0.1918
    445  C4         0.8180   -6.0570   31.5530 C.ar   21  G21         0.1723
    446  C5         0.6600   -7.2540   32.2260 C.ar   21  G21         0.1748
    447  C6         1.7670   -8.1280   32.3250 C.ar   21  G21         0.3023
    448  O6         1.8310   -9.2340   32.8740 O.2    21  G21        -0.2633
    449  N7        -0.6330   -7.3750   32.7210 N.ar   21  G21        -0.2173
    450  C8        -1.2260   -6.2700   32.3390 C.ar   21  G21         0.1817
    451  N9        -0.3950   -5.4160   31.6410 N.ar   21  G21        -0.2693
    452  OP1       -6.6570   -2.6660   33.1670 O.2    21  G21        -0.5172
    453  OP2       -5.7990   -5.0860   33.4210 O.co2  21  G21        -0.4373
    454  P         -2.4790   -6.1300   27.0430 P.3    22  G22         0.2141
    455  C5'       -0.1170   -5.2540   26.3400 C.3    22  G22         0.1812
    456  O5'       -0.8740   -6.2460   27.0390 O.3    22  G22        -0.3114
    457  C4'        1.3740   -5.5430   26.2410 C.3    22  G22         0.1773
    458  O4'        2.0250   -5.5730   27.5360 O.3    22  G22        -0.3307
    459  C3'        1.7290   -6.8730   25.6130 C.3    22  G22         0.1860
    460  O3'        1.6170   -6.8320   24.2190 O.3    22  G22        -0.3112
    461  C2'        3.1720   -7.0310   26.0600 C.3    22  G22         0.2309
    462  O2'        4.1010   -6.2600   25.3330 O.3    22  G22        -0.2156
    463  C1'        3.0360   -6.5660   27.5000 C.3    22  G22         0.2408
    464  N1         4.4590  -10.9670   29.7790 N.ar   22  G22        -0.1709
    465  C2         5.2460  -10.1110   29.0430 C.ar   22  G22         0.2606
    466  N2         6.5260  -10.4770   28.8960 N.pl3  22  G22        -0.0859
    467  N3         4.7900   -8.9820   28.4960 N.ar   22  G22        -0.1918
    468  C4         3.4540   -8.7740   28.7340 C.ar   22  G22         0.1723
    469  C5         2.5970   -9.5810   29.4490 C.ar   22  G22         0.1748
    470  C6         3.0970  -10.7660   30.0340 C.ar   22  G22         0.3023
    471  O6         2.4500  -11.5760   30.7040 O.2    22  G22        -0.2633
    472  N7         1.3090   -9.0540   29.4860 N.ar   22  G22        -0.2173
    473  C8         1.3860   -7.9560   28.8010 C.ar   22  G22         0.1817
    474  N9         2.6500   -7.7130   28.3180 N.ar   22  G22        -0.2693
    475  OP1       -2.9170   -5.7380   25.6800 O.2    22  G22        -0.5172
    476  OP2       -3.0980   -7.3200   27.6760 O.co2  22  G22        -0.4373
    477  P          1.6720   -8.2390   23.4740 P.3    23  G23         0.2141
    478  C5'        4.2740   -8.3360   23.2020 C.3    23  G23         0.1812
    479  O5'        3.1150   -8.8230   23.8530 O.3    23  G23        -0.3114
    480  C4'        5.4770   -9.1760   23.5540 C.3    23  G23         0.1773
    481  O4'        5.6890   -9.3140   24.9870 O.3    23  G23        -0.3307
    482  C3'        5.3490  -10.6070   23.0790 C.3    23  G23         0.1860
    483  O3'        5.4820  -10.6700   21.6880 O.3    23  G23        -0.3112
    484  C2'        6.5110  -11.2150   23.8620 C.3    23  G23         0.2309
    485  O2'        7.7970  -10.8280   23.4160 O.3    23  G23        -0.2156
    486  C1'        6.2200  -10.6200   25.2370 C.3    23  G23         0.2408
    487  N1         5.4870  -14.8240   28.1710 N.ar   23  G23        -0.1709
    488  C2         6.6600  -14.3730   27.6220 C.ar   23  G23         0.2606
    489  N2         7.7370  -15.1210   27.8890 N.pl3  23  G23        -0.0859
    490  N3         6.7530  -13.2770   26.8710 N.ar   23  G23        -0.1918
    491  C4         5.5550  -12.6420   26.7150 C.ar   23  G23         0.1723
    492  C5         4.3370  -13.0300   27.2390 C.ar   23  G23         0.1748
    493  C6         4.2460  -14.2010   28.0340 C.ar   23  G23         0.3023
    494  O6         3.2340  -14.6740   28.5790 O.2    23  G23        -0.2633
    495  N7         3.3360  -12.1490   26.8770 N.ar   23  G23        -0.2173
    496  C8         3.9410  -11.2590   26.1540 C.ar   23  G23         0.1817
    497  N9         5.2930  -11.4700   26.0100 N.ar   23  G23        -0.2693
    498  OP1        1.6780   -8.0030   22.0110 O.2    23  G23        -0.5172
    499  OP2        0.6240   -9.0790   24.1100 O.co2  23  G23        -0.4373
    500  P          5.4390  -12.0980   20.9680 P.3    24  A24         0.2141
    501  C5'        3.0060  -11.2220   20.6690 C.3    24  A24         0.1812
    502  O5'        4.0800  -11.9770   20.1620 O.3    24  A24        -0.3114
    503  C4'        1.7880  -11.6530   19.8920 C.3    24  A24         0.1773
    504  O4'        2.2390  -12.1200   18.5960 O.3    24  A24        -0.3307
    505  C3'        1.0410  -12.8290   20.4970 C.3    24  A24         0.1860
    506  O3'        0.0340  -12.3780   21.4060 O.3    24  A24        -0.3112
    507  C2'        0.4410  -13.4810   19.2550 C.3    24  A24         0.2309
    508  O2'       -0.7680  -12.8560   18.8690 O.3    24  A24        -0.2156
    509  C1'        1.4760  -13.2290   18.1720 C.3    24  A24         0.2408
    510  N1         2.1930  -17.7710   15.7890 N.ar   24  A24        -0.2040
    511  C2         1.0970  -17.0170   15.9830 C.ar   24  A24         0.2016
    512  N3         0.9730  -15.8380   16.6260 N.ar   24  A24        -0.2048
    513  C4         2.1520  -15.4310   17.1240 C.ar   24  A24         0.1692
    514  C5         3.3560  -16.1020   17.0100 C.ar   24  A24         0.1518
    515  C6         3.3700  -17.3300   16.3030 C.ar   24  A24         0.1919
    516  N6         4.4790  -18.0730   16.1310 N.pl3  24  A24        -0.1054
    517  N7         4.3510  -15.3910   17.6340 N.ar   24  A24        -0.2193
    518  C8         3.7440  -14.3290   18.0980 C.ar   24  A24         0.1816
    519  N9         2.4090  -14.2900   17.8340 N.ar   24  A24        -0.2693
    520  OP1        5.2980  -13.1780   21.9700 O.3    24  A24        -0.4373
    521  OP2        6.5260  -12.1870   19.9700 O.co2  24  A24        -0.5172
    522  P         -0.3650  -13.3120   22.6370 P.3    25  C25         0.2141
    523  C5'       -1.8550  -14.8980   21.2590 C.3    25  C25         0.1812
    524  O5'       -0.5800  -14.7030   21.8560 O.3    25  C25        -0.3114
    525  C4'       -2.0710  -16.2570   20.6290 C.3    25  C25         0.1773
    526  O4'       -1.2210  -16.4470   19.4880 O.3    25  C25        -0.3307
    527  C3'       -1.7790  -17.4630   21.5030 C.3    25  C25         0.1860
    528  O3'       -2.8540  -17.6240   22.3850 O.3    25  C25        -0.3112
    529  C2'       -1.6490  -18.5870   20.4700 C.3    25  C25         0.2309
    530  O2'       -2.8530  -19.2110   20.0440 O.3    25  C25        -0.2156
    531  C1'       -0.9510  -17.8240   19.3470 C.3    25  C25         0.2420
    532  N1         0.5120  -17.9770   19.4340 N.ar   25  C25        -0.2535
    533  C2         1.1140  -19.0820   18.8260 C.ar   25  C25         0.3532
    534  O2         0.4040  -19.8960   18.2270 O.2    25  C25        -0.2443
    535  N3         2.4680  -19.2200   18.9100 N.ar   25  C25        -0.1739
    536  C4         3.1990  -18.3040   19.5670 C.ar   25  C25         0.1759
    537  N4         4.5260  -18.4740   19.6330 N.pl3  25  C25        -0.1070
    538  C5         2.5980  -17.1710   20.1920 C.ar   25  C25         0.0566
    539  C6         1.2690  -17.0530   20.1110 C.ar   25  C25         0.0850
    540  OP1       -1.6470  -12.8790   23.2290 O.2    25  C25        -0.5172
    541  OP2        0.8060  -13.3520   23.5480 O.co2  25  C25        -0.4373
    542  P         -2.6290  -17.9980   23.9160 P.3    26  U26         0.2141
    543  C5'       -3.1550  -20.4270   23.2750 C.3    26  U26         0.1812
    544  O5'       -2.1720  -19.5150   23.7510 O.3    26  U26        -0.3114
    545  C4'       -2.6900  -21.8550   23.4110 C.3    26  U26         0.1773
    546  O4'       -1.8580  -22.2290   22.2770 O.3    26  U26        -0.3307
    547  C3'       -1.8440  -22.1490   24.6410 C.3    26  U26         0.1860
    548  O3'       -2.6900  -22.2290   25.8100 O.3    26  U26        -0.3112
    549  C2'       -1.1920  -23.4440   24.1550 C.3    26  U26         0.2309
    550  O2'       -2.0620  -24.5690   24.1100 O.3    26  U26        -0.2156
    551  C1'       -0.7840  -23.0280   22.7390 C.3    26  U26         0.2420
    552  N1         0.4870  -22.2110   22.5690 N.ar   26  U26        -0.2534
    553  C2         1.7320  -22.8240   22.5590 C.ar   26  U26         0.3546
    554  O2         1.8920  -24.0170   22.7110 O.2    26  U26        -0.2443
    555  N3         2.8080  -21.9900   22.3660 N.ar   26  U26        -0.1530
    556  C4         2.7820  -20.6200   22.1810 C.ar   26  U26         0.2846
    557  O4         3.8280  -19.9880   22.0320 O.2    26  U26        -0.2650
    558  C5         1.4600  -20.0490   22.1970 C.ar   26  U26         0.0814
    559  C6         0.4000  -20.8430   22.3860 C.ar   26  U26         0.0870
    560  OP1       -3.9820  -18.0160   24.5240 O.2    26  U26        -0.5172
    561  OP2       -1.5400  -17.1850   24.5270 O.co2  26  U26        -0.4373
    562  P         -2.3030  -21.5430   27.2200 P.3    27  G27         0.2141
    563  C5'       -1.4130  -24.0100   27.5230 C.3    27  G27         0.1812
    564  O5'       -1.2430  -22.5970   27.7700 O.3    27  G27        -0.3114
    565  C4'       -0.1250  -24.8050   27.7020 C.3    27  G27         0.1773
    566  O4'        0.6520  -24.9210   26.4760 O.3    27  G27        -0.3307
    567  C3'        0.8270  -24.1940   28.7150 C.3    27  G27         0.1860
    568  O3'        0.3850  -24.6120   29.9730 O.3    27  G27        -0.3112
    569  C2'        2.1740  -24.7600   28.2720 C.3    27  G27         0.2309
    570  O2'        2.4480  -26.0640   28.7580 O.3    27  G27        -0.2156
    571  C1'        2.0230  -24.6770   26.7530 C.3    27  G27         0.2408
    572  N1         5.7530  -21.5690   25.0960 N.ar   27  G27        -0.1709
    573  C2         5.8460  -22.8990   25.4520 C.ar   27  G27         0.2606
    574  N2         7.0610  -23.4610   25.3580 N.pl3  27  G27        -0.0859
    575  N3         4.8090  -23.6260   25.8700 N.ar   27  G27        -0.1918
    576  C4         3.6560  -22.9030   25.9010 C.ar   27  G27         0.1723
    577  C5         3.4830  -21.5810   25.5670 C.ar   27  G27         0.1748
    578  C6         4.5840  -20.8170   25.1250 C.ar   27  G27         0.3023
    579  O6         4.5850  -19.6200   24.7920 O.2    27  G27        -0.2633
    580  N7         2.1690  -21.1900   25.7380 N.ar   27  G27        -0.2173
    581  C8         1.5710  -22.2610   26.1600 C.ar   27  G27         0.1817
    582  N9         2.4030  -23.3430   26.2770 N.ar   27  G27        -0.2693
    583  OP1       -3.4910  -21.5830   28.0890 O.3    27  G27        -0.4373
    584  OP2       -1.6300  -20.2390   27.0240 O.co2  27  G27        -0.5172
    585  P          1.1550  -24.1730   31.2910 P.3    28  G28         0.2141
    586  C5'        3.6450  -23.7270   31.6570 C.3    28  G28         0.1812
    587  O5'        2.6890  -24.3850   30.8960 O.3    28  G28        -0.3114
    588  C4'        4.9840  -23.8810   30.9990 C.3    28  G28         0.1773
    589  O4'        4.9170  -23.6600   29.5690 O.3    28  G28        -0.3307
    590  C3'        5.9570  -22.8500   31.5140 C.3    28  G28         0.1860
    591  O3'        6.3950  -23.2750   32.8050 O.3    28  G28        -0.3112
    592  C2'        6.9800  -22.8490   30.3790 C.3    28  G28         0.2309
    593  O2'        7.8840  -23.9360   30.4060 O.3    28  G28        -0.2156
    594  C1'        6.0400  -22.8920   29.1640 C.3    28  G28         0.2408
    595  N1         7.4440  -18.3460   27.3030 N.ar   28  G28        -0.1709
    596  C2         8.2280  -19.4310   27.6110 C.ar   28  G28         0.2606
    597  N2         9.5470  -19.2750   27.3960 N.pl3  28  G28        -0.0859
    598  N3         7.7390  -20.5740   28.0920 N.ar   28  G28        -0.1918
    599  C4         6.3920  -20.5340   28.2390 C.ar   28  G28         0.1723
    600  C5         5.5360  -19.4910   27.9570 C.ar   28  G28         0.1748
    601  C6         6.0630  -18.2890   27.4340 C.ar   28  G28         0.3023
    602  O6         5.4680  -17.2510   27.1230 O.2    28  G28        -0.2633
    603  N7         4.2250  -19.8350   28.2460 N.ar   28  G28        -0.2173
    604  C8         4.3070  -21.0600   28.6900 C.ar   28  G28         0.1817
    605  N9         5.5980  -21.5600   28.7130 N.ar   28  G28        -0.2693
    606  OP1        0.8370  -25.2100   32.3080 O.3    28  G28        -0.4373
    607  OP2        0.8980  -22.7230   31.5260 O.co2  28  G28        -0.5172
    608  P          6.0210  -22.4310   34.1070 P.3    29  C29         0.2141
    609  C5'        8.5270  -21.6200   34.0480 C.3    29  C29         0.1812
    610  O5'        7.1290  -21.2700   34.0490 O.3    29  C29        -0.3114
    611  C4'        9.3700  -20.8030   33.0790 C.3    29  C29         0.1773
    612  O4'        8.8160  -20.7730   31.7300 O.3    29  C29        -0.3307
    613  C3'        9.4970  -19.3340   33.4460 C.3    29  C29         0.1860
    614  O3'       10.4460  -19.1340   34.4910 O.3    29  C29        -0.3112
    615  C2'        9.9440  -18.7320   32.1210 C.3    29  C29         0.2309
    616  O2'       11.3220  -18.9280   31.8960 O.3    29  C29        -0.2156
    617  C1'        9.0570  -19.4990   31.1370 C.3    29  C29         0.2420
    618  N1         7.7780  -18.7650   30.9400 N.ar   29  C29        -0.2535
    619  C2         7.7320  -17.5430   30.2320 C.ar   29  C29         0.3532
    620  O2         8.7430  -17.0550   29.7060 O.2    29  C29        -0.2443
    621  N3         6.5400  -16.9130   30.1160 N.ar   29  C29        -0.1739
    622  C4         5.4510  -17.4370   30.6730 C.ar   29  C29         0.1759
    623  N4         4.3080  -16.7800   30.5330 N.pl3  29  C29        -0.1070
    624  C5         5.4760  -18.6540   31.3900 C.ar   29  C29         0.0566
    625  C6         6.6460  -19.2740   31.5040 C.ar   29  C29         0.0850
    626  OP1        6.3180  -23.2900   35.2690 O.3    29  C29        -0.4373
    627  OP2        4.6660  -21.8700   33.9510 O.co2  29  C29        -0.5172
    628  P         10.3540  -17.8090   35.3970 P.3    30  C30         0.2141
    629  C5'       10.5300  -15.3160   34.7320 C.3    30  C30         0.1812
    630  O5'       10.1140  -16.6200   34.3640 O.3    30  C30        -0.3114
    631  C4'       11.1490  -14.5850   33.5530 C.3    30  C30         0.1773
    632  O4'       10.6360  -15.0900   32.2800 O.3    30  C30        -0.3307
    633  C3'       10.8370  -13.0990   33.5870 C.3    30  C30         0.1860
    634  O3'       11.8630  -12.4190   34.3240 O.3    30  C30        -0.3112
    635  C2'       10.7460  -12.7750   32.0970 C.3    30  C30         0.2309
    636  O2'       12.0160  -12.5760   31.5010 O.3    30  C30        -0.2156
    637  C1'       10.0620  -14.0320   31.5340 C.3    30  C30         0.2420
    638  N1         8.5510  -14.0430   31.6470 N.ar   30  C30        -0.2535
    639  C2         7.7780  -13.1450   30.8770 C.ar   30  C30         0.3532
    640  O2         8.3310  -12.3510   30.0880 O.2    30  C30        -0.2443
    641  N3         6.4160  -13.1570   31.0090 N.ar   30  C30        -0.1739
    642  C4         5.8250  -14.0120   31.8510 C.ar   30  C30         0.1759
    643  N4         4.4950  -13.9920   31.9370 N.pl3  30  C30        -0.1070
    644  C5         6.5850  -14.9280   32.6320 C.ar   30  C30         0.0566
    645  C6         7.9160  -14.9060   32.4970 C.ar   30  C30         0.0850
    646  OP1       11.6960  -17.5990   36.0040 O.2    30  C30        -0.5172
    647  OP2        9.1430  -17.9050   36.2530 O.co2  30  C30        -0.4373
    648  P         11.4370  -11.1030   35.1200 P.3    31  C31         0.2141
    649  C5'       11.7990   -9.6660   32.9990 C.3    31  C31         0.1812
    650  O5'       10.8930  -10.2390   33.9110 O.3    31  C31        -0.3114
    651  C4'       11.0020   -8.6690   32.2160 C.3    31  C31         0.1773
    652  O4'        9.9010   -9.3690   31.5870 O.3    31  C31        -0.3307
    653  C3'       10.3660   -7.6100   33.0990 C.3    31  C31         0.1860
    654  O3'       11.3200   -6.5750   33.3930 O.3    31  C31        -0.3112
    655  C2'        9.2280   -7.1780   32.1920 C.3    31  C31         0.2309
    656  O2'        9.6630   -6.2170   31.2590 O.3    31  C31        -0.2156
    657  C1'        8.8120   -8.4700   31.4650 C.3    31  C31         0.2420
    658  N1         7.5390   -9.0410   32.0370 N.ar   31  C31        -0.2535
    659  C2         6.3290   -8.4190   31.7080 C.ar   31  C31         0.3532
    660  O2         6.3290   -7.4570   30.9380 O.2    31  C31        -0.2443
    661  N3         5.1760   -8.8940   32.2300 N.ar   31  C31        -0.1739
    662  C4         5.1930   -9.9390   33.0590 C.ar   31  C31         0.1759
    663  N4         4.0190  -10.3650   33.5420 N.pl3  31  C31        -0.1070
    664  C5         6.4150  -10.5910   33.4180 C.ar   31  C31         0.0566
    665  C6         7.5520  -10.1130   32.8910 C.ar   31  C31         0.0850
    666  OP1       12.5720  -10.3380   35.7080 O.2    31  C31        -0.5172
    667  OP2       10.2570  -11.4870   35.9270 O.co2  31  C31        -0.4373
    668  P         11.3250   -5.8610   34.8170 P.3    32  G32         0.2141
    669  C5'        9.5290   -4.2470   33.9160 C.3    32  G32         0.1812
    670  O5'        9.8160   -5.3260   34.7950 O.3    32  G32        -0.3114
    671  C4'        8.0870   -3.8120   34.0050 C.3    32  G32         0.1773
    672  O4'        7.1950   -4.8580   33.5600 O.3    32  G32        -0.3307
    673  C3'        7.6550   -3.5150   35.4270 C.3    32  G32         0.1860
    674  O3'        7.9450   -2.1830   35.7830 O.3    32  G32        -0.3112
    675  C2'        6.1530   -3.7260   35.4120 C.3    32  G32         0.2309
    676  O2'        5.4430   -2.5000   35.3440 O.3    32  G32        -0.2156
    677  C1'        5.9390   -4.6330   34.1830 C.3    32  G32         0.2408
    678  N1         1.5850   -7.0310   35.2550 N.ar   32  G32        -0.1709
    679  C2         1.7710   -5.7710   34.7380 C.ar   32  G32         0.2606
    680  N2         0.6700   -5.0460   34.4730 N.pl3  32  G32        -0.0859
    681  N3         2.9730   -5.2630   34.4950 N.ar   32  G32        -0.1918
    682  C4         3.9850   -6.1100   34.8200 C.ar   32  G32         0.1723
    683  C5         3.8980   -7.3770   35.3430 C.ar   32  G32         0.1748
    684  C6         2.6110   -7.9180   35.5980 C.ar   32  G32         0.3023
    685  O6         2.3310   -9.0350   36.0630 O.2    32  G32        -0.2633
    686  N7         5.1660   -7.9170   35.5300 N.ar   32  G32        -0.2173
    687  C8         5.9830   -6.9920   35.1210 C.ar   32  G32         0.1817
    688  N9         5.3340   -5.8720   34.6630 N.ar   32  G32        -0.2693
    689  OP1       12.2590   -4.7130   34.8330 O.2    32  G32        -0.5172
    690  OP2       11.4670   -6.9320   35.8320 O.co2  32  G32        -0.4373
    691  P          8.2470   -1.9460   37.3250 P.3    33  A33         0.2141
    692  C5'        6.5200    0.0350   37.3280 C.3    33  A33         0.1812
    693  O5'        7.8270   -0.4240   37.6230 O.3    33  A33        -0.3114
    694  C4'        6.0490    0.9870   38.4100 C.3    33  A33         0.1773
    695  O4'        4.7240    1.4410   38.0580 O.3    33  A33        -0.3307
    696  C3'        5.9420    0.3570   39.7980 C.3    33  A33         0.1860
    697  O3'        6.9760    0.8350   40.6870 O.3    33  A33        -0.3112
    698  C2'        4.5010    0.6270   40.2710 C.3    33  A33         0.2309
    699  O2'        4.4040    1.1790   41.5800 O.3    33  A33        -0.2156
    700  C1'        3.9320    1.5830   39.2170 C.3    33  A33         0.2408
    701  N1         0.4680   -1.7590   37.3200 N.ar   33  A33        -0.2040
    702  C2         1.7650   -1.9030   37.6470 C.ar   33  A33         0.2016
    703  N3         2.6230   -1.0010   38.1400 N.ar   33  A33        -0.2048
    704  C4         2.0170    0.1850   38.2990 C.ar   33  A33         0.1692
    705  C5         0.6970    0.4870   38.0040 C.ar   33  A33         0.1518
    706  C6        -0.1000   -0.5520   37.4950 C.ar   33  A33         0.1919
    707  N6        -1.3800   -0.3800   37.1890 N.pl3  33  A33        -0.1054
    708  N7         0.4090    1.8080   38.2930 N.ar   33  A33        -0.2193
    709  C8         1.5490    2.2710   38.7500 C.ar   33  A33         0.1816
    710  N9         2.5580    1.3450   38.7880 N.ar   33  A33        -0.2693
    711  OP1        9.7170   -2.1200   37.4610 O.2    33  A33        -0.5172
    712  OP2        7.3280   -2.8340   38.0850 O.co2  33  A33        -0.4373
    713  P          7.1750    2.3380   41.2190 P.3    34  C34         0.2141
    714  C5'        9.7580    2.8480   40.8750 C.3    34  C34         0.1812
    715  O5'        8.4250    2.8280   40.3380 O.3    34  C34        -0.3114
    716  C4'       10.8100    2.7370   39.7790 C.3    34  C34         0.1773
    717  O4'       12.0650    2.2930   40.3570 O.3    34  C34        -0.3307
    718  C3'       10.5490    1.7170   38.6800 C.3    34  C34         0.1860
    719  O3'       11.2760    2.0780   37.5060 O.3    34  C34        -0.3112
    720  C2'       11.0720    0.4230   39.2850 C.3    34  C34         0.2309
    721  O2'       11.5250   -0.4870   38.3060 O.3    34  C34        -0.2156
    722  C1'       12.2570    0.9060   40.1250 C.3    34  C34         0.2420
    723  N1        12.4840    0.2480   41.4710 N.ar   34  C34        -0.2535
    724  C2        13.7840    0.2570   42.0220 C.ar   34  C34         0.3532
    725  O2        14.7240    0.7810   41.4190 O.2    34  C34        -0.2443
    726  N3        14.0040   -0.3200   43.2290 N.ar   34  C34        -0.1739
    727  C4        12.9980   -0.8870   43.8960 C.ar   34  C34         0.1759
    728  N4        13.2730   -1.4440   45.0850 N.pl3  34  C34        -0.1070
    729  C5        11.6690   -0.9050   43.3670 C.ar   34  C34         0.0566
    730  C6        11.4550   -0.3360   42.1720 C.ar   34  C34         0.0850
    731  OP1        7.5690    2.2500   42.6440 O.3    34  C34        -0.4373
    732  OP2        6.0160    3.1800   40.8440 O.co2  34  C34        -0.5172
    733  P         10.5940    2.0480   36.0540 P.3    35  G35         0.2141
    734  C5'        9.1820    3.8610   34.7580 C.3    35  G35         0.1812
    735  O5'        9.7940    3.4380   35.9900 O.3    35  G35        -0.3114
    736  C4'        8.2350    2.8100   34.1810 C.3    35  G35         0.1773
    737  O4'        7.2520    2.4660   35.1870 O.3    35  G35        -0.3307
    738  C3'        7.4190    3.2170   32.9530 C.3    35  G35         0.1860
    739  O3'        7.1320    2.0520   32.1590 O.3    35  G35        -0.3112
    740  C2'        6.1840    3.8860   33.5680 C.3    35  G35         0.2309
    741  O2'        4.9970    3.8160   32.7920 O.3    35  G35        -0.2156
    742  C1'        6.0290    3.1170   34.8840 C.3    35  G35         0.2408
    743  N1         2.1600    5.1130   37.4310 N.ar   35  G35        -0.1709
    744  C2         2.1530    4.2710   36.3370 C.ar   35  G35         0.2606
    745  N2         0.9580    3.9000   35.8520 N.pl3  35  G35        -0.0859
    746  N3         3.2560    3.8180   35.7590 N.ar   35  G35        -0.1918
    747  C4         4.3730    4.2780   36.3710 C.ar   35  G35         0.1723
    748  C5         4.4880    5.1130   37.4560 C.ar   35  G35         0.1748
    749  C6         3.3110    5.5910   38.0660 C.ar   35  G35         0.3023
    750  O6         3.2240    6.3450   39.0430 O.2    35  G35        -0.2633
    751  N7         5.8170    5.3480   37.7690 N.ar   35  G35        -0.2173
    752  C8         6.4720    4.6570   36.8800 C.ar   35  G35         0.1817
    753  N9         5.6550    3.9800   36.0020 N.ar   35  G35        -0.2693
    754  OP1        9.6180    0.9340   36.0160 O.3    35  G35        -0.4373
    755  OP2       11.6950    2.0690   35.0620 O.co2  35  G35        -0.5172
    756  P          7.9490    1.8100   30.8000 P.3    36  A36         0.2141
    757  C5'        7.4880   -0.8190   30.7610 C.3    36  A36         0.1812
    758  O5'        7.2690    0.4810   30.1930 O.3    36  A36        -0.3114
    759  C4'        6.3380   -1.7960   30.5070 C.3    36  A36         0.1773
    760  O4'        5.2750   -1.5340   31.4520 O.3    36  A36        -0.3307
    761  C3'        5.6520   -1.7420   29.1410 C.3    36  A36         0.1860
    762  O3'        6.3910   -2.5130   28.1720 O.3    36  A36        -0.3112
    763  C2'        4.2110   -2.2240   29.4240 C.3    36  A36         0.2309
    764  O2'        3.9330   -3.6160   29.3410 O.3    36  A36        -0.2156
    765  C1'        4.0050   -1.7480   30.8590 C.3    36  A36         0.2408
    766  N1        -0.3030    0.8280   29.7480 N.ar   36  A36        -0.2040
    767  C2         0.0650   -0.4360   29.4940 C.ar   36  A36         0.2016
    768  N3         1.2050   -1.0630   29.8070 N.ar   36  A36        -0.2048
    769  C4         2.0310   -0.2290   30.4670 C.ar   36  A36         0.1692
    770  C5         1.7970    1.0960   30.7990 C.ar   36  A36         0.1518
    771  C6         0.5500    1.6410   30.4140 C.ar   36  A36         0.1919
    772  N6         0.1840    2.9070   30.6730 N.pl3  36  A36        -0.1054
    773  N7         2.8820    1.6430   31.4750 N.ar   36  A36        -0.2193
    774  C8         3.7400    0.6590   31.5350 C.ar   36  A36         0.1816
    775  N9         3.2850   -0.4950   30.9540 N.ar   36  A36        -0.2693
    776  OP1        9.3570    1.5560   31.1670 O.3    36  A36        -0.4373
    777  OP2        7.6550    2.9450   29.8930 O.co2  36  A36        -0.5172
    778  P          6.6900   -1.9130   26.7180 P.3    37  A37         0.2141
    779  C5'        4.4610   -2.9470   25.9240 C.3    37  A37         0.1812
    780  O5'        5.1990   -1.7810   26.1850 O.3    37  A37        -0.3114
    781  C4'        3.1070   -2.5440   25.3990 C.3    37  A37         0.1773
    782  O4'        2.2690   -2.1240   26.5100 O.3    37  A37        -0.3307
    783  C3'        3.0920   -1.3440   24.4650 C.3    37  A37         0.1860
    784  O3'        3.5320   -1.6670   23.1510 O.3    37  A37        -0.3112
    785  C2'        1.6130   -0.9930   24.5690 C.3    37  A37         0.2309
    786  O2'        0.7680   -1.9230   23.9090 O.3    37  A37        -0.2156
    787  C1'        1.4710   -1.0280   26.0900 C.3    37  A37         0.2408
    788  N1         0.1390    3.7690   27.3970 N.ar   37  A37        -0.2040
    789  C2        -0.5370    2.7840   26.7770 C.ar   37  A37         0.2016
    790  N3        -0.1190    1.5500   26.4680 N.ar   37  A37        -0.2048
    791  C4         1.1560    1.3600   26.8700 C.ar   37  A37         0.1692
    792  C5         1.9730    2.2740   27.5160 C.ar   37  A37         0.1518
    793  C6         1.4200    3.5390   27.7800 C.ar   37  A37         0.1919
    794  N6         2.1060    4.5020   28.3920 N.pl3  37  A37        -0.1054
    795  N7         3.2190    1.7380   27.7700 N.ar   37  A37        -0.2193
    796  C8         3.1310    0.5240   27.2820 C.ar   37  A37         0.1816
    797  N9         1.9130    0.2220   26.7270 N.ar   37  A37        -0.2693
    798  OP1        7.3910   -2.9280   25.9050 O.2    37  A37        -0.5172
    799  OP2        7.2680   -0.5530   26.8600 O.co2  37  A37        -0.4373
    800  P          4.1900   -0.4990   22.2810 P.3    38  A38         0.2141
    801  C5'        1.8180    0.4040   21.5110 C.3    38  A38         0.1812
    802  O5'        3.0310    0.6080   22.2540 O.3    38  A38        -0.3114
    803  C4'        0.9090    1.6270   21.5410 C.3    38  A38         0.1773
    804  O4'        0.5090    1.9430   22.9010 O.3    38  A38        -0.3307
    805  C3'        1.5210    2.9080   20.9850 C.3    38  A38         0.1860
    806  O3'        1.2790    2.9900   19.5880 O.3    38  A38        -0.3112
    807  C2'        0.7720    3.9860   21.7510 C.3    38  A38         0.2309
    808  O2'       -0.4720    4.2960   21.1610 O.3    38  A38        -0.2156
    809  C1'        0.6100    3.3340   23.1200 C.3    38  A38         0.2408
    810  N1         3.2230    6.7720   25.8920 N.ar   38  A38        -0.2040
    811  C2         2.1060    6.8690   25.1560 C.ar   38  A38         0.2016
    812  N3         1.4750    5.9240   24.4550 N.ar   38  A38        -0.2048
    813  C4         2.1130    4.7550   24.5590 C.ar   38  A38         0.1692
    814  C5         3.2690    4.4990   25.2700 C.ar   38  A38         0.1518
    815  C6         3.8430    5.5720   25.9680 C.ar   38  A38         0.1919
    816  N6         4.9580    5.4470   26.6940 N.pl3  38  A38        -0.1054
    817  N7         3.6460    3.1830   25.1500 N.ar   38  A38        -0.2193
    818  C8         2.7180    2.6790   24.3710 C.ar   38  A38         0.1816
    819  N9         1.7580    3.5700   23.9790 N.ar   38  A38        -0.2693
    820  OP1        4.3970   -0.9980   20.9050 O.2    38  A38        -0.5172
    821  OP2        5.3290    0.0400   23.0520 O.co2  38  A38        -0.4373
    822  P          2.4250    3.4390   18.5740 P.3    39  C39         0.2141
    823  C5'        1.2890    5.6990   18.0400 C.3    39  C39         0.1812
    824  O5'        2.3720    5.0330   18.6470 O.3    39  C39        -0.3114
    825  C4'        1.1240    7.0890   18.6110 C.3    39  C39         0.1773
    826  O4'        0.9350    7.0350   20.0490 O.3    39  C39        -0.3307
    827  C3'        2.3210    8.0080   18.4790 C.3    39  C39         0.1860
    828  O3'        2.4830    8.4930   17.1500 O.3    39  C39        -0.3112
    829  C2'        1.8950    9.0790   19.4790 C.3    39  C39         0.2309
    830  O2'        0.7910    9.8590   19.0670 O.3    39  C39        -0.2156
    831  C1'        1.4960    8.1920   20.6450 C.3    39  C39         0.2420
    832  N1         2.6730    7.8510   21.5080 N.ar   39  C39        -0.2535
    833  C2         3.1650    8.8080   22.4140 C.ar   39  C39         0.3532
    834  O2         2.6220    9.9180   22.5050 O.2    39  C39        -0.2443
    835  N3         4.2380    8.4950   23.1860 N.ar   39  C39        -0.1739
    836  C4         4.8150    7.2980   23.0770 C.ar   39  C39         0.1759
    837  N4         5.8640    7.0480   23.8600 N.pl3  39  C39        -0.1070
    838  C5         4.3420    6.3110   22.1640 C.ar   39  C39         0.0566
    839  C6         3.2840    6.6290   21.4080 C.ar   39  C39         0.0850
    840  OP1        1.9960    3.0130   17.2270 O.2    39  C39        -0.5172
    841  OP2        3.7430    3.0160   19.0900 O.co2  39  C39        -0.4373
    842  P          3.9090    9.0280   16.6680 P.3    40  C40         0.2141
    843  C5'        4.1870   11.5900   17.2860 C.3    40  C40         0.1812
    844  O5'        4.2550   10.2170   17.6820 O.3    40  C40        -0.3114
    845  C4'        5.1490   12.4220   18.1040 C.3    40  C40         0.1773
    846  O4'        5.0400   12.0330   19.4980 O.3    40  C40        -0.3307
    847  C3'        6.6030   12.1720   17.7680 C.3    40  C40         0.1860
    848  O3'        7.0720   12.8890   16.6400 O.3    40  C40        -0.3112
    849  C2'        7.2840   12.6410   19.0460 C.3    40  C40         0.2309
    850  O2'        7.5270   14.0340   19.0810 O.3    40  C40        -0.2156
    851  C1'        6.2940   12.2180   20.1280 C.3    40  C40         0.2420
    852  N1         6.8310   10.9750   20.7860 N.ar   40  C40        -0.2535
    853  C2         7.7250   11.1020   21.8750 C.ar   40  C40         0.3532
    854  O2         8.0340   12.2220   22.3150 O.2    40  C40        -0.2443
    855  N3         8.2290    9.9760   22.4460 N.ar   40  C40        -0.1739
    856  C4         7.8880    8.7780   21.9760 C.ar   40  C40         0.1759
    857  N4         8.4190    7.7180   22.5840 N.pl3  40  C40        -0.1070
    858  C5         7.0040    8.6200   20.8630 C.ar   40  C40         0.0566
    859  C6         6.5090    9.7320   20.3010 C.ar   40  C40         0.0850
    860  OP1        3.7460    9.6000   15.3170 O.2    40  C40        -0.5172
    861  OP2        4.8700    7.9270   16.9050 O.co2  40  C40        -0.4373
    862  P          8.4420   12.3980   15.9580 P.3    41  C41         0.2141
    863  C5'       10.0280   14.1980   17.1210 C.3    41  C41         0.1812
    864  O5'        9.5930   12.8410   16.9780 O.3    41  C41        -0.3114
    865  C4'       10.9630   14.3620   18.3120 C.3    41  C41         0.1773
    866  O4'       10.3460   13.8580   19.5360 O.3    41  C41        -0.3307
    867  C3'       12.2760   13.5930   18.2010 C.3    41  C41         0.1860
    868  O3'       13.2540   14.3150   17.4670 O.3    41  C41        -0.3112
    869  C2'       12.6710   13.4350   19.6610 C.3    41  C41         0.2309
    870  O2'       13.2860   14.5910   20.1880 O.3    41  C41        -0.2156
    871  C1'       11.3160   13.1650   20.3060 C.3    41  C41         0.2420
    872  N1        11.0480   11.6970   20.3140 N.ar   41  C41        -0.2535
    873  C2        11.5390   10.8880   21.3530 C.ar   41  C41         0.3532
    874  O2        12.1810   11.4010   22.2780 O.2    41  C41        -0.2443
    875  N3        11.2880    9.5510   21.3180 N.ar   41  C41        -0.1739
    876  C4        10.5920    9.0240   20.3030 C.ar   41  C41         0.1759
    877  N4        10.3640    7.7120   20.2940 N.pl3  41  C41        -0.1070
    878  C5        10.0940    9.8200   19.2350 C.ar   41  C41         0.0566
    879  C6        10.3530   11.1270   19.2840 C.ar   41  C41         0.0850
    880  OP1        8.6500   13.1220   14.6860 O.2    41  C41        -0.5172
    881  OP2        8.3960   10.9230   15.9230 O.co2  41  C41        -0.4373
    882  P         14.1280   13.5980   16.3290 P.3    42  G42         0.2141
    883  C5'       15.9800   13.4610   18.2460 C.3    42  G42         0.1812
    884  O5'       15.3940   12.9340   17.0630 O.3    42  G42        -0.3114
    885  C4'       16.5470   12.3500   19.1120 C.3    42  G42         0.1773
    886  O4'       15.5040   11.7070   19.8890 O.3    42  G42        -0.3307
    887  C3'       17.1960   11.2280   18.3280 C.3    42  G42         0.1860
    888  O3'       18.5210   11.5840   18.0060 O.3    42  G42        -0.3112
    889  C2'       17.1120   10.0620   19.3000 C.3    42  G42         0.2309
    890  O2'       18.2310    9.9700   20.1490 O.3    42  G42        -0.2156
    891  C1'       15.8130   10.3390   20.0670 C.3    42  G42         0.2408
    892  N1        14.0720    5.6160   19.3890 N.ar   42  G42        -0.1709
    893  C2        15.2170    6.0390   20.0350 C.ar   42  G42         0.2606
    894  N2        16.0030    5.0900   20.5660 N.pl3  42  G42        -0.0859
    895  N3        15.5680    7.3150   20.1510 N.ar   42  G42        -0.1918
    896  C4        14.6660    8.1480   19.5660 C.ar   42  G42         0.1723
    897  C5        13.5070    7.8220   18.9020 C.ar   42  G42         0.1748
    898  C6        13.1390    6.4640   18.7830 C.ar   42  G42         0.3023
    899  O6        12.1330    6.0070   18.2230 O.2    42  G42        -0.2633
    900  N7        12.8640    8.9580   18.4410 N.ar   42  G42        -0.2173
    901  C8        13.6250    9.9390   18.8310 C.ar   42  G42         0.1817
    902  N9        14.7350    9.5230   19.5240 N.ar   42  G42        -0.2693
    903  OP1       14.5890   14.6780   15.4260 O.2    42  G42        -0.5172
    904  OP2       13.3100   12.4990   15.7580 O.co2  42  G42        -0.4373
    905  P         19.2850   10.8760   16.7960 P.3    43  G43         0.2141
    906  C5'       20.3250    8.7880   17.9470 C.3    43  G43         0.1812
    907  O5'       19.2500    9.3180   17.1830 O.3    43  G43        -0.3114
    908  C4'       20.1240    7.3350   18.3470 C.3    43  G43         0.1773
    909  O4'       18.7420    7.0660   18.7070 O.3    43  G43        -0.3307
    910  C3'       20.4820    6.3780   17.2280 C.3    43  G43         0.1860
    911  O3'       21.8790    6.0230   17.2420 O.3    43  G43        -0.3112
    912  C2'       19.5700    5.2020   17.5160 C.3    43  G43         0.2309
    913  O2'       20.2440    4.1890   18.2240 O.3    43  G43        -0.2156
    914  C1'       18.3760    5.7590   18.2990 C.3    43  G43         0.2408
    915  N1        14.6370    3.1680   15.7750 N.ar   43  G43        -0.1709
    916  C2        15.7300    2.6650   16.4480 C.ar   43  G43         0.2606
    917  N2        15.8700    1.3300   16.4640 N.pl3  43  G43        -0.0859
    918  N3        16.6350    3.4240   17.0730 N.ar   43  G43        -0.1918
    919  C4        16.3730    4.7560   16.9790 C.ar   43  G43         0.1723
    920  C5        15.3050    5.3390   16.3260 C.ar   43  G43         0.1748
    921  C6        14.3470    4.5300   15.6690 C.ar   43  G43         0.3023
    922  O6        13.3500    4.9170   15.0550 O.2    43  G43        -0.2633
    923  N7        15.3520    6.7170   16.4310 N.ar   43  G43        -0.2173
    924  C8        16.4320    6.9400   17.1270 C.ar   43  G43         0.1817
    925  N9        17.1210    5.8050   17.5090 N.ar   43  G43        -0.2693
    926  OP1       20.6840   11.3760   16.8310 O.3    43  G43        -0.4373
    927  OP2       18.4560   11.0640   15.5790 O.co2  43  G43        -0.5172
    928  P         22.5510    5.5700   15.8680 P.3    44  C44         0.2141
    929  C5'       22.6160    3.0710   16.4950 C.3    44  C44         0.1812
    930  O5'       22.0000    4.0890   15.7280 O.3    44  C44        -0.3114
    931  C4'       21.8400    1.7820   16.3660 C.3    44  C44         0.1773
    932  O4'       20.4070    1.9890   16.4460 O.3    44  C44        -0.3307
    933  C3'       22.0420    1.1410   15.0240 C.3    44  C44         0.1860
    934  O3'       23.2480    0.4500   15.0670 O.3    44  C44        -0.3112
    935  C2'       20.8000    0.2600   14.9250 C.3    44  C44         0.2309
    936  O2'       20.8350   -0.9220   15.6970 O.3    44  C44        -0.2156
    937  C1'       19.7280    1.1280   15.5490 C.3    44  C44         0.2420
    938  N1        18.8330    1.9380   14.6510 N.ar   44  C44        -0.2535
    939  C2        18.0330    1.3840   13.6270 C.ar   44  C44         0.3532
    940  O2        18.0720    0.1770   13.3730 O.2    44  C44        -0.2443
    941  N3        17.2170    2.2080   12.9140 N.ar   44  C44        -0.1739
    942  C4        17.1680    3.5220   13.1850 C.ar   44  C44         0.1759
    943  N4        16.3630    4.3230   12.4670 N.pl3  44  C44        -0.1070
    944  C5        17.9630    4.0910   14.2190 C.ar   44  C44         0.0566
    945  C6        18.7540    3.2680   14.9080 C.ar   44  C44         0.0850
    946  OP1       24.0270    5.4580   15.9170 O.3    44  C44        -0.4373
    947  OP2       21.9350    6.4410   14.8490 O.co2  44  C44        -0.5172
    948  P         24.0170    0.2670   13.6980 P.3    45  A45         0.2141
    949  C5'       22.4320   -1.6560   12.7610 C.3    45  A45         0.1812
    950  O5'       22.8600   -0.2820   12.7380 O.3    45  A45        -0.3114
    951  C4'       21.3360   -1.9520   11.7380 C.3    45  A45         0.1773
    952  O4'       20.2000   -1.0570   11.8470 O.3    45  A45        -0.3307
    953  C3'       21.8050   -1.7900   10.3160 C.3    45  A45         0.1860
    954  O3'       22.3180   -3.0250    9.9000 O.3    45  A45        -0.3112
    955  C2'       20.5570   -1.3810    9.5480 C.3    45  A45         0.2309
    956  O2'       19.8550   -2.5160    9.0830 O.3    45  A45        -0.2156
    957  C1'       19.7360   -0.6240   10.5840 C.3    45  A45         0.2408
    958  N1        17.2840    3.8620    9.7900 N.ar   45  A45        -0.2040
    959  C2        16.9150    2.5940    9.5830 C.ar   45  A45         0.2016
    960  N3        17.6070    1.4740    9.8070 N.ar   45  A45        -0.2048
    961  C4        18.8300    1.7430   10.3060 C.ar   45  A45         0.1692
    962  C5        19.3430    3.0030   10.5760 C.ar   45  A45         0.1518
    963  C6        18.5140    4.1070   10.2850 C.ar   45  A45         0.1919
    964  N6        18.8560    5.3810   10.4830 N.pl3  45  A45        -0.1054
    965  N7        20.6190    2.9020   11.0820 N.ar   45  A45        -0.2193
    966  C8        20.8460    1.6060   11.1080 C.ar   45  A45         0.1816
    967  N9        19.8150    0.8380   10.6410 N.ar   45  A45        -0.2693
    968  OP1       25.0710   -0.7720   13.8340 O.3    45  A45        -0.4373
    969  OP2       24.3570    1.6370   13.2480 O.co2  45  A45        -0.5172
    970  P         23.2560   -2.9820    8.6240 P.3    46  A46         0.2141
    971  C5'       21.5440   -3.7580    6.8770 C.3    46  A46         0.1812
    972  O5'       22.2600   -2.6950    7.4250 O.3    46  A46        -0.3114
    973  C4'       20.5630   -3.1330    5.9300 C.3    46  A46         0.1773
    974  O4'       20.2140   -1.8220    6.4360 O.3    46  A46        -0.3307
    975  C3'       21.1370   -2.9400    4.5350 C.3    46  A46         0.1860
    976  O3'       20.1500   -3.2440    3.5730 O.3    46  A46        -0.3112
    977  C2'       21.5490   -1.4800    4.5470 C.3    46  A46         0.2309
    978  O2'       21.4850   -0.8960    3.2680 O.3    46  A46        -0.2156
    979  C1'       20.5020   -0.8720    5.4560 C.3    46  A46         0.2408
    980  N1        19.3190    3.8560    6.9730 N.ar   46  A46        -0.2040
    981  C2        18.6570    2.9730    6.2000 C.ar   46  A46         0.2016
    982  N3        19.0270    1.7330    5.8470 N.ar   46  A46        -0.2048
    983  C4        20.2280    1.4290    6.3710 C.ar   46  A46         0.1692
    984  C5        21.0190    2.2270    7.1700 C.ar   46  A46         0.1518
    985  C6        20.5260    3.4940    7.4840 C.ar   46  A46         0.1919
    986  N6        21.2140    4.3390    8.2470 N.pl3  46  A46        -0.1054
    987  N7        22.1890    1.5990    7.5080 N.ar   46  A46        -0.2193
    988  C8        22.0870    0.4340    6.9070 C.ar   46  A46         0.1816
    989  N9        20.9300    0.2750    6.2070 N.ar   46  A46        -0.2693
    990  OP1       23.9000   -4.3210    8.4660 O.2    46  A46        -0.5172
    991  OP2       23.9970   -1.7050    8.6890 O.co2  46  A46        -0.4373
    992  P         19.9640   -4.7900    3.1860 P.3    47  C47         0.2141
    993  C5'       17.8140   -6.0750    2.3260 C.3    47  C47         0.1812
    994  O5'       18.5150   -4.8300    2.5130 O.3    47  C47        -0.3114
    995  C4'       16.3450   -5.8200    2.0260 C.3    47  C47         0.1773
    996  O4'       15.6530   -5.4190    3.2280 O.3    47  C47        -0.3307
    997  C3'       16.1090   -4.6570    1.0770 C.3    47  C47         0.1860
    998  O3'       16.1810   -5.0930   -0.2500 O.3    47  C47        -0.3112
    999  C2'       14.7040   -4.2170    1.4100 C.3    47  C47         0.2309
   1000  O2'       13.7030   -5.0250    0.8180 O.3    47  C47        -0.2156
   1001  C1'       14.7620   -4.3670    2.9260 C.3    47  C47         0.2420
   1002  N1        15.2220   -3.1110    3.5030 N.ar   47  C47        -0.2535
   1003  C2        14.3300   -2.0200    3.5390 C.ar   47  C47         0.3532
   1004  O2        13.1800   -2.1670    3.0880 O.2    47  C47        -0.2443
   1005  N3        14.7340   -0.8300    4.0780 N.ar   47  C47        -0.1739
   1006  C4        15.9770   -0.7240    4.5560 C.ar   47  C47         0.1759
   1007  N4        16.3730    0.4450    5.0600 N.pl3  47  C47        -0.1070
   1008  C5        16.8890   -1.8220    4.5280 C.ar   47  C47         0.0566
   1009  C6        16.4810   -2.9800    3.9920 C.ar   47  C47         0.0850
   1010  OP1       19.9860   -5.6250    4.4180 O.3    47  C47        -0.4373
   1011  OP2       20.9400   -5.0650    2.1060 O.co2  47  C47        -0.5172
   1012  P         16.8720   -4.1750   -1.3570 P.3    48  C48         0.2141
   1013  C5'       14.3780   -3.8310   -2.2780 C.3    48  C48         0.1812
   1014  O5'       15.7100   -3.3810   -2.1000 O.3    48  C48        -0.3114
   1015  C4'       13.4830   -2.6190   -2.5450 C.3    48  C48         0.1773
   1016  O4'       12.9590   -2.0900   -1.2900 O.3    48  C48        -0.3307
   1017  C3'       14.1590   -1.4260   -3.2090 C.3    48  C48         0.1860
   1018  O3'       14.2610   -1.5710   -4.6170 O.3    48  C48        -0.3112
   1019  C2'       13.2460   -0.2930   -2.7810 C.3    48  C48         0.2309
   1020  O2'       12.0910   -0.2110   -3.5720 O.3    48  C48        -0.2156
   1021  C1'       12.9530   -0.6890   -1.3380 C.3    48  C48         0.2420
   1022  N1        14.0140   -0.1430   -0.4500 N.ar   48  C48        -0.2535
   1023  C2        13.8110    1.1110    0.1060 C.ar   48  C48         0.3532
   1024  O2        12.7540    1.7050   -0.1410 O.2    48  C48        -0.2443
   1025  N3        14.7520    1.6550    0.9020 N.ar   48  C48        -0.1739
   1026  C4        15.8770    0.9930    1.1430 C.ar   48  C48         0.1759
   1027  N4        16.7870    1.5700    1.9420 N.pl3  48  C48        -0.1070
   1028  C5        16.1180   -0.2910    0.5790 C.ar   48  C48         0.0566
   1029  C6        15.1730   -0.8090   -0.2110 C.ar   48  C48         0.0850
   1030  OP1       17.4310   -5.1730   -2.3020 O.2    48  C48        -0.5172
   1031  OP2       17.6640   -3.0770   -0.7270 O.co2  48  C48        -0.4373
   1032  P         15.5620   -0.9700   -5.3410 P.3    49  A49         0.2141
   1033  C5'       13.9140    0.8300   -6.1900 C.3    49  A49         0.1812
   1034  O5'       15.0960    0.5370   -5.5050 O.3    49  A49        -0.3114
   1035  C4'       13.6090    2.2600   -5.8500 C.3    49  A49         0.1773
   1036  O4'       13.5060    2.3820   -4.4190 O.3    49  A49        -0.3307
   1037  C3'       14.7090    3.2520   -6.1830 C.3    49  A49         0.1860
   1038  O3'       14.7510    3.5410   -7.5650 O.3    49  A49        -0.3112
   1039  C2'       14.2340    4.4240   -5.3430 C.3    49  A49         0.2309
   1040  O2'       13.0780    5.0560   -5.8600 O.3    49  A49        -0.2156
   1041  C1'       13.9620    3.6700   -4.0470 C.3    49  A49         0.2408
   1042  N1        16.9330    6.0170   -0.5360 N.ar   49  A49        -0.2040
   1043  C2        15.7920    6.3770   -1.1410 C.ar   49  A49         0.2016
   1044  N3        15.0730    5.7130   -2.0520 N.ar   49  A49        -0.2048
   1045  C4        15.6350    4.5250   -2.3380 C.ar   49  A49         0.1692
   1046  C5        16.8010    4.0130   -1.7970 C.ar   49  A49         0.1518
   1047  C6        17.4690    4.8150   -0.8530 C.ar   49  A49         0.1919
   1048  N6        18.6030    4.4220   -0.2740 N.pl3  49  A49        -0.1054
   1049  N7        17.0840    2.7630   -2.3260 N.ar   49  A49        -0.2193
   1050  C8        16.0890    2.5390   -3.1690 C.ar   49  A49         0.1816
   1051  N9        15.1730    3.5650   -3.2240 N.ar   49  A49        -0.2693
   1052  OP1       15.7730   -1.6430   -6.6400 O.2    49  A49        -0.5172
   1053  OP2       16.7160   -0.9140   -4.4290 O.co2  49  A49        -0.4373
   1054  P         16.1150    3.4440   -8.3830 P.3    50  G50         0.2141
   1055  C5'       16.2410    6.0120   -7.9200 C.3    50  G50         0.1812
   1056  O5'       16.8500    4.7530   -7.8470 O.3    50  G50        -0.3114
   1057  C4'       17.0810    7.0420   -7.1850 C.3    50  G50         0.1773
   1058  O4'       16.8160    6.9230   -5.7540 O.3    50  G50        -0.3307
   1059  C3'       18.6110    6.9350   -7.2810 C.3    50  G50         0.1860
   1060  O3'       19.1990    7.4090   -8.5090 O.3    50  G50        -0.3112
   1061  C2'       18.9550    7.7820   -6.0610 C.3    50  G50         0.2309
   1062  O2'       18.6710    9.1580   -6.2670 O.3    50  G50        -0.2156
   1063  C1'       18.0330    7.0980   -5.0380 C.3    50  G50         0.2408
   1064  N1        21.1570    4.7000   -1.8040 N.ar   50  G50        -0.1709
   1065  C2        20.8190    6.0570   -1.8500 C.ar   50  G50         0.2606
   1066  N2        21.3820    6.8870   -0.9500 N.pl3  50  G50        -0.0859
   1067  N3        19.9760    6.5790   -2.7400 N.ar   50  G50        -0.1918
   1068  C4        19.5110    5.6140   -3.5790 C.ar   50  G50         0.1723
   1069  C5        19.7990    4.2630   -3.5990 C.ar   50  G50         0.1748
   1070  C6        20.6670    3.7140   -2.6740 C.ar   50  G50         0.3023
   1071  O6        20.9780    2.5210   -2.6300 O.2    50  G50        -0.2633
   1072  N7        19.1380    3.5950   -4.5870 N.ar   50  G50        -0.2173
   1073  C8        18.4580    4.5520   -5.1500 C.ar   50  G50         0.1817
   1074  N9        18.6170    5.8120   -4.6000 N.ar   50  G50        -0.2693
   1075  OP1       15.7960    3.6290   -9.8220 O.2    50  G50        -0.5172
   1076  OP2       16.8810    2.2590   -7.9430 O.co2  50  G50        -0.4373
   1077  P         20.1130    6.4280   -9.4190 P.3    51  A51         0.2141
   1078  C5'       22.6310    5.6400   -9.0980 C.3    51  A51         0.1812
   1079  O5'       21.4130    6.1770   -8.5170 O.3    51  A51        -0.3114
   1080  C4'       23.9240    6.0950   -8.4060 C.3    51  A51         0.1773
   1081  O4'       24.4730    7.2190   -9.1530 O.3    51  A51        -0.3307
   1082  C3'       23.8440    6.5980   -6.9550 C.3    51  A51         0.1860
   1083  O3'       24.0510    5.5490   -5.9770 O.3    51  A51        -0.3112
   1084  C2'       24.9260    7.6810   -6.9250 C.3    51  A51         0.2309
   1085  O2'       26.2450    7.1910   -6.8020 O.3    51  A51        -0.2156
   1086  C1'       24.7330    8.3170   -8.2910 C.3    51  A51         0.2408
   1087  N1        23.3930   13.1530   -7.2940 N.ar   51  A51        -0.2040
   1088  C2        24.5180   12.4470   -7.0730 C.ar   51  A51         0.2016
   1089  N3        24.7880   11.1710   -7.3650 N.ar   51  A51        -0.2048
   1090  C4        23.7300   10.6060   -7.9600 C.ar   51  A51         0.1692
   1091  C5        22.5060   11.1900   -8.2600 C.ar   51  A51         0.1518
   1092  C6        22.3490   12.5470   -7.9010 C.ar   51  A51         0.1919
   1093  N6        21.2390   13.2580   -8.1120 N.pl3  51  A51        -0.1054
   1094  N7        21.6600   10.2820   -8.8650 N.ar   51  A51        -0.2193
   1095  C8        22.3970    9.1960   -8.9130 C.ar   51  A51         0.1816
   1096  N9        23.6560    9.3150   -8.3840 N.ar   51  A51        -0.2693
   1097  OP1       20.5140    7.2050  -10.6060 O.2    51  A51        -0.5172
   1098  OP2       19.4390    5.1220   -9.5990 O.co2  51  A51        -0.4373
   1099  P         23.4550    5.6460   -4.4780 P.3    52  A52         0.2141
   1100  C5'       24.5320    7.0420   -2.5120 C.3    52  A52         0.1812
   1101  O5'       24.7120    6.1890   -3.6460 O.3    52  A52        -0.3114
   1102  C4'       25.2450    8.3870   -2.6490 C.3    52  A52         0.1773
   1103  O4'       24.9890    8.9600   -3.9530 O.3    52  A52        -0.3307
   1104  C3'       24.7590    9.4390   -1.6540 C.3    52  A52         0.1860
   1105  O3'       25.5390    9.4350   -0.4450 O.3    52  A52        -0.3112
   1106  C2'       24.8440   10.7690   -2.3970 C.3    52  A52         0.2309
   1107  O2'       26.0360   11.4910   -2.1610 O.3    52  A52        -0.2156
   1108  C1'       24.7110   10.3420   -3.8570 C.3    52  A52         0.2408
   1109  N1        20.8960   13.7260   -4.5320 N.ar   52  A52        -0.2040
   1110  C2        22.1250   13.8470   -3.9980 C.ar   52  A52         0.2016
   1111  N3        23.0790   12.9200   -3.8540 N.ar   52  A52        -0.2048
   1112  C4        22.6670   11.7300   -4.3320 C.ar   52  A52         0.1692
   1113  C5        21.4390   11.4420   -4.9050 C.ar   52  A52         0.1518
   1114  C6        20.5190   12.5170   -5.0050 C.ar   52  A52         0.1919
   1115  N6        19.2990   12.4020   -5.5330 N.pl3  52  A52        -0.1054
   1116  N7        21.3850   10.1010   -5.2850 N.ar   52  A52        -0.2193
   1117  C8        22.5500    9.6200   -4.9330 C.ar   52  A52         0.1816
   1118  N9        23.3680   10.5480   -4.3580 N.ar   52  A52        -0.2693
   1119  OP1       23.0870    4.2760   -4.0420 O.3    52  A52        -0.4373
   1120  OP2       22.4200    6.6990   -4.4540 O.co2  52  A52        -0.5172
   1121  P         24.8050    9.7030    0.9630 P.3    53  A53         0.2141
   1122  C5'       24.2140   11.9410    2.1380 C.3    53  A53         0.1812
   1123  O5'       24.5160   11.2780    0.9240 O.3    53  A53        -0.3114
   1124  C4'       23.6190   13.3180    1.8920 C.3    53  A53         0.1773
   1125  O4'       23.5740   13.5740    0.4640 O.3    53  A53        -0.3307
   1126  C3'       22.1830   13.5240    2.3770 C.3    53  A53         0.1860
   1127  O3'       22.1260   13.9250    3.7450 O.3    53  A53        -0.3112
   1128  C2'       21.6700   14.6230    1.4500 C.3    53  A53         0.2309
   1129  O2'       22.0050   15.9410    1.8450 O.3    53  A53        -0.2156
   1130  C1'       22.3490   14.2090    0.1410 C.3    53  A53         0.2408
   1131  N1        17.9760   13.8170   -2.4450 N.ar   53  A53        -0.2040
   1132  C2        18.5760   14.8510   -1.8340 C.ar   53  A53         0.2016
   1133  N3        19.7340   14.8640   -1.1750 N.ar   53  A53        -0.2048
   1134  C4        20.3000   13.6380   -1.1750 C.ar   53  A53         0.1692
   1135  C5        19.8120   12.4770   -1.7500 C.ar   53  A53         0.1518
   1136  C6        18.5720   12.5960   -2.4210 C.ar   53  A53         0.1919
   1137  N6        17.9710   11.5640   -3.0310 N.pl3  53  A53        -0.1054
   1138  N7        20.6800   11.4100   -1.5390 N.ar   53  A53        -0.2193
   1139  C8        21.6590   11.9430   -0.8480 C.ar   53  A53         0.1816
   1140  N9        21.4930   13.2850   -0.6000 N.ar   53  A53        -0.2693
   1141  OP1       25.7780    9.4260    2.0460 O.3    53  A53        -0.4373
   1142  OP2       23.5220    8.9520    0.9520 O.co2  53  A53        -0.5172
   1143  P         21.6150   12.9200    4.8890 P.3    54  U54         0.2141
   1144  C5'       19.2120   13.9580    4.3290 C.3    54  U54         0.1812
   1145  O5'       20.0260   12.8310    4.6820 O.3    54  U54        -0.3114
   1146  C4'       18.2090   13.4980    3.2940 C.3    54  U54         0.1773
   1147  O4'       18.8780   12.6570    2.3180 O.3    54  U54        -0.3307
   1148  C3'       17.1080   12.5770    3.7890 C.3    54  U54         0.1860
   1149  O3'       16.0660   13.2660    4.5040 O.3    54  U54        -0.3112
   1150  C2'       16.6220   11.9960    2.4630 C.3    54  U54         0.2309
   1151  O2'       15.7580   12.8660    1.7590 O.3    54  U54        -0.2156
   1152  C1'       17.9270   11.8050    1.6950 C.3    54  U54         0.2420
   1153  N1        18.3790   10.3520    1.6190 N.ar   54  U54        -0.2534
   1154  C2        17.6520    9.5180    0.7920 C.ar   54  U54         0.3546
   1155  O2        16.6920    9.8980    0.1540 O.2    54  U54        -0.2443
   1156  N3        18.0710    8.2140    0.7280 N.ar   54  U54        -0.1530
   1157  C4        19.1340    7.6550    1.3970 C.ar   54  U54         0.2846
   1158  O4        19.3700    6.4620    1.2250 O.2    54  U54        -0.2650
   1159  C5        19.8620    8.5760    2.2430 C.ar   54  U54         0.0814
   1160  C6        19.4680    9.8580    2.3200 C.ar   54  U54         0.0870
   1161  OP1       21.8750   13.5900    6.1900 O.3    54  U54        -0.4373
   1162  OP2       22.1610   11.5730    4.6000 O.co2  54  U54        -0.5172
   1163  P         15.0330   12.4150    5.3890 P.3    55  G55         0.2141
   1164  C5'       12.9990   12.2380    3.7390 C.3    55  G55         0.1812
   1165  O5'       14.1740   11.6710    4.2770 O.3    55  G55        -0.3114
   1166  C4'       12.4440   11.2440    2.7460 C.3    55  G55         0.1773
   1167  O4'       13.5420   10.4950    2.1650 O.3    55  G55        -0.3307
   1168  C3'       11.6340   10.1180    3.3280 C.3    55  G55         0.1860
   1169  O3'       10.3600   10.5420    3.8440 O.3    55  G55        -0.3112
   1170  C2'       11.5940    9.2220    2.0930 C.3    55  G55         0.2309
   1171  O2'       10.6600    9.6930    1.1380 O.3    55  G55        -0.2156
   1172  C1'       13.0390    9.3190    1.5710 C.3    55  G55         0.2408
   1173  N1        14.1460    4.3640    1.1210 N.ar   55  G55        -0.1709
   1174  C2        13.1160    5.1020    0.5800 C.ar   55  G55         0.2606
   1175  N2        12.2700    4.3970   -0.1670 N.pl3  55  G55        -0.0859
   1176  N3        12.9130    6.4080    0.7490 N.ar   55  G55        -0.1918
   1177  C4        13.8730    6.9250    1.5480 C.ar   55  G55         0.1723
   1178  C5        14.9480    6.2760    2.1460 C.ar   55  G55         0.1748
   1179  C6        15.1360    4.8720    1.9480 C.ar   55  G55         0.3023
   1180  O6        16.0200    4.0970    2.3710 O.2    55  G55        -0.2633
   1181  N7        15.6990    7.1790    2.8850 N.ar   55  G55        -0.2173
   1182  C8        15.0730    8.3180    2.7300 C.ar   55  G55         0.1817
   1183  N9        13.9510    8.2360    1.9330 N.ar   55  G55        -0.2693
   1184  OP1       14.1290   13.3240    6.1350 O.3    55  G55        -0.4373
   1185  OP2       15.8180   11.3710    6.0840 O.co2  55  G55        -0.5172
   1186  P          9.7320    9.6380    5.0330 P.3    56  G56         0.2141
   1187  C5'        8.5320    8.2340    3.2830 C.3    56  G56         0.1812
   1188  O5'        9.5130    8.2440    4.3070 O.3    56  G56        -0.3114
   1189  C4'        8.4170    6.8450    2.7340 C.3    56  G56         0.1773
   1190  O4'        9.6870    6.3860    2.2130 O.3    56  G56        -0.3307
   1191  C3'        8.0710    5.8660    3.8340 C.3    56  G56         0.1860
   1192  O3'        6.6950    6.0740    4.2730 O.3    56  G56        -0.3112
   1193  C2'        8.4220    4.5710    3.0990 C.3    56  G56         0.2309
   1194  O2'        7.4610    4.1660    2.1460 O.3    56  G56        -0.2156
   1195  C1'        9.7200    4.9750    2.3800 C.3    56  G56         0.2408
   1196  N1        13.0040    1.2760    3.5930 N.ar   56  G56        -0.1709
   1197  C2        11.8420    1.2040    2.8610 C.ar   56  G56         0.2606
   1198  N2        11.5270   -0.0190    2.3950 N.pl3  56  G56        -0.0859
   1199  N3        11.0490    2.2550    2.6090 N.ar   56  G56        -0.1918
   1200  C4        11.5200    3.3900    3.1510 C.ar   56  G56         0.1723
   1201  C5        12.6600    3.5680    3.8970 C.ar   56  G56         0.1748
   1202  C6        13.4900    2.4560    4.1630 C.ar   56  G56         0.3023
   1203  O6        14.5350    2.4610    4.8190 O.2    56  G56        -0.2633
   1204  N7        12.8160    4.8940    4.2860 N.ar   56  G56        -0.2173
   1205  C8        11.7720    5.4850    3.7720 C.ar   56  G56         0.1817
   1206  N9        10.9500    4.6260    3.0770 N.ar   56  G56        -0.2693
   1207  OP1        8.3650   10.0830    5.4220 O.2    56  G56        -0.5172
   1208  OP2       10.7870    9.4380    6.0530 O.co2  56  G56        -0.4373
   1209  P          6.3290    5.8960    5.8300 P.3    57  U57         0.2141
   1210  C5'        7.0610    3.7060    7.0990 C.3    57  U57         0.1812
   1211  O5'        7.3120    4.6690    6.1150 O.3    57  U57        -0.3114
   1212  C4'        7.5510    2.3990    6.5360 C.3    57  U57         0.1773
   1213  O4'        8.9040    2.4880    6.0400 O.3    57  U57        -0.3307
   1214  C3'        7.7190    1.3280    7.5560 C.3    57  U57         0.1860
   1215  O3'        6.4280    0.8900    8.0660 O.3    57  U57        -0.3112
   1216  C2'        8.4770    0.3170    6.6960 C.3    57  U57         0.2309
   1217  O2'        7.6030   -0.4450    5.8820 O.3    57  U57        -0.2156
   1218  C1'        9.4490    1.2060    5.9090 C.3    57  U57         0.2420
   1219  N1        10.7770    1.2190    6.4950 N.ar   57  U57        -0.2534
   1220  C2        11.4390    0.0280    6.5470 C.ar   57  U57         0.3546
   1221  O2        10.9710   -1.0010    6.1050 O.2    57  U57        -0.2443
   1222  N3        12.6650    0.0710    7.1470 N.ar   57  U57        -0.1530
   1223  C4        13.2950    1.1780    7.6830 C.ar   57  U57         0.2846
   1224  O4        14.4070    1.0220    8.1800 O.2    57  U57        -0.2650
   1225  C5        12.5540    2.4140    7.5910 C.ar   57  U57         0.0814
   1226  C6        11.3420    2.3710    7.0130 C.ar   57  U57         0.0870
   1227  OP1        4.9140    5.4550    5.9960 O.2    57  U57        -0.5172
   1228  OP2        6.8490    7.0740    6.5840 O.co2  57  U57        -0.4373
   1229  P          6.2750    0.9010    9.6590 P.3    58  G58         0.2141
   1230  C5'        7.2700   -1.4710    9.7230 C.3    58  G58         0.1812
   1231  O5'        7.4140   -0.1310   10.0740 O.3    58  G58        -0.3114
   1232  C4'        8.6420   -2.0260    9.8560 C.3    58  G58         0.1773
   1233  O4'        9.5730   -1.0490    9.3690 O.3    58  G58        -0.3307
   1234  C3'        9.1590   -2.1720   11.2690 C.3    58  G58         0.1860
   1235  O3'        8.4220   -3.1790   11.9590 O.3    58  G58        -0.3112
   1236  C2'       10.6440   -2.4410   10.9560 C.3    58  G58         0.2309
   1237  O2'       10.9320   -3.7510   10.4770 O.3    58  G58        -0.2156
   1238  C1'       10.8590   -1.4050    9.8460 C.3    58  G58         0.2408
   1239  N1        14.8250    1.1730   11.6840 N.ar   58  G58        -0.1709
   1240  C2        14.7010   -0.1850   11.4810 C.ar   58  G58         0.2606
   1241  N2        15.7430   -0.9800   11.7950 N.pl3  58  G58        -0.0859
   1242  N3        13.6050   -0.7490   10.9940 N.ar   58  G58        -0.1918
   1243  C4        12.6440    0.1430   10.7230 C.ar   58  G58         0.1723
   1244  C5        12.6750    1.4990   10.9010 C.ar   58  G58         0.1748
   1245  C6        13.8200    2.1020   11.4220 C.ar   58  G58         0.3023
   1246  O6        13.9490    3.3170   11.6400 O.2    58  G58        -0.2633
   1247  N7        11.4850    2.0970   10.5230 N.ar   58  G58        -0.2173
   1248  C8        10.7640    1.0790   10.1250 C.ar   58  G58         0.1817
   1249  N9        11.4090   -0.1320   10.2250 N.ar   58  G58        -0.2693
   1250  OP1        4.9850    0.3210   10.0690 O.2    58  G58        -0.5172
   1251  OP2        6.7620    2.2380   10.0960 O.co2  58  G58        -0.4373
   1252  P          8.2480   -3.0570   13.5350 P.3    59  C59         0.2141
   1253  C5'       10.2800   -4.5120   14.2170 C.3    59  C59         0.1812
   1254  O5'        9.7150   -3.2360   14.0850 O.3    59  C59        -0.3114
   1255  C4'       11.7020   -4.3390   14.6930 C.3    59  C59         0.1773
   1256  O4'       12.4010   -3.4730   13.7790 O.3    59  C59        -0.3307
   1257  C3'       11.8820   -3.6070   16.0120 C.3    59  C59         0.1860
   1258  O3'       11.7110   -4.5250   17.0620 O.3    59  C59        -0.3112
   1259  C2'       13.3090   -3.1050   15.8760 C.3    59  C59         0.2309
   1260  O2'       14.2640   -4.1530   15.8830 O.3    59  C59        -0.2156
   1261  C1'       13.2390   -2.5590   14.4750 C.3    59  C59         0.2420
   1262  N1        12.7300   -1.1720   14.3380 N.ar   59  C59        -0.2535
   1263  C2        13.6200   -0.1370   14.4600 C.ar   59  C59         0.3532
   1264  O2        14.7840   -0.4490   14.6960 O.2    59  C59        -0.2443
   1265  N3        13.2030    1.1470   14.3220 N.ar   59  C59        -0.1739
   1266  C4        11.9210    1.3910   14.0520 C.ar   59  C59         0.1759
   1267  N4        11.4950    2.6470   13.9060 N.pl3  59  C59        -0.1070
   1268  C5        10.9840    0.3330   13.9180 C.ar   59  C59         0.0566
   1269  C6        11.4320   -0.9130   14.0610 C.ar   59  C59         0.0850
   1270  OP1        7.4310   -4.2090   13.9690 O.3    59  C59        -0.4373
   1271  OP2        7.9170   -1.6650   13.8910 O.co2  59  C59        -0.5172
   1272  P         10.9780   -4.1090   18.4100 P.3    60  C60         0.2141
   1273  C5'       13.5370   -3.6960   19.1880 C.3    60  C60         0.1812
   1274  O5'       12.1310   -3.3220   19.2120 O.3    60  C60        -0.3114
   1275  C4'       14.4100   -2.8080   20.0860 C.3    60  C60         0.1773
   1276  O4'       14.9610   -1.6730   19.3580 O.3    60  C60        -0.3307
   1277  C3'       13.7070   -2.2100   21.3010 C.3    60  C60         0.1860
   1278  O3'       13.8790   -3.0840   22.4060 O.3    60  C60        -0.3112
   1279  C2'       14.4170   -0.8840   21.5180 C.3    60  C60         0.2309
   1280  O2'       15.5390   -1.0370   22.3600 O.3    60  C60        -0.2156
   1281  C1'       14.8340   -0.4860   20.1130 C.3    60  C60         0.2420
   1282  N1        13.8440    0.3960   19.4370 N.ar   60  C60        -0.2535
   1283  C2        14.0740    1.7780   19.3490 C.ar   60  C60         0.3532
   1284  O2        15.0940    2.2750   19.8380 O.2    60  C60        -0.2443
   1285  N3        13.1600    2.5590   18.7210 N.ar   60  C60        -0.1739
   1286  C4        12.0550    2.0100   18.2060 C.ar   60  C60         0.1759
   1287  N4        11.1760    2.8060   17.5960 N.pl3  60  C60        -0.1070
   1288  C5        11.8070    0.6130   18.2820 C.ar   60  C60         0.0566
   1289  C6        12.7130   -0.1430   18.8990 C.ar   60  C60         0.0850
   1290  OP1       10.6860   -5.4320   18.9880 O.3    60  C60        -0.4373
   1291  OP2        9.8920   -3.1110   18.2410 O.co2  60  C60        -0.5172
   1292  P         13.0960   -2.8010   23.7780 P.3    61  A61         0.2141
   1293  C5'       14.9550   -4.5390   24.4610 C.3    61  A61         0.1812
   1294  O5'       13.6480   -4.0030   24.7010 O.3    61  A61        -0.3114
   1295  C4'       15.3690   -5.5900   25.4810 C.3    61  A61         0.1773
   1296  O4'       14.3560   -5.7700   26.5110 O.3    61  A61        -0.3307
   1297  C3'       15.4900   -6.9900   24.9090 C.3    61  A61         0.1860
   1298  O3'       16.6420   -7.2650   24.0620 O.3    61  A61        -0.3112
   1299  C2'       15.5290   -7.7850   26.2100 C.3    61  A61         0.2309
   1300  O2'       16.8150   -7.7540   26.8000 O.3    61  A61        -0.2156
   1301  C1'       14.4950   -7.0690   27.0800 C.3    61  A61         0.2408
   1302  N1        11.9920  -11.2380   29.0950 N.ar   61  A61        -0.2040
   1303  C2        13.2770  -10.8560   29.1100 C.ar   61  A61         0.2016
   1304  N3        13.8580   -9.7720   28.5670 N.ar   61  A61        -0.2048
   1305  C4        12.9740   -8.9820   27.9280 C.ar   61  A61         0.1692
   1306  C5        11.6170   -9.2460   27.8200 C.ar   61  A61         0.1518
   1307  C6        11.1120  -10.4280   28.4440 C.ar   61  A61         0.1919
   1308  N6         9.8120  -10.7800   28.4030 N.pl3  61  A61        -0.1054
   1309  N7        11.0060   -8.2470   27.0950 N.ar   61  A61        -0.2193
   1310  C8        11.9790   -7.4180   26.7860 C.ar   61  A61         0.1816
   1311  N9        13.2070   -7.7930   27.2420 N.ar   61  A61        -0.2693
   1312  OP1       11.6360   -2.9730   23.5350 O.2    61  A61        -0.5172
   1313  OP2       13.5670   -1.4830   24.2930 O.co2  61  A61        -0.4373
   1314  P         16.5510   -8.6790   23.2830 P.3    62  A62         0.2141
   1315  C5'       17.8490  -10.2730   24.9180 C.3    62  A62         0.1812
   1316  O5'       16.6020   -9.7780   24.4320 O.3    62  A62        -0.3114
   1317  C4'       17.6180  -11.4730   25.7980 C.3    62  A62         0.1773
   1318  O4'       16.4570  -11.1580   26.6090 O.3    62  A62        -0.3307
   1319  C3'       17.2950  -12.7200   25.0170 C.3    62  A62         0.1860
   1320  O3'       18.4180  -13.5560   24.7710 O.3    62  A62        -0.3112
   1321  C2'       16.3090  -13.4060   25.9470 C.3    62  A62         0.2309
   1322  O2'       16.9930  -14.3010   26.7800 O.3    62  A62        -0.2156
   1323  C1'       15.6650  -12.3070   26.7810 C.3    62  A62         0.2408
   1324  N1        10.7770  -13.9470   27.1090 N.ar   62  A62        -0.2040
   1325  C2        11.9220  -14.3950   27.6250 C.ar   62  A62         0.2016
   1326  N3        13.1580  -13.9080   27.4910 N.ar   62  A62        -0.2048
   1327  C4        13.1790  -12.8230   26.7160 C.ar   62  A62         0.1692
   1328  C5        12.0900  -12.2390   26.1050 C.ar   62  A62         0.1518
   1329  C6        10.8300  -12.8470   26.3270 C.ar   62  A62         0.1919
   1330  N6         9.6870  -12.3950   25.7990 N.pl3  62  A62        -0.1054
   1331  N7        12.4830  -11.1270   25.3860 N.ar   62  A62        -0.2193
   1332  C8        13.7780  -11.0720   25.5720 C.ar   62  A62         0.1816
   1333  N9        14.2740  -12.0640   26.3750 N.ar   62  A62        -0.2693
   1334  OP1       17.7250   -8.9420   22.4150 O.2    62  A62        -0.5172
   1335  OP2       15.1990   -8.7660   22.7150 O.co2  62  A62        -0.4373
   1336  P         18.1160  -14.9890   24.0580 P.3    63  U63         0.2141
   1337  C5'       18.5270  -13.5870   21.9400 C.3    63  U63         0.1812
   1338  O5'       17.6990  -14.4930   22.6110 O.3    63  U63        -0.3114
   1339  C4'       18.5160  -13.9880   20.5000 C.3    63  U63         0.1773
   1340  O4'       18.9550  -15.3690   20.3860 O.3    63  U63        -0.3307
   1341  C3'       17.1470  -13.9260   19.8600 C.3    63  U63         0.1860
   1342  O3'       17.3320  -13.5900   18.5040 O.3    63  U63        -0.3112
   1343  C2'       16.6750  -15.3570   20.0270 C.3    63  U63         0.2309
   1344  O2'       15.6810  -15.6970   19.0980 O.3    63  U63        -0.2156
   1345  C1'       17.9560  -16.1160   19.7330 C.3    63  U63         0.2420
   1346  N1        18.0160  -17.5180   20.2160 N.ar   63  U63        -0.2534
   1347  C2        17.9960  -18.5600   19.3030 C.ar   63  U63         0.3546
   1348  O2        17.9200  -18.4170   18.1040 O.2    63  U63        -0.2443
   1349  N3        18.0710  -19.8240   19.8450 N.ar   63  U63        -0.1530
   1350  C4        18.1620  -20.1530   21.1920 C.ar   63  U63         0.2846
   1351  O4        18.2170  -21.3450   21.5060 O.2    63  U63        -0.2650
   1352  C5        18.1790  -19.0180   22.0960 C.ar   63  U63         0.0814
   1353  C6        18.1140  -17.7790   21.5800 C.ar   63  U63         0.0870
   1354  OP1       16.9060  -15.6330   24.6270 O.3    63  U63        -0.4373
   1355  OP2       19.3550  -15.7870   23.8890 O.co2  63  U63        -0.5172
   1356  P         16.5270  -12.4720   17.7060 P.3    64  U64         0.2141
   1357  C5'       13.9340  -12.3050   17.4050 C.3    64  U64         0.1812
   1358  O5'       15.0620  -13.1380   17.5920 O.3    64  U64        -0.3114
   1359  C4'       12.6170  -13.0350   17.5980 C.3    64  U64         0.1773
   1360  O4'       12.1720  -13.6140   16.3310 O.3    64  U64        -0.3307
   1361  C3'       12.5950  -14.1590   18.6370 C.3    64  U64         0.1860
   1362  O3'       11.5390  -13.9090   19.5230 O.3    64  U64        -0.3112
   1363  C2'       12.3560  -15.4130   17.7920 C.3    64  U64         0.2309
   1364  O2'       11.5960  -16.4230   18.4300 O.3    64  U64        -0.2156
   1365  C1'       11.5740  -14.8560   16.5930 C.3    64  U64         0.2420
   1366  N1        11.6620  -15.7260   15.3860 N.ar   64  U64        -0.2534
   1367  C2        10.5740  -16.4600   15.0180 C.ar   64  U64         0.3546
   1368  O2         9.5310  -16.4100   15.6420 O.2    64  U64        -0.2443
   1369  N3        10.7340  -17.2500   13.9100 N.ar   64  U64        -0.1530
   1370  C4        11.8700  -17.3920   13.1320 C.ar   64  U64         0.2846
   1371  O4        11.8830  -18.1480   12.1440 O.2    64  U64        -0.2650
   1372  C5        12.9800  -16.5930   13.5860 C.ar   64  U64         0.0814
   1373  C6        12.8300  -15.8210   14.6720 C.ar   64  U64         0.0870
   1374  OP1       17.1420  -12.4490   16.3580 O.2    64  U64        -0.5172
   1375  OP2       16.4470  -11.2230   18.5060 O.co2  64  U64        -0.4373
   1376  P         11.6910  -12.7640   20.6200 P.3    65  C65         0.2141
   1377  C5'       13.6330  -13.7630   22.1140 C.3    65  C65         0.1812
   1378  O5'       12.2490  -13.7620   21.7340 O.3    65  C65        -0.3114
   1379  C4'       13.9020  -14.9470   23.0070 C.3    65  C65         0.1773
   1380  O4'       13.2580  -14.7310   24.2920 O.3    65  C65        -0.3307
   1381  C3'       13.3360  -16.2560   22.5090 C.3    65  C65         0.1860
   1382  O3'       14.2650  -16.9030   21.7380 O.3    65  C65        -0.3112
   1383  C2'       13.2170  -17.0400   23.7840 C.3    65  C65         0.2309
   1384  O2'       14.4580  -17.6430   24.0840 O.3    65  C65        -0.2156
   1385  C1'       12.7810  -15.9760   24.7910 C.3    65  C65         0.2420
   1386  N1        11.2970  -16.0000   24.8890 N.ar   65  C65        -0.2535
   1387  C2        10.6470  -17.0640   25.5390 C.ar   65  C65         0.3532
   1388  O2        11.3090  -17.9650   26.0420 O.2    65  C65        -0.2443
   1389  N3         9.2900  -17.0720   25.5820 N.ar   65  C65        -0.1739
   1390  C4         8.5900  -16.0790   25.0080 C.ar   65  C65         0.1759
   1391  N4         7.2640  -16.1040   25.0680 N.pl3  65  C65        -0.1070
   1392  C5         9.2210  -14.9940   24.3570 C.ar   65  C65         0.0566
   1393  C6        10.5580  -15.0050   24.3040 C.ar   65  C65         0.0850
   1394  OP1       10.3750  -12.2360   21.0490 O.3    65  C65        -0.4373
   1395  OP2       12.7990  -11.8290   20.3150 O.co2  65  C65        -0.5172
   1396  P         13.8170  -18.1030   20.7650 P.3    66  C66         0.2141
   1397  C5'       14.2680  -20.1890   22.3830 C.3    66  C66         0.1812
   1398  O5'       13.3360  -19.3140   21.7270 O.3    66  C66        -0.3114
   1399  C4'       13.6120  -21.1460   23.3550 C.3    66  C66         0.1773
   1400  O4'       12.7650  -20.4840   24.3380 O.3    66  C66        -0.3307
   1401  C3'       12.6780  -22.0980   22.6570 C.3    66  C66         0.1860
   1402  O3'       13.3830  -23.1570   22.0870 O.3    66  C66        -0.3112
   1403  C2'       11.7390  -22.5530   23.7660 C.3    66  C66         0.2309
   1404  O2'       12.2490  -23.5780   24.5880 O.3    66  C66        -0.2156
   1405  C1'       11.5730  -21.2610   24.5480 C.3    66  C66         0.2420
   1406  N1        10.2810  -20.5610   24.1290 N.ar   66  C66        -0.2535
   1407  C2         9.0380  -21.0900   24.5030 C.ar   66  C66         0.3532
   1408  O2         9.0100  -22.1220   25.1730 O.2    66  C66        -0.2443
   1409  N3         7.8870  -20.4560   24.1230 N.ar   66  C66        -0.1739
   1410  C4         7.9340  -19.3350   23.3980 C.ar   66  C66         0.1759
   1411  N4         6.7960  -18.7440   23.0390 N.pl3  66  C66        -0.1070
   1412  C5         9.1780  -18.7780   22.9890 C.ar   66  C66         0.0566
   1413  C6        10.3010  -19.4150   23.3660 C.ar   66  C66         0.0850
   1414  OP1       14.9930  -18.5120   19.9490 O.2    66  C66        -0.5172
   1415  OP2       12.6170  -17.6380   20.0450 O.co2  66  C66        -0.4373
   1416  P         12.7800  -23.8030   20.7430 P.3    67  U67         0.2141
   1417  C5'       11.2870  -25.4450   22.1260 C.3    67  U67         0.1812
   1418  O5'       11.3670  -24.4280   21.1390 O.3    67  U67        -0.3114
   1419  C4'        9.8470  -25.6650   22.5210 C.3    67  U67         0.1773
   1420  O4'        9.1860  -24.4480   22.9620 O.3    67  U67        -0.3307
   1421  C3'        9.0690  -26.1450   21.3280 C.3    67  U67         0.1860
   1422  O3'        9.2560  -27.5290   21.2870 O.3    67  U67        -0.3112
   1423  C2'        7.6530  -25.6860   21.6380 C.3    67  U67         0.2309
   1424  O2'        6.9260  -26.6140   22.4150 O.3    67  U67        -0.2156
   1425  C1'        7.8630  -24.4140   22.4450 C.3    67  U67         0.2420
   1426  N1         7.6160  -23.0970   21.7210 N.ar   67  U67        -0.2534
   1427  C2         6.3090  -22.6850   21.4870 C.ar   67  U67         0.3546
   1428  O2         5.3310  -23.3330   21.7940 O.2    67  U67        -0.2443
   1429  N3         6.1690  -21.4710   20.8630 N.ar   67  U67        -0.1530
   1430  C4         7.1870  -20.6310   20.4480 C.ar   67  U67         0.2846
   1431  O4         6.9080  -19.5670   19.8970 O.2    67  U67        -0.2650
   1432  C5         8.5230  -21.1080   20.7190 C.ar   67  U67         0.0814
   1433  C6         8.6820  -22.2880   21.3350 C.ar   67  U67         0.0870
   1434  OP1       13.6990  -24.9140   20.3400 O.3    67  U67        -0.4373
   1435  OP2       12.4060  -22.6740   19.8370 O.co2  67  U67        -0.5172
   1436  P          9.0490  -28.3400   19.9240 P.3    68  G68         0.2141
   1437  C5'        6.5790  -29.1900   20.2620 C.3    68  G68         0.1812
   1438  O5'        7.4580  -28.2090   19.7080 O.3    68  G68        -0.3114
   1439  C4'        5.1020  -28.9420   19.9660 C.3    68  G68         0.1773
   1440  O4'        4.6970  -27.6490   20.4890 O.3    68  G68        -0.3307
   1441  C3'        4.6880  -28.9010   18.4860 C.3    68  G68         0.1860
   1442  O3'        4.5350  -30.1970   17.8160 O.3    68  G68        -0.3112
   1443  C2'        3.4130  -28.0500   18.5180 C.3    68  G68         0.2309
   1444  O2'        2.2120  -28.7450   18.8450 O.3    68  G68        -0.2156
   1445  C1'        3.8360  -27.0140   19.5680 C.3    68  G68         0.2408
   1446  N1         3.6270  -22.1240   18.3340 N.ar   68  G68        -0.1709
   1447  C2         2.6690  -22.9480   18.8910 C.ar   68  G68         0.2606
   1448  N2         1.4850  -22.4040   19.1610 N.pl3  68  G68        -0.0859
   1449  N3         2.8530  -24.2220   19.1680 N.ar   68  G68        -0.1918
   1450  C4         4.0960  -24.6270   18.8350 C.ar   68  G68         0.1723
   1451  C5         5.1280  -23.9070   18.2750 C.ar   68  G68         0.1748
   1452  C6         4.9200  -22.5400   17.9840 C.ar   68  G68         0.3023
   1453  O6         5.7290  -21.7490   17.4780 O.2    68  G68        -0.2633
   1454  N7         6.2560  -24.6960   18.0910 N.ar   68  G68        -0.2173
   1455  C8         5.8790  -25.8610   18.5320 C.ar   68  G68         0.1817
   1456  N9         4.5800  -25.8930   19.0020 N.ar   68  G68        -0.2693
   1457  OP1        9.4050  -29.7430   20.2220 O.3    68  G68        -0.4373
   1458  OP2        9.7580  -27.6710   18.8080 O.co2  68  G68        -0.5172
   1459  P          3.8100  -31.5180   18.3690 P.3    69  C69         0.2141
   1460  C5'        2.6770  -31.1740   15.9560 C.3    69  C69         0.1812
   1461  O5'        2.9810  -32.0250   17.0790 O.3    69  C69        -0.3114
   1462  C4'        3.4920  -31.5670   14.7270 C.3    69  C69         0.1773
   1463  O4'        4.2470  -30.4390   14.2090 O.3    69  C69        -0.3307
   1464  C3'        4.5730  -32.6240   14.9360 C.3    69  C69         0.1860
   1465  O3'        4.0440  -33.9300   14.9330 O.3    69  C69        -0.3112
   1466  C2'        5.4710  -32.4090   13.7340 C.3    69  C69         0.2309
   1467  O2'        4.9460  -32.9850   12.5510 O.3    69  C69        -0.2156
   1468  C1'        5.4990  -30.8860   13.6940 C.3    69  C69         0.2420
   1469  N1         6.6450  -30.3060   14.4910 N.ar   69  C69        -0.2535
   1470  C2         7.9790  -30.4480   14.0430 C.ar   69  C69         0.3532
   1471  O2         8.2270  -31.0630   12.9930 O.2    69  C69        -0.2443
   1472  N3         8.9850  -29.9010   14.7870 N.ar   69  C69        -0.1739
   1473  C4         8.7050  -29.2460   15.9180 C.ar   69  C69         0.1759
   1474  N4         9.7080  -28.7260   16.6260 N.pl3  69  C69        -0.1070
   1475  C5         7.3700  -29.0880   16.3790 C.ar   69  C69         0.0566
   1476  C6         6.3870  -29.6240   15.6490 C.ar   69  C69         0.0850
   1477  OP1        2.8410  -31.1670   19.4510 O.3    69  C69        -0.4373
   1478  OP2        4.8940  -32.5020   18.6210 O.co2  69  C69        -0.5172
   1479  P          4.9300  -35.0850   15.5890 P.3    70  A70         0.2141
   1480  C5'        6.2130  -36.0920   13.5550 C.3    70  A70         0.1812
   1481  O5'        6.2150  -35.1940   14.6410 O.3    70  A70        -0.3114
   1482  C4'        7.4170  -35.8090   12.6960 C.3    70  A70         0.1773
   1483  O4'        7.7690  -34.4050   12.7080 O.3    70  A70        -0.3307
   1484  C3'        8.6670  -36.4370   13.2380 C.3    70  A70         0.1860
   1485  O3'        8.6810  -37.8100   13.0100 O.3    70  A70        -0.3112
   1486  C2'        9.7260  -35.6790   12.4540 C.3    70  A70         0.2309
   1487  O2'        9.8480  -36.0990   11.1160 O.3    70  A70        -0.2156
   1488  C1'        9.1740  -34.2620   12.5610 C.3    70  A70         0.2408
   1489  N1        13.3830  -31.7930   14.2190 N.ar   70  A70        -0.2040
   1490  C2        13.1100  -32.4630   13.0940 C.ar   70  A70         0.2016
   1491  N3        11.9770  -33.0790   12.7480 N.ar   70  A70        -0.2048
   1492  C4        11.0340  -32.9680   13.7030 C.ar   70  A70         0.1692
   1493  C5        11.1640  -32.3050   14.9100 C.ar   70  A70         0.1518
   1494  C6        12.4200  -31.6920   15.1580 C.ar   70  A70         0.1919
   1495  N6        12.7340  -31.0160   16.2610 N.pl3  70  A70        -0.1054
   1496  N7         9.9860  -32.4070   15.6340 N.ar   70  A70        -0.2193
   1497  C8         9.1870  -33.1090   14.8580 C.ar   70  A70         0.1816
   1498  N9         9.7540  -33.4810   13.6680 N.ar   70  A70        -0.2693
   1499  OP1        4.1690  -36.3610   15.4410 O.2    70  A70        -0.5172
   1500  OP2        5.3580  -34.5750   16.9280 O.co2  70  A70        -0.4373
   1501  P          9.7220  -38.6690   13.8630 P.3    71  G71         0.2141
   1502  C5'       11.4880  -39.0090   11.9900 C.3    71  G71         0.1812
   1503  O5'       11.1490  -38.3910   13.1840 O.3    71  G71        -0.3114
   1504  C4'       12.7680  -38.4070   11.4650 C.3    71  G71         0.1773
   1505  O4'       12.7590  -36.9700   11.6120 O.3    71  G71        -0.3307
   1506  C3'       13.9880  -38.8310   12.2520 C.3    71  G71         0.1860
   1507  O3'       14.4310  -40.1490   11.9500 O.3    71  G71        -0.3112
   1508  C2'       14.9920  -37.7450   11.8860 C.3    71  G71         0.2309
   1509  O2'       15.6210  -37.9350   10.6270 O.3    71  G71        -0.2156
   1510  C1'       14.0610  -36.5260   11.9830 C.3    71  G71         0.2408
   1511  N1        16.7090  -34.0660   15.6420 N.ar   71  G71        -0.1709
   1512  C2        17.1370  -34.5290   14.4270 C.ar   71  G71         0.2606
   1513  N2        18.4300  -34.3180   14.1340 N.pl3  71  G71        -0.0859
   1514  N3        16.3410  -35.1630   13.5670 N.ar   71  G71        -0.1918
   1515  C4        15.0600  -35.2890   14.0130 C.ar   71  G71         0.1723
   1516  C5        14.5400  -34.8440   15.2180 C.ar   71  G71         0.1748
   1517  C6        15.3990  -34.1680   16.1350 C.ar   71  G71         0.3023
   1518  O6        15.1150  -33.7050   17.2620 O.2    71  G71        -0.2633
   1519  N7        13.1900  -35.1610   15.3180 N.ar   71  G71        -0.2173
   1520  C8        12.9320  -35.7750   14.1900 C.ar   71  G71         0.1817
   1521  N9        14.0150  -35.9000   13.3310 N.ar   71  G71        -0.2693
   1522  OP1        9.3720  -40.0840   13.6230 O.2    71  G71        -0.5172
   1523  OP2        9.7090  -38.1510   15.2650 O.co2  71  G71        -0.4373
   1524  P         14.8430  -41.0940   13.1870 P.3    72  C72         0.2141
   1525  C5'       17.4610  -40.8050   12.9070 C.3    72  C72         0.1812
   1526  O5'       16.2640  -40.4770   13.6270 O.3    72  C72        -0.3114
   1527  C4'       18.7020  -40.0510   13.3890 C.3    72  C72         0.1773
   1528  O4'       18.5290  -38.5970   13.3510 O.3    72  C72        -0.3307
   1529  C3'       19.1320  -40.3030   14.8330 C.3    72  C72         0.1860
   1530  O3'       19.7350  -41.6040   15.0150 O.3    72  C72        -0.3112
   1531  C2'       20.0450  -39.0860   15.0290 C.3    72  C72         0.2309
   1532  O2'       21.2280  -39.0860   14.2620 O.3    72  C72        -0.2156
   1533  C1'       19.1170  -37.9990   14.5050 C.3    72  C72         0.2420
   1534  N1        18.0560  -37.5750   15.5050 N.ar   72  C72        -0.2535
   1535  C2        18.3710  -36.7330   16.5970 C.ar   72  C72         0.3532
   1536  O2        19.5430  -36.3300   16.7420 O.2    72  C72        -0.2443
   1537  N3        17.3630  -36.3830   17.4670 N.ar   72  C72        -0.1739
   1538  C4        16.1060  -36.8520   17.2960 C.ar   72  C72         0.1759
   1539  N4        15.1130  -36.5190   18.1450 N.pl3  72  C72        -0.1070
   1540  C5        15.7890  -37.7010   16.1950 C.ar   72  C72         0.0566
   1541  C6        16.7720  -38.0230   15.3480 C.ar   72  C72         0.0850
   1542  OP1       15.1240  -42.4720   12.7140 O.2    72  C72        -0.5172
   1543  OP2       13.7850  -40.8940   14.2160 O.co2  72  C72        -0.4373
   1544  P         19.3290  -42.5490   16.2670 P.3    73  G73         0.2141
   1545  C5'       21.5390  -41.7100   17.3660 C.3    73  G73         0.1812
   1546  O5'       20.1000  -41.7430   17.4110 O.3    73  G73        -0.3114
   1547  C4'       22.0920  -40.8280   18.4630 C.3    73  G73         0.1773
   1548  O4'       21.4780  -39.5180   18.4390 O.3    73  G73        -0.3307
   1549  C3'       21.7630  -41.2810   19.8620 C.3    73  G73         0.1860
   1550  O3'       22.4920  -42.4670   20.1640 O.3    73  G73        -0.3112
   1551  C2'       22.1400  -40.0170   20.6310 C.3    73  G73         0.2309
   1552  O2'       23.5310  -39.7840   20.7340 O.3    73  G73        -0.2156
   1553  C1'       21.4630  -38.9810   19.7380 C.3    73  G73         0.2408
   1554  N1        18.4110  -36.6010   22.9680 N.ar   73  G73        -0.1709
   1555  C2        19.7910  -36.5940   22.8850 C.ar   73  G73         0.2606
   1556  N2        20.4450  -35.8590   23.7910 N.pl3  73  G73        -0.0859
   1557  N3        20.4840  -37.2690   21.9830 N.ar   73  G73        -0.1918
   1558  C4        19.6580  -37.9580   21.1500 C.ar   73  G73         0.1723
   1559  C5        18.2750  -38.0310   21.1520 C.ar   73  G73         0.1748
   1560  C6        17.5500  -37.3070   22.1300 C.ar   73  G73         0.3023
   1561  O6        16.3250  -37.2320   22.3150 O.2    73  G73        -0.2633
   1562  N7        17.8390  -38.8520   20.1260 N.ar   73  G73        -0.2173
   1563  C8        18.9370  -39.2580   19.5380 C.ar   73  G73         0.1817
   1564  N9        20.0780  -38.7530   20.1080 N.ar   73  G73        -0.2693
   1565  OP1       20.0390  -43.8410   16.1260 O.2    73  G73        -0.5172
   1566  OP2       17.8640  -42.5450   16.5190 O.co2  73  G73        -0.4373
   1567  P         21.7170  -43.6820   20.8830 P.3    74  G74         0.2141
   1568  C5'       21.8460  -42.4810   23.2240 C.3    74  G74         0.1812
   1569  O5'       21.0130  -42.9780   22.1540 O.3    74  G74        -0.3114
   1570  C4'       21.0620  -41.9420   24.4110 C.3    74  G74         0.1773
   1571  O4'       20.3480  -40.7400   24.0320 O.3    74  G74        -0.3307
   1572  C3'       19.9570  -42.8450   24.9410 C.3    74  G74         0.1860
   1573  O3'       20.4820  -43.9230   25.7430 O.3    74  G74        -0.3112
   1574  C2'       19.0920  -41.8550   25.7160 C.3    74  G74         0.2309
   1575  O2'       19.5710  -41.5760   27.0090 O.3    74  G74        -0.2156
   1576  C1'       19.1560  -40.6270   24.8040 C.3    74  G74         0.2408
   1577  N1        14.3010  -39.1220   24.1790 N.ar   74  G74        -0.1709
   1578  C2        15.1290  -38.9260   25.2760 C.ar   74  G74         0.2606
   1579  N2        14.6090  -38.2620   26.3260 N.pl3  74  G74        -0.0859
   1580  N3        16.3940  -39.3620   25.3320 N.ar   74  G74        -0.1918
   1581  C4        16.7640  -40.0120   24.1870 C.ar   74  G74         0.1723
   1582  C5        16.0060  -40.2500   23.0560 C.ar   74  G74         0.1748
   1583  C6        14.6630  -39.7880   22.9890 C.ar   74  G74         0.3023
   1584  O6        13.8620  -39.9200   22.0310 O.2    74  G74        -0.2633
   1585  N7        16.7410  -40.9430   22.1070 N.ar   74  G74        -0.2173
   1586  C8        17.9100  -41.1080   22.6660 C.ar   74  G74         0.1817
   1587  N9        17.9960  -40.5720   23.9210 N.ar   74  G74        -0.2693
   1588  OP1       22.7990  -44.6070   21.2940 O.3    74  G74        -0.4373
   1589  OP2       20.5910  -44.1720   20.0550 O.co2  74  G74        -0.5172
   1590  P         19.7090  -45.3300   25.7200 P.3    75  A75         0.2141
   1591  C5'       17.3020  -45.9710   26.4460 C.3    75  A75         0.1812
   1592  O5'       18.2940  -44.9860   26.4140 O.3    75  A75        -0.3114
   1593  C4'       16.1570  -45.7090   27.4120 C.3    75  A75         0.1773
   1594  O4'       16.4920  -46.2200   28.7240 O.3    75  A75        -0.3307
   1595  C3'       15.7340  -44.2690   27.6270 C.3    75  A75         0.1860
   1596  O3'       14.5570  -44.0690   26.8980 O.3    75  A75        -0.3112
   1597  C2'       15.4620  -44.1450   29.1290 C.3    75  A75         0.2309
   1598  O2'       14.0950  -44.3270   29.4770 O.3    75  A75        -0.2156
   1599  C1'       16.3460  -45.2300   29.7290 C.3    75  A75         0.2408
   1600  N1        19.1930  -42.2620   32.8610 N.ar   75  A75        -0.2040
   1601  C2        17.8590  -42.4380   32.7820 C.ar   75  A75         0.2016
   1602  N3        17.1660  -43.2210   31.9360 N.ar   75  A75        -0.2048
   1603  C4        17.9980  -43.8900   31.1140 C.ar   75  A75         0.1692
   1604  C5        19.3800  -43.8180   31.0870 C.ar   75  A75         0.1518
   1605  C6        19.9870  -42.9620   32.0110 C.ar   75  A75         0.1919
   1606  N6        21.3110  -42.8370   32.0410 N.pl3  75  A75        -0.1054
   1607  N7        19.9320  -44.6290   30.1090 N.ar   75  A75        -0.2193
   1608  C8        18.8750  -45.1830   29.5710 C.ar   75  A75         0.1816
   1609  N9        17.6790  -44.7820   30.1250 N.ar   75  A75        -0.2693
   1610  OP1       20.4240  -46.3370   26.5350 O.3    75  A75        -0.4373
   1611  OP2       19.5200  -45.5790   24.2670 O.co2  75  A75        -0.5172
   1612  P         14.3840  -42.7410   26.0540 P.3    76  A76         0.2141
   1613  C5'       13.0780  -41.3070   27.7800 C.3    76  A76         0.1812
   1614  O5'       14.3700  -41.6740   27.2520 O.3    76  A76        -0.3114
   1615  C4'       13.1370  -40.7030   29.1700 C.3    76  A76         0.1773
   1616  O4'       14.2650  -41.2330   29.9030 O.3    76  A76        -0.3307
   1617  C3'       13.3110  -39.2020   29.2070 C.3    76  A76         0.1860
   1618  O3'       12.0380  -38.6220   29.1210 O.3    76  A76        -0.3112
   1619  C2'       14.0070  -38.9910   30.5560 C.3    76  A76         0.2309
   1620  O2'       13.1520  -38.9720   31.6820 O.3    76  A76        -0.2156
   1621  C1'       14.8560  -40.2350   30.6940 C.3    76  A76         0.2408
   1622  N1        19.6650  -38.9890   32.0920 N.ar   76  A76        -0.2040
   1623  C2        18.4660  -38.7040   32.6470 C.ar   76  A76         0.2016
   1624  N3        17.2360  -39.0330   32.2360 N.ar   76  A76        -0.2048
   1625  C4        17.3040  -39.7460   31.0890 C.ar   76  A76         0.1692
   1626  C5        18.4570  -40.1170   30.4090 C.ar   76  A76         0.1518
   1627  C6        19.6890  -39.7060   30.9520 C.ar   76  A76         0.1919
   1628  N6        20.8600  -39.9750   30.3890 N.pl3  76  A76        -0.1054
   1629  N7        18.1520  -40.8550   29.2820 N.ar   76  A76        -0.2193
   1630  C8        16.8450  -40.9170   29.3020 C.ar   76  A76         0.1816
   1631  N9        16.2670  -40.2560   30.3490 N.ar   76  A76        -0.2693
   1632  OP1       13.0300  -42.6780   25.4160 O.3    76  A76        -0.4373
   1633  OP2       15.6070  -42.6930   25.2140 O.co2  76  A76        -0.5172
   1634  P         11.8600  -37.0890   28.7110 P.3    77  A77         0.2141
   1635  C5'       12.5560  -35.4560   30.6910 C.3    77  A77         0.1812
   1636  O5'       12.9410  -36.3300   29.6330 O.3    77  A77        -0.3114
   1637  C4'       13.7820  -35.0090   31.4690 C.3    77  A77         0.1773
   1638  O4'       14.7630  -36.0660   31.6040 O.3    77  A77        -0.3307
   1639  C3'       14.5760  -33.8980   30.8270 C.3    77  A77         0.1860
   1640  O3'       13.9060  -32.6800   31.0720 O.3    77  A77        -0.3112
   1641  C2'       15.8880  -34.0080   31.5850 C.3    77  A77         0.2309
   1642  O2'       15.8030  -33.5630   32.9140 O.3    77  A77        -0.2156
   1643  C1'       16.0640  -35.5090   31.5870 C.3    77  A77         0.2408
   1644  N1        20.6010  -36.8890   29.5840 N.ar   77  A77        -0.2040
   1645  C2        20.2590  -36.3350   30.7630 C.ar   77  A77         0.2016
   1646  N3        19.0540  -35.9920   31.2260 N.ar   77  A77        -0.2048
   1647  C4        18.1130  -36.2690   30.3220 C.ar   77  A77         0.1692
   1648  C5        18.3030  -36.8270   29.0700 C.ar   77  A77         0.1518
   1649  C6        19.6170  -37.1480   28.6960 C.ar   77  A77         0.1919
   1650  N6        19.9060  -37.6890   27.5120 N.pl3  77  A77        -0.1054
   1651  N7        17.1000  -36.9790   28.4010 N.ar   77  A77        -0.2193
   1652  C8        16.2260  -36.5010   29.2620 C.ar   77  A77         0.1816
   1653  N9        16.7660  -36.0580   30.4400 N.ar   77  A77        -0.2693
   1654  OP1       10.5310  -36.5630   29.1290 O.3    77  A77        -0.4373
   1655  OP2       12.2900  -37.0640   27.2960 O.co2  77  A77        -0.5172
   1656  P         13.3660  -31.7940   29.8640 P.3    78  C78         0.2141
   1657  C5'       15.7480  -30.8410   29.2070 C.3    78  C78         0.1812
   1658  O5'       14.6340  -31.6530   28.8820 O.3    78  C78        -0.3114
   1659  C4'       17.1140  -31.4090   28.8310 C.3    78  C78         0.1773
   1660  O4'       17.1350  -32.8390   28.8070 O.3    78  C78        -0.3307
   1661  C3'       17.6250  -31.0410   27.4500 C.3    78  C78         0.1860
   1662  O3'       18.1820  -29.7460   27.4940 O.3    78  C78        -0.3112
   1663  C2'       18.6730  -32.1010   27.1490 C.3    78  C78         0.2309
   1664  O2'       19.9480  -31.9190   27.7340 O.3    78  C78        -0.2156
   1665  C1'       17.9660  -33.2960   27.7520 C.3    78  C78         0.2420
   1666  N1        17.0810  -33.9730   26.7860 N.ar   78  C78        -0.2535
   1667  C2        17.5780  -34.6780   25.6790 C.ar   78  C78         0.3532
   1668  O2        18.7940  -34.7570   25.4500 O.2    78  C78        -0.2443
   1669  N3        16.6770  -35.2780   24.8640 N.ar   78  C78        -0.1739
   1670  C4        15.3530  -35.1780   25.1100 C.ar   78  C78         0.1759
   1671  N4        14.4710  -35.7700   24.2970 N.pl3  78  C78        -0.1070
   1672  C5        14.8440  -34.4620   26.2160 C.ar   78  C78         0.0566
   1673  C6        15.7390  -33.8940   27.0130 C.ar   78  C78         0.0850
   1674  OP1       12.9490  -30.5100   30.4730 O.3    78  C78        -0.4373
   1675  OP2       12.3830  -32.6170   29.1450 O.co2  78  C78        -0.5172
   1676  P         17.8850  -28.6980   26.3330 P.3    79  G79         0.2141
   1677  C5'       20.2590  -29.3730   25.5740 C.3    79  G79         0.1812
   1678  O5'       18.8950  -29.2730   25.2370 O.3    79  G79        -0.3114
   1679  C4'       20.9980  -30.2930   24.6310 C.3    79  G79         0.1773
   1680  O4'       20.3680  -31.5850   24.6220 O.3    79  G79        -0.3307
   1681  C3'       20.9660  -29.8990   23.1710 C.3    79  G79         0.1860
   1682  O3'       21.8940  -28.8540   22.9160 O.3    79  G79        -0.3112
   1683  C2'       21.3360  -31.2080   22.4930 C.3    79  G79         0.2309
   1684  O2'       22.7290  -31.4630   22.4910 O.3    79  G79        -0.2156
   1685  C1'       20.5620  -32.1910   23.3640 C.3    79  G79         0.2408
   1686  N1        18.3250  -34.7830   19.6780 N.ar   79  G79        -0.1709
   1687  C2        19.6720  -34.5780   19.9400 C.ar   79  G79         0.2606
   1688  N2        20.5950  -35.1330   19.1260 N.pl3  79  G79        -0.0859
   1689  N3        20.1200  -33.8620   20.9540 N.ar   79  G79        -0.1918
   1690  C4        19.0990  -33.3580   21.7010 C.ar   79  G79         0.1723
   1691  C5        17.7330  -33.4940   21.5240 C.ar   79  G79         0.1748
   1692  C6        17.2700  -34.2650   20.4290 C.ar   79  G79         0.3023
   1693  O6        16.0910  -34.4930   20.1120 O.2    79  G79        -0.2633
   1694  N7        17.0310  -32.8010   22.5040 N.ar   79  G79        -0.2173
   1695  C8        17.9870  -32.2890   23.2440 C.ar   79  G79         0.1817
   1696  N9        19.2650  -32.5770   22.8160 N.ar   79  G79        -0.2693
   1697  OP1       18.3640  -27.3740   26.8270 O.3    79  G79        -0.4373
   1698  OP2       16.4610  -28.8620   25.9360 O.co2  79  G79        -0.5172
   1699  P         21.4360  -27.6900   21.9300 P.3    80  U80         0.2141
   1700  C5'       22.9120  -28.8550   20.1120 C.3    80  U80         0.1812
   1701  O5'       21.6350  -28.4510   20.5470 O.3    80  U80        -0.3114
   1702  C4'       22.7510  -29.7240   18.8890 C.3    80  U80         0.1773
   1703  O4'       21.9750  -30.8700   19.2750 O.3    80  U80        -0.3307
   1704  C3'       21.9170  -29.1420   17.7540 C.3    80  U80         0.1860
   1705  O3'       22.6610  -28.2890   16.9090 O.3    80  U80        -0.3112
   1706  C2'       21.4770  -30.3730   16.9910 C.3    80  U80         0.2309
   1707  O2'       22.4990  -30.8930   16.1600 O.3    80  U80        -0.2156
   1708  C1'       21.1670  -31.2770   18.1760 C.3    80  U80         0.2420
   1709  N1        19.7260  -31.2530   18.5350 N.ar   80  U80        -0.2534
   1710  C2        18.8950  -31.9980   17.7320 C.ar   80  U80         0.3546
   1711  O2        19.3260  -32.6230   16.7670 O.2    80  U80        -0.2443
   1712  N3        17.5620  -31.9700   18.0860 N.ar   80  U80        -0.1530
   1713  C4        16.9950  -31.2800   19.1280 C.ar   80  U80         0.2846
   1714  O4        15.7820  -31.3640   19.3030 O.2    80  U80        -0.2650
   1715  C5        17.9360  -30.5230   19.9270 C.ar   80  U80         0.0814
   1716  C6        19.2380  -30.5360   19.6080 C.ar   80  U80         0.0870
   1717  OP1       22.4300  -26.5910   22.0080 O.2    80  U80        -0.5172
   1718  OP2       19.9870  -27.4440   22.0950 O.co2  80  U80        -0.4373
   1719  P         21.8360  -27.2110   16.0710 P.3    81  U81         0.2141
   1720  C5'       21.9780  -28.1970   13.6800 C.3    81  U81         0.1812
   1721  O5'       21.2630  -28.0640   14.8660 O.3    81  U81        -0.3114
   1722  C4'       21.1160  -29.0840   12.8340 C.3    81  U81         0.1773
   1723  O4'       20.4150  -29.9920   13.7050 O.3    81  U81        -0.3307
   1724  C3'       19.9680  -28.3840   12.1400 C.3    81  U81         0.1860
   1725  O3'       20.4380  -27.6370   11.0340 O.3    81  U81        -0.3112
   1726  C2'       19.1130  -29.5910   11.7850 C.3    81  U81         0.2309
   1727  O2'       19.6500  -30.4150   10.7500 O.3    81  U81        -0.2156
   1728  C1'       19.1620  -30.3190   13.1240 C.3    81  U81         0.2420
   1729  N1        18.0600  -29.9700   14.0710 N.ar   81  U81        -0.2534
   1730  C2        16.8550  -30.6340   13.9730 C.ar   81  U81         0.3546
   1731  O2        16.6450  -31.4870   13.1300 O.2    81  U81        -0.2443
   1732  N3        15.9040  -30.2490   14.8970 N.ar   81  U81        -0.1530
   1733  C4        16.0390  -29.2770   15.8880 C.ar   81  U81         0.2846
   1734  O4        15.1140  -28.9920   16.6580 O.2    81  U81        -0.2650
   1735  C5        17.3250  -28.6360   15.9230 C.ar   81  U81         0.0814
   1736  C6        18.2590  -29.0020   15.0400 C.ar   81  U81         0.0870
   1737  OP1       22.8320  -26.2350   15.5740 O.2    81  U81        -0.5172
   1738  OP2       20.6630  -26.7660   16.8620 O.co2  81  U81        -0.4373
   1739  P         19.6030  -26.3530   10.5910 P.3    82  G82         0.2141
   1740  C5'       18.3640  -27.8740    8.9050 C.3    82  G82         0.1812
   1741  O5'       18.2650  -27.0300   10.0550 O.3    82  G82        -0.3114
   1742  C4'       17.0090  -28.4370    8.5130 C.3    82  G82         0.1773
   1743  O4'       16.5610  -29.4100    9.5030 O.3    82  G82        -0.3307
   1744  C3'       15.8840  -27.4080    8.4610 C.3    82  G82         0.1860
   1745  O3'       15.9130  -26.6030    7.2850 O.3    82  G82        -0.3112
   1746  C2'       14.6950  -28.3550    8.5280 C.3    82  G82         0.2309
   1747  O2'       14.4400  -28.9140    7.2500 O.3    82  G82        -0.2156
   1748  C1'       15.1530  -29.3500    9.6100 C.3    82  G82         0.2408
   1749  N1        11.5040  -29.2870   13.1930 N.ar   82  G82        -0.1709
   1750  C2        11.5100  -29.8910   11.9460 C.ar   82  G82         0.2606
   1751  N2        10.4140  -30.5740   11.5780 N.pl3  82  G82        -0.0859
   1752  N3        12.5290  -29.8360   11.1020 N.ar   82  G82        -0.1918
   1753  C4        13.5720  -29.1260   11.5970 C.ar   82  G82         0.1723
   1754  C5        13.6650  -28.4900   12.8200 C.ar   82  G82         0.1748
   1755  C6        12.5680  -28.5480   13.7180 C.ar   82  G82         0.3023
   1756  O6        12.4890  -28.0320   14.8480 O.2    82  G82        -0.2633
   1757  N7        14.8890  -27.8540   12.9520 N.ar   82  G82        -0.2173
   1758  C8        15.5030  -28.1210   11.8290 C.ar   82  G82         0.1817
   1759  N9        14.7730  -28.8980   10.9540 N.ar   82  G82        -0.2693
   1760  OP1       20.3310  -25.7460    9.4580 O.2    82  G82        -0.5172
   1761  OP2       19.2850  -25.5140   11.7730 O.co2  82  G82        -0.4373
   1762  P         14.6280  -25.7490    6.8460 P.3    83  A83         0.2141
   1763  C5'       12.2010  -26.5020    6.2760 C.3    83  A83         0.1812
   1764  O5'       13.5100  -26.8760    6.6420 O.3    83  A83        -0.3114
   1765  C4'       11.1250  -27.2150    7.0830 C.3    83  A83         0.1773
   1766  O4'       11.5670  -27.6490    8.3980 O.3    83  A83        -0.3307
   1767  C3'        9.9370  -26.3270    7.4250 C.3    83  A83         0.1860
   1768  O3'        9.1170  -26.0950    6.2880 O.3    83  A83        -0.3112
   1769  C2'        9.2350  -27.1100    8.5290 C.3    83  A83         0.2309
   1770  O2'        8.2540  -28.0260    8.0790 O.3    83  A83        -0.2156
   1771  C1'       10.4260  -27.7580    9.2490 C.3    83  A83         0.2408
   1772  N1         8.3160  -26.6510   13.7720 N.ar   83  A83        -0.2040
   1773  C2         7.8950  -27.3760   12.7230 C.ar   83  A83         0.2016
   1774  N3         8.5230  -27.6160   11.5720 N.ar   83  A83        -0.2048
   1775  C4         9.7220  -27.0210   11.5440 C.ar   83  A83         0.1692
   1776  C5        10.2910  -26.2470   12.5300 C.ar   83  A83         0.1518
   1777  C6         9.5330  -26.0590   13.7050 C.ar   83  A83         0.1919
   1778  N6         9.9500  -25.3330   14.7480 N.pl3  83  A83        -0.1054
   1779  N7        11.5350  -25.7980   12.1340 N.ar   83  A83        -0.2193
   1780  C8        11.6880  -26.3090   10.9310 C.ar   83  A83         0.1816
   1781  N9        10.6280  -27.0640   10.5190 N.ar   83  A83        -0.2693
   1782  OP1       14.9940  -25.1800    5.5220 O.2    83  A83        -0.5172
   1783  OP2       14.1520  -24.8710    7.9490 O.co2  83  A83        -0.4373
   1784  P          8.6250  -24.6230    5.8950 P.3    84  A84         0.2141
   1785  C5'        6.2340  -25.3540    6.7170 C.3    84  A84         0.1812
   1786  O5'        7.2860  -24.4360    6.7750 O.3    84  A84        -0.3114
   1787  C4'        5.5570  -25.5170    8.0610 C.3    84  A84         0.1773
   1788  O4'        6.5080  -25.9760    9.0450 O.3    84  A84        -0.3307
   1789  C3'        4.9640  -24.2610    8.6840 C.3    84  A84         0.1860
   1790  O3'        3.6590  -24.0140    8.2060 O.3    84  A84        -0.3112
   1791  C2'        4.8970  -24.6260   10.1600 C.3    84  A84         0.2309
   1792  O2'        3.7360  -25.3630   10.4910 O.3    84  A84        -0.2156
   1793  C1'        6.1820  -25.4330   10.3200 C.3    84  A84         0.2408
   1794  N1         7.9800  -22.4550   14.1460 N.ar   84  A84        -0.2040
   1795  C2         6.8410  -23.1540   14.0180 C.ar   84  A84         0.2016
   1796  N3         6.4330  -23.9140   12.9960 N.ar   84  A84        -0.2048
   1797  C4         7.3440  -23.9250   12.0070 C.ar   84  A84         0.1692
   1798  C5         8.5550  -23.2570   12.0010 C.ar   84  A84         0.1518
   1799  C6         8.8760  -22.4930   13.1360 C.ar   84  A84         0.1919
   1800  N6        10.0150  -21.7970   13.2440 N.pl3  84  A84        -0.1054
   1801  N7         9.2380  -23.4850   10.8200 N.ar   84  A84        -0.2193
   1802  C8         8.4410  -24.2750   10.1460 C.ar   84  A84         0.1816
   1803  N9         7.2770  -24.5910   10.8010 N.ar   84  A84        -0.2693
   1804  OP1        8.3470  -24.7090    4.4410 O.2    84  A84        -0.5172
   1805  OP2        9.6130  -23.6080    6.3490 O.co2  84  A84        -0.4373
   1806  P          3.2680  -22.6490    7.4710 P.3    85  A85         0.2141
   1807  C5'        1.9100  -21.8890    9.5490 C.3    85  A85         0.1812
   1808  O5'        3.0220  -21.6210    8.6890 O.3    85  A85        -0.3114
   1809  C4'        2.1540  -21.4260   10.9670 C.3    85  A85         0.1773
   1810  O4'        3.2940  -22.0870   11.5740 O.3    85  A85        -0.3307
   1811  C3'        2.5150  -19.9660   11.0490 C.3    85  A85         0.1860
   1812  O3'        1.3540  -19.1780   10.8170 O.3    85  A85        -0.3112
   1813  C2'        3.1510  -19.8690   12.4370 C.3    85  A85         0.2309
   1814  O2'        2.2740  -19.8320   13.5370 O.3    85  A85        -0.2156
   1815  C1'        3.9730  -21.1620   12.4210 C.3    85  A85         0.2408
   1816  N1         8.4980  -18.7720   13.2150 N.ar   85  A85        -0.2040
   1817  C2         7.3770  -18.8280   13.9380 C.ar   85  A85         0.2016
   1818  N3         6.2390  -19.4750   13.6790 N.ar   85  A85        -0.2048
   1819  C4         6.3080  -20.1330   12.5090 C.ar   85  A85         0.1692
   1820  C5         7.3900  -20.1660   11.6490 C.ar   85  A85         0.1518
   1821  C6         8.5410  -19.4440   12.0370 C.ar   85  A85         0.1919
   1822  N6         9.6630  -19.4060   11.2960 N.pl3  85  A85        -0.1054
   1823  N7         7.1030  -20.9410   10.5320 N.ar   85  A85        -0.2193
   1824  C8         5.8740  -21.3490   10.7330 C.ar   85  A85         0.1816
   1825  N9         5.3270  -20.9070   11.9090 N.ar   85  A85        -0.2693
   1826  OP1        1.9200  -22.9050    6.8810 O.3    85  A85        -0.4373
   1827  OP2        4.4300  -22.2610    6.6120 O.co2  85  A85        -0.5172
   1828  P          1.5380  -17.8670    9.9100 P.3    86  G86         0.2141
   1829  C5'        1.7000  -16.5500   12.1230 C.3    86  G86         0.1812
   1830  O5'        2.3240  -16.9440   10.9410 O.3    86  G86        -0.3114
   1831  C4'        2.7540  -15.8700   12.9570 C.3    86  G86         0.1773
   1832  O4'        3.9480  -16.6950   13.0360 O.3    86  G86        -0.3307
   1833  C3'        3.2640  -14.5730   12.3630 C.3    86  G86         0.1860
   1834  O3'        2.2980  -13.5270   12.5190 O.3    86  G86        -0.3112
   1835  C2'        4.5670  -14.4180   13.1550 C.3    86  G86         0.2309
   1836  O2'        4.3600  -13.9740   14.4910 O.3    86  G86        -0.2156
   1837  C1'        5.0850  -15.8530   13.1520 C.3    86  G86         0.2408
   1838  N1         9.7260  -15.3550   10.9990 N.ar   86  G86        -0.1709
   1839  C2         9.2350  -14.7340   12.1160 C.ar   86  G86         0.2606
   1840  N2        10.0940  -13.9030   12.6980 N.pl3  86  G86        -0.0859
   1841  N3         8.0010  -14.9120   12.6140 N.ar   86  G86        -0.1918
   1842  C4         7.2850  -15.8040   11.8750 C.ar   86  G86         0.1723
   1843  C5         7.6980  -16.4790   10.7410 C.ar   86  G86         0.1748
   1844  C6         8.9930  -16.2630   10.2410 C.ar   86  G86         0.3023
   1845  O6         9.4870  -16.7850    9.2430 O.2    86  G86        -0.2633
   1846  N7         6.7140  -17.3090   10.2360 N.ar   86  G86        -0.2173
   1847  C8         5.7280  -17.1230   11.0720 C.ar   86  G86         0.1817
   1848  N9         5.9920  -16.2210   12.0820 N.ar   86  G86        -0.2693
   1849  OP1        0.2120  -17.2500    9.6730 O.3    86  G86        -0.4373
   1850  OP2        2.4480  -18.1740    8.7740 O.co2  86  G86        -0.5172
   1851  P          2.3970  -12.2800   11.5110 P.3    87  A87         0.2141
   1852  C5'        3.9680  -10.6470   12.8570 C.3    87  A87         0.1812
   1853  O5'        3.8180  -11.6870   11.9160 O.3    87  A87        -0.3114
   1854  C4'        5.4260  -10.2360   12.8740 C.3    87  A87         0.1773
   1855  O4'        6.3260  -11.3620   12.7320 O.3    87  A87        -0.3307
   1856  C3'        5.8390   -9.3710   11.7040 C.3    87  A87         0.1860
   1857  O3'        5.3540   -8.0550   11.9260 O.3    87  A87        -0.3112
   1858  C2'        7.3520   -9.4860   11.7770 C.3    87  A87         0.2309
   1859  O2'        7.8880   -8.7820   12.8770 O.3    87  A87        -0.2156
   1860  C1'        7.4970  -10.9600   12.0370 C.3    87  A87         0.2408
   1861  N1        10.6570  -13.1030    8.6300 N.ar   87  A87        -0.2040
   1862  C2        10.8770  -12.2450    9.6490 C.ar   87  A87         0.2016
   1863  N3        10.0140  -11.7080   10.5040 N.ar   87  A87        -0.2048
   1864  C4         8.7830  -12.1490   10.2240 C.ar   87  A87         0.1692
   1865  C5         8.3960  -13.0150    9.2150 C.ar   87  A87         0.1518
   1866  C6         9.3850  -13.5120    8.3860 C.ar   87  A87         0.1919
   1867  N6         9.0950  -14.3540    7.4150 N.pl3  87  A87        -0.1054
   1868  N7         7.0610  -13.2540    9.2210 N.ar   87  A87        -0.2193
   1869  C8         6.6450  -12.5270   10.2290 C.ar   87  A87         0.1816
   1870  N9         7.6260  -11.8210   10.8720 N.ar   87  A87        -0.2693
   1871  OP1        1.4520  -11.1900   11.8410 O.3    87  A87        -0.4373
   1872  OP2        2.4620  -12.7940   10.1340 O.co2  87  A87        -0.5172
   1873  P          4.7860   -7.2660   10.6820 P.3    88  U88         0.2141
   1874  C5'        6.8330   -5.9080   10.3540 C.3    88  U88         0.1812
   1875  O5'        6.1110   -6.9950    9.8770 O.3    88  U88        -0.3114
   1876  C4'        8.1480   -5.8110    9.6530 C.3    88  U88         0.1773
   1877  O4'        8.8870   -7.0540    9.7660 O.3    88  U88        -0.3307
   1878  C3'        7.9970   -5.6110    8.1690 C.3    88  U88         0.1860
   1879  O3'        7.5630   -4.3180    7.8900 O.3    88  U88        -0.3112
   1880  C2'        9.4540   -5.8640    7.8630 C.3    88  U88         0.2309
   1881  O2'       10.2150   -4.8080    8.4260 O.3    88  U88        -0.2156
   1882  C1'        9.6190   -7.2150    8.5770 C.3    88  U88         0.2420
   1883  N1         9.0920   -8.4060    7.8420 N.ar   88  U88        -0.2534
   1884  C2         9.8570   -8.8990    6.8360 C.ar   88  U88         0.3546
   1885  O2        10.9220   -8.3840    6.5390 O.2    88  U88        -0.2443
   1886  N3         9.3290   -9.9940    6.1890 N.ar   88  U88        -0.1530
   1887  C4         8.1190  -10.6390    6.4310 C.ar   88  U88         0.2846
   1888  O4         7.7600  -11.5990    5.7560 O.2    88  U88        -0.2650
   1889  C5         7.3780  -10.0660    7.5100 C.ar   88  U88         0.0814
   1890  C6         7.8830   -8.9940    8.1430 C.ar   88  U88         0.0870
   1891  OP1        4.2440   -5.9720   11.1660 O.3    88  U88        -0.4373
   1892  OP2        3.9960   -8.2050    9.8500 O.co2  88  U88        -0.5172
   1893  P          6.8800   -3.9710    6.4790 P.3    89  G89         0.2141
   1894  C5'        9.1340   -3.1120    5.3330 C.3    89  G89         0.1812
   1895  O5'        8.0570   -4.0360    5.4070 O.3    89  G89        -0.3114
   1896  C4'       10.1140   -3.6710    4.3140 C.3    89  G89         0.1773
   1897  O4'       10.2850   -5.0810    4.5830 O.3    89  G89        -0.3307
   1898  C3'        9.6180   -3.7150    2.8780 C.3    89  G89         0.1860
   1899  O3'        9.7590   -2.4210    2.2630 O.3    89  G89        -0.3112
   1900  C2'       10.5140   -4.7870    2.2820 C.3    89  G89         0.2309
   1901  O2'       11.7800   -4.2830    1.9550 O.3    89  G89        -0.2156
   1902  C1'       10.6650   -5.7740    3.4200 C.3    89  G89         0.2408
   1903  N1        10.2110  -10.1930    1.0940 N.ar   89  G89        -0.1709
   1904  C2        11.1590   -9.1990    0.9710 C.ar   89  G89         0.2606
   1905  N2        12.1420   -9.4300    0.1000 N.pl3  89  G89        -0.0859
   1906  N3        11.1700   -8.0570    1.6520 N.ar   89  G89        -0.1918
   1907  C4        10.1230   -8.0120    2.4950 C.ar   89  G89         0.1723
   1908  C5         9.1190   -8.9260    2.6990 C.ar   89  G89         0.1748
   1909  C6         9.1190  -10.1330    1.9640 C.ar   89  G89         0.3023
   1910  O6         8.2840  -11.0650    2.0410 O.2    89  G89        -0.2633
   1911  N7         8.2200   -8.4750    3.6460 N.ar   89  G89        -0.2173
   1912  C8         8.7010   -7.3050    3.9780 C.ar   89  G89         0.1817
   1913  N9         9.8520   -6.9690    3.3090 N.ar   89  G89        -0.2693
   1914  OP1        6.3900   -2.5700    6.5540 O.3    89  G89        -0.4373
   1915  OP2        5.9830   -5.0900    6.1110 O.co2  89  G89        -0.5172
   1916  P          8.5730   -1.8360    1.3510 P.3    90  A90         0.2141
   1917  C5'       10.1000   -2.7240   -0.5880 C.3    90  A90         0.1812
   1918  O5'        8.8740   -2.7770    0.0840 O.3    90  A90        -0.3114
   1919  C4'       10.2260   -3.8420   -1.6050 C.3    90  A90         0.1773
   1920  O4'       10.3190   -5.1310   -0.9550 O.3    90  A90        -0.3307
   1921  C3'        9.0480   -4.0420   -2.5240 C.3    90  A90         0.1860
   1922  O3'        9.0450   -3.1100   -3.5770 O.3    90  A90        -0.3112
   1923  C2'        9.3680   -5.4100   -3.0680 C.3    90  A90         0.2309
   1924  O2'       10.3290   -5.2180   -4.1020 O.3    90  A90        -0.2156
   1925  C1'        9.8330   -6.1540   -1.8020 C.3    90  A90         0.2408
   1926  N1         7.3120  -10.6360   -1.1340 N.ar   90  A90        -0.2040
   1927  C2         8.3030  -10.2430   -1.9450 C.ar   90  A90         0.2016
   1928  N3         8.9140   -9.0440   -2.0420 N.ar   90  A90        -0.2048
   1929  C4         8.4050   -8.1720   -1.1970 C.ar   90  A90         0.1692
   1930  C5         7.3790   -8.4260   -0.3040 C.ar   90  A90         0.1518
   1931  C6         6.8250   -9.7210   -0.2930 C.ar   90  A90         0.1919
   1932  N6         5.8460  -10.1330    0.5000 N.pl3  90  A90        -0.1054
   1933  N7         7.1090   -7.2920    0.4220 N.ar   90  A90        -0.2193
   1934  C8         7.9700   -6.4040   -0.0760 C.ar   90  A90         0.1816
   1935  N9         8.7900   -6.8750   -1.0690 N.ar   90  A90        -0.2693
   1936  OP1        8.8790   -0.3900    1.1850 O.2    90  A90        -0.5172
   1937  OP2        7.2150   -2.2060    1.8630 O.co2  90  A90        -0.4373
   1938  P          7.6440   -2.7280   -4.2480 P.3    91  G91         0.2141
   1939  C5'        8.0080   -4.3350   -6.2340 C.3    91  G91         0.1812
   1940  O5'        7.3440   -4.0740   -5.0320 O.3    91  G91        -0.3114
   1941  C4'        7.5740   -5.7250   -6.6240 C.3    91  G91         0.1773
   1942  O4'        7.7240   -6.6530   -5.5230 O.3    91  G91        -0.3307
   1943  C3'        6.0940   -5.8630   -6.8990 C.3    91  G91         0.1860
   1944  O3'        5.8010   -5.2180   -8.1150 O.3    91  G91        -0.3112
   1945  C2'        6.0160   -7.3770   -6.9450 C.3    91  G91         0.2309
   1946  O2'        6.6230   -7.9140   -8.1110 O.3    91  G91        -0.2156
   1947  C1'        6.8200   -7.7320   -5.6970 C.3    91  G91         0.2408
   1948  N1         3.7590  -10.8530   -3.0870 N.ar   91  G91        -0.1709
   1949  C2         4.3920  -11.0800   -4.2690 C.ar   91  G91         0.2606
   1950  N2         4.1540  -12.3050   -4.7760 N.pl3  91  G91        -0.0859
   1951  N3         5.1840  -10.1770   -4.8610 N.ar   91  G91        -0.1918
   1952  C4         5.2740   -9.0310   -4.1530 C.ar   91  G91         0.1723
   1953  C5         4.6590   -8.7110   -2.9640 C.ar   91  G91         0.1748
   1954  C6         3.8350   -9.6780   -2.3450 C.ar   91  G91         0.3023
   1955  O6         3.2100   -9.5960   -1.2730 O.2    91  G91        -0.2633
   1956  N7         4.9740   -7.4360   -2.5370 N.ar   91  G91        -0.2173
   1957  C8         5.7720   -7.0060   -3.4830 C.ar   91  G91         0.1817
   1958  N9         6.0010   -7.9170   -4.4960 N.ar   91  G91        -0.2693
   1959  OP1        7.9170   -1.6130   -5.1830 O.2    91  G91        -0.5172
   1960  OP2        6.5710   -2.5880   -3.2240 O.co2  91  G91        -0.4373
   1961  P          4.2890   -5.0060   -8.5840 P.3    92  C92         0.2141
   1962  C5'        2.4470   -6.7940   -8.9990 C.3    92  C92         0.1812
   1963  O5'        3.8060   -6.5000   -8.8650 O.3    92  C92        -0.3114
   1964  C4'        2.3050   -8.2900   -8.8850 C.3    92  C92         0.1773
   1965  O4'        3.0500   -8.7520   -7.7340 O.3    92  C92        -0.3307
   1966  C3'        0.8850   -8.7670   -8.6610 C.3    92  C92         0.1860
   1967  O3'        0.1830   -8.9000   -9.8820 O.3    92  C92        -0.3112
   1968  C2'        1.1330  -10.0940   -7.9820 C.3    92  C92         0.2309
   1969  O2'        1.4810  -11.0980   -8.8940 O.3    92  C92        -0.2156
   1970  C1'        2.2920   -9.7330   -7.0650 C.3    92  C92         0.2420
   1971  N1         1.8290   -9.1810   -5.7600 N.ar   92  C92        -0.2535
   1972  C2         1.1680  -10.0410   -4.8630 C.ar   92  C92         0.3532
   1973  O2         0.9580  -11.2330   -5.1280 O.2    92  C92        -0.2443
   1974  N3         0.7480   -9.5560   -3.6770 N.ar   92  C92        -0.1739
   1975  C4         0.9570   -8.2730   -3.3610 C.ar   92  C92         0.1759
   1976  N4         0.5090   -7.8930   -2.1510 N.pl3  92  C92        -0.1070
   1977  C5         1.6320   -7.3700   -4.2580 C.ar   92  C92         0.0566
   1978  C6         2.0330   -7.8630   -5.4360 C.ar   92  C92         0.0850
   1979  OP1        4.3960   -4.2330   -9.8420 O.2    92  C92        -0.5172
   1980  OP2        3.4560   -4.5120   -7.4630 O.co2  92  C92        -0.4373
   1981  P         -1.1700   -8.0890  -10.1090 P.3    93  C93         0.2141
   1982  C5'       -2.1610  -10.4760  -10.2110 C.3    93  C93         0.1812
   1983  O5'       -2.2990   -9.1560   -9.8480 O.3    93  C93        -0.3114
   1984  C4'       -3.0580  -11.2400   -9.2690 C.3    93  C93         0.1773
   1985  O4'       -2.4170  -11.4680   -7.9890 O.3    93  C93        -0.3307
   1986  C3'       -4.3340  -10.5190   -8.8860 C.3    93  C93         0.1860
   1987  O3'       -5.1940  -10.5390   -9.9880 O.3    93  C93        -0.3112
   1988  C2'       -4.7620  -11.3650   -7.6930 C.3    93  C93         0.2309
   1989  O2'       -5.4310  -12.5590   -8.0490 O.3    93  C93        -0.2156
   1990  C1'       -3.4190  -11.5910   -6.9950 C.3    93  C93         0.2420
   1991  N1        -3.1780  -10.5200   -5.9710 N.ar   93  C93        -0.2535
   1992  C2        -3.6090  -10.6570   -4.6250 C.ar   93  C93         0.3532
   1993  O2        -4.1820  -11.7050   -4.2720 O.2    93  C93        -0.2443
   1994  N3        -3.3740   -9.6370   -3.7500 N.ar   93  C93        -0.1739
   1995  C4        -2.7600   -8.5290   -4.1820 C.ar   93  C93         0.1759
   1996  N4        -2.5370   -7.5140   -3.3420 N.pl3  93  C93        -0.1070
   1997  C5        -2.3260   -8.3770   -5.5230 C.ar   93  C93         0.0566
   1998  C6        -2.5530   -9.3710   -6.3750 C.ar   93  C93         0.0850
   1999  OP1       -1.1670   -7.6450  -11.5140 O.2    93  C93        -0.5172
   2000  OP2       -1.3970   -7.1070   -9.0290 O.co2  93  C93        -0.4373
   2001  P         -6.6160   -9.8340   -9.9430 P.3    94  G94         0.2141
   2002  C5'       -8.8030  -10.6490   -8.7840 C.3    94  G94         0.1813
   2003  O5'       -7.3760  -10.7220   -8.8430 O.3    94  G94        -0.3114
   2004  C4'       -9.4560  -11.1120   -7.4720 C.3    94  G94         0.1801
   2005  O4'       -8.4830  -11.4360   -6.4250 O.3    94  G94        -0.3306
   2006  C3'      -10.4580  -10.1160   -6.8570 C.3    94  G94         0.2161
   2007  O3'      -11.8130  -10.5410   -7.1210 O.3    94  G94        -0.2175
   2008  C2'      -10.1270  -10.1060   -5.3540 C.3    94  G94         0.2337
   2009  O2'      -10.9800  -10.9470   -4.5760 O.3    94  G94        -0.2155
   2010  C1'       -8.6470  -10.5450   -5.3230 C.3    94  G94         0.2409
   2011  N1        -5.9840   -6.9040   -2.9010 N.ar   94  G94        -0.1709
   2012  C2        -6.8430   -7.8710   -2.3870 C.ar   94  G94         0.2606
   2013  N2        -7.0330   -7.8930   -1.0670 N.pl3  94  G94        -0.0859
   2014  N3        -7.4930   -8.7780   -3.1040 N.ar   94  G94        -0.1918
   2015  C4        -7.2020   -8.6410   -4.4140 C.ar   94  G94         0.1723
   2016  C5        -6.3680   -7.7170   -5.0200 C.ar   94  G94         0.1748
   2017  C6        -5.6880   -6.7570   -4.2630 C.ar   94  G94         0.3023
   2018  O6        -4.9260   -5.8900   -4.7220 O.2    94  G94        -0.2633
   2019  N7        -6.3220   -7.8870   -6.3780 N.ar   94  G94        -0.2173
   2020  C8        -7.1260   -8.8920   -6.5560 C.ar   94  G94         0.1817
   2021  N9        -7.6960   -9.4210   -5.4260 N.ar   94  G94        -0.2693
   2022  OP1       -7.3110  -10.0970  -11.2310 O.2    94  G94        -0.5172
   2023  OP2       -6.4130   -8.4220   -9.5810 O.co2  94  G94        -0.4373
@<TRIPOS>BOND
     1  1999  1981    2
     2  2022  2001    2
     3  1097  1077    2
     4  1982  1983    1
     5  1982  1984    1
     6  1981  1967    1
     7  1981  1983    1
     8  1981  2000    1
     9  1987  2001    1
    10  1987  1986    1
    11  2001  2023    1
    12  2001  2003    1
    13  1967  1966    1
    14  1979  1961    2
    15  1075  1054    2
    16  1098  1077    1
    17  1077  1079    1
    18  1077  1060    1
    19  1984  1986    1
    20  1984  1985    1
    21  1081  1080    1
    22  1081  1086    1
    23  1078  1079    1
    24  1078  1080    1
    25  1962  1964    1
    26  1962  1963    1
    27  1095  1094   ar
    28  1095  1096   ar
    29  1969  1968    1
    30  1986  1988    1
    31  1964  1966    1
    32  1964  1965    1
    33  1094  1091   ar
    34  1963  1961    1
    35  2003  2002    1
    36  2002  2004    1
    37  1966  1968    1
    38  1961  1944    1
    39  1961  1980    1
    40  1060  1059    1
    41  1080  1082    1
    42  1096  1086    1
    43  1096  1090   ar
    44  1054  1076    1
    45  1054  1056    1
    46  1054  1038    1
    47  1086  1084    1
    48  1091  1090   ar
    49  1091  1092   ar
    50  1944  1943    1
    51  1093  1092    1
    52  1946  1945    1
    53  1989  1988    1
    54  1985  1990    1
    55  1968  1970    1
    56  1090  1089   ar
    57  1055  1056    1
    58  1055  1057    1
    59  1092  1087   ar
    60  1965  1970    1
    61  1988  1990    1
    62  1038  1037    1
    63  2004  2006    1
    64  2004  2005    1
    65  1089  1088   ar
    66  1087  1088   ar
    67  1059  1057    1
    68  1059  1061    1
    69  1057  1058    1
    70  2007  2006    1
    71  1970  1971    1
    72  1990  1991    1
    73  1082  1084    1
    74  1082  1083    1
    75  1945  1943    1
    76  1945  1947    1
    77  1084  1085    1
    78  1943  1941    1
    79  2006  2008    1
    80  1052  1032    2
    81  1941  1939    1
    82  1941  1942    1
    83  2020  2019   ar
    84  2020  2021   ar
    85  2005  2010    1
    86  2019  2016   ar
    87  1998  1991   ar
    88  1998  1997   ar
    89  1062  1061    1
    90  1939  1940    1
    91  1033  1035    1
    92  1033  1034    1
    93  1037  1035    1
    94  1037  1039    1
    95  1061  1063    1
    96  1083  1099    1
    97  1991  1992   ar
    98  1040  1039    1
    99  1035  1036    1
   100    75    74    1
   101  1971  1978   ar
   102  1971  1972   ar
   103  1058  1063    1
   104  1947  1942    1
   105  1947  1958    1
   106  1115  1114    1
   107  1997  1995   ar
   108  1034  1032    1
   109  1978  1977   ar
   110  2021  2010    1
   111  2021  2015   ar
   112  2008  2010    1
   113  2008  2009    1
   114  1039  1041    1
   115  1032  1018    1
   116  1032  1053    1
   117  1116  1117   ar
   118  1116  1113   ar
   119  1959  1938    2
   120  1073  1074   ar
   121  1073  1072   ar
   122  1973  1972    2
   123  1063  1074    1
   124  1940  1938    1
   125  2016  2015   ar
   126  2016  2017   ar
   127  1114  1113   ar
   128  1114  1109   ar
   129  1117  1118   ar
   130  1113  1112   ar
   131  1972  1974   ar
   132  1951  1949   ar
   133  1951  1952   ar
   134    55    54    1
   135  1950  1949    1
   136  2018  2017    2
   137    70    71    1
   138    70    72    1
   139    70    68    1
   140    71    76    1
   141  1992  1993    2
   142  1992  1994   ar
   143  1018  1017    1
   144  1074  1068   ar
   145  1072  1069   ar
   146  1109  1110   ar
   147  1958  1952   ar
   148  1958  1957   ar
   149    74    76    1
   150    74    72    1
   151  1099  1120    2
   152  1099  1119    1
   153  1099  1101    1
   154  1036  1041    1
   155  2015  2014   ar
   156    76    77    1
   157  1118  1112   ar
   158  1118  1108    1
   159    73    72    1
   160    73    87    1
   161  1112  1111   ar
   162    36    35    1
   163    59    58    2
   164  1949  1948   ar
   165  2017  2011   ar
   166  1977  1975   ar
   167  1938  1922    1
   168  1938  1960    1
   169  1995  1994   ar
   170  1995  1996    1
   171  1952  1953   ar
   172  1924  1923    1
   173  1041  1051    1
   174  1110  1111   ar
   175  1103  1108    1
   176  1103  1102    1
   177    88    90    1
   178    88    89    1
   179    68    69    1
   180   105    87    2
   181  1108  1106    1
   182    79    78    2
   183  1974  1975   ar
   184  1101  1100    1
   185  1069  1068   ar
   186  1069  1070   ar
   187  1068  1067   ar
   188  1922  1921    1
   189  1020  1019    1
   190    54    56    1
   191    54    52    1
   192    90    91    1
   193    90    92    1
   194  1957  1956   ar
   195    56    51    1
   196    56    57    1
   197  1975  1976    1
   198  1051  1050   ar
   199  1051  1045   ar
   200    87    89    1
   201    87   106    1
   202  1017  1019    1
   203  1017  1015    1
   204  1050  1049   ar
   205    91    96    1
   206  2014  2012   ar
   207    58    57   ar
   208    58    60   ar
   209    77    78   ar
   210    77    84   ar
   211  1948  1954   ar
   212  1923  1921    1
   213  1923  1925    1
   214  1137  1136    1
   215    35    34   ar
   216    35    37   ar
   217    78    80   ar
   218  1953  1956   ar
   219  1953  1954   ar
   220  2011  2012   ar
   221    51    50    1
   222  1019  1021    1
   223  1067  1065   ar
   224  1070  1071    2
   225  1070  1064   ar
   226    69    67    1
   227  1102  1100    1
   228  1102  1104    1
   229    50    52    1
   230    50    48    1
   231    95    94    1
   232  1015  1013    1
   233  1015  1016    1
   234    57    64   ar
   235  1921  1919    1
   236    53    52    1
   237    53    67    1
   238    34    40   ar
   239  1131  1136   ar
   240  1131  1132   ar
   241  1136  1135   ar
   242  1106  1107    1
   243  1106  1104    1
   244    93    92    1
   245    93   107    1
   246  2012  2013    1
   247    60    61   ar
   248  1954  1955    2
   249  1045  1044   ar
   250  1045  1046   ar
   251  1049  1046   ar
   252  1030  1012    2
   253    37    38   ar
   254  1013  1014    1
   255    96    94    1
   256    96    97    1
   257    92    94    1
   258    85    67    2
   259  1014  1012    1
   260    84    83   ar
   261  1044  1043   ar
   262  1928  1927   ar
   263  1928  1929   ar
   264  1927  1926   ar
   265  1065  1064   ar
   266  1065  1066    1
   267  1132  1133   ar
   268    80    81   ar
   269    67    86    1
   270  1925  1935    1
   271  1925  1920    1
   272  1046  1047   ar
   273  1135  1138   ar
   274  1135  1134   ar
   275  1104  1105    1
   276  1919  1920    1
   277  1919  1917    1
   278    13    12    1
   279  1138  1139   ar
   280   127   107    2
   281    48    49    1
   282  1012  1031    1
   283  1012   998    1
   284  1021  1016    1
   285  1021  1022    1
   286    64    63   ar
   287  1929  1935   ar
   288  1929  1930   ar
   289  1133  1134   ar
   290  1134  1140   ar
   291    40    41    2
   292    40    39   ar
   293  1043  1042   ar
   294  1926  1931   ar
   295    97   104   ar
   296    97    98   ar
   297   107   109    1
   298   107   128    1
   299    61    63   ar
   300    61    62    1
   301  1935  1934   ar
   302    32    31    1
   303    38    39   ar
   304    38    44   ar
   305    83    81   ar
   306  1047  1042   ar
   307  1047  1048    1
   308  1139  1140   ar
   309    11    12   ar
   310    11    17   ar
   311   104   103   ar
   312    81    82    2
   313   108   109    1
   314   108   110    1
   315    99    98    2
   316  1140  1130    1
   317  1917  1918    1
   318    12    14   ar
   319  1022  1029   ar
   320  1022  1023   ar
   321  1105  1121    1
   322    39    42   ar
   323    98   100   ar
   324    49    47    1
   325  1930  1931   ar
   326  1930  1933   ar
   327  1931  1932    1
   328   998   997    1
   329    31    33    1
   330    31    29    1
   331  1029  1028   ar
   332    18    17    2
   333  1175  1174    1
   334    33    44    1
   335    33    28    1
   336  1024  1023    2
   337  1934  1933   ar
   338    44    43   ar
   339  1918  1916    1
   340    17    16   ar
   341  1905  1904    1
   342  1023  1025   ar
   343   110   111    1
   344   110   112    1
   345  1130  1125    1
   346  1130  1128    1
   347  1155  1154    2
   348   111   116    1
   349   103   101   ar
   350  1125  1124    1
   351  1028  1026   ar
   352  1174  1176   ar
   353  1174  1173   ar
   354   100   101   ar
   355    14    15   ar
   356  1156  1154   ar
   357  1156  1157   ar
   358  1176  1177   ar
   359  1154  1153   ar
   360  1000   999    1
   361  1025  1026   ar
   362    42    43   ar
   363  1123  1121    1
   364  1123  1122    1
   365   101   102    2
   366  1142  1121    2
   367    28    27    1
   368  1121  1141    1
   369  1904  1903   ar
   370  1904  1906   ar
   371   997   999    1
   372   997   995    1
   373  1903  1909   ar
   374  1173  1179   ar
   375  1171  1170    1
   376  1026  1027    1
   377  1936  1916    2
   378    47    65    2
   379    47    30    1
   380    47    66    1
   381  1158  1157    2
   382    29    30    1
   383    29    27    1
   384  1916  1937    1
   385  1916  1899    1
   386    16    15   ar
   387    16    19   ar
   388   116   126    1
   389   116   114    1
   390  1157  1159   ar
   391   999  1001    1
   392  1128  1129    1
   393  1128  1126    1
   394    15    21   ar
   395  1177  1183   ar
   396  1177  1178   ar
   397  1172  1183    1
   398  1172  1170    1
   399  1172  1167    1
   400   112   113    1
   401   112   114    1
   402  1153  1152    1
   403  1153  1160   ar
   404    27    25    1
   405  1906  1907   ar
   406  1152  1147    1
   407  1152  1150    1
   408  1151  1150    1
   409   113   129    1
   410   115   114    1
   411   125   126   ar
   412   125   124   ar
   413  1124  1122    1
   414  1124  1126    1
   415  1183  1182   ar
   416  1179  1178   ar
   417  1179  1180    2
   418  1901  1900    1
   419   126   120   ar
   420  1909  1910    2
   421  1909  1908   ar
   422   995   993    1
   423   995   996    1
   424  1170  1168    1
   425  1011   992    2
   426  1178  1181   ar
   427  1194  1193    1
   428  1167  1166    1
   429  1190  1195    1
   430  1190  1189    1
   431  1159  1160   ar
   432  1899  1898    1
   433  1900  1898    1
   434  1900  1902    1
   435  1147  1146    1
   436   993   994    1
   437  1126  1127    1
   438  1195  1206    1
   439  1195  1193    1
   440  1198  1197    1
   441  1150  1148    1
   442   124   121   ar
   443  1907  1908   ar
   444  1907  1913   ar
   445    19    20   ar
   446   994   992    1
   447  1199  1197   ar
   448  1199  1200   ar
   449  1908  1911   ar
   450  1182  1181   ar
   451  1189  1187    1
   452  1189  1191    1
   453  1166  1168    1
   454  1166  1164    1
   455   120   121   ar
   456   120   119   ar
   457    21    20   ar
   458    21    10    1
   459  1197  1196   ar
   460  1898  1896    1
   461   148   129    2
   462   147   129    1
   463  1001   996    1
   464  1001  1002    1
   465   129   131    1
   466   121   122   ar
   467  1206  1200   ar
   468  1206  1205   ar
   469  1004  1003    2
   470  1193  1191    1
   471    25    26    1
   472  1200  1201   ar
   473   119   118   ar
   474   992   976    1
   475   992  1010    1
   476   978   977    1
   477  1187  1188    1
   478  1146  1148    1
   479  1146  1144    1
   480  1913  1902    1
   481  1913  1912   ar
   482  1168  1169    1
   483    26    24    1
   484  1902  1897    1
   485  1002  1003   ar
   486  1002  1009   ar
   487  1003  1005   ar
   488    10     8    1
   489    10     5    1
   490     8     9    1
   491     8     6    1
   492   976   975    1
   493  1196  1202   ar
   494  1911  1912   ar
   495  1164  1165    1
   496  1127  1143    1
   497  1205  1204   ar
   498  1148  1149    1
   499  1191  1192    1
   500  1169  1186    1
   501   122   123    1
   502   122   117   ar
   503  1201  1202   ar
   504  1201  1204   ar
   505   118   117   ar
   506  1009  1008   ar
   507  1005  1006   ar
   508  1202  1203    2
   509   131   130    1
   510  1192  1209    1
   511  1165  1163    1
   512  1188  1186    1
   513  1896  1897    1
   514  1896  1894    1
   515  1144  1145    1
   516  1804  1784    2
   517   130   132    1
   518  1149  1163    1
   519  1008  1006   ar
   520   975   977    1
   521   975   973    1
   522   977   979    1
   523  1006  1007    1
   524  1162  1143    2
   525  1145  1143    1
   526    46    24    2
   527     6     7    1
   528     6     4    1
   529    24     7    1
   530    24    45    1
   531  1143  1161    1
   532     5     4    1
   533  1186  1207    2
   534  1186  1208    1
   535    23     1    1
   536  1894  1895    1
   537  1163  1185    2
   538  1163  1184    1
   539   133   132    1
   540   133   138    1
   541  1895  1893    1
   542   979   989    1
   543   979   974    1
   544  1782  1762    2
   545   145   146   ar
   546   145   143   ar
   547   132   134    1
   548   146   139   ar
   549  1888  1887    2
   550     4     2    1
   551  1209  1227    2
   552  1209  1211    1
   553  1209  1228    1
   554   982   981   ar
   555   982   983   ar
   556  1217  1216    1
   557  1784  1768    1
   558  1784  1805    1
   559  1784  1786    1
   560  1218  1213    1
   561  1218  1219    1
   562  1218  1216    1
   563   973   974    1
   564   973   971    1
   565  1213  1212    1
   566  1221  1220    2
   567  1915  1893    2
   568  1211  1210    1
   569     3     1    1
   570     3     2    1
   571  1886  1887   ar
   572  1886  1884   ar
   573   981   980   ar
   574   989   983   ar
   575   989   988   ar
   576  1763  1764    1
   577  1763  1765    1
   578  1768  1767    1
   579   144   143    2
   580   143   142   ar
   581   983   984   ar
   582  1887  1889   ar
   583  1893  1914    1
   584  1893  1879    1
   585     1    22    1
   586  1219  1220   ar
   587  1219  1226   ar
   588   139   138    1
   589   139   140   ar
   590  1212  1210    1
   591  1212  1214    1
   592  1885  1884    2
   593  1220  1222   ar
   594   138   136    1
   595  1827  1806    2
   596  1764  1762    1
   597  1216  1214    1
   598  1785  1786    1
   599  1785  1787    1
   600  1884  1883   ar
   601  1762  1745    1
   602  1762  1783    1
   603   971   972    1
   604  1826  1806    1
   605   988   987   ar
   606   134   135    1
   607   134   136    1
   608   980   985   ar
   609  1226  1225   ar
   610  1765  1767    1
   611  1765  1766    1
   612  1222  1223   ar
   613   142   140   ar
   614   984   985   ar
   615   984   987   ar
   616  1747  1746    1
   617  1745  1744    1
   618   140   141    2
   619  1867  1866    1
   620  1767  1769    1
   621   972   970    1
   622  1806  1790    1
   623  1806  1808    1
   624   985   986    1
   625  1889  1890   ar
   626  1214  1215    1
   627   135   149    1
   628  1225  1223   ar
   629   136   137    1
   630  1223  1224    2
   631  1883  1890   ar
   632  1883  1882    1
   633  1880  1878    1
   634  1880  1881    1
   635  1880  1882    1
   636  1879  1878    1
   637  1787  1789    1
   638  1787  1788    1
   639  1215  1229    1
   640  1770  1769    1
   641  1878  1876    1
   642   168   149    2
   643  1790  1789    1
   644  1866  1861   ar
   645  1866  1865   ar
   646  1766  1771    1
   647  1744  1742    1
   648  1744  1746    1
   649   990   970    2
   650  1742  1740    1
   651  1742  1743    1
   652  1746  1748    1
   653  1769  1771    1
   654  1882  1877    1
   655   149   167    1
   656   149   151    1
   657   970   991    1
   658   970   954    1
   659  1861  1862   ar
   660  1789  1791    1
   661  1808  1807    1
   662  1850  1828    2
   663  1740  1741    1
   664  1788  1793    1
   665   956   955    1
   666   164   163    1
   667  1865  1868   ar
   668  1865  1864   ar
   669  1868  1869   ar
   670  1845  1844    2
   671  1771  1781    1
   672   165   163   ar
   673   165   166   ar
   674  1233  1238    1
   675  1233  1232    1
   676  1760  1739    2
   677  1743  1748    1
   678   955   953    1
   679   955   957    1
   680  1807  1809    1
   681   959   958   ar
   682   959   960   ar
   683  1748  1759    1
   684  1862  1863   ar
   685  1876  1877    1
   686  1876  1874    1
   687  1229  1250    2
   688  1229  1231    1
   689  1229  1251    1
   690  1849  1828    1
   691   163   162   ar
   692  1230  1232    1
   693  1230  1231    1
   694   958   963   ar
   695   960   961   ar
   696  1238  1249    1
   697  1238  1236    1
   698  1892  1873    2
   699  1232  1234    1
   700  1875  1874    1
   701  1875  1873    1
   702   151   150    1
   703   954   953    1
   704  1828  1812    1
   705  1828  1830    1
   706   166   159   ar
   707  1741  1739    1
   708  1248  1249   ar
   709  1248  1247   ar
   710  1872  1851    2
   711  1802  1803   ar
   712  1802  1801   ar
   713  1791  1793    1
   714  1791  1792    1
   715  1864  1863   ar
   716  1864  1870   ar
   717  1249  1243   ar
   718  1869  1870   ar
   719  1846  1843   ar
   720  1846  1847   ar
   721  1844  1843   ar
   722  1844  1838   ar
   723   963   964    1
   724   963   962   ar
   725   961   962   ar
   726   961   967   ar
   727   953   951    1
   728  1793  1803    1
   729  1237  1236    1
   730  1781  1780   ar
   731  1781  1775   ar
   732  1247  1244   ar
   733  1823  1824   ar
   734  1823  1820   ar
   735   962   965   ar
   736   150   152    1
   737   957   967    1
   738   957   952    1
   739  1739  1725    1
   740  1739  1761    1
   741  1509  1508    1
   742   162   160   ar
   743   967   966   ar
   744  1873  1891    1
   745  1873  1857    1
   746  1243  1244   ar
   747  1243  1242   ar
   748  1824  1825   ar
   749  1843  1842   ar
   750  1727  1726    1
   751  1803  1797   ar
   752  1812  1811    1
   753  1801  1798   ar
   754  1870  1860    1
   755  1244  1245   ar
   756  1780  1779   ar
   757  1830  1829    1
   758   159   160   ar
   759   159   158    1
   760  1759  1753   ar
   761  1759  1758   ar
   762  1236  1234    1
   763  1809  1811    1
   764  1809  1810    1
   765   153   152    1
   766   153   158    1
   767  1242  1240   ar
   768  1838  1839   ar
   769  1725  1724    1
   770  1811  1813    1
   771  1847  1848   ar
   772   965   966   ar
   773  1752  1753   ar
   774  1752  1750   ar
   775  1487  1486    1
   776   160   161    2
   777  1234  1235    1
   778  1822  1821    1
   779  1245  1246    2
   780  1245  1239   ar
   781  1504  1505    1
   782  1504  1502    1
   783  1504  1506    1
   784  1240  1239   ar
   785  1240  1241    1
   786  1851  1871    1
   787  1851  1853    1
   788  1851  1834    1
   789  1775  1774   ar
   790  1775  1776   ar
   791  1774  1773   ar
   792  1810  1815    1
   793  1751  1750    1
   794  1753  1754   ar
   795  1505  1510    1
   796   152   154    1
   797  1820  1821   ar
   798  1820  1819   ar
   799   158   156    1
   800  1856  1858    1
   801  1856  1857    1
   802  1856  1854    1
   803   951   952    1
   804   951   949    1
   805  1858  1860    1
   806  1858  1859    1
   807  1726  1724    1
   808  1726  1728    1
   809  1758  1757   ar
   810  1842  1848   ar
   811  1842  1841   ar
   812  1508  1510    1
   813  1508  1506    1
   814  1825  1815    1
   815  1825  1819   ar
   816  1853  1852    1
   817  1750  1749   ar
   818  1507  1506    1
   819  1507  1524    1
   820  1235  1252    1
   821  1510  1521    1
   822  1502  1503    1
   823  1798  1797   ar
   824  1798  1799   ar
   825  1797  1796   ar
   826  1821  1816   ar
   827  1860  1855    1
   828  1848  1837    1
   829  1839  1841   ar
   830  1839  1840    1
   831  1829  1831    1
   832  1779  1776   ar
   833  1724  1722    1
   834  1371  1370    2
   835  1833  1834    1
   836  1833  1831    1
   837  1833  1835    1
   838  1815  1813    1
   839  1813  1814    1
   840  1486  1488    1
   841  1486  1484    1
   842   943   942    1
   843   154   156    1
   844   154   155    1
   845  1819  1818   ar
   846  1776  1777   ar
   847  1467  1466    1
   848  1488  1483    1
   849  1488  1498    1
   850  1482  1483    1
   851  1482  1484    1
   852  1482  1480    1
   853  1542  1524    2
   854  1773  1772   ar
   855  1855  1854    1
   856   950   949    1
   857   950   948    1
   858  1491  1490   ar
   859  1491  1492   ar
   860  1754  1757   ar
   861  1754  1755   ar
   862  1722  1720    1
   863  1722  1723    1
   864  1852  1854    1
   865  1525  1527    1
   866  1525  1526    1
   867   941   942   ar
   868   941   939   ar
   869  1831  1832    1
   870  1471  1470    2
   871  1796  1795   ar
   872   189   169    2
   873  1485  1484    1
   874  1485  1501    1
   875   156   157    1
   876  1832  1837    1
   877  1490  1489   ar
   878  1728  1723    1
   879  1728  1729    1
   880  1731  1730    2
   881  1370  1372   ar
   882  1370  1369   ar
   883  1799  1800    1
   884  1799  1794   ar
   885  1837  1835    1
   886  1835  1836    1
   887  1503  1501    1
   888   942   944   ar
   889  1524  1526    1
   890  1524  1543    1
   891  1749  1755   ar
   892  1816  1817   ar
   893   969   948    2
   894  1521  1515   ar
   895  1521  1520   ar
   896  1528  1527    1
   897  1528  1533    1
   898   940   939    2
   899  1527  1529    1
   900   201   202   ar
   901   201   206   ar
   902   185   184    1
   903   207   206    1
   904  1252  1271    2
   905  1252  1270    1
   906  1252  1254    1
   907  1480  1481    1
   908  1514  1515   ar
   909  1514  1512   ar
   910   155   169    1
   911  1372  1373   ar
   912  1522  1501    2
   913   939   938   ar
   914  1498  1492   ar
   915  1498  1497   ar
   916  1818  1817   ar
   917  1720  1721    1
   918  1468  1466    1
   919  1468  1463    1
   920  1468  1469    1
   921   948   968    1
   922   948   934    1
   923  1492  1493   ar
   924  1777  1772   ar
   925  1777  1778    1
   926  1755  1756    2
   927  1466  1464    1
   928   202   203   ar
   929  1256  1261    1
   930  1256  1255    1
   931   206   205   ar
   932  1501  1523    1
   933  1267  1266    1
   934  1369  1367   ar
   935  1268  1266   ar
   936  1268  1269   ar
   937   186   187   ar
   938   186   183   ar
   939  1730  1729   ar
   940  1730  1732   ar
   941  1515  1516   ar
   942  1795  1794   ar
   943  1470  1469   ar
   944  1470  1472   ar
   945   169   190    1
   946   169   171    1
   947  1266  1265   ar
   948  1269  1262   ar
   949  1729  1736   ar
   950  1254  1253    1
   951   225   224    1
   952  1513  1512    1
   953  1520  1519   ar
   954  1463  1462    1
   955  1253  1255    1
   956   944   945   ar
   957  1489  1494   ar
   958  1532  1531    1
   959  1265  1263   ar
   960  1262  1263   ar
   961  1262  1261    1
   962  1512  1511   ar
   963  1263  1264    2
   964   203   204   ar
   965  1261  1259    1
   966  1469  1476   ar
   967  1533  1531    1
   968  1533  1534    1
   969   205   204   ar
   970   205   208   ar
   971   184   183   ar
   972   184   179   ar
   973  1481  1479    1
   974   938   945   ar
   975   938   937    1
   976  1373  1366   ar
   977   187   188   ar
   978   880   862    2
   979  1255  1257    1
   980  1462  1464    1
   981  1462  1460    1
   982  1472  1473   ar
   983   183   182   ar
   984  1529  1530    1
   985  1529  1531    1
   986   947   928    2
   987  1497  1496   ar
   988   204   210   ar
   989  1721  1719    1
   990  1732  1733   ar
   991  1493  1494   ar
   992  1493  1496   ar
   993   935   933    1
   994   935   937    1
   995   935   936    1
   996  1465  1464    1
   997  1465  1479    1
   998   224   223   ar
   999   224   226   ar
  1000  1530  1544    1
  1001  1367  1366   ar
  1002  1367  1368    2
  1003   933   934    1
  1004   933   931    1
  1005  1736  1735   ar
  1006   922   921    2
  1007   208   209   ar
  1008  1494  1495    1
  1009   171   170    1
  1010  1516  1519   ar
  1011  1516  1517   ar
  1012   223   229   ar
  1013   860   842    2
  1014  1541  1534   ar
  1015  1541  1540   ar
  1016  1366  1365    1
  1017   903   882    2
  1018  1499  1479    2
  1019   226   227   ar
  1020  1534  1535   ar
  1021   937   932    1
  1022  1737  1719    2
  1023   927   905    2
  1024  1479  1500    1
  1025   210   209   ar
  1026   210   200    1
  1027  1511  1517   ar
  1028  1476  1475   ar
  1029   921   915   ar
  1030   921   920   ar
  1031   179   180   ar
  1032   930   928    1
  1033   930   929    1
  1034   904   882    1
  1035   915   916   ar
  1036   510   511   ar
  1037   510   515   ar
  1038   928   946    1
  1039   928   911    1
  1040  1259  1260    1
  1041  1259  1257    1
  1042  1733  1735   ar
  1043  1733  1734    2
  1044  1473  1475   ar
  1045  1473  1474    1
  1046   881   862    1
  1047  1460  1461    1
  1048   862   848    1
  1049   862   864    1
  1050   511   512   ar
  1051   188   182   ar
  1052   188   178    1
  1053  1257  1258    1
  1054  1719  1738    1
  1055  1719  1705    1
  1056   229   230    2
  1057   229   228   ar
  1058   182   181   ar
  1059  1565  1544    2
  1060   516   515    1
  1061  1517  1518    2
  1062  1707  1706    1
  1063   200   195    1
  1064   200   198    1
  1065  1540  1538   ar
  1066  1544  1566    1
  1067  1544  1546    1
  1068   515   514   ar
  1069   176   174    1
  1070   176   177    1
  1071   176   178    1
  1072   920   923   ar
  1073   920   919   ar
  1074   882   884    1
  1075   882   868    1
  1076  1360  1365    1
  1077  1360  1359    1
  1078   227   228   ar
  1079   227   233   ar
  1080  1374  1356    2
  1081   931   932    1
  1082   931   929    1
  1083   923   924   ar
  1084   170   172    1
  1085   916   917    1
  1086   916   918   ar
  1087  1365  1363    1
  1088  1535  1536    2
  1089  1535  1537   ar
  1090   512   513   ar
  1091   848   847    1
  1092   174   172    1
  1093   174   175    1
  1094   842   861    1
  1095   842   828    1
  1096   842   844    1
  1097   228   231   ar
  1098  1711  1710    2
  1099   905   926    1
  1100   905   907    1
  1101   905   888    1
  1102   247   246   ar
  1103   247   248   ar
  1104   195   194    1
  1105  1705  1704    1
  1106   180   181   ar
  1107   864   863    1
  1108   919   918   ar
  1109   919   925   ar
  1110  1706  1704    1
  1111  1706  1708    1
  1112   514   513   ar
  1113   514   517   ar
  1114   178   173    1
  1115   233   222    1
  1116   233   232   ar
  1117   222   217    1
  1118   222   220    1
  1119  1258  1272    1
  1120   884   883    1
  1121  1461  1459    1
  1122   246   251   ar
  1123   863   865    1
  1124   513   519   ar
  1125   924   925   ar
  1126   828   827    1
  1127   907   906    1
  1128   198   199    1
  1129   198   196    1
  1130   840   822    2
  1131   910   911    1
  1132   910   912    1
  1133   910   908    1
  1134   217   216    1
  1135   843   844    1
  1136   843   845    1
  1137  1538  1537   ar
  1138  1538  1539    1
  1139   172   173    1
  1140  1545  1546    1
  1141  1545  1547    1
  1142  1357  1358    1
  1143  1357  1359    1
  1144   868   867    1
  1145  1453  1452    2
  1146   925   914    1
  1147   248   249   ar
  1148   175   191    1
  1149   912   913    1
  1150   912   914    1
  1151   231   232   ar
  1152  1358  1356    1
  1153  1287  1286    1
  1154  1359  1361    1
  1155   517   518   ar
  1156  1356  1342    1
  1157  1356  1375    1
  1158   221   220    1
  1159  1710  1712   ar
  1160  1710  1709   ar
  1161  1704  1702    1
  1162   847   845    1
  1163   847   849    1
  1164  1363  1364    1
  1165  1363  1361    1
  1166  1442  1459    1
  1167  1442  1441    1
  1168   519   518   ar
  1169   519   509    1
  1170   906   908    1
  1171  1452  1451   ar
  1172  1452  1446   ar
  1173   888   887    1
  1174   823   825    1
  1175   823   824    1
  1176  1712  1713   ar
  1177  1454  1451   ar
  1178  1454  1455   ar
  1179   845   846    1
  1180  1348  1347    2
  1181   220   218    1
  1182   509   504    1
  1183   509   507    1
  1184  1708  1709    1
  1185  1708  1703    1
  1186   867   865    1
  1187   867   869    1
  1188  1286  1288   ar
  1189  1286  1285   ar
  1190   899   898    2
  1191   534   533    2
  1192   251   252    1
  1193   251   250   ar
  1194  1291  1272    2
  1195   883   885    1
  1196   194   196    1
  1197   194   192    1
  1198  1451  1450   ar
  1199  1288  1289   ar
  1200   914   909    1
  1201   865   866    1
  1202   887   885    1
  1203   887   889    1
  1204  1446  1447   ar
  1205   908   909    1
  1206  1459  1478    2
  1207  1459  1477    1
  1208  1272  1290    1
  1209  1272  1274    1
  1210  1548  1547    1
  1211  1548  1553    1
  1212   900   901   ar
  1213   900   897   ar
  1214  1547  1549    1
  1215   216   218    1
  1216   216   214    1
  1217   196   197    1
  1218   827   825    1
  1219   827   829    1
  1220  1441  1443    1
  1221  1441  1439    1
  1222  1342  1341    1
  1223  1443  1444    1
  1224  1443  1445    1
  1225  1455  1456   ar
  1226  1709  1716   ar
  1227   822   824    1
  1228   822   841    1
  1229   822   806    1
  1230   504   503    1
  1231   825   826    1
  1232  1361  1362    1
  1233   249   250   ar
  1234   249   255   ar
  1235  1285  1283   ar
  1236   898   897   ar
  1237   898   892   ar
  1238   193   191    1
  1239   193   192    1
  1240  1458  1436    2
  1241   533   535   ar
  1242   533   532   ar
  1243   901   902   ar
  1244  1450  1456   ar
  1245  1450  1449   ar
  1246   508   507    1
  1247  1702  1703    1
  1248  1702  1700    1
  1249  1447  1448    1
  1250  1447  1449   ar
  1251  1289  1282   ar
  1252   897   896   ar
  1253   535   536   ar
  1254   191   211    2
  1255   191   212    1
  1256  1456  1445    1
  1257   849   850    1
  1258   849   851    1
  1259   830   829    1
  1260   250   253   ar
  1261  1344  1343    1
  1262   885   886    1
  1263  1688  1687    1
  1264  1713  1714    2
  1265  1713  1715   ar
  1266  1273  1274    1
  1267  1273  1275    1
  1268   218   219    1
  1269   878   879   ar
  1270   878   876   ar
  1271   507   505    1
  1272   214   215    1
  1273   879   872   ar
  1274   889   891    1
  1275   889   890    1
  1276  1347  1349   ar
  1277  1347  1346   ar
  1278   531   532    1
  1279   531   526    1
  1280   531   529    1
  1281  1283  1282   ar
  1282  1283  1284    2
  1283  1276  1275    1
  1284  1276  1281    1
  1285   892   893   ar
  1286   532   539   ar
  1287  1282  1281    1
  1288   829   831    1
  1289   526   525    1
  1290   846   851    1
  1291  1362  1376    1
  1292   902   896   ar
  1293   902   891    1
  1294   866   871    1
  1295  1563  1564   ar
  1296  1563  1562   ar
  1297   197   213    1
  1298   896   895   ar
  1299   536   537    1
  1300   536   538   ar
  1301  1445  1440    1
  1302   240   245    1
  1303   240   239    1
  1304   806   805    1
  1305  1716  1715   ar
  1306   245   255    1
  1307   245   243    1
  1308   255   254   ar
  1309   869   870    1
  1310   869   871    1
  1311  1686  1687   ar
  1312  1686  1692   ar
  1313  1438  1436    1
  1314  1438  1437    1
  1315  1345  1343    1
  1316  1345  1346    1
  1317  1345  1340    1
  1318  1553  1564    1
  1319  1553  1551    1
  1320  1435  1416    2
  1321  1349  1350   ar
  1322  1341  1343    1
  1323  1341  1339    1
  1324  1549  1550    1
  1325  1549  1551    1
  1326   886   891    1
  1327   503   505    1
  1328   503   501    1
  1329  1431  1430    2
  1330  1436  1457    1
  1331  1436  1422    1
  1332  1687  1689   ar
  1333  1414  1396    2
  1334  1439  1437    1
  1335  1439  1440    1
  1336   521   500    2
  1337   893   895   ar
  1338   893   894    1
  1339   530   529    1
  1340  1415  1396    1
  1341   826   831    1
  1342  1589  1567    2
  1343   219   236    1
  1344  1275  1277    1
  1345   215   213    1
  1346  1564  1558   ar
  1347   539   538   ar
  1348  1700  1701    1
  1349  1693  1692    2
  1350  1281  1279    1
  1351  1562  1559   ar
  1352   851   852    1
  1353   502   501    1
  1354   502   500    1
  1355  1550  1567    1
  1356  1346  1353   ar
  1357   877   876    1
  1358   859   852   ar
  1359   859   858   ar
  1360   876   875   ar
  1361   871   872    1
  1362   253   254   ar
  1363   872   873   ar
  1364  1395  1376    2
  1365  1434  1416    1
  1366  1340  1339    1
  1367  1692  1691   ar
  1368  1430  1432   ar
  1369  1430  1429   ar
  1370   529   527    1
  1371   244   243    1
  1372   505   506    1
  1373  1339  1337    1
  1374  1701  1699    1
  1375  1376  1394    1
  1376  1376  1378    1
  1377   525   523    1
  1378   525   527    1
  1379  1551  1552    1
  1380   831   832    1
  1381   213   235    2
  1382   213   234    1
  1383   239   237    1
  1384   239   241    1
  1385  1432  1433   ar
  1386  1416  1418    1
  1387  1416  1402    1
  1388  1396  1398    1
  1389  1396  1382    1
  1390   852   853   ar
  1391   243   241    1
  1392  1429  1427   ar
  1393   858   856   ar
  1394  1567  1588    1
  1395  1567  1569    1
  1396   820   800    2
  1397  1689  1690   ar
  1398   500   483    1
  1399   500   520    1
  1400   805   803    1
  1401   805   807    1
  1402  1418  1417    1
  1403  1558  1559   ar
  1404  1558  1557   ar
  1405  1559  1560   ar
  1406   808   807    1
  1407  1350  1351    2
  1408  1350  1352   ar
  1409   237   238    1
  1410   523   524    1
  1411  1422  1421    1
  1412  1277  1279    1
  1413  1277  1278    1
  1414   875   873   ar
  1415  1421  1423    1
  1416  1421  1419    1
  1417  1433  1426   ar
  1418   873   874    2
  1419   506   522    1
  1420   839   832   ar
  1421   839   838   ar
  1422  1427  1426   ar
  1423  1427  1428    2
  1424   527   528    1
  1425   832   833   ar
  1426   801   803    1
  1427   801   802    1
  1428  1279  1280    1
  1429  1691  1690   ar
  1430  1691  1694   ar
  1431   238   236    1
  1432   803   804    1
  1433  1353  1352   ar
  1434   236   257    2
  1435   236   256    1
  1436  1423  1424    1
  1437  1423  1425    1
  1438   483   482    1
  1439  1690  1696   ar
  1440   241   242    1
  1441  1426  1425    1
  1442  1398  1397    1
  1443  1378  1377    1
  1444  1382  1381    1
  1445   807   809    1
  1446   524   522    1
  1447   853   854    2
  1448   853   855   ar
  1449  1699  1717    2
  1450  1699  1718    1
  1451  1699  1682    1
  1452  1337  1338    1
  1453   856   855   ar
  1454   856   857    1
  1455  1557  1555   ar
  1456   498   477    2
  1457  1584  1583    2
  1458   557   556    2
  1459  1402  1401    1
  1460  1585  1586   ar
  1461  1585  1582   ar
  1462  1377  1379    1
  1463  1417  1419    1
  1464  1560  1561    2
  1465  1560  1554   ar
  1466  1569  1568    1
  1467   838   836   ar
  1468   556   558   ar
  1469   556   555   ar
  1470   558   559   ar
  1471   275   274    2
  1472   802   800    1
  1473   546   551    1
  1474   546   545    1
  1475   800   821    1
  1476   800   784    1
  1477   555   553   ar
  1478  1397  1399    1
  1479   528   542    1
  1480   559   552   ar
  1481  1278  1292    1
  1482   833   834    2
  1483   833   835   ar
  1484  1334  1314    2
  1485  1425  1420    1
  1486  1684  1683    1
  1487  1683  1681    1
  1488  1683  1685    1
  1489  1694  1695   ar
  1490  1381  1379    1
  1491  1381  1383    1
  1492  1419  1420    1
  1493   242   258    1
  1494   553   552   ar
  1495   553   554    2
  1496   552   551    1
  1497  1338  1336    1
  1498   522   540    2
  1499   522   541    1
  1500  1401  1399    1
  1501  1401  1403    1
  1502  1586  1587   ar
  1503  1335  1314    1
  1504   551   549    1
  1505  1696  1695   ar
  1506  1696  1685    1
  1507  1555  1554   ar
  1508  1555  1556    1
  1509   804   809    1
  1510  1682  1681    1
  1511   274   268   ar
  1512   274   273   ar
  1513  1412  1413   ar
  1514  1412  1410   ar
  1515  1583  1582   ar
  1516  1583  1577   ar
  1517  1379  1380    1
  1518  1411  1410    1
  1519   268   269   ar
  1520  1582  1581   ar
  1521   836   835   ar
  1522   836   837    1
  1523   482   480    1
  1524   482   484    1
  1525   809   819    1
  1526   784   783    1
  1527  1681  1679    1
  1528   478   480    1
  1529   478   479    1
  1530  1568  1570    1
  1531   543   545    1
  1532   543   544    1
  1533  1314  1298    1
  1534  1314  1316    1
  1535  1399  1400    1
  1536  1685  1680    1
  1537  1413  1406   ar
  1538  1410  1409   ar
  1539   545   547    1
  1540   485   484    1
  1541   477   479    1
  1542   477   499    1
  1543   477   460    1
  1544  1312  1292    2
  1545   480   481    1
  1546   273   276   ar
  1547   273   272   ar
  1548   544   542    1
  1549  1403  1405    1
  1550  1403  1404    1
  1551  1292  1313    1
  1552  1292  1294    1
  1553  1383  1384    1
  1554  1383  1385    1
  1555   269   270    1
  1556   269   271   ar
  1557   276   277   ar
  1558   484   486    1
  1559  1355  1336    2
  1560   786   785    1
  1561   542   560    2
  1562   542   561    1
  1563  1587  1581   ar
  1564  1587  1576    1
  1565   315   314    1
  1566   819   818   ar
  1567   819   813   ar
  1568   338   337    1
  1569  1571  1570    1
  1570  1571  1576    1
  1571  1336  1354    1
  1572  1336  1320    1
  1573  1298  1297    1
  1574   550   549    1
  1575  1409  1407   ar
  1576  1406  1407   ar
  1577  1406  1405    1
  1578   258   279    2
  1579   258   280    1
  1580   258   260    1
  1581   549   547    1
  1582  1577  1578   ar
  1583  1581  1580   ar
  1584   460   459    1
  1585  1611  1590    2
  1586  1380  1385    1
  1587  1671  1670    1
  1588  1393  1392   ar
  1589  1393  1386   ar
  1590  1400  1405    1
  1591  1392  1390   ar
  1592   818   817   ar
  1593  1570  1572    1
  1594   272   271   ar
  1595   272   278   ar
  1596  1316  1315    1
  1597   812   813   ar
  1598   812   811   ar
  1599  1293  1294    1
  1600  1293  1295    1
  1601   259   260    1
  1602   259   261    1
  1603   783   785    1
  1604   783   781    1
  1605   313   314   ar
  1606   313   319   ar
  1607  1407  1408    2
  1608   813   814   ar
  1609   785   787    1
  1610  1680  1679    1
  1611  1679  1677    1
  1612   547   548    1
  1613   277   278   ar
  1614   314   316   ar
  1615  1320  1319    1
  1616   337   336   ar
  1617   337   339   ar
  1618  1385  1386    1
  1619   579   578    2
  1620   336   342   ar
  1621  1576  1574    1
  1622  1669  1670   ar
  1623  1669  1667   ar
  1624  1386  1387   ar
  1625  1297  1295    1
  1626  1297  1299    1
  1627  1315  1317    1
  1628  1572  1574    1
  1629  1572  1573    1
  1630   320   319    2
  1631   481   486    1
  1632  1390  1391    1
  1633  1390  1389   ar
  1634  1319  1317    1
  1635  1319  1321    1
  1636   278   267    1
  1637   262   261    1
  1638   262   267    1
  1639   572   578   ar
  1640   572   573   ar
  1641  1670  1672   ar
  1642   578   577   ar
  1643   319   318   ar
  1644   817   814   ar
  1645   811   810   ar
  1646  1633  1612    2
  1647  1678  1677    1
  1648  1678  1676    1
  1649   486   497    1
  1650   814   815   ar
  1651  1578  1580   ar
  1652  1578  1579    1
  1653   462   461    1
  1654   574   573    1
  1655  1331  1332   ar
  1656  1331  1328   ar
  1657   781   779    1
  1658   781   782    1
  1659  1632  1612    1
  1660  1668  1667    2
  1661   573   575   ar
  1662   316   317   ar
  1663   343   342    2
  1664  1295  1296    1
  1665   261   263    1
  1666   339   340   ar
  1667   342   341   ar
  1668  1387  1389   ar
  1669  1387  1388    2
  1670   577   580   ar
  1671   577   576   ar
  1672  1332  1333   ar
  1673   459   461    1
  1674   459   457    1
  1675  1667  1666   ar
  1676   475   454    2
  1677  1574  1575    1
  1678  1590  1573    1
  1679  1590  1592    1
  1680  1590  1610    1
  1681   580   581   ar
  1682  1317  1318    1
  1683  1330  1329    1
  1684   548   562    1
  1685   575   576   ar
  1686   810   815   ar
  1687   576   582   ar
  1688   798   778    2
  1689   779   780    1
  1690   267   265    1
  1691  1698  1676    2
  1692  1321  1322    1
  1693  1321  1323    1
  1694   815   816    1
  1695   318   317   ar
  1696   318   321   ar
  1697   497   496   ar
  1698   497   491   ar
  1699  1612  1596    1
  1700  1612  1614    1
  1701   461   463    1
  1702   317   323   ar
  1703   787   782    1
  1704   787   797    1
  1705  1328  1329   ar
  1706  1328  1327   ar
  1707   496   495   ar
  1708   581   582   ar
  1709   780   778    1
  1710   340   341   ar
  1711   340   346   ar
  1712  1299  1300    1
  1713  1299  1301    1
  1714  1672  1673   ar
  1715   457   455    1
  1716   457   458    1
  1717   341   344   ar
  1718   582   571    1
  1719  1329  1324   ar
  1720  1676  1697    1
  1721  1676  1662    1
  1722   455   456    1
  1723  1333  1327   ar
  1724  1333  1323    1
  1725  1592  1591    1
  1726  1591  1593    1
  1727   790   789   ar
  1728   790   791   ar
  1729   566   571    1
  1730   566   565    1
  1731  1296  1301    1
  1732   361   360    2
  1733   357   356    1
  1734  1318  1323    1
  1735   491   490   ar
  1736   491   492   ar
  1737  1327  1326   ar
  1738   778   799    1
  1739   778   762    1
  1740   797   791   ar
  1741   797   796   ar
  1742   571   569    1
  1743   789   788   ar
  1744  1310  1309   ar
  1745  1310  1311   ar
  1746  1666  1673   ar
  1747  1666  1665    1
  1748   321   322   ar
  1749   265   263    1
  1750   265   266    1
  1751   791   792   ar
  1752   490   488   ar
  1753   495   492   ar
  1754   263   264    1
  1755  1596  1595    1
  1756   323   322   ar
  1757   323   312    1
  1758   358   359    1
  1759   358   353    1
  1760   358   356    1
  1761   584   562    2
  1762   346   335    1
  1763   346   345   ar
  1764   456   454    1
  1765   454   476    1
  1766   454   437    1
  1767  1301  1311    1
  1768  1309  1306   ar
  1769  1324  1325   ar
  1770   344   345   ar
  1771   360   359   ar
  1772   360   362   ar
  1773   602   601    2
  1774  1663  1661    1
  1775  1663  1664    1
  1776  1663  1665    1
  1777   562   564    1
  1778   562   583    1
  1779   334   333    1
  1780   492   493   ar
  1781  1311  1305   ar
  1782  1614  1613    1
  1783   796   795   ar
  1784  1655  1634    2
  1785   335   333    1
  1786   335   330    1
  1787   595   601   ar
  1788   595   596   ar
  1789   597   596    1
  1790   788   793   ar
  1791  1593  1595    1
  1792  1593  1594    1
  1793   312   307    1
  1794   312   310    1
  1795   359   366   ar
  1796   601   600   ar
  1797  1661  1662    1
  1798  1661  1659    1
  1799  1326  1325   ar
  1800   463   458    1
  1801   463   474    1
  1802   353   352    1
  1803   356   354    1
  1804  1650  1649    1
  1805   792   795   ar
  1806   792   793   ar
  1807   563   565    1
  1808   563   564    1
  1809   362   363   ar
  1810   596   598   ar
  1811   488   489    1
  1812   488   487   ar
  1813  1595  1597    1
  1814   301   281    2
  1815   565   567    1
  1816   333   331    1
  1817  1665  1660    1
  1818   793   794    1
  1819  1613  1615    1
  1820   264   281    1
  1821  1306  1305   ar
  1822  1306  1307   ar
  1823  1305  1304   ar
  1824   600   599   ar
  1825   600   603   ar
  1826   493   487   ar
  1827   493   494    2
  1828   437   436    1
  1829   598   599   ar
  1830   366   365   ar
  1831   307   306    1
  1832   762   761    1
  1833   363   365   ar
  1834   363   364    2
  1835   599   605   ar
  1836   603   604   ar
  1837   569   567    1
  1838   569   570    1
  1839   311   310    1
  1840   474   468   ar
  1841   474   473   ar
  1842   330   329    1
  1843   310   308    1
  1844  1651  1648   ar
  1845  1651  1652   ar
  1846  1308  1307    1
  1847  1307  1302   ar
  1848   352   354    1
  1849   352   350    1
  1850   467   468   ar
  1851   467   465   ar
  1852   281   302    1
  1853   281   283    1
  1854  1304  1303   ar
  1855   604   605   ar
  1856   377   376    1
  1857  1649  1648   ar
  1858  1649  1644   ar
  1859  1634  1618    1
  1860  1634  1654    1
  1861  1634  1636    1
  1862   605   594    1
  1863   567   568    1
  1864  1594  1599    1
  1865   468   469   ar
  1866   439   438    1
  1867   373   378    1
  1868   373   372    1
  1869   473   472   ar
  1870  1660  1659    1
  1871  1659  1657    1
  1872   354   355    1
  1873  1658  1657    1
  1874  1658  1656    1
  1875   466   465    1
  1876   465   464   ar
  1877  1648  1647   ar
  1878   378   376    1
  1879   378   379    1
  1880  1302  1303   ar
  1881  1618  1617    1
  1882  1597  1598    1
  1883  1597  1599    1
  1884   761   763    1
  1885   761   759    1
  1886  1675  1656    2
  1887   594   589    1
  1888   594   592    1
  1889  1615  1617    1
  1890  1615  1616    1
  1891   372   370    1
  1892   372   374    1
  1893  1617  1619    1
  1894   331   329    1
  1895   331   332    1
  1896  1652  1653   ar
  1897  1629  1630   ar
  1898  1629  1626   ar
  1899  1630  1631   ar
  1900   764   763    1
  1901   436   438    1
  1902   436   434    1
  1903   329   327    1
  1904   763   765    1
  1905   355   369    1
  1906   469   472   ar
  1907   469   470   ar
  1908   767   766   ar
  1909   767   768   ar
  1910   438   440    1
  1911   306   308    1
  1912   306   304    1
  1913   589   588    1
  1914  1608  1607   ar
  1915  1608  1609   ar
  1916   381   380    2
  1917  1644  1645   ar
  1918   350   351    1
  1919   325   303    2
  1920  1636  1635    1
  1921   376   374    1
  1922   370   371    1
  1923   620   619    2
  1924   308   309    1
  1925  1599  1609    1
  1926   766   771   ar
  1927   464   470   ar
  1928   768   769   ar
  1929  1656  1674    1
  1930  1656  1640    1
  1931   332   349    1
  1932   283   282    1
  1933   777   756    2
  1934  1616  1621    1
  1935   351   349    1
  1936   568   585    1
  1937   379   380   ar
  1938   379   386   ar
  1939   470   471    2
  1940   282   284    1
  1941   640   639    2
  1942  1607  1604   ar
  1943   621   619   ar
  1944   621   622   ar
  1945  1609  1603   ar
  1946   380   382   ar
  1947   758   757    1
  1948   758   756    1
  1949   374   375    1
  1950   619   618   ar
  1951  1647  1653   ar
  1952  1647  1646   ar
  1953   434   432    1
  1954   434   435    1
  1955   375   389    1
  1956  1631  1621    1
  1957  1631  1625   ar
  1958   592   593    1
  1959   592   590    1
  1960  1628  1627    1
  1961  1626  1627   ar
  1962  1626  1625   ar
  1963   771   772    1
  1964   771   770   ar
  1965  1653  1643    1
  1966   304   305    1
  1967   443   442    1
  1968   769   770   ar
  1969   769   775   ar
  1970   759   757    1
  1971   759   760    1
  1972   623   622    1
  1973   348   326    2
  1974  1619  1621    1
  1975  1619  1620    1
  1976   386   385   ar
  1977   622   624   ar
  1978  1635  1637    1
  1979   328   327    1
  1980   328   326    1
  1981   371   369    1
  1982  1645  1646   ar
  1983   292   291   ar
  1984   292   293   ar
  1985   770   773   ar
  1986   756   776    1
  1987   756   739    1
  1988  1639  1640    1
  1989  1639  1637    1
  1990  1639  1641    1
  1991   309   326    1
  1992   765   775    1
  1993   765   760    1
  1994   303   324    1
  1995   303   305    1
  1996   303   287    1
  1997   639   641   ar
  1998   639   638   ar
  1999   587   585    1
  2000   587   586    1
  2001   349   367    2
  2002   349   368    1
  2003   369   387    2
  2004   369   388    1
  2005   444   442   ar
  2006   444   445   ar
  2007   660   659    2
  2008   618   617    1
  2009   618   625   ar
  2010   432   433    1
  2011  1627  1622   ar
  2012   775   774   ar
  2013   588   590    1
  2014   588   586    1
  2015   382   383   ar
  2016   641   642   ar
  2017   440   435    1
  2018   440   451    1
  2019   442   441   ar
  2020  1604  1603   ar
  2021  1604  1605   ar
  2022  1625  1624   ar
  2023  1603  1602   ar
  2024   291   296   ar
  2025   617   612    1
  2026   617   615    1
  2027   407   389    2
  2028   656   655    1
  2029   326   347    1
  2030   585   607    2
  2031   585   606    1
  2032   624   625   ar
  2033   433   431    1
  2034   293   294   ar
  2035   657   652    1
  2036   657   658    1
  2037   657   655    1
  2038  1637  1638    1
  2039   773   774   ar
  2040   385   383   ar
  2041   636   635    1
  2042   284   286    1
  2043   284   285    1
  2044   590   591    1
  2045   637   638    1
  2046   637   635    1
  2047   637   632    1
  2048   445   451   ar
  2049   445   446   ar
  2050  1641  1643    1
  2051  1641  1642    1
  2052  1643  1638    1
  2053   652   651    1
  2054   389   391    1
  2055   389   408    1
  2056   451   450   ar
  2057   638   645   ar
  2058   441   447   ar
  2059   383   384    2
  2060   659   658   ar
  2061   659   661   ar
  2062   612   611    1
  2063   642   643    1
  2064   642   644   ar
  2065   393   392    1
  2066   393   398    1
  2067   616   615    1
  2068  1602  1601   ar
  2069   391   390    1
  2070  1605  1606    1
  2071  1605  1600   ar
  2072   658   665   ar
  2073   287   286    1
  2074  1622  1623   ar
  2075   635   633    1
  2076   615   613    1
  2077   739   738    1
  2078   286   288    1
  2079   655   653    1
  2080   651   649    1
  2081   651   653    1
  2082   446   447   ar
  2083   446   449   ar
  2084   661   662   ar
  2085  1624  1623   ar
  2086   296   297    1
  2087   296   295   ar
  2088   632   631    1
  2089   392   390    1
  2090   392   394    1
  2091   447   448    2
  2092   450   449   ar
  2093   285   290    1
  2094   401   400    2
  2095   413   412    1
  2096   413   418    1
  2097   645   644   ar
  2098   410   412    1
  2099   410   411    1
  2100   398   399    1
  2101   398   396    1
  2102   395   394    1
  2103   395   409    1
  2104   294   295   ar
  2105   294   300   ar
  2106   412   414    1
  2107   429   409    2
  2108  1601  1600   ar
  2109   741   740    1
  2110   591   608    1
  2111   665   664   ar
  2112   400   399   ar
  2113   400   402   ar
  2114   738   740    1
  2115   738   736    1
  2116   431   452    2
  2117   431   453    1
  2118   431   415    1
  2119   411   409    1
  2120   399   406   ar
  2121   649   650    1
  2122   662   664   ar
  2123   662   663    1
  2124   295   298   ar
  2125   611   613    1
  2126   611   609    1
  2127   653   654    1
  2128   394   396    1
  2129   409   430    1
  2130   654   668    1
  2131   402   403   ar
  2132   613   614    1
  2133   290   300    1
  2134   290   288    1
  2135   300   299   ar
  2136   631   633    1
  2137   631   629    1
  2138   406   405   ar
  2139   672   671    1
  2140   672   677    1
  2141   740   742    1
  2142   633   634    1
  2143   418   428    1
  2144   418   416    1
  2145   288   289    1
  2146   421   420   ar
  2147   421   422   ar
  2148   396   397    1
  2149   415   414    1
  2150   420   419   ar
  2151   428   422   ar
  2152   428   427   ar
  2153   650   648    1
  2154   669   671    1
  2155   669   670    1
  2156   422   423   ar
  2157   414   416    1
  2158   627   608    2
  2159   403   405   ar
  2160   403   404    2
  2161   671   673    1
  2162   609   610    1
  2163   610   608    1
  2164   608   626    1
  2165   419   424   ar
  2166   736   734    1
  2167   736   737    1
  2168   677   688    1
  2169   677   675    1
  2170   427   426   ar
  2171   298   299   ar
  2172   423   424   ar
  2173   423   426   ar
  2174   634   648    1
  2175   630   629    1
  2176   630   628    1
  2177   424   425    1
  2178   680   679    1
  2179   614   628    1
  2180   681   679   ar
  2181   681   682   ar
  2182   688   682   ar
  2183   688   687   ar
  2184   416   417    1
  2185   679   678   ar
  2186   734   735    1
  2187   670   668    1
  2188   668   689    2
  2189   668   690    1
  2190   682   683   ar
  2191   742   737    1
  2192   742   753    1
  2193   755   733    2
  2194   648   666    2
  2195   648   667    1
  2196   687   686   ar
  2197   678   684   ar
  2198   683   686   ar
  2199   683   684   ar
  2200   676   675    1
  2201   628   646    2
  2202   628   647    1
  2203   675   673    1
  2204   673   674    1
  2205   684   685    2
  2206   746   744   ar
  2207   746   747   ar
  2208   674   691    1
  2209   745   744    1
  2210   735   733    1
  2211   753   747   ar
  2212   753   752   ar
  2213   754   733    1
  2214   733   719    1
  2215   744   743   ar
  2216   747   748   ar
  2217   752   751   ar
  2218   707   706    1
  2219   701   706   ar
  2220   701   702   ar
  2221   691   711    2
  2222   691   693    1
  2223   691   712    1
  2224   692   693    1
  2225   692   694    1
  2226   743   749   ar
  2227   748   751   ar
  2228   748   749   ar
  2229   706   705   ar
  2230   719   718    1
  2231   702   703   ar
  2232   705   708   ar
  2233   705   704   ar
  2234   695   694    1
  2235   695   700    1
  2236   749   750    2
  2237   703   704   ar
  2238   708   709   ar
  2239   704   710   ar
  2240   721   720    1
  2241   694   696    1
  2242   718   720    1
  2243   718   716    1
  2244   709   710   ar
  2245   710   700    1
  2246   700   698    1
  2247   720   722    1
  2248   716   717    1
  2249   716   714    1
  2250   696   698    1
  2251   696   697    1
  2252   722   717    1
  2253   722   723    1
  2254   698   699    1
  2255   715   714    1
  2256   715   713    1
  2257   697   713    1
  2258   732   713    2
  2259   713   731    1
  2260   725   724    2
  2261   723   724   ar
  2262   723   730   ar
  2263   724   726   ar
  2264   730   729   ar
  2265   726   727   ar
  2266   729   727   ar
  2267   727   728    1
