lig.pdb
 OpenBabel03051820513D

 34 36  0  0  1  0  0  0  0  0999 V2000
   -1.4060   17.3110   35.1600 C   0  0  2  0  0  0  0  0  0  0  0  0
   -1.9350   17.6330   36.4510 O   0  0  0  0  0  0  0  0  0  0  0  0
    0.1210   16.9090   35.3270 C   0  0  2  0  0  0  0  0  0  0  0  0
    0.2870   15.7310   36.2100 N   0  0  0  0  0  0  0  0  0  0  0  0
    0.9110   18.1130   35.8990 C   0  0  1  0  0  0  0  0  0  0  0  0
    2.2910   17.7720   36.0500 O   0  0  0  0  0  0  0  0  0  0  0  0
    0.7310   19.3120   34.9510 C   0  0  2  0  0  0  0  0  0  0  0  0
    1.4580   20.4290   35.4650 O   0  0  0  0  0  0  0  0  0  0  0  0
   -0.8020   19.6540   34.8120 C   0  0  2  0  0  0  0  0  0  0  0  0
   -1.5540   18.4890   34.2990 O   0  0  0  0  0  0  0  0  0  0  0  0
   -1.0350   20.8470   33.8520 C   0  0  2  0  0  0  0  0  0  0  0  0
   -2.4330   21.1270   33.7580 O   0  0  0  0  0  0  0  0  0  0  0  0
   -0.5060   20.5430   32.4590 C   0  0  0  0  0  0  0  0  0  0  0  0
   -5.5350   16.5800   38.5120 C   0  0  2  0  0  0  0  0  0  0  0  0
   -6.9560   16.4080   38.8240 N   0  0  0  0  0  0  0  0  0  0  0  0
   -5.3230   18.0730   38.1380 C   0  0  0  0  0  0  0  0  0  0  0  0
   -3.8160   18.2810   37.8270 C   0  0  2  0  0  0  0  0  0  0  0  0
   -3.5670   19.6870   37.4720 N   0  0  0  0  0  0  0  0  0  0  0  0
   -3.3600   17.3710   36.6550 C   0  0  2  0  0  0  0  0  0  0  0  0
   -3.6250   15.8800   37.0350 C   0  0  2  0  0  0  0  0  0  0  0  0
   -3.2140   15.0410   35.9470 O   0  0  0  0  0  0  0  0  0  0  0  0
   -5.1310   15.6390   37.3000 C   0  0  1  0  0  0  0  0  0  0  0  0
   -5.2890   14.2430   37.6550 O   0  0  0  0  0  0  0  0  0  0  0  0
   -6.4750   13.5880   37.1470 C   0  0  2  0  0  0  0  0  0  0  0  0
   -7.0160   12.6900   38.3210 C   0  0  2  0  0  0  0  0  0  0  0  0
   -7.3420   13.5020   39.4380 O   0  0  0  0  0  0  0  0  0  0  0  0
   -5.9180   11.6250   38.6990 C   0  0  1  0  0  0  0  0  0  0  0  0
   -6.3860   10.7540   39.8200 N   0  0  0  0  0  0  0  0  0  0  0  0
   -5.7610   11.2160   41.0780 C   0  0  0  0  0  0  0  0  0  0  0  0
   -5.6100   10.7630   37.4370 C   0  0  2  0  0  0  0  0  0  0  0  0
   -6.8060   10.0970   37.0350 O   0  0  0  0  0  0  0  0  0  0  0  0
   -4.5440    9.7070   37.7180 C   0  0  0  0  0  0  0  0  0  0  0  0
   -5.1270   11.6990   36.2830 C   0  0  0  0  0  0  0  0  0  0  0  0
   -6.1360   12.7380   35.9880 O   0  0  0  0  0  0  0  0  0  0  0  0
  1  3  1  0  0  0  0
  1  2  1  1  0  0  0
  3  5  1  0  0  0  0
  3  4  1  1  0  0  0
  5  6  1  6  0  0  0
  7  8  1  1  0  0  0
  7  5  1  0  0  0  0
  9 10  1  6  0  0  0
  9  7  1  0  0  0  0
 10  1  1  0  0  0  0
 11 13  1  6  0  0  0
 11  9  1  0  0  0  0
 12 11  1  0  0  0  0
 14 15  1  6  0  0  0
 16 14  1  0  0  0  0
 17 18  1  6  0  0  0
 17 16  1  0  0  0  0
 19  2  1  1  0  0  0
 19 20  1  0  0  0  0
 19 17  1  0  0  0  0
 20 21  1  6  0  0  0
 20 22  1  0  0  0  0
 22 23  1  1  0  0  0
 22 14  1  0  0  0  0
 24 23  1  1  0  0  0
 24 25  1  0  0  0  0
 25 27  1  0  0  0  0
 25 26  1  1  0  0  0
 27 28  1  1  0  0  0
 28 29  1  0  0  0  0
 30 31  1  6  0  0  0
 30 32  1  0  0  0  0
 30 27  1  0  0  0  0
 33 30  1  0  0  0  0
 34 33  1  0  0  0  0
 34 24  1  0  0  0  0
M  END
$$$$
