lig.pdb
 OpenBabel11021811503D
libRbt.so/2013.1/901 2013/11/27
 34 36  0  0  0  0  0  0  0  0999 V2000
   -1.3017   16.9361   35.1842 C   0  0  2  0  0  0  0  0  0  0  0  0
   -1.8067   17.2950   36.4750 O   0  0  0  0  0  0  0  0  0  0  0  0
    0.2362   16.5687   35.3290 C   0  0  2  0  0  0  0  0  0  0  0  0
    0.4454   15.4268   36.2495 N   0  0  0  0  0  0  0  0  0  0  0  0
    1.0159   17.8071   35.8383 C   0  0  1  0  0  0  0  0  0  0  0  0
    2.4053   17.4973   35.9684 O   0  0  0  0  0  0  0  0  0  0  0  0
    0.7908   18.9672   34.8524 C   0  0  2  0  0  0  0  0  0  0  0  0
    1.5078   20.1154   35.3084 O   0  0  0  0  0  0  0  0  0  0  0  0
   -0.7513   19.2756   34.7378 C   0  0  2  0  0  0  0  0  0  0  0  0
   -1.4924   18.0790   34.2852 O   0  0  0  0  0  0  0  0  0  0  0  0
   -1.0295   20.4284   33.7414 C   0  0  2  0  0  0  0  0  0  0  0  0
   -2.3876   20.8559   33.8625 O   0  0  0  0  0  0  0  0  0  0  0  0
   -0.7859   19.9858   32.3070 C   0  0  0  0  0  0  0  0  0  0  0  0
   -5.5204   16.6729   38.5093 C   0  0  2  0  0  0  0  0  0  0  0  0
   -6.9556   16.6517   38.8027 N   0  0  0  0  0  0  0  0  0  0  0  0
   -5.1580   18.1237   38.0876 C   0  0  0  0  0  0  0  0  0  0  0  0
   -3.6337   18.1725   37.7954 C   0  0  2  0  0  0  0  0  0  0  0  0
   -3.2433   19.5338   37.3964 N   0  0  0  0  0  0  0  0  0  0  0  0
   -3.2532   17.1807   36.6635 C   0  0  2  0  0  0  0  0  0  0  0  0
   -3.6683   15.7373   37.0902 C   0  0  2  0  0  0  0  0  0  0  0  0
   -3.3267   14.8236   36.0390 O   0  0  0  0  0  0  0  0  0  0  0  0
   -5.1941   15.6540   37.3376 C   0  0  1  0  0  0  0  0  0  0  0  0
   -5.4931   14.2937   37.7378 O   0  0  0  0  0  0  0  0  0  0  0  0
   -6.8376   13.8323   37.4677 C   0  0  2  0  0  0  0  0  0  0  0  0
   -7.2111   12.8580   38.6460 C   0  0  2  0  0  0  0  0  0  0  0  0
   -7.1686   13.5562   39.8806 O   0  0  0  0  0  0  0  0  0  0  0  0
   -6.2033   11.6467   38.6480 C   0  0  1  0  0  0  0  0  0  0  0  0
   -6.5148   10.6980   39.7603 N   0  0  0  0  0  0  0  0  0  0  0  0
   -5.8081   11.1428   40.9807 C   0  0  0  0  0  0  0  0  0  0  0  0
   -6.3023   10.9188   37.2729 C   0  0  2  0  0  0  0  0  0  0  0  0
   -7.6340   10.4346   37.1066 O   0  0  0  0  0  0  0  0  0  0  0  0
   -5.3462    9.7317   37.1896 C   0  0  0  0  0  0  0  0  0  0  0  0
   -5.9754   11.9343   36.1313 C   0  0  0  0  0  0  0  0  0  0  0  0
   -6.8819   13.1004   36.1859 O   0  0  0  0  0  0  0  0  0  0  0  0
  1  3  1  0  0  0  0
  1  2  1  1  0  0  0
  3  5  1  0  0  0  0
  3  4  1  1  0  0  0
  5  6  1  6  0  0  0
  7  8  1  1  0  0  0
  7  5  1  0  0  0  0
  9 10  1  6  0  0  0
  9  7  1  0  0  0  0
 10  1  1  0  0  0  0
 11 13  1  6  0  0  0
 11  9  1  0  0  0  0
 12 11  1  0  0  0  0
 14 15  1  6  0  0  0
 16 14  1  0  0  0  0
 17 18  1  6  0  0  0
 17 16  1  0  0  0  0
 19  2  1  1  0  0  0
 19 20  1  0  0  0  0
 19 17  1  0  0  0  0
 20 21  1  6  0  0  0
 20 22  1  0  0  0  0
 22 23  1  1  0  0  0
 22 14  1  0  0  0  0
 24 23  1  1  0  0  0
 24 25  1  0  0  0  0
 25 27  1  0  0  0  0
 25 26  1  1  0  0  0
 27 28  1  1  0  0  0
 28 29  1  0  0  0  0
 30 31  1  6  0  0  0
 30 32  1  0  0  0  0
 30 27  1  0  0  0  0
 33 30  1  0  0  0  0
 34 33  1  0  0  0  0
 34 24  1  0  0  0  0
M  END
>  <CHROM.1>
-157.83774750,-168.46938800,-154.83746475,89.65115132,-145.91570435,-87.43262519
-3.53657864,15.75648461,36.71631053,-0.81849355,-0.39988531,3.03400051

>  <Name>
lig.pdb

>  <RI>
0

>  <Rbt.Current_Directory>
/home/itssahil/PROJECTS/Mol_Feturizer/New_Systems/rnas/4k32

>  <Rbt.Executable>
rbdock ($Id: //depot/dev/client3/rdock/2013.1/src/exe/rbdock.cxx#4 $)

>  <Rbt.Library>
libRbt.so (2013.1, Build901 2013/11/27)

>  <Rbt.Parameter_File>
/export/apps/rDock/src/rDock_2013.1_src/data/scripts/dock_solv.prm

>  <Rbt.Receptor>
prm/pocket_docking_3.prm

>  <SCORE>
-18.3478

>  <SCORE.INTER>
-16.5946

>  <SCORE.INTER.CONST>
1

>  <SCORE.INTER.POLAR>
0

>  <SCORE.INTER.ROT>
6

>  <SCORE.INTER.SOLV>
25.3365

>  <SCORE.INTER.VDW>
-27.1086

>  <SCORE.INTER.norm>
-0.488078

>  <SCORE.INTRA>
-1.75318

>  <SCORE.INTRA.DIHEDRAL>
-4.22448

>  <SCORE.INTRA.DIHEDRAL.0>
18.0069

>  <SCORE.INTRA.POLAR>
0

>  <SCORE.INTRA.POLAR.0>
0

>  <SCORE.INTRA.REPUL>
0

>  <SCORE.INTRA.REPUL.0>
0

>  <SCORE.INTRA.SOLV>
-0.0432972

>  <SCORE.INTRA.SOLV.lig_0>
-70.7393

>  <SCORE.INTRA.VDW>
0.380706

>  <SCORE.INTRA.VDW.0>
-3.23471

>  <SCORE.INTRA.norm>
-0.0515642

>  <SCORE.RESTR>
0

>  <SCORE.RESTR.CAVITY>
0

>  <SCORE.RESTR.norm>
0

>  <SCORE.SYSTEM>
0

>  <SCORE.SYSTEM.CONST>
0

>  <SCORE.SYSTEM.DIHEDRAL>
0

>  <SCORE.SYSTEM.SOLV>
0

>  <SCORE.SYSTEM.norm>
0

>  <SCORE.heavy>
34

>  <SCORE.norm>
-0.539642

>  <RMSD>
0.456

$$$$
lig.pdb
 OpenBabel11021811503D
libRbt.so/2013.1/901 2013/11/27
 34 36  0  0  0  0  0  0  0  0999 V2000
   -1.3807   16.8785   35.1943 C   0  0  2  0  0  0  0  0  0  0  0  0
   -1.8918   17.2424   36.4814 O   0  0  0  0  0  0  0  0  0  0  0  0
    0.1538   16.5011   35.3497 C   0  0  2  0  0  0  0  0  0  0  0  0
    0.3494   15.3591   36.2730 N   0  0  0  0  0  0  0  0  0  0  0  0
    0.9383   17.7350   35.8627 C   0  0  1  0  0  0  0  0  0  0  0  0
    2.3248   17.4162   36.0023 O   0  0  0  0  0  0  0  0  0  0  0  0
    0.7274   18.8954   34.8739 C   0  0  2  0  0  0  0  0  0  0  0  0
    1.4490   20.0394   35.3333 O   0  0  0  0  0  0  0  0  0  0  0  0
   -0.8119   19.2138   34.7489 C   0  0  2  0  0  0  0  0  0  0  0  0
   -1.5579   18.0216   34.2928 O   0  0  0  0  0  0  0  0  0  0  0  0
   -1.0759   20.3672   33.7493 C   0  0  2  0  0  0  0  0  0  0  0  0
   -2.4289   20.8110   33.8685 O   0  0  0  0  0  0  0  0  0  0  0  0
   -0.8368   19.9180   32.3162 C   0  0  0  0  0  0  0  0  0  0  0  0
   -5.5587   16.3865   38.5155 C   0  0  2  0  0  0  0  0  0  0  0  0
   -6.9884   16.3087   38.8255 N   0  0  0  0  0  0  0  0  0  0  0  0
   -5.2376   17.8718   38.1923 C   0  0  0  0  0  0  0  0  0  0  0  0
   -3.7195   17.9791   37.8843 C   0  0  2  0  0  0  0  0  0  0  0  0
   -3.3679   19.3744   37.5770 N   0  0  0  0  0  0  0  0  0  0  0  0
   -3.3321   17.0789   36.6804 C   0  0  2  0  0  0  0  0  0  0  0  0
   -3.7059   15.5992   37.0098 C   0  0  2  0  0  0  0  0  0  0  0  0
   -3.3581   14.7703   35.8925 O   0  0  0  0  0  0  0  0  0  0  0  0
   -5.2255   15.4606   37.2708 C   0  0  1  0  0  0  0  0  0  0  0  0
   -5.4856   14.0686   37.5781 O   0  0  0  0  0  0  0  0  0  0  0  0
   -6.8324   13.6029   37.3273 C   0  0  2  0  0  0  0  0  0  0  0  0
   -7.2049   12.6680   38.5374 C   0  0  2  0  0  0  0  0  0  0  0  0
   -7.1563   13.4052   39.7488 O   0  0  0  0  0  0  0  0  0  0  0  0
   -6.2007   11.4543   38.5749 C   0  0  1  0  0  0  0  0  0  0  0  0
   -6.5113   10.5426   39.7180 N   0  0  0  0  0  0  0  0  0  0  0  0
   -5.8560   11.0632   40.9370 C   0  0  0  0  0  0  0  0  0  0  0  0
   -6.3065   10.6831   37.2241 C   0  0  2  0  0  0  0  0  0  0  0  0
   -7.6401   10.1979   37.0777 O   0  0  0  0  0  0  0  0  0  0  0  0
   -5.3541    9.4909   37.1758 C   0  0  0  0  0  0  0  0  0  0  0  0
   -5.9803   11.6604   36.0496 C   0  0  0  0  0  0  0  0  0  0  0  0
   -6.8831   12.8305   36.0697 O   0  0  0  0  0  0  0  0  0  0  0  0
  1  3  1  0  0  0  0
  1  2  1  1  0  0  0
  3  5  1  0  0  0  0
  3  4  1  1  0  0  0
  5  6  1  6  0  0  0
  7  8  1  1  0  0  0
  7  5  1  0  0  0  0
  9 10  1  6  0  0  0
  9  7  1  0  0  0  0
 10  1  1  0  0  0  0
 11 13  1  6  0  0  0
 11  9  1  0  0  0  0
 12 11  1  0  0  0  0
 14 15  1  6  0  0  0
 16 14  1  0  0  0  0
 17 18  1  6  0  0  0
 17 16  1  0  0  0  0
 19  2  1  1  0  0  0
 19 20  1  0  0  0  0
 19 17  1  0  0  0  0
 20 21  1  6  0  0  0
 20 22  1  0  0  0  0
 22 23  1  1  0  0  0
 22 14  1  0  0  0  0
 24 23  1  1  0  0  0
 24 25  1  0  0  0  0
 25 27  1  0  0  0  0
 25 26  1  1  0  0  0
 27 28  1  1  0  0  0
 28 29  1  0  0  0  0
 30 31  1  6  0  0  0
 30 32  1  0  0  0  0
 30 27  1  0  0  0  0
 33 30  1  0  0  0  0
 34 33  1  0  0  0  0
 34 24  1  0  0  0  0
M  END
>  <CHROM.1>
-155.09517710,-168.00581227,-159.97723546,88.06511422,-139.28304733,-84.53410648
-3.57926386,15.60935765,36.69587484,-0.82306563,-0.41799692,3.06361427

>  <Name>
lig.pdb

>  <RI>
0

>  <Rbt.Current_Directory>
/home/itssahil/PROJECTS/Mol_Feturizer/New_Systems/rnas/4k32

>  <Rbt.Executable>
rbdock ($Id: //depot/dev/client3/rdock/2013.1/src/exe/rbdock.cxx#4 $)

>  <Rbt.Library>
libRbt.so (2013.1, Build901 2013/11/27)

>  <Rbt.Parameter_File>
/export/apps/rDock/src/rDock_2013.1_src/data/scripts/dock_solv.prm

>  <Rbt.Receptor>
prm/pocket_docking_2.prm

>  <SCORE>
-18.0562

>  <SCORE.INTER>
-16.745

>  <SCORE.INTER.CONST>
1

>  <SCORE.INTER.POLAR>
0

>  <SCORE.INTER.ROT>
6

>  <SCORE.INTER.SOLV>
25.1394

>  <SCORE.INTER.VDW>
-27.1432

>  <SCORE.INTER.norm>
-0.492501

>  <SCORE.INTRA>
-1.31114

>  <SCORE.INTRA.DIHEDRAL>
-3.82592

>  <SCORE.INTRA.DIHEDRAL.0>
18.0069

>  <SCORE.INTRA.POLAR>
0

>  <SCORE.INTRA.POLAR.0>
0

>  <SCORE.INTRA.REPUL>
0

>  <SCORE.INTRA.REPUL.0>
0

>  <SCORE.INTRA.SOLV>
-0.151531

>  <SCORE.INTRA.SOLV.lig_0>
-70.7393

>  <SCORE.INTRA.VDW>
0.677586

>  <SCORE.INTRA.VDW.0>
-3.23471

>  <SCORE.INTRA.norm>
-0.038563

>  <SCORE.RESTR>
0

>  <SCORE.RESTR.CAVITY>
0

>  <SCORE.RESTR.norm>
0

>  <SCORE.SYSTEM>
0

>  <SCORE.SYSTEM.CONST>
0

>  <SCORE.SYSTEM.DIHEDRAL>
0

>  <SCORE.SYSTEM.SOLV>
0

>  <SCORE.SYSTEM.norm>
0

>  <SCORE.heavy>
34

>  <SCORE.norm>
-0.531064

>  <RMSD>
0.471

$$$$
lig.pdb
 OpenBabel11021811503D
libRbt.so/2013.1/901 2013/11/27
 34 36  0  0  0  0  0  0  0  0999 V2000
   -1.3741   16.8761   35.1865 C   0  0  2  0  0  0  0  0  0  0  0  0
   -1.8930   17.2237   36.4750 O   0  0  0  0  0  0  0  0  0  0  0  0
    0.1624   16.5082   35.3445 C   0  0  2  0  0  0  0  0  0  0  0  0
    0.3624   15.3586   36.2573 N   0  0  0  0  0  0  0  0  0  0  0  0
    0.9359   17.7425   35.8727 C   0  0  1  0  0  0  0  0  0  0  0  0
    2.3241   17.4323   36.0150 O   0  0  0  0  0  0  0  0  0  0  0  0
    0.7207   18.9111   34.8945 C   0  0  2  0  0  0  0  0  0  0  0  0
    1.4322   20.0556   35.3680 O   0  0  0  0  0  0  0  0  0  0  0  0
   -0.8203   19.2197   34.7663 C   0  0  2  0  0  0  0  0  0  0  0  0
   -1.5558   18.0267   34.2954 O   0  0  0  0  0  0  0  0  0  0  0  0
   -1.0886   20.3809   33.7769 C   0  0  2  0  0  0  0  0  0  0  0  0
   -2.4485   20.8056   33.8861 O   0  0  0  0  0  0  0  0  0  0  0  0
   -0.8278   19.9513   32.3416 C   0  0  0  0  0  0  0  0  0  0  0  0
   -5.5703   16.3473   38.4815 C   0  0  2  0  0  0  0  0  0  0  0  0
   -7.0017   16.2639   38.7821 N   0  0  0  0  0  0  0  0  0  0  0  0
   -5.2514   17.8351   38.1677 C   0  0  0  0  0  0  0  0  0  0  0  0
   -3.7317   17.9483   37.8698 C   0  0  2  0  0  0  0  0  0  0  0  0
   -3.3822   19.3460   37.5716 N   0  0  0  0  0  0  0  0  0  0  0  0
   -3.3341   17.0551   36.6641 C   0  0  2  0  0  0  0  0  0  0  0  0
   -3.7057   15.5728   36.9838 C   0  0  2  0  0  0  0  0  0  0  0  0
   -3.3485   14.7503   35.8647 O   0  0  0  0  0  0  0  0  0  0  0  0
   -5.2265   15.4285   37.2344 C   0  0  1  0  0  0  0  0  0  0  0  0
   -5.4845   14.0343   37.5333 O   0  0  0  0  0  0  0  0  0  0  0  0
   -6.8324   13.5698   37.2859 C   0  0  2  0  0  0  0  0  0  0  0  0
   -7.2101   12.6517   38.5073 C   0  0  2  0  0  0  0  0  0  0  0  0
   -7.1613   13.4042   39.7092 O   0  0  0  0  0  0  0  0  0  0  0  0
   -6.2100   11.4353   38.5622 C   0  0  1  0  0  0  0  0  0  0  0  0
   -6.5256   10.5394   39.7163 N   0  0  0  0  0  0  0  0  0  0  0  0
   -5.8495   11.0589   40.9244 C   0  0  0  0  0  0  0  0  0  0  0  0
   -6.3158   10.6472   37.2213 C   0  0  2  0  0  0  0  0  0  0  0  0
   -7.6508   10.1645   37.0786 O   0  0  0  0  0  0  0  0  0  0  0  0
   -5.3673    9.4514   37.1900 C   0  0  0  0  0  0  0  0  0  0  0  0
   -5.9843   11.6083   36.0349 C   0  0  0  0  0  0  0  0  0  0  0  0
   -6.8833   12.7815   36.0383 O   0  0  0  0  0  0  0  0  0  0  0  0
  1  3  1  0  0  0  0
  1  2  1  1  0  0  0
  3  5  1  0  0  0  0
  3  4  1  1  0  0  0
  5  6  1  6  0  0  0
  7  8  1  1  0  0  0
  7  5  1  0  0  0  0
  9 10  1  6  0  0  0
  9  7  1  0  0  0  0
 10  1  1  0  0  0  0
 11 13  1  6  0  0  0
 11  9  1  0  0  0  0
 12 11  1  0  0  0  0
 14 15  1  6  0  0  0
 16 14  1  0  0  0  0
 17 18  1  6  0  0  0
 17 16  1  0  0  0  0
 19  2  1  1  0  0  0
 19 20  1  0  0  0  0
 19 17  1  0  0  0  0
 20 21  1  6  0  0  0
 20 22  1  0  0  0  0
 22 23  1  1  0  0  0
 22 14  1  0  0  0  0
 24 23  1  1  0  0  0
 24 25  1  0  0  0  0
 25 27  1  0  0  0  0
 25 26  1  1  0  0  0
 27 28  1  1  0  0  0
 28 29  1  0  0  0  0
 30 31  1  6  0  0  0
 30 32  1  0  0  0  0
 30 27  1  0  0  0  0
 33 30  1  0  0  0  0
 34 33  1  0  0  0  0
 34 24  1  0  0  0  0
M  END
>  <CHROM.1>
-155.42844057,-168.53928255,-159.57055494,87.38877308,-138.06174978,-85.61696713
-3.58364556,15.59454984,36.68688633,-0.82841110,-0.40711502,3.05805939

>  <Name>
lig.pdb

>  <RI>
0

>  <Rbt.Current_Directory>
/home/itssahil/PROJECTS/Mol_Feturizer/New_Systems/rnas/4k32

>  <Rbt.Executable>
rbdock ($Id: //depot/dev/client3/rdock/2013.1/src/exe/rbdock.cxx#4 $)

>  <Rbt.Library>
libRbt.so (2013.1, Build901 2013/11/27)

>  <Rbt.Parameter_File>
/export/apps/rDock/src/rDock_2013.1_src/data/scripts/dock_solv.prm

>  <Rbt.Receptor>
prm/pocket_docking_2.prm

>  <SCORE>
-18.0593

>  <SCORE.INTER>
-16.7436

>  <SCORE.INTER.CONST>
1

>  <SCORE.INTER.POLAR>
0

>  <SCORE.INTER.ROT>
6

>  <SCORE.INTER.SOLV>
25.2432

>  <SCORE.INTER.VDW>
-27.1768

>  <SCORE.INTER.norm>
-0.492458

>  <SCORE.INTRA>
-1.31574

>  <SCORE.INTRA.DIHEDRAL>
-3.76481

>  <SCORE.INTRA.DIHEDRAL.0>
18.0069

>  <SCORE.INTRA.POLAR>
0

>  <SCORE.INTRA.POLAR.0>
0

>  <SCORE.INTRA.REPUL>
0

>  <SCORE.INTRA.REPUL.0>
0

>  <SCORE.INTRA.SOLV>
-0.0824601

>  <SCORE.INTRA.SOLV.lig_0>
-70.7393

>  <SCORE.INTRA.VDW>
0.607893

>  <SCORE.INTRA.VDW.0>
-3.23471

>  <SCORE.INTRA.norm>
-0.0386983

>  <SCORE.RESTR>
0

>  <SCORE.RESTR.CAVITY>
0

>  <SCORE.RESTR.norm>
0

>  <SCORE.SYSTEM>
0

>  <SCORE.SYSTEM.CONST>
0

>  <SCORE.SYSTEM.DIHEDRAL>
0

>  <SCORE.SYSTEM.SOLV>
0

>  <SCORE.SYSTEM.norm>
0

>  <SCORE.heavy>
34

>  <SCORE.norm>
-0.531156

>  <RMSD>
0.474

$$$$
lig.pdb
 OpenBabel11021811503D
libRbt.so/2013.1/901 2013/11/27
 34 36  0  0  0  0  0  0  0  0999 V2000
   -1.3486   16.8532   35.1607 C   0  0  2  0  0  0  0  0  0  0  0  0
   -1.8682   17.1952   36.4504 O   0  0  0  0  0  0  0  0  0  0  0  0
    0.1952   16.5145   35.3129 C   0  0  2  0  0  0  0  0  0  0  0  0
    0.4207   15.3718   36.2285 N   0  0  0  0  0  0  0  0  0  0  0  0
    0.9479   17.7648   35.8337 C   0  0  1  0  0  0  0  0  0  0  0  0
    2.3422   17.4810   35.9706 O   0  0  0  0  0  0  0  0  0  0  0  0
    0.7065   18.9259   34.8528 C   0  0  2  0  0  0  0  0  0  0  0  0
    1.3986   20.0851   35.3194 O   0  0  0  0  0  0  0  0  0  0  0  0
   -0.8405   19.2053   34.7306 C   0  0  2  0  0  0  0  0  0  0  0  0
   -1.5558   17.9973   34.2668 O   0  0  0  0  0  0  0  0  0  0  0  0
   -1.1348   20.3581   33.7388 C   0  0  2  0  0  0  0  0  0  0  0  0
   -2.4853   20.7981   33.8947 O   0  0  0  0  0  0  0  0  0  0  0  0
   -0.9333   19.9099   32.2996 C   0  0  0  0  0  0  0  0  0  0  0  0
   -5.5527   16.3317   38.4491 C   0  0  2  0  0  0  0  0  0  0  0  0
   -6.9851   16.2530   38.7464 N   0  0  0  0  0  0  0  0  0  0  0  0
   -5.2286   17.8183   38.1349 C   0  0  0  0  0  0  0  0  0  0  0  0
   -3.7078   17.9265   37.8405 C   0  0  2  0  0  0  0  0  0  0  0  0
   -3.3533   19.3230   37.5421 N   0  0  0  0  0  0  0  0  0  0  0  0
   -3.3102   17.0313   36.6363 C   0  0  2  0  0  0  0  0  0  0  0  0
   -3.6871   15.5503   36.9563 C   0  0  2  0  0  0  0  0  0  0  0  0
   -3.3299   14.7259   35.8385 O   0  0  0  0  0  0  0  0  0  0  0  0
   -5.2089   15.4110   37.2035 C   0  0  1  0  0  0  0  0  0  0  0  0
   -5.4720   14.0178   37.5028 O   0  0  0  0  0  0  0  0  0  0  0  0
   -6.8202   13.5568   37.2508 C   0  0  2  0  0  0  0  0  0  0  0  0
   -7.2070   12.6452   38.4742 C   0  0  2  0  0  0  0  0  0  0  0  0
   -7.1614   13.4028   39.6731 O   0  0  0  0  0  0  0  0  0  0  0  0
   -6.2113   11.4257   38.5392 C   0  0  1  0  0  0  0  0  0  0  0  0
   -6.5356   10.5358   39.6956 N   0  0  0  0  0  0  0  0  0  0  0  0
   -5.8583   11.0546   40.9034 C   0  0  0  0  0  0  0  0  0  0  0  0
   -6.3133   10.6322   37.2012 C   0  0  2  0  0  0  0  0  0  0  0  0
   -7.6492   10.1534   37.0541 O   0  0  0  0  0  0  0  0  0  0  0  0
   -5.3688    9.4331   37.1797 C   0  0  0  0  0  0  0  0  0  0  0  0
   -5.9728   11.5870   36.0123 C   0  0  0  0  0  0  0  0  0  0  0  0
   -6.8678   12.7633   36.0063 O   0  0  0  0  0  0  0  0  0  0  0  0
  1  3  1  0  0  0  0
  1  2  1  1  0  0  0
  3  5  1  0  0  0  0
  3  4  1  1  0  0  0
  5  6  1  6  0  0  0
  7  8  1  1  0  0  0
  7  5  1  0  0  0  0
  9 10  1  6  0  0  0
  9  7  1  0  0  0  0
 10  1  1  0  0  0  0
 11 13  1  6  0  0  0
 11  9  1  0  0  0  0
 12 11  1  0  0  0  0
 14 15  1  6  0  0  0
 16 14  1  0  0  0  0
 17 18  1  6  0  0  0
 17 16  1  0  0  0  0
 19  2  1  1  0  0  0
 19 20  1  0  0  0  0
 19 17  1  0  0  0  0
 20 21  1  6  0  0  0
 20 22  1  0  0  0  0
 22 23  1  1  0  0  0
 22 14  1  0  0  0  0
 24 23  1  1  0  0  0
 24 25  1  0  0  0  0
 25 27  1  0  0  0  0
 25 26  1  1  0  0  0
 27 28  1  1  0  0  0
 28 29  1  0  0  0  0
 30 31  1  6  0  0  0
 30 32  1  0  0  0  0
 30 27  1  0  0  0  0
 33 30  1  0  0  0  0
 34 33  1  0  0  0  0
 34 24  1  0  0  0  0
M  END
>  <CHROM.1>
-156.86717015,-165.96186806,-159.18561726,87.47249035,-137.85821931,-85.88448478
-3.57994851,15.58447887,36.65754885,-0.83081950,-0.40454330,3.05496911

>  <Name>
lig.pdb

>  <RI>
0

>  <Rbt.Current_Directory>
/home/itssahil/PROJECTS/Mol_Feturizer/New_Systems/rnas/4k32

>  <Rbt.Executable>
rbdock ($Id: //depot/dev/client3/rdock/2013.1/src/exe/rbdock.cxx#4 $)

>  <Rbt.Library>
libRbt.so (2013.1, Build901 2013/11/27)

>  <Rbt.Parameter_File>
/export/apps/rDock/src/rDock_2013.1_src/data/scripts/dock_solv.prm

>  <Rbt.Receptor>
prm/pocket_docking_2.prm

>  <SCORE>
-18.054

>  <SCORE.INTER>
-16.7985

>  <SCORE.INTER.CONST>
1

>  <SCORE.INTER.POLAR>
0

>  <SCORE.INTER.ROT>
6

>  <SCORE.INTER.SOLV>
25.4447

>  <SCORE.INTER.VDW>
-27.2806

>  <SCORE.INTER.norm>
-0.494074

>  <SCORE.INTRA>
-1.25552

>  <SCORE.INTRA.DIHEDRAL>
-3.67607

>  <SCORE.INTRA.DIHEDRAL.0>
18.0069

>  <SCORE.INTRA.POLAR>
0

>  <SCORE.INTRA.POLAR.0>
0

>  <SCORE.INTRA.REPUL>
0

>  <SCORE.INTRA.REPUL.0>
0

>  <SCORE.INTRA.SOLV>
-0.0677591

>  <SCORE.INTRA.SOLV.lig_0>
-70.7393

>  <SCORE.INTRA.VDW>
0.61639

>  <SCORE.INTRA.VDW.0>
-3.23471

>  <SCORE.INTRA.norm>
-0.0369272

>  <SCORE.RESTR>
0

>  <SCORE.RESTR.CAVITY>
0

>  <SCORE.RESTR.norm>
0

>  <SCORE.SYSTEM>
0

>  <SCORE.SYSTEM.CONST>
0

>  <SCORE.SYSTEM.DIHEDRAL>
0

>  <SCORE.SYSTEM.SOLV>
0

>  <SCORE.SYSTEM.norm>
0

>  <SCORE.heavy>
34

>  <SCORE.norm>
-0.531001

>  <RMSD>
0.484

$$$$
lig.pdb
 OpenBabel11021811503D
libRbt.so/2013.1/901 2013/11/27
 34 36  0  0  0  0  0  0  0  0999 V2000
   -1.2873   16.8573   35.2551 C   0  0  2  0  0  0  0  0  0  0  0  0
   -1.7746   17.2238   36.5507 O   0  0  0  0  0  0  0  0  0  0  0  0
    0.2592   16.5182   35.3757 C   0  0  2  0  0  0  0  0  0  0  0  0
    0.5051   15.3918   36.3061 N   0  0  0  0  0  0  0  0  0  0  0  0
    1.0265   17.7761   35.8552 C   0  0  1  0  0  0  0  0  0  0  0  0
    2.4233   17.4918   35.9632 O   0  0  0  0  0  0  0  0  0  0  0  0
    0.7631   18.9197   34.8595 C   0  0  2  0  0  0  0  0  0  0  0  0
    1.4684   20.0857   35.2879 O   0  0  0  0  0  0  0  0  0  0  0  0
   -0.7860   19.2002   34.7699 C   0  0  2  0  0  0  0  0  0  0  0  0
   -1.5144   17.9855   34.3459 O   0  0  0  0  0  0  0  0  0  0  0  0
   -1.1025   20.3354   33.7648 C   0  0  2  0  0  0  0  0  0  0  0  0
   -2.4647   20.7423   33.9072 O   0  0  0  0  0  0  0  0  0  0  0  0
   -0.8796   19.8784   32.3316 C   0  0  0  0  0  0  0  0  0  0  0  0
   -5.5264   17.0139   38.5992 C   0  0  2  0  0  0  0  0  0  0  0  0
   -6.9634   17.0879   38.8746 N   0  0  0  0  0  0  0  0  0  0  0  0
   -5.1004   18.3841   38.0037 C   0  0  0  0  0  0  0  0  0  0  0  0
   -3.5733   18.3338   37.7272 C   0  0  2  0  0  0  0  0  0  0  0  0
   -3.1231   19.6171   37.1656 N   0  0  0  0  0  0  0  0  0  0  0  0
   -3.2260   17.1929   36.7335 C   0  0  2  0  0  0  0  0  0  0  0  0
   -3.7043   15.8327   37.3325 C   0  0  2  0  0  0  0  0  0  0  0  0
   -3.3933   14.7809   36.4087 O   0  0  0  0  0  0  0  0  0  0  0  0
   -5.2342   15.8432   37.5689 C   0  0  1  0  0  0  0  0  0  0  0  0
   -5.5928   14.5573   38.1327 O   0  0  0  0  0  0  0  0  0  0  0  0
   -6.9130   14.0647   37.8038 C   0  0  2  0  0  0  0  0  0  0  0  0
   -7.2634   12.9881   38.8971 C   0  0  2  0  0  0  0  0  0  0  0  0
   -7.2682   13.5899   40.1820 O   0  0  0  0  0  0  0  0  0  0  0  0
   -6.2066   11.8216   38.8244 C   0  0  1  0  0  0  0  0  0  0  0  0
   -6.4951   10.7780   39.8549 N   0  0  0  0  0  0  0  0  0  0  0  0
   -5.7988   11.1382   41.1088 C   0  0  0  0  0  0  0  0  0  0  0  0
   -6.2549   11.1988   37.3960 C   0  0  2  0  0  0  0  0  0  0  0  0
   -7.5628   10.6759   37.1691 O   0  0  0  0  0  0  0  0  0  0  0  0
   -5.2494   10.0609   37.2393 C   0  0  0  0  0  0  0  0  0  0  0  0
   -5.9533   12.3117   36.3417 C   0  0  0  0  0  0  0  0  0  0  0  0
   -6.9078   13.4329   36.4691 O   0  0  0  0  0  0  0  0  0  0  0  0
  1  3  1  0  0  0  0
  1  2  1  1  0  0  0
  3  5  1  0  0  0  0
  3  4  1  1  0  0  0
  5  6  1  6  0  0  0
  7  8  1  1  0  0  0
  7  5  1  0  0  0  0
  9 10  1  6  0  0  0
  9  7  1  0  0  0  0
 10  1  1  0  0  0  0
 11 13  1  6  0  0  0
 11  9  1  0  0  0  0
 12 11  1  0  0  0  0
 14 15  1  6  0  0  0
 16 14  1  0  0  0  0
 17 18  1  6  0  0  0
 17 16  1  0  0  0  0
 19  2  1  1  0  0  0
 19 20  1  0  0  0  0
 19 17  1  0  0  0  0
 20 21  1  6  0  0  0
 20 22  1  0  0  0  0
 22 23  1  1  0  0  0
 22 14  1  0  0  0  0
 24 23  1  1  0  0  0
 24 25  1  0  0  0  0
 25 27  1  0  0  0  0
 25 26  1  1  0  0  0
 27 28  1  1  0  0  0
 28 29  1  0  0  0  0
 30 31  1  6  0  0  0
 30 32  1  0  0  0  0
 30 27  1  0  0  0  0
 33 30  1  0  0  0  0
 34 33  1  0  0  0  0
 34 24  1  0  0  0  0
M  END
>  <CHROM.1>
-162.72135769,-168.38998081,-146.56234399,95.06614098,-159.87237748,-88.79045336
-3.54310645,15.84795177,36.82206391,-0.81131807,-0.39161801,2.99464149

>  <Name>
lig.pdb

>  <RI>
0

>  <Rbt.Current_Directory>
/home/itssahil/PROJECTS/Mol_Feturizer/New_Systems/rnas/4k32

>  <Rbt.Executable>
rbdock ($Id: //depot/dev/client3/rdock/2013.1/src/exe/rbdock.cxx#4 $)

>  <Rbt.Library>
libRbt.so (2013.1, Build901 2013/11/27)

>  <Rbt.Parameter_File>
/export/apps/rDock/src/rDock_2013.1_src/data/scripts/dock_solv.prm

>  <Rbt.Receptor>
prm/pocket_docking_3.prm

>  <SCORE>
-18.7139

>  <SCORE.INTER>
-16.3051

>  <SCORE.INTER.CONST>
1

>  <SCORE.INTER.POLAR>
0

>  <SCORE.INTER.ROT>
6

>  <SCORE.INTER.SOLV>
24.8819

>  <SCORE.INTER.VDW>
-26.764

>  <SCORE.INTER.norm>
-0.479562

>  <SCORE.INTRA>
-2.40881

>  <SCORE.INTRA.DIHEDRAL>
-4.96181

>  <SCORE.INTRA.DIHEDRAL.0>
18.0069

>  <SCORE.INTRA.POLAR>
0

>  <SCORE.INTRA.POLAR.0>
0

>  <SCORE.INTRA.REPUL>
0

>  <SCORE.INTRA.REPUL.0>
0

>  <SCORE.INTRA.SOLV>
0.0281701

>  <SCORE.INTRA.SOLV.lig_0>
-70.7393

>  <SCORE.INTRA.VDW>
0.0580096

>  <SCORE.INTRA.VDW.0>
-3.23471

>  <SCORE.INTRA.norm>
-0.0708474

>  <SCORE.RESTR>
0

>  <SCORE.RESTR.CAVITY>
0

>  <SCORE.RESTR.norm>
0

>  <SCORE.SYSTEM>
0

>  <SCORE.SYSTEM.CONST>
0

>  <SCORE.SYSTEM.DIHEDRAL>
0

>  <SCORE.SYSTEM.SOLV>
0

>  <SCORE.SYSTEM.norm>
0

>  <SCORE.heavy>
34

>  <SCORE.norm>
-0.55041

>  <RMSD>
0.590

$$$$
lig.pdb
 OpenBabel11021811503D
libRbt.so/2013.1/901 2013/11/27
 34 36  0  0  0  0  0  0  0  0999 V2000
   -1.2773   16.8343   35.2798 C   0  0  2  0  0  0  0  0  0  0  0  0
   -1.7621   17.2125   36.5729 O   0  0  0  0  0  0  0  0  0  0  0  0
    0.2700   16.4988   35.4000 C   0  0  2  0  0  0  0  0  0  0  0  0
    0.5199   15.3818   36.3406 N   0  0  0  0  0  0  0  0  0  0  0  0
    1.0364   17.7625   35.8654 C   0  0  1  0  0  0  0  0  0  0  0  0
    2.4339   17.4815   35.9728 O   0  0  0  0  0  0  0  0  0  0  0  0
    0.7689   18.8960   34.8594 C   0  0  2  0  0  0  0  0  0  0  0  0
    1.4733   20.0672   35.2749 O   0  0  0  0  0  0  0  0  0  0  0  0
   -0.7809   19.1732   34.7709 C   0  0  2  0  0  0  0  0  0  0  0  0
   -1.5083   17.9533   34.3603 O   0  0  0  0  0  0  0  0  0  0  0  0
   -1.1016   20.2981   33.7556 C   0  0  2  0  0  0  0  0  0  0  0  0
   -2.4621   20.7095   33.9025 O   0  0  0  0  0  0  0  0  0  0  0  0
   -0.8889   19.8253   32.3260 C   0  0  0  0  0  0  0  0  0  0  0  0
   -5.5047   16.9537   38.6326 C   0  0  2  0  0  0  0  0  0  0  0  0
   -6.9406   17.0199   38.9156 N   0  0  0  0  0  0  0  0  0  0  0  0
   -5.0831   18.3369   38.0644 C   0  0  0  0  0  0  0  0  0  0  0  0
   -3.5572   18.2947   37.7804 C   0  0  2  0  0  0  0  0  0  0  0  0
   -3.1112   19.5903   37.2443 N   0  0  0  0  0  0  0  0  0  0  0  0
   -3.2126   17.1756   36.7613 C   0  0  2  0  0  0  0  0  0  0  0  0
   -3.6866   15.8024   37.3333 C   0  0  2  0  0  0  0  0  0  0  0  0
   -3.3781   14.7708   36.3860 O   0  0  0  0  0  0  0  0  0  0  0  0
   -5.2154   15.8056   37.5764 C   0  0  1  0  0  0  0  0  0  0  0  0
   -5.5698   14.5076   38.1143 O   0  0  0  0  0  0  0  0  0  0  0  0
   -6.9037   14.0362   37.8107 C   0  0  2  0  0  0  0  0  0  0  0  0
   -7.2547   12.9731   38.9171 C   0  0  2  0  0  0  0  0  0  0  0  0
   -7.2275   13.5834   40.1978 O   0  0  0  0  0  0  0  0  0  0  0  0
   -6.2198   11.7877   38.8349 C   0  0  1  0  0  0  0  0  0  0  0  0
   -6.5093   10.7562   39.8772 N   0  0  0  0  0  0  0  0  0  0  0  0
   -5.8397   11.1471   41.1364 C   0  0  0  0  0  0  0  0  0  0  0  0
   -6.3029   11.1564   37.4119 C   0  0  2  0  0  0  0  0  0  0  0  0
   -7.6234   10.6553   37.2102 O   0  0  0  0  0  0  0  0  0  0  0  0
   -5.3203   10.0000   37.2463 C   0  0  0  0  0  0  0  0  0  0  0  0
   -5.9995   12.2569   36.3450 C   0  0  0  0  0  0  0  0  0  0  0  0
   -6.9320   13.3956   36.4805 O   0  0  0  0  0  0  0  0  0  0  0  0
  1  3  1  0  0  0  0
  1  2  1  1  0  0  0
  3  5  1  0  0  0  0
  3  4  1  1  0  0  0
  5  6  1  6  0  0  0
  7  8  1  1  0  0  0
  7  5  1  0  0  0  0
  9 10  1  6  0  0  0
  9  7  1  0  0  0  0
 10  1  1  0  0  0  0
 11 13  1  6  0  0  0
 11  9  1  0  0  0  0
 12 11  1  0  0  0  0
 14 15  1  6  0  0  0
 16 14  1  0  0  0  0
 17 18  1  6  0  0  0
 17 16  1  0  0  0  0
 19  2  1  1  0  0  0
 19 20  1  0  0  0  0
 19 17  1  0  0  0  0
 20 21  1  6  0  0  0
 20 22  1  0  0  0  0
 22 23  1  1  0  0  0
 22 14  1  0  0  0  0
 24 23  1  1  0  0  0
 24 25  1  0  0  0  0
 25 27  1  0  0  0  0
 25 26  1  1  0  0  0
 27 28  1  1  0  0  0
 28 29  1  0  0  0  0
 30 31  1  6  0  0  0
 30 32  1  0  0  0  0
 30 27  1  0  0  0  0
 33 30  1  0  0  0  0
 34 33  1  0  0  0  0
 34 24  1  0  0  0  0
M  END
>  <CHROM.1>
-162.47147365,-168.06917387,-148.43090031,93.45828922,-157.69486725,-86.04851936
-3.54322481,15.81848050,36.83786324,-0.80602493,-0.39856871,3.00332660

>  <Name>
lig.pdb

>  <RI>
0

>  <Rbt.Current_Directory>
/home/itssahil/PROJECTS/Mol_Feturizer/New_Systems/rnas/4k32

>  <Rbt.Executable>
rbdock ($Id: //depot/dev/client3/rdock/2013.1/src/exe/rbdock.cxx#4 $)

>  <Rbt.Library>
libRbt.so (2013.1, Build901 2013/11/27)

>  <Rbt.Parameter_File>
/export/apps/rDock/src/rDock_2013.1_src/data/scripts/dock_solv.prm

>  <Rbt.Receptor>
prm/pocket_docking_3.prm

>  <SCORE>
-18.6428

>  <SCORE.INTER>
-16.244

>  <SCORE.INTER.CONST>
1

>  <SCORE.INTER.POLAR>
0

>  <SCORE.INTER.ROT>
6

>  <SCORE.INTER.SOLV>
24.916

>  <SCORE.INTER.VDW>
-26.7347

>  <SCORE.INTER.norm>
-0.477764

>  <SCORE.INTRA>
-2.39886

>  <SCORE.INTRA.DIHEDRAL>
-5.25651

>  <SCORE.INTRA.DIHEDRAL.0>
18.0069

>  <SCORE.INTRA.POLAR>
0

>  <SCORE.INTRA.POLAR.0>
0

>  <SCORE.INTRA.REPUL>
0

>  <SCORE.INTRA.REPUL.0>
0

>  <SCORE.INTRA.SOLV>
-0.0410592

>  <SCORE.INTRA.SOLV.lig_0>
-70.7393

>  <SCORE.INTRA.VDW>
0.249928

>  <SCORE.INTRA.VDW.0>
-3.23471

>  <SCORE.INTRA.norm>
-0.0705546

>  <SCORE.RESTR>
0

>  <SCORE.RESTR.CAVITY>
0

>  <SCORE.RESTR.norm>
0

>  <SCORE.SYSTEM>
0

>  <SCORE.SYSTEM.CONST>
0

>  <SCORE.SYSTEM.DIHEDRAL>
0

>  <SCORE.SYSTEM.SOLV>
0

>  <SCORE.SYSTEM.norm>
0

>  <SCORE.heavy>
34

>  <SCORE.norm>
-0.548319

>  <RMSD>
0.598

$$$$
lig.pdb
 OpenBabel11021811503D
libRbt.so/2013.1/901 2013/11/27
 34 36  0  0  0  0  0  0  0  0999 V2000
   -1.2902   16.8185   35.2704 C   0  0  2  0  0  0  0  0  0  0  0  0
   -1.7691   17.1753   36.5718 O   0  0  0  0  0  0  0  0  0  0  0  0
    0.2590   16.4870   35.3769 C   0  0  2  0  0  0  0  0  0  0  0  0
    0.5182   15.3568   36.2991 N   0  0  0  0  0  0  0  0  0  0  0  0
    1.0235   17.7462   35.8572 C   0  0  1  0  0  0  0  0  0  0  0  0
    2.4225   17.4689   35.9526 O   0  0  0  0  0  0  0  0  0  0  0  0
    0.7462   18.8939   34.8700 C   0  0  2  0  0  0  0  0  0  0  0  0
    1.4487   20.0613   35.2993 O   0  0  0  0  0  0  0  0  0  0  0  0
   -0.8050   19.1666   34.7943 C   0  0  2  0  0  0  0  0  0  0  0  0
   -1.5303   17.9504   34.3692 O   0  0  0  0  0  0  0  0  0  0  0  0
   -1.1355   20.3056   33.7980 C   0  0  2  0  0  0  0  0  0  0  0  0
   -2.5071   20.6830   33.9316 O   0  0  0  0  0  0  0  0  0  0  0  0
   -0.8898   19.8685   32.3622 C   0  0  0  0  0  0  0  0  0  0  0  0
   -5.5181   17.0376   38.6315 C   0  0  2  0  0  0  0  0  0  0  0  0
   -6.9536   17.1306   38.9086 N   0  0  0  0  0  0  0  0  0  0  0  0
   -5.0799   18.3932   38.0117 C   0  0  0  0  0  0  0  0  0  0  0  0
   -3.5540   18.3230   37.7329 C   0  0  2  0  0  0  0  0  0  0  0  0
   -3.0925   19.5920   37.1485 N   0  0  0  0  0  0  0  0  0  0  0  0
   -3.2203   17.1619   36.7582 C   0  0  2  0  0  0  0  0  0  0  0  0
   -3.7107   15.8169   37.3813 C   0  0  2  0  0  0  0  0  0  0  0  0
   -3.4122   14.7464   36.4750 O   0  0  0  0  0  0  0  0  0  0  0  0
   -5.2398   15.8466   37.6207 C   0  0  1  0  0  0  0  0  0  0  0  0
   -5.6098   14.5742   38.2071 O   0  0  0  0  0  0  0  0  0  0  0  0
   -6.9196   14.0693   37.8563 C   0  0  2  0  0  0  0  0  0  0  0  0
   -7.2711   12.9776   38.9343 C   0  0  2  0  0  0  0  0  0  0  0  0
   -7.2997   13.5663   40.2249 O   0  0  0  0  0  0  0  0  0  0  0  0
   -6.1995   11.8246   38.8638 C   0  0  1  0  0  0  0  0  0  0  0  0
   -6.4886   10.7673   39.8801 N   0  0  0  0  0  0  0  0  0  0  0  0
   -5.8045   11.1179   41.1433 C   0  0  0  0  0  0  0  0  0  0  0  0
   -6.2220   11.2156   37.4288 C   0  0  2  0  0  0  0  0  0  0  0  0
   -7.5205   10.6795   37.1797 O   0  0  0  0  0  0  0  0  0  0  0  0
   -5.2009   10.0914   37.2738 C   0  0  0  0  0  0  0  0  0  0  0  0
   -5.9202   12.3425   36.3895 C   0  0  0  0  0  0  0  0  0  0  0  0
   -6.8898   13.4510   36.5156 O   0  0  0  0  0  0  0  0  0  0  0  0
  1  3  1  0  0  0  0
  1  2  1  1  0  0  0
  3  5  1  0  0  0  0
  3  4  1  1  0  0  0
  5  6  1  6  0  0  0
  7  8  1  1  0  0  0
  7  5  1  0  0  0  0
  9 10  1  6  0  0  0
  9  7  1  0  0  0  0
 10  1  1  0  0  0  0
 11 13  1  6  0  0  0
 11  9  1  0  0  0  0
 12 11  1  0  0  0  0
 14 15  1  6  0  0  0
 16 14  1  0  0  0  0
 17 18  1  6  0  0  0
 17 16  1  0  0  0  0
 19  2  1  1  0  0  0
 19 20  1  0  0  0  0
 19 17  1  0  0  0  0
 20 21  1  6  0  0  0
 20 22  1  0  0  0  0
 22 23  1  1  0  0  0
 22 14  1  0  0  0  0
 24 23  1  1  0  0  0
 24 25  1  0  0  0  0
 25 27  1  0  0  0  0
 25 26  1  1  0  0  0
 27 28  1  1  0  0  0
 28 29  1  0  0  0  0
 30 31  1  6  0  0  0
 30 32  1  0  0  0  0
 30 27  1  0  0  0  0
 33 30  1  0  0  0  0
 34 33  1  0  0  0  0
 34 24  1  0  0  0  0
M  END
>  <CHROM.1>
-163.92043428,-169.74493421,-144.84827265,96.91039586,-162.08988330,-89.21338367
-3.54227697,15.83579089,36.84908815,-0.81025775,-0.39525228,2.99229535

>  <Name>
lig.pdb

>  <RI>
0

>  <Rbt.Current_Directory>
/home/itssahil/PROJECTS/Mol_Feturizer/New_Systems/rnas/4k32

>  <Rbt.Executable>
rbdock ($Id: //depot/dev/client3/rdock/2013.1/src/exe/rbdock.cxx#4 $)

>  <Rbt.Library>
libRbt.so (2013.1, Build901 2013/11/27)

>  <Rbt.Parameter_File>
/export/apps/rDock/src/rDock_2013.1_src/data/scripts/dock_solv.prm

>  <Rbt.Receptor>
prm/pocket_docking_4.prm

>  <SCORE>
-18.7423

>  <SCORE.INTER>
-16.2172

>  <SCORE.INTER.CONST>
1

>  <SCORE.INTER.POLAR>
0

>  <SCORE.INTER.ROT>
6

>  <SCORE.INTER.SOLV>
24.7283

>  <SCORE.INTER.VDW>
-26.6542

>  <SCORE.INTER.norm>
-0.476976

>  <SCORE.INTRA>
-2.52514

>  <SCORE.INTRA.DIHEDRAL>
-4.93605

>  <SCORE.INTRA.DIHEDRAL.0>
18.0069

>  <SCORE.INTRA.POLAR>
0

>  <SCORE.INTRA.POLAR.0>
0

>  <SCORE.INTRA.REPUL>
0

>  <SCORE.INTRA.REPUL.0>
0

>  <SCORE.INTRA.SOLV>
0.0833344

>  <SCORE.INTRA.SOLV.lig_0>
-70.7393

>  <SCORE.INTRA.VDW>
-0.098781

>  <SCORE.INTRA.VDW.0>
-3.23471

>  <SCORE.INTRA.norm>
-0.0742688

>  <SCORE.RESTR>
0

>  <SCORE.RESTR.CAVITY>
0

>  <SCORE.RESTR.norm>
0

>  <SCORE.SYSTEM>
0

>  <SCORE.SYSTEM.CONST>
0

>  <SCORE.SYSTEM.DIHEDRAL>
0

>  <SCORE.SYSTEM.SOLV>
0

>  <SCORE.SYSTEM.norm>
0

>  <SCORE.heavy>
34

>  <SCORE.norm>
-0.551245

>  <RMSD>
0.612

$$$$
lig.pdb
 OpenBabel11021811503D
libRbt.so/2013.1/901 2013/11/27
 34 36  0  0  0  0  0  0  0  0999 V2000
   -1.2704   16.8401   35.2648 C   0  0  2  0  0  0  0  0  0  0  0  0
   -1.7584   17.2003   36.5618 O   0  0  0  0  0  0  0  0  0  0  0  0
    0.2772   16.5055   35.3837 C   0  0  2  0  0  0  0  0  0  0  0  0
    0.5270   15.3765   36.3099 N   0  0  0  0  0  0  0  0  0  0  0  0
    1.0407   17.7640   35.8675 C   0  0  1  0  0  0  0  0  0  0  0  0
    2.4384   17.4839   35.9740 O   0  0  0  0  0  0  0  0  0  0  0  0
    0.7734   18.9105   34.8760 C   0  0  2  0  0  0  0  0  0  0  0  0
    1.4751   20.0771   35.3084 O   0  0  0  0  0  0  0  0  0  0  0  0
   -0.7766   19.1863   34.7879 C   0  0  2  0  0  0  0  0  0  0  0  0
   -1.5013   17.9708   34.3597 O   0  0  0  0  0  0  0  0  0  0  0  0
   -1.0971   20.3241   33.7870 C   0  0  2  0  0  0  0  0  0  0  0  0
   -2.4702   20.7011   33.9058 O   0  0  0  0  0  0  0  0  0  0  0  0
   -0.8362   19.8856   32.3544 C   0  0  0  0  0  0  0  0  0  0  0  0
   -5.5172   17.0261   38.6008 C   0  0  2  0  0  0  0  0  0  0  0  0
   -6.9546   17.1101   38.8714 N   0  0  0  0  0  0  0  0  0  0  0  0
   -5.0819   18.3896   37.9964 C   0  0  0  0  0  0  0  0  0  0  0  0
   -3.5543   18.3289   37.7248 C   0  0  2  0  0  0  0  0  0  0  0  0
   -3.0955   19.6055   37.1551 N   0  0  0  0  0  0  0  0  0  0  0  0
   -3.2105   17.1788   36.7406 C   0  0  2  0  0  0  0  0  0  0  0  0
   -3.6980   15.8257   37.3482 C   0  0  2  0  0  0  0  0  0  0  0  0
   -3.3902   14.7653   36.4330 O   0  0  0  0  0  0  0  0  0  0  0  0
   -5.2285   15.8463   37.5800 C   0  0  1  0  0  0  0  0  0  0  0  0
   -5.5958   14.5666   38.1522 O   0  0  0  0  0  0  0  0  0  0  0  0
   -6.9218   14.0841   37.8320 C   0  0  2  0  0  0  0  0  0  0  0  0
   -7.2735   13.0106   38.9282 C   0  0  2  0  0  0  0  0  0  0  0  0
   -7.2654   13.6131   40.2128 O   0  0  0  0  0  0  0  0  0  0  0  0
   -6.2262   11.8361   38.8493 C   0  0  1  0  0  0  0  0  0  0  0  0
   -6.5161   10.7952   39.8822 N   0  0  0  0  0  0  0  0  0  0  0  0
   -5.8410   11.1711   41.1430 C   0  0  0  0  0  0  0  0  0  0  0  0
   -6.2885   11.2129   37.4216 C   0  0  2  0  0  0  0  0  0  0  0  0
   -7.6019   10.7001   37.2034 O   0  0  0  0  0  0  0  0  0  0  0  0
   -5.2928   10.0672   37.2591 C   0  0  0  0  0  0  0  0  0  0  0  0
   -5.9851   12.3229   36.3648 C   0  0  0  0  0  0  0  0  0  0  0  0
   -6.9301   13.4516   36.4977 O   0  0  0  0  0  0  0  0  0  0  0  0
  1  3  1  0  0  0  0
  1  2  1  1  0  0  0
  3  5  1  0  0  0  0
  3  4  1  1  0  0  0
  5  6  1  6  0  0  0
  7  8  1  1  0  0  0
  7  5  1  0  0  0  0
  9 10  1  6  0  0  0
  9  7  1  0  0  0  0
 10  1  1  0  0  0  0
 11 13  1  6  0  0  0
 11  9  1  0  0  0  0
 12 11  1  0  0  0  0
 14 15  1  6  0  0  0
 16 14  1  0  0  0  0
 17 18  1  6  0  0  0
 17 16  1  0  0  0  0
 19  2  1  1  0  0  0
 19 20  1  0  0  0  0
 19 17  1  0  0  0  0
 20 21  1  6  0  0  0
 20 22  1  0  0  0  0
 22 23  1  1  0  0  0
 22 14  1  0  0  0  0
 24 23  1  1  0  0  0
 24 25  1  0  0  0  0
 25 27  1  0  0  0  0
 25 26  1  1  0  0  0
 27 28  1  1  0  0  0
 28 29  1  0  0  0  0
 30 31  1  6  0  0  0
 30 32  1  0  0  0  0
 30 27  1  0  0  0  0
 33 30  1  0  0  0  0
 34 33  1  0  0  0  0
 34 24  1  0  0  0  0
M  END
>  <CHROM.1>
-163.38871299,-169.97004188,-145.69766394,94.57377828,-160.16796976,-87.16500174
-3.54252566,15.84856861,36.83791468,-0.80721440,-0.38830529,2.99123940

>  <Name>
lig.pdb

>  <RI>
0

>  <Rbt.Current_Directory>
/home/itssahil/PROJECTS/Mol_Feturizer/New_Systems/rnas/4k32

>  <Rbt.Executable>
rbdock ($Id: //depot/dev/client3/rdock/2013.1/src/exe/rbdock.cxx#4 $)

>  <Rbt.Library>
libRbt.so (2013.1, Build901 2013/11/27)

>  <Rbt.Parameter_File>
/export/apps/rDock/src/rDock_2013.1_src/data/scripts/dock_solv.prm

>  <Rbt.Receptor>
prm/pocket_docking_4.prm

>  <SCORE>
-18.7204

>  <SCORE.INTER>
-16.2429

>  <SCORE.INTER.CONST>
1

>  <SCORE.INTER.POLAR>
0

>  <SCORE.INTER.ROT>
6

>  <SCORE.INTER.SOLV>
24.8523

>  <SCORE.INTER.VDW>
-26.7127

>  <SCORE.INTER.norm>
-0.477733

>  <SCORE.INTRA>
-2.47745

>  <SCORE.INTRA.DIHEDRAL>
-5.20854

>  <SCORE.INTRA.DIHEDRAL.0>
18.0069

>  <SCORE.INTRA.POLAR>
0

>  <SCORE.INTRA.POLAR.0>
0

>  <SCORE.INTRA.REPUL>
0

>  <SCORE.INTRA.REPUL.0>
0

>  <SCORE.INTRA.SOLV>
0.0929483

>  <SCORE.INTRA.SOLV.lig_0>
-70.7393

>  <SCORE.INTRA.VDW>
0.080345

>  <SCORE.INTRA.VDW.0>
-3.23471

>  <SCORE.INTRA.norm>
-0.0728663

>  <SCORE.RESTR>
0

>  <SCORE.RESTR.CAVITY>
0

>  <SCORE.RESTR.norm>
0

>  <SCORE.SYSTEM>
0

>  <SCORE.SYSTEM.CONST>
0

>  <SCORE.SYSTEM.DIHEDRAL>
0

>  <SCORE.SYSTEM.SOLV>
0

>  <SCORE.SYSTEM.norm>
0

>  <SCORE.heavy>
34

>  <SCORE.norm>
-0.550599

>  <RMSD>
0.612

$$$$
lig.pdb
 OpenBabel11021811503D
libRbt.so/2013.1/901 2013/11/27
 34 36  0  0  0  0  0  0  0  0999 V2000
   -1.2697   16.8183   35.2643 C   0  0  2  0  0  0  0  0  0  0  0  0
   -1.7554   17.1804   36.5616 O   0  0  0  0  0  0  0  0  0  0  0  0
    0.2766   16.4773   35.3821 C   0  0  2  0  0  0  0  0  0  0  0  0
    0.5223   15.3472   36.3082 N   0  0  0  0  0  0  0  0  0  0  0  0
    1.0456   17.7327   35.8655 C   0  0  1  0  0  0  0  0  0  0  0  0
    2.4422   17.4467   35.9712 O   0  0  0  0  0  0  0  0  0  0  0  0
    0.7824   18.8803   34.8743 C   0  0  2  0  0  0  0  0  0  0  0  0
    1.4891   20.0440   35.3064 O   0  0  0  0  0  0  0  0  0  0  0  0
   -0.7666   19.1625   34.7873 C   0  0  2  0  0  0  0  0  0  0  0  0
   -1.4965   17.9500   34.3594 O   0  0  0  0  0  0  0  0  0  0  0  0
   -1.0829   20.3017   33.7867 C   0  0  2  0  0  0  0  0  0  0  0  0
   -2.4439   20.7114   33.9339 O   0  0  0  0  0  0  0  0  0  0  0  0
   -0.8648   19.8489   32.3514 C   0  0  0  0  0  0  0  0  0  0  0  0
   -5.5125   17.0150   38.6044 C   0  0  2  0  0  0  0  0  0  0  0  0
   -6.9493   17.1029   38.8766 N   0  0  0  0  0  0  0  0  0  0  0  0
   -5.0739   18.3778   38.0010 C   0  0  0  0  0  0  0  0  0  0  0  0
   -3.5468   18.3130   37.7277 C   0  0  2  0  0  0  0  0  0  0  0  0
   -3.0849   19.5889   37.1588 N   0  0  0  0  0  0  0  0  0  0  0  0
   -3.2073   17.1629   36.7419 C   0  0  2  0  0  0  0  0  0  0  0  0
   -3.6981   15.8106   37.3486 C   0  0  2  0  0  0  0  0  0  0  0  0
   -3.3943   14.7503   36.4321 O   0  0  0  0  0  0  0  0  0  0  0  0
   -5.2283   15.8354   37.5820 C   0  0  1  0  0  0  0  0  0  0  0  0
   -5.5987   14.5562   38.1533 O   0  0  0  0  0  0  0  0  0  0  0  0
   -6.9218   14.0719   37.8238 C   0  0  2  0  0  0  0  0  0  0  0  0
   -7.2744   12.9886   38.9098 C   0  0  2  0  0  0  0  0  0  0  0  0
   -7.2737   13.5807   40.1992 O   0  0  0  0  0  0  0  0  0  0  0  0
   -6.2229   11.8181   38.8259 C   0  0  1  0  0  0  0  0  0  0  0  0
   -6.5137   10.7681   39.8492 N   0  0  0  0  0  0  0  0  0  0  0  0
   -5.8361   11.1304   41.1127 C   0  0  0  0  0  0  0  0  0  0  0  0
   -6.2772   11.2062   37.3930 C   0  0  2  0  0  0  0  0  0  0  0  0
   -7.5880   10.6908   37.1652 O   0  0  0  0  0  0  0  0  0  0  0  0
   -5.2771   10.0651   37.2255 C   0  0  0  0  0  0  0  0  0  0  0  0
   -5.9731   12.3257   36.3464 C   0  0  0  0  0  0  0  0  0  0  0  0
   -6.9225   13.4501   36.4843 O   0  0  0  0  0  0  0  0  0  0  0  0
  1  3  1  0  0  0  0
  1  2  1  1  0  0  0
  3  5  1  0  0  0  0
  3  4  1  1  0  0  0
  5  6  1  6  0  0  0
  7  8  1  1  0  0  0
  7  5  1  0  0  0  0
  9 10  1  6  0  0  0
  9  7  1  0  0  0  0
 10  1  1  0  0  0  0
 11 13  1  6  0  0  0
 11  9  1  0  0  0  0
 12 11  1  0  0  0  0
 14 15  1  6  0  0  0
 16 14  1  0  0  0  0
 17 18  1  6  0  0  0
 17 16  1  0  0  0  0
 19  2  1  1  0  0  0
 19 20  1  0  0  0  0
 19 17  1  0  0  0  0
 20 21  1  6  0  0  0
 20 22  1  0  0  0  0
 22 23  1  1  0  0  0
 22 14  1  0  0  0  0
 24 23  1  1  0  0  0
 24 25  1  0  0  0  0
 25 27  1  0  0  0  0
 25 26  1  1  0  0  0
 27 28  1  1  0  0  0
 28 29  1  0  0  0  0
 30 31  1  6  0  0  0
 30 32  1  0  0  0  0
 30 27  1  0  0  0  0
 33 30  1  0  0  0  0
 34 33  1  0  0  0  0
 34 24  1  0  0  0  0
M  END
>  <CHROM.1>
-163.30019502,-168.26428884,-145.78363514,95.13688042,-160.76097372,-87.61560808
-3.53808469,15.83023803,36.83132053,-0.80504420,-0.39054517,2.99642777

>  <Name>
lig.pdb

>  <RI>
0

>  <Rbt.Current_Directory>
/home/itssahil/PROJECTS/Mol_Feturizer/New_Systems/rnas/4k32

>  <Rbt.Executable>
rbdock ($Id: //depot/dev/client3/rdock/2013.1/src/exe/rbdock.cxx#4 $)

>  <Rbt.Library>
libRbt.so (2013.1, Build901 2013/11/27)

>  <Rbt.Parameter_File>
/export/apps/rDock/src/rDock_2013.1_src/data/scripts/dock_solv.prm

>  <Rbt.Receptor>
prm/pocket_docking_4.prm

>  <SCORE>
-18.7646

>  <SCORE.INTER>
-16.3421

>  <SCORE.INTER.CONST>
1

>  <SCORE.INTER.POLAR>
0

>  <SCORE.INTER.ROT>
6

>  <SCORE.INTER.SOLV>
24.837

>  <SCORE.INTER.VDW>
-26.7737

>  <SCORE.INTER.norm>
-0.48065

>  <SCORE.INTRA>
-2.42246

>  <SCORE.INTRA.DIHEDRAL>
-5.05998

>  <SCORE.INTRA.DIHEDRAL.0>
18.0069

>  <SCORE.INTRA.POLAR>
0

>  <SCORE.INTRA.POLAR.0>
0

>  <SCORE.INTRA.REPUL>
0

>  <SCORE.INTRA.REPUL.0>
0

>  <SCORE.INTRA.SOLV>
0.0677944

>  <SCORE.INTRA.SOLV.lig_0>
-70.7393

>  <SCORE.INTRA.VDW>
0.0736351

>  <SCORE.INTRA.VDW.0>
-3.23471

>  <SCORE.INTRA.norm>
-0.0712487

>  <SCORE.RESTR>
0

>  <SCORE.RESTR.CAVITY>
0

>  <SCORE.RESTR.norm>
0

>  <SCORE.SYSTEM>
0

>  <SCORE.SYSTEM.CONST>
0

>  <SCORE.SYSTEM.DIHEDRAL>
0

>  <SCORE.SYSTEM.SOLV>
0

>  <SCORE.SYSTEM.norm>
0

>  <SCORE.heavy>
34

>  <SCORE.norm>
-0.551899

>  <RMSD>
0.615

$$$$
lig.pdb
 OpenBabel11021811503D
libRbt.so/2013.1/901 2013/11/27
 34 36  0  0  0  0  0  0  0  0999 V2000
   -1.2649   16.8365   35.2459 C   0  0  2  0  0  0  0  0  0  0  0  0
   -1.7465   17.1933   36.5462 O   0  0  0  0  0  0  0  0  0  0  0  0
    0.2823   16.4972   35.3570 C   0  0  2  0  0  0  0  0  0  0  0  0
    0.5328   15.3641   36.2781 N   0  0  0  0  0  0  0  0  0  0  0  0
    1.0512   17.7519   35.8422 C   0  0  1  0  0  0  0  0  0  0  0  0
    2.4486   17.4675   35.9418 O   0  0  0  0  0  0  0  0  0  0  0  0
    0.7829   18.9026   34.8560 C   0  0  2  0  0  0  0  0  0  0  0  0
    1.4896   20.0658   35.2898 O   0  0  0  0  0  0  0  0  0  0  0  0
   -0.7667   19.1830   34.7755 C   0  0  2  0  0  0  0  0  0  0  0  0
   -1.4965   17.9711   34.3459 O   0  0  0  0  0  0  0  0  0  0  0  0
   -1.0882   20.3253   33.7801 C   0  0  2  0  0  0  0  0  0  0  0  0
   -2.4523   20.7250   33.9259 O   0  0  0  0  0  0  0  0  0  0  0  0
   -0.8632   19.8817   32.3430 C   0  0  0  0  0  0  0  0  0  0  0  0
   -5.4971   17.0283   38.6011 C   0  0  2  0  0  0  0  0  0  0  0  0
   -6.9331   17.1154   38.8777 N   0  0  0  0  0  0  0  0  0  0  0  0
   -5.0616   18.3904   37.9937 C   0  0  0  0  0  0  0  0  0  0  0  0
   -3.5353   18.3264   37.7158 C   0  0  2  0  0  0  0  0  0  0  0  0
   -3.0763   19.6016   37.1431 N   0  0  0  0  0  0  0  0  0  0  0  0
   -3.1978   17.1748   36.7312 C   0  0  2  0  0  0  0  0  0  0  0  0
   -3.6855   15.8232   37.3419 C   0  0  2  0  0  0  0  0  0  0  0  0
   -3.3836   14.7614   36.4264 O   0  0  0  0  0  0  0  0  0  0  0  0
   -5.2149   15.8470   37.5801 C   0  0  1  0  0  0  0  0  0  0  0  0
   -5.5825   14.5686   38.1549 O   0  0  0  0  0  0  0  0  0  0  0  0
   -6.9117   14.0896   37.8428 C   0  0  2  0  0  0  0  0  0  0  0  0
   -7.2563   13.0110   38.9361 C   0  0  2  0  0  0  0  0  0  0  0  0
   -7.2372   13.6068   40.2237 O   0  0  0  0  0  0  0  0  0  0  0  0
   -6.2113   11.8354   38.8429 C   0  0  1  0  0  0  0  0  0  0  0  0
   -6.4947   10.7896   39.8727 N   0  0  0  0  0  0  0  0  0  0  0  0
   -5.7936   11.1482   41.1243 C   0  0  0  0  0  0  0  0  0  0  0  0
   -6.2859   11.2197   37.4125 C   0  0  2  0  0  0  0  0  0  0  0  0
   -7.6017   10.7099   37.2020 O   0  0  0  0  0  0  0  0  0  0  0  0
   -5.2932   10.0735   37.2361 C   0  0  0  0  0  0  0  0  0  0  0  0
   -5.9892   12.3348   36.3591 C   0  0  0  0  0  0  0  0  0  0  0  0
   -6.9315   13.4641   36.5053 O   0  0  0  0  0  0  0  0  0  0  0  0
  1  3  1  0  0  0  0
  1  2  1  1  0  0  0
  3  5  1  0  0  0  0
  3  4  1  1  0  0  0
  5  6  1  6  0  0  0
  7  8  1  1  0  0  0
  7  5  1  0  0  0  0
  9 10  1  6  0  0  0
  9  7  1  0  0  0  0
 10  1  1  0  0  0  0
 11 13  1  6  0  0  0
 11  9  1  0  0  0  0
 12 11  1  0  0  0  0
 14 15  1  6  0  0  0
 16 14  1  0  0  0  0
 17 18  1  6  0  0  0
 17 16  1  0  0  0  0
 19  2  1  1  0  0  0
 19 20  1  0  0  0  0
 19 17  1  0  0  0  0
 20 21  1  6  0  0  0
 20 22  1  0  0  0  0
 22 23  1  1  0  0  0
 22 14  1  0  0  0  0
 24 23  1  1  0  0  0
 24 25  1  0  0  0  0
 25 27  1  0  0  0  0
 25 26  1  1  0  0  0
 27 28  1  1  0  0  0
 28 29  1  0  0  0  0
 30 31  1  6  0  0  0
 30 32  1  0  0  0  0
 30 27  1  0  0  0  0
 33 30  1  0  0  0  0
 34 33  1  0  0  0  0
 34 24  1  0  0  0  0
M  END
>  <CHROM.1>
-163.37823033,-168.74652500,-145.44137879,94.46187646,-160.51352717,-87.94732093
-3.53132260,15.84717069,36.82958582,-0.80694599,-0.39110480,2.99213410

>  <Name>
lig.pdb

>  <RI>
0

>  <Rbt.Current_Directory>
/home/itssahil/PROJECTS/Mol_Feturizer/New_Systems/rnas/4k32

>  <Rbt.Executable>
rbdock ($Id: //depot/dev/client3/rdock/2013.1/src/exe/rbdock.cxx#4 $)

>  <Rbt.Library>
libRbt.so (2013.1, Build901 2013/11/27)

>  <Rbt.Parameter_File>
/export/apps/rDock/src/rDock_2013.1_src/data/scripts/dock_solv.prm

>  <Rbt.Receptor>
prm/pocket_docking_3.prm

>  <SCORE>
-18.7479

>  <SCORE.INTER>
-16.2903

>  <SCORE.INTER.CONST>
1

>  <SCORE.INTER.POLAR>
0

>  <SCORE.INTER.ROT>
6

>  <SCORE.INTER.SOLV>
24.8535

>  <SCORE.INTER.VDW>
-26.7447

>  <SCORE.INTER.norm>
-0.479125

>  <SCORE.INTRA>
-2.45763

>  <SCORE.INTRA.DIHEDRAL>
-5.11911

>  <SCORE.INTRA.DIHEDRAL.0>
18.0069

>  <SCORE.INTRA.POLAR>
0

>  <SCORE.INTRA.POLAR.0>
0

>  <SCORE.INTRA.REPUL>
0

>  <SCORE.INTRA.REPUL.0>
0

>  <SCORE.INTRA.SOLV>
0.106896

>  <SCORE.INTRA.SOLV.lig_0>
-70.7393

>  <SCORE.INTRA.VDW>
0.0484723

>  <SCORE.INTRA.VDW.0>
-3.23471

>  <SCORE.INTRA.norm>
-0.0722833

>  <SCORE.RESTR>
0

>  <SCORE.RESTR.CAVITY>
0

>  <SCORE.RESTR.norm>
0

>  <SCORE.SYSTEM>
0

>  <SCORE.SYSTEM.CONST>
0

>  <SCORE.SYSTEM.DIHEDRAL>
0

>  <SCORE.SYSTEM.SOLV>
0

>  <SCORE.SYSTEM.norm>
0

>  <SCORE.heavy>
34

>  <SCORE.norm>
-0.551408

>  <RMSD>
0.618

$$$$
lig.pdb
 OpenBabel11021811503D
libRbt.so/2013.1/901 2013/11/27
 34 36  0  0  0  0  0  0  0  0999 V2000
   -1.2602   16.8294   35.2672 C   0  0  2  0  0  0  0  0  0  0  0  0
   -1.7576   17.1823   36.5627 O   0  0  0  0  0  0  0  0  0  0  0  0
    0.2885   16.5028   35.3937 C   0  0  2  0  0  0  0  0  0  0  0  0
    0.5393   15.3719   36.3174 N   0  0  0  0  0  0  0  0  0  0  0  0
    1.0423   17.7638   35.8863 C   0  0  1  0  0  0  0  0  0  0  0  0
    2.4409   17.4909   35.9998 O   0  0  0  0  0  0  0  0  0  0  0  0
    0.7743   18.9123   34.8974 C   0  0  2  0  0  0  0  0  0  0  0  0
    1.4671   20.0812   35.3380 O   0  0  0  0  0  0  0  0  0  0  0  0
   -0.7767   19.1799   34.8015 C   0  0  2  0  0  0  0  0  0  0  0  0
   -1.4922   17.9620   34.3648 O   0  0  0  0  0  0  0  0  0  0  0  0
   -1.0977   20.3195   33.8028 C   0  0  2  0  0  0  0  0  0  0  0  0
   -2.4566   20.7322   33.9596 O   0  0  0  0  0  0  0  0  0  0  0  0
   -0.8906   19.8659   32.3662 C   0  0  0  0  0  0  0  0  0  0  0  0
   -5.5365   17.0788   38.5690 C   0  0  2  0  0  0  0  0  0  0  0  0
   -6.9761   17.1750   38.8230 N   0  0  0  0  0  0  0  0  0  0  0  0
   -5.0908   18.4228   37.9297 C   0  0  0  0  0  0  0  0  0  0  0  0
   -3.5609   18.3496   37.6749 C   0  0  2  0  0  0  0  0  0  0  0  0
   -3.0923   19.6077   37.0730 N   0  0  0  0  0  0  0  0  0  0  0  0
   -3.2113   17.1704   36.7278 C   0  0  2  0  0  0  0  0  0  0  0  0
   -3.7093   15.8370   37.3695 C   0  0  2  0  0  0  0  0  0  0  0  0
   -3.3961   14.7496   36.4885 O   0  0  0  0  0  0  0  0  0  0  0  0
   -5.2418   15.8689   37.5856 C   0  0  1  0  0  0  0  0  0  0  0  0
   -5.6190   14.6076   38.1910 O   0  0  0  0  0  0  0  0  0  0  0  0
   -6.9287   14.1012   37.8420 C   0  0  2  0  0  0  0  0  0  0  0  0
   -7.2826   13.0175   38.9273 C   0  0  2  0  0  0  0  0  0  0  0  0
   -7.3125   13.6156   40.2137 O   0  0  0  0  0  0  0  0  0  0  0  0
   -6.2118   11.8632   38.8666 C   0  0  1  0  0  0  0  0  0  0  0  0
   -6.5033   10.8135   39.8901 N   0  0  0  0  0  0  0  0  0  0  0  0
   -5.8193   11.1718   41.1512 C   0  0  0  0  0  0  0  0  0  0  0  0
   -6.2328   11.2439   37.4360 C   0  0  2  0  0  0  0  0  0  0  0  0
   -7.5315   10.7071   37.1890 O   0  0  0  0  0  0  0  0  0  0  0  0
   -5.2125   10.1178   37.2906 C   0  0  0  0  0  0  0  0  0  0  0  0
   -5.9287   12.3631   36.3891 C   0  0  0  0  0  0  0  0  0  0  0  0
   -6.8975   13.4732   36.5058 O   0  0  0  0  0  0  0  0  0  0  0  0
  1  3  1  0  0  0  0
  1  2  1  1  0  0  0
  3  5  1  0  0  0  0
  3  4  1  1  0  0  0
  5  6  1  6  0  0  0
  7  8  1  1  0  0  0
  7  5  1  0  0  0  0
  9 10  1  6  0  0  0
  9  7  1  0  0  0  0
 10  1  1  0  0  0  0
 11 13  1  6  0  0  0
 11  9  1  0  0  0  0
 12 11  1  0  0  0  0
 14 15  1  6  0  0  0
 16 14  1  0  0  0  0
 17 18  1  6  0  0  0
 17 16  1  0  0  0  0
 19  2  1  1  0  0  0
 19 20  1  0  0  0  0
 19 17  1  0  0  0  0
 20 21  1  6  0  0  0
 20 22  1  0  0  0  0
 22 23  1  1  0  0  0
 22 14  1  0  0  0  0
 24 23  1  1  0  0  0
 24 25  1  0  0  0  0
 25 27  1  0  0  0  0
 25 26  1  1  0  0  0
 27 28  1  1  0  0  0
 28 29  1  0  0  0  0
 30 31  1  6  0  0  0
 30 32  1  0  0  0  0
 30 27  1  0  0  0  0
 33 30  1  0  0  0  0
 34 33  1  0  0  0  0
 34 24  1  0  0  0  0
M  END
>  <CHROM.1>
-164.22149282,-167.22012953,-143.53138008,96.26552225,-162.67222532,-89.28165735
-3.53740154,15.86060742,36.84316464,0.81244571,0.37684038,-0.16367660

>  <Name>
lig.pdb

>  <RI>
0

>  <Rbt.Current_Directory>
/home/itssahil/PROJECTS/Mol_Feturizer/New_Systems/rnas/4k32

>  <Rbt.Executable>
rbdock ($Id: //depot/dev/client3/rdock/2013.1/src/exe/rbdock.cxx#4 $)

>  <Rbt.Library>
libRbt.so (2013.1, Build901 2013/11/27)

>  <Rbt.Parameter_File>
/export/apps/rDock/src/rDock_2013.1_src/data/scripts/dock_solv.prm

>  <Rbt.Receptor>
prm/pocket_docking_3.prm

>  <SCORE>
-18.8036

>  <SCORE.INTER>
-16.4524

>  <SCORE.INTER.CONST>
1

>  <SCORE.INTER.POLAR>
0

>  <SCORE.INTER.ROT>
6

>  <SCORE.INTER.SOLV>
24.7346

>  <SCORE.INTER.VDW>
-26.8131

>  <SCORE.INTER.norm>
-0.483894

>  <SCORE.INTRA>
-2.35123

>  <SCORE.INTRA.DIHEDRAL>
-4.73512

>  <SCORE.INTRA.DIHEDRAL.0>
18.0069

>  <SCORE.INTRA.POLAR>
0

>  <SCORE.INTRA.POLAR.0>
0

>  <SCORE.INTRA.REPUL>
0

>  <SCORE.INTRA.REPUL.0>
0

>  <SCORE.INTRA.SOLV>
0.190714

>  <SCORE.INTRA.SOLV.lig_0>
-70.7393

>  <SCORE.INTRA.VDW>
-0.0790271

>  <SCORE.INTRA.VDW.0>
-3.23471

>  <SCORE.INTRA.norm>
-0.0691538

>  <SCORE.RESTR>
0

>  <SCORE.RESTR.CAVITY>
0

>  <SCORE.RESTR.norm>
0

>  <SCORE.SYSTEM>
0

>  <SCORE.SYSTEM.CONST>
0

>  <SCORE.SYSTEM.DIHEDRAL>
0

>  <SCORE.SYSTEM.SOLV>
0

>  <SCORE.SYSTEM.norm>
0

>  <SCORE.heavy>
34

>  <SCORE.norm>
-0.553048

>  <RMSD>
0.619

$$$$
lig.pdb
 OpenBabel11021811503D
libRbt.so/2013.1/901 2013/11/27
 34 36  0  0  0  0  0  0  0  0999 V2000
   -1.2584   16.8275   35.2732 C   0  0  2  0  0  0  0  0  0  0  0  0
   -1.7459   17.1867   36.5707 O   0  0  0  0  0  0  0  0  0  0  0  0
    0.2903   16.4972   35.3903 C   0  0  2  0  0  0  0  0  0  0  0  0
    0.5443   15.3691   36.3166 N   0  0  0  0  0  0  0  0  0  0  0  0
    1.0508   17.7580   35.8728 C   0  0  1  0  0  0  0  0  0  0  0  0
    2.4494   17.4817   35.9778 O   0  0  0  0  0  0  0  0  0  0  0  0
    0.7792   18.9034   34.8814 C   0  0  2  0  0  0  0  0  0  0  0  0
    1.4782   20.0721   35.3127 O   0  0  0  0  0  0  0  0  0  0  0  0
   -0.7717   19.1749   34.7951 C   0  0  2  0  0  0  0  0  0  0  0  0
   -1.4935   17.9573   34.3680 O   0  0  0  0  0  0  0  0  0  0  0  0
   -1.0964   20.3116   33.7943 C   0  0  2  0  0  0  0  0  0  0  0  0
   -2.4610   20.7095   33.9397 O   0  0  0  0  0  0  0  0  0  0  0  0
   -0.8724   19.8610   32.3592 C   0  0  0  0  0  0  0  0  0  0  0  0
   -5.5043   17.0167   38.6108 C   0  0  2  0  0  0  0  0  0  0  0  0
   -6.9415   17.1015   38.8816 N   0  0  0  0  0  0  0  0  0  0  0  0
   -5.0687   18.3792   38.0043 C   0  0  0  0  0  0  0  0  0  0  0  0
   -3.5412   18.3176   37.7324 C   0  0  2  0  0  0  0  0  0  0  0  0
   -3.0821   19.5932   37.1607 N   0  0  0  0  0  0  0  0  0  0  0  0
   -3.1979   17.1659   36.7498 C   0  0  2  0  0  0  0  0  0  0  0  0
   -3.6857   15.8138   37.3595 C   0  0  2  0  0  0  0  0  0  0  0  0
   -3.3784   14.7521   36.4458 O   0  0  0  0  0  0  0  0  0  0  0  0
   -5.2161   15.8353   37.5915 C   0  0  1  0  0  0  0  0  0  0  0  0
   -5.5837   14.5566   38.1657 O   0  0  0  0  0  0  0  0  0  0  0  0
   -6.9139   14.0791   37.8555 C   0  0  2  0  0  0  0  0  0  0  0  0
   -7.2556   12.9962   38.9454 C   0  0  2  0  0  0  0  0  0  0  0  0
   -7.2328   13.5868   40.2353 O   0  0  0  0  0  0  0  0  0  0  0  0
   -6.2112   11.8207   38.8445 C   0  0  1  0  0  0  0  0  0  0  0  0
   -6.4918   10.7709   39.8709 N   0  0  0  0  0  0  0  0  0  0  0  0
   -5.8089   11.1380   41.1300 C   0  0  0  0  0  0  0  0  0  0  0  0
   -6.2900   11.2109   37.4119 C   0  0  2  0  0  0  0  0  0  0  0  0
   -7.6065   10.7021   37.2031 O   0  0  0  0  0  0  0  0  0  0  0  0
   -5.2981   10.0651   37.2281 C   0  0  0  0  0  0  0  0  0  0  0  0
   -5.9960   12.3300   36.3621 C   0  0  0  0  0  0  0  0  0  0  0  0
   -6.9377   13.4589   36.5155 O   0  0  0  0  0  0  0  0  0  0  0  0
  1  3  1  0  0  0  0
  1  2  1  1  0  0  0
  3  5  1  0  0  0  0
  3  4  1  1  0  0  0
  5  6  1  6  0  0  0
  7  8  1  1  0  0  0
  7  5  1  0  0  0  0
  9 10  1  6  0  0  0
  9  7  1  0  0  0  0
 10  1  1  0  0  0  0
 11 13  1  6  0  0  0
 11  9  1  0  0  0  0
 12 11  1  0  0  0  0
 14 15  1  6  0  0  0
 16 14  1  0  0  0  0
 17 18  1  6  0  0  0
 17 16  1  0  0  0  0
 19  2  1  1  0  0  0
 19 20  1  0  0  0  0
 19 17  1  0  0  0  0
 20 21  1  6  0  0  0
 20 22  1  0  0  0  0
 22 23  1  1  0  0  0
 22 14  1  0  0  0  0
 24 23  1  1  0  0  0
 24 25  1  0  0  0  0
 25 27  1  0  0  0  0
 25 26  1  1  0  0  0
 27 28  1  1  0  0  0
 28 29  1  0  0  0  0
 30 31  1  6  0  0  0
 30 32  1  0  0  0  0
 30 27  1  0  0  0  0
 33 30  1  0  0  0  0
 34 33  1  0  0  0  0
 34 24  1  0  0  0  0
M  END
>  <CHROM.1>
-163.60279385,-168.41452822,-145.55558950,94.08878113,-160.69872592,-86.84339705
-3.53384749,15.83883935,36.84445865,-0.80791067,-0.38718218,2.99128196

>  <Name>
lig.pdb

>  <RI>
0

>  <Rbt.Current_Directory>
/home/itssahil/PROJECTS/Mol_Feturizer/New_Systems/rnas/4k32

>  <Rbt.Executable>
rbdock ($Id: //depot/dev/client3/rdock/2013.1/src/exe/rbdock.cxx#4 $)

>  <Rbt.Library>
libRbt.so (2013.1, Build901 2013/11/27)

>  <Rbt.Parameter_File>
/export/apps/rDock/src/rDock_2013.1_src/data/scripts/dock_solv.prm

>  <Rbt.Receptor>
prm/pocket_docking_3.prm

>  <SCORE>
-18.7761

>  <SCORE.INTER>
-16.308

>  <SCORE.INTER.CONST>
1

>  <SCORE.INTER.POLAR>
0

>  <SCORE.INTER.ROT>
6

>  <SCORE.INTER.SOLV>
24.8294

>  <SCORE.INTER.VDW>
-26.7485

>  <SCORE.INTER.norm>
-0.479647

>  <SCORE.INTRA>
-2.46807

>  <SCORE.INTRA.DIHEDRAL>
-5.2771

>  <SCORE.INTRA.DIHEDRAL.0>
18.0069

>  <SCORE.INTRA.POLAR>
0

>  <SCORE.INTRA.POLAR.0>
0

>  <SCORE.INTRA.REPUL>
0

>  <SCORE.INTRA.REPUL.0>
0

>  <SCORE.INTRA.SOLV>
0.0950902

>  <SCORE.INTRA.SOLV.lig_0>
-70.7393

>  <SCORE.INTRA.VDW>
0.122936

>  <SCORE.INTRA.VDW.0>
-3.23471

>  <SCORE.INTRA.norm>
-0.0725903

>  <SCORE.RESTR>
0

>  <SCORE.RESTR.CAVITY>
0

>  <SCORE.RESTR.norm>
0

>  <SCORE.SYSTEM>
0

>  <SCORE.SYSTEM.CONST>
0

>  <SCORE.SYSTEM.DIHEDRAL>
0

>  <SCORE.SYSTEM.SOLV>
0

>  <SCORE.SYSTEM.norm>
0

>  <SCORE.heavy>
34

>  <SCORE.norm>
-0.552238

>  <RMSD>
0.621

$$$$
lig.pdb
 OpenBabel11021811503D
libRbt.so/2013.1/901 2013/11/27
 34 36  0  0  0  0  0  0  0  0999 V2000
   -1.2560   16.8402   35.2746 C   0  0  2  0  0  0  0  0  0  0  0  0
   -1.7475   17.1976   36.5711 O   0  0  0  0  0  0  0  0  0  0  0  0
    0.2932   16.5133   35.3955 C   0  0  2  0  0  0  0  0  0  0  0  0
    0.5474   15.3854   36.3218 N   0  0  0  0  0  0  0  0  0  0  0  0
    1.0496   17.7757   35.8806 C   0  0  1  0  0  0  0  0  0  0  0  0
    2.4485   17.5026   35.9889 O   0  0  0  0  0  0  0  0  0  0  0  0
    0.7778   18.9209   34.8890 C   0  0  2  0  0  0  0  0  0  0  0  0
    1.4729   20.0910   35.3226 O   0  0  0  0  0  0  0  0  0  0  0  0
   -0.7735   19.1889   34.7990 C   0  0  2  0  0  0  0  0  0  0  0  0
   -1.4914   17.9699   34.3695 O   0  0  0  0  0  0  0  0  0  0  0  0
   -1.0984   20.3253   33.7979 C   0  0  2  0  0  0  0  0  0  0  0  0
   -2.4590   20.7332   33.9534 O   0  0  0  0  0  0  0  0  0  0  0  0
   -0.8892   19.8696   32.3622 C   0  0  0  0  0  0  0  0  0  0  0  0
   -5.5139   17.0456   38.5979 C   0  0  2  0  0  0  0  0  0  0  0  0
   -6.9521   17.1337   38.8626 N   0  0  0  0  0  0  0  0  0  0  0  0
   -5.0747   18.4033   37.9834 C   0  0  0  0  0  0  0  0  0  0  0  0
   -3.5462   18.3383   37.7178 C   0  0  2  0  0  0  0  0  0  0  0  0
   -3.0837   19.6095   37.1388 N   0  0  0  0  0  0  0  0  0  0  0  0
   -3.2003   17.1794   36.7448 C   0  0  2  0  0  0  0  0  0  0  0  0
   -3.6917   15.8322   37.3623 C   0  0  2  0  0  0  0  0  0  0  0  0
   -3.3819   14.7636   36.4574 O   0  0  0  0  0  0  0  0  0  0  0  0
   -5.2230   15.8567   37.5883 C   0  0  1  0  0  0  0  0  0  0  0  0
   -5.5940   14.5825   38.1701 O   0  0  0  0  0  0  0  0  0  0  0  0
   -6.9210   14.1008   37.8527 C   0  0  2  0  0  0  0  0  0  0  0  0
   -7.2665   13.0192   38.9428 C   0  0  2  0  0  0  0  0  0  0  0  0
   -7.2532   13.6126   40.2316 O   0  0  0  0  0  0  0  0  0  0  0  0
   -6.2184   11.8463   38.8508 C   0  0  1  0  0  0  0  0  0  0  0  0
   -6.5025   10.7979   39.8776 N   0  0  0  0  0  0  0  0  0  0  0  0
   -5.7924   11.1467   41.1269 C   0  0  0  0  0  0  0  0  0  0  0  0
   -6.2867   11.2333   37.4190 C   0  0  2  0  0  0  0  0  0  0  0  0
   -7.6005   10.7206   37.2031 O   0  0  0  0  0  0  0  0  0  0  0  0
   -5.2906   10.0898   37.2437 C   0  0  0  0  0  0  0  0  0  0  0  0
   -5.9893   12.3511   36.3686 C   0  0  0  0  0  0  0  0  0  0  0  0
   -6.9349   13.4778   36.5139 O   0  0  0  0  0  0  0  0  0  0  0  0
  1  3  1  0  0  0  0
  1  2  1  1  0  0  0
  3  5  1  0  0  0  0
  3  4  1  1  0  0  0
  5  6  1  6  0  0  0
  7  8  1  1  0  0  0
  7  5  1  0  0  0  0
  9 10  1  6  0  0  0
  9  7  1  0  0  0  0
 10  1  1  0  0  0  0
 11 13  1  6  0  0  0
 11  9  1  0  0  0  0
 12 11  1  0  0  0  0
 14 15  1  6  0  0  0
 16 14  1  0  0  0  0
 17 18  1  6  0  0  0
 17 16  1  0  0  0  0
 19  2  1  1  0  0  0
 19 20  1  0  0  0  0
 19 17  1  0  0  0  0
 20 21  1  6  0  0  0
 20 22  1  0  0  0  0
 22 23  1  1  0  0  0
 22 14  1  0  0  0  0
 24 23  1  1  0  0  0
 24 25  1  0  0  0  0
 25 27  1  0  0  0  0
 25 26  1  1  0  0  0
 27 28  1  1  0  0  0
 28 29  1  0  0  0  0
 30 31  1  6  0  0  0
 30 32  1  0  0  0  0
 30 27  1  0  0  0  0
 33 30  1  0  0  0  0
 34 33  1  0  0  0  0
 34 24  1  0  0  0  0
M  END
>  <CHROM.1>
-163.88110995,-167.58659897,-145.01783360,94.39001836,-161.09887807,-88.66820606
-3.53656777,15.85801573,36.84535948,-0.80971965,-0.38145491,2.98579021

>  <Name>
lig.pdb

>  <RI>
0

>  <Rbt.Current_Directory>
/home/itssahil/PROJECTS/Mol_Feturizer/New_Systems/rnas/4k32

>  <Rbt.Executable>
rbdock ($Id: //depot/dev/client3/rdock/2013.1/src/exe/rbdock.cxx#4 $)

>  <Rbt.Library>
libRbt.so (2013.1, Build901 2013/11/27)

>  <Rbt.Parameter_File>
/export/apps/rDock/src/rDock_2013.1_src/data/scripts/dock_solv.prm

>  <Rbt.Receptor>
prm/pocket_docking_6.prm

>  <SCORE>
-18.7666

>  <SCORE.INTER>
-16.3011

>  <SCORE.INTER.CONST>
1

>  <SCORE.INTER.POLAR>
0

>  <SCORE.INTER.ROT>
6

>  <SCORE.INTER.SOLV>
24.8394

>  <SCORE.INTER.VDW>
-26.7472

>  <SCORE.INTER.norm>
-0.479446

>  <SCORE.INTRA>
-2.4655

>  <SCORE.INTRA.DIHEDRAL>
-5.10073

>  <SCORE.INTRA.DIHEDRAL.0>
18.0069

>  <SCORE.INTRA.POLAR>
0

>  <SCORE.INTRA.POLAR.0>
0

>  <SCORE.INTRA.REPUL>
0

>  <SCORE.INTRA.REPUL.0>
0

>  <SCORE.INTRA.SOLV>
0.123452

>  <SCORE.INTRA.SOLV.lig_0>
-70.7393

>  <SCORE.INTRA.VDW>
0.0231386

>  <SCORE.INTRA.VDW.0>
-3.23471

>  <SCORE.INTRA.norm>
-0.0725147

>  <SCORE.RESTR>
0

>  <SCORE.RESTR.CAVITY>
0

>  <SCORE.RESTR.norm>
0

>  <SCORE.SYSTEM>
0

>  <SCORE.SYSTEM.CONST>
0

>  <SCORE.SYSTEM.DIHEDRAL>
0

>  <SCORE.SYSTEM.SOLV>
0

>  <SCORE.SYSTEM.norm>
0

>  <SCORE.heavy>
34

>  <SCORE.norm>
-0.55196

>  <RMSD>
0.623

$$$$
lig.pdb
 OpenBabel11021811503D
libRbt.so/2013.1/901 2013/11/27
 34 36  0  0  0  0  0  0  0  0999 V2000
   -1.3182   16.8032   35.2763 C   0  0  2  0  0  0  0  0  0  0  0  0
   -1.7982   17.1679   36.5751 O   0  0  0  0  0  0  0  0  0  0  0  0
    0.2254   16.4491   35.3907 C   0  0  2  0  0  0  0  0  0  0  0  0
    0.4635   15.3159   36.3149 N   0  0  0  0  0  0  0  0  0  0  0  0
    1.0058   17.6974   35.8739 C   0  0  1  0  0  0  0  0  0  0  0  0
    2.4002   17.3996   35.9764 O   0  0  0  0  0  0  0  0  0  0  0  0
    0.7503   18.8483   34.8845 C   0  0  2  0  0  0  0  0  0  0  0  0
    1.4676   20.0055   35.3165 O   0  0  0  0  0  0  0  0  0  0  0  0
   -0.7964   19.1436   34.8010 C   0  0  2  0  0  0  0  0  0  0  0  0
   -1.5373   17.9378   34.3732 O   0  0  0  0  0  0  0  0  0  0  0  0
   -1.1053   20.2865   33.8023 C   0  0  2  0  0  0  0  0  0  0  0  0
   -2.4707   20.6869   33.9318 O   0  0  0  0  0  0  0  0  0  0  0  0
   -0.8632   19.8434   32.3678 C   0  0  0  0  0  0  0  0  0  0  0  0
   -5.5480   17.0311   38.6335 C   0  0  2  0  0  0  0  0  0  0  0  0
   -6.9837   17.1234   38.9098 N   0  0  0  0  0  0  0  0  0  0  0  0
   -5.1107   18.3858   38.0112 C   0  0  0  0  0  0  0  0  0  0  0  0
   -3.5846   18.3164   37.7332 C   0  0  2  0  0  0  0  0  0  0  0  0
   -3.1239   19.5846   37.1464 N   0  0  0  0  0  0  0  0  0  0  0  0
   -3.2495   17.1536   36.7609 C   0  0  2  0  0  0  0  0  0  0  0  0
   -3.7390   15.8095   37.3865 C   0  0  2  0  0  0  0  0  0  0  0  0
   -3.4392   14.7375   36.4824 O   0  0  0  0  0  0  0  0  0  0  0  0
   -5.2682   15.8383   37.6252 C   0  0  1  0  0  0  0  0  0  0  0  0
   -5.6374   14.5668   38.2140 O   0  0  0  0  0  0  0  0  0  0  0  0
   -6.9472   14.0607   37.8647 C   0  0  2  0  0  0  0  0  0  0  0  0
   -7.2904   12.9588   38.9349 C   0  0  2  0  0  0  0  0  0  0  0  0
   -7.3151   13.5366   40.2307 O   0  0  0  0  0  0  0  0  0  0  0  0
   -6.2156   11.8099   38.8500 C   0  0  1  0  0  0  0  0  0  0  0  0
   -6.4969   10.7431   39.8586 N   0  0  0  0  0  0  0  0  0  0  0  0
   -5.8289   11.0978   41.1292 C   0  0  0  0  0  0  0  0  0  0  0  0
   -6.2425   11.2129   37.4100 C   0  0  2  0  0  0  0  0  0  0  0  0
   -7.5405   10.6749   37.1622 O   0  0  0  0  0  0  0  0  0  0  0  0
   -5.2187   10.0933   37.2411 C   0  0  0  0  0  0  0  0  0  0  0  0
   -5.9489   12.3495   36.3790 C   0  0  0  0  0  0  0  0  0  0  0  0
   -6.9214   13.4538   36.5187 O   0  0  0  0  0  0  0  0  0  0  0  0
  1  3  1  0  0  0  0
  1  2  1  1  0  0  0
  3  5  1  0  0  0  0
  3  4  1  1  0  0  0
  5  6  1  6  0  0  0
  7  8  1  1  0  0  0
  7  5  1  0  0  0  0
  9 10  1  6  0  0  0
  9  7  1  0  0  0  0
 10  1  1  0  0  0  0
 11 13  1  6  0  0  0
 11  9  1  0  0  0  0
 12 11  1  0  0  0  0
 14 15  1  6  0  0  0
 16 14  1  0  0  0  0
 17 18  1  6  0  0  0
 17 16  1  0  0  0  0
 19  2  1  1  0  0  0
 19 20  1  0  0  0  0
 19 17  1  0  0  0  0
 20 21  1  6  0  0  0
 20 22  1  0  0  0  0
 22 23  1  1  0  0  0
 22 14  1  0  0  0  0
 24 23  1  1  0  0  0
 24 25  1  0  0  0  0
 25 27  1  0  0  0  0
 25 26  1  1  0  0  0
 27 28  1  1  0  0  0
 28 29  1  0  0  0  0
 30 31  1  6  0  0  0
 30 32  1  0  0  0  0
 30 27  1  0  0  0  0
 33 30  1  0  0  0  0
 34 33  1  0  0  0  0
 34 24  1  0  0  0  0
M  END
>  <CHROM.1>
-162.90517486,-169.56414656,-145.11762704,96.85024262,-162.73238891,-88.17688404
-3.55935378,15.81856640,36.85055008,-0.80682982,-0.39557577,2.99520719

>  <Name>
lig.pdb

>  <RI>
0

>  <Rbt.Current_Directory>
/home/itssahil/PROJECTS/Mol_Feturizer/New_Systems/rnas/4k32

>  <Rbt.Executable>
rbdock ($Id: //depot/dev/client3/rdock/2013.1/src/exe/rbdock.cxx#4 $)

>  <Rbt.Library>
libRbt.so (2013.1, Build901 2013/11/27)

>  <Rbt.Parameter_File>
/export/apps/rDock/src/rDock_2013.1_src/data/scripts/dock_solv.prm

>  <Rbt.Receptor>
prm/pocket_docking_3.prm

>  <SCORE>
-18.7289

>  <SCORE.INTER>
-16.235

>  <SCORE.INTER.CONST>
1

>  <SCORE.INTER.POLAR>
0

>  <SCORE.INTER.ROT>
6

>  <SCORE.INTER.SOLV>
24.673

>  <SCORE.INTER.VDW>
-26.6477

>  <SCORE.INTER.norm>
-0.477501

>  <SCORE.INTRA>
-2.49389

>  <SCORE.INTRA.DIHEDRAL>
-4.96493

>  <SCORE.INTRA.DIHEDRAL.0>
18.0069

>  <SCORE.INTRA.POLAR>
0

>  <SCORE.INTRA.POLAR.0>
0

>  <SCORE.INTRA.REPUL>
0

>  <SCORE.INTRA.REPUL.0>
0

>  <SCORE.INTRA.SOLV>
0.0503499

>  <SCORE.INTRA.SOLV.lig_0>
-70.7393

>  <SCORE.INTRA.VDW>
-0.0365953

>  <SCORE.INTRA.VDW.0>
-3.23471

>  <SCORE.INTRA.norm>
-0.0733496

>  <SCORE.RESTR>
0

>  <SCORE.RESTR.CAVITY>
0

>  <SCORE.RESTR.norm>
0

>  <SCORE.SYSTEM>
0

>  <SCORE.SYSTEM.CONST>
0

>  <SCORE.SYSTEM.DIHEDRAL>
0

>  <SCORE.SYSTEM.SOLV>
0

>  <SCORE.SYSTEM.norm>
0

>  <SCORE.heavy>
34

>  <SCORE.norm>
-0.550851

>  <RMSD>
0.624

$$$$
lig.pdb
 OpenBabel11021811503D
libRbt.so/2013.1/901 2013/11/27
 34 36  0  0  0  0  0  0  0  0999 V2000
   -1.3077   16.8024   35.2898 C   0  0  2  0  0  0  0  0  0  0  0  0
   -1.7887   17.1674   36.5881 O   0  0  0  0  0  0  0  0  0  0  0  0
    0.2372   16.4541   35.4043 C   0  0  2  0  0  0  0  0  0  0  0  0
    0.4797   15.3233   36.3302 N   0  0  0  0  0  0  0  0  0  0  0  0
    1.0132   17.7061   35.8853 C   0  0  1  0  0  0  0  0  0  0  0  0
    2.4087   17.4136   35.9878 O   0  0  0  0  0  0  0  0  0  0  0  0
    0.7531   18.8544   34.8942 C   0  0  2  0  0  0  0  0  0  0  0  0
    1.4664   20.0150   35.3241 O   0  0  0  0  0  0  0  0  0  0  0  0
   -0.7946   19.1439   34.8106 C   0  0  2  0  0  0  0  0  0  0  0  0
   -1.5313   17.9348   34.3850 O   0  0  0  0  0  0  0  0  0  0  0  0
   -1.1080   20.2842   33.8103 C   0  0  2  0  0  0  0  0  0  0  0  0
   -2.4658   20.7022   33.9623 O   0  0  0  0  0  0  0  0  0  0  0  0
   -0.8980   19.8289   32.3745 C   0  0  0  0  0  0  0  0  0  0  0  0
   -5.5420   17.0468   38.6411 C   0  0  2  0  0  0  0  0  0  0  0  0
   -6.9779   17.1434   38.9148 N   0  0  0  0  0  0  0  0  0  0  0  0
   -5.1006   18.3982   38.0145 C   0  0  0  0  0  0  0  0  0  0  0  0
   -3.5742   18.3243   37.7392 C   0  0  2  0  0  0  0  0  0  0  0  0
   -3.1097   19.5893   37.1486 N   0  0  0  0  0  0  0  0  0  0  0  0
   -3.2403   17.1572   36.7717 C   0  0  2  0  0  0  0  0  0  0  0  0
   -3.7339   15.8165   37.4015 C   0  0  2  0  0  0  0  0  0  0  0  0
   -3.4352   14.7404   36.5018 O   0  0  0  0  0  0  0  0  0  0  0  0
   -5.2634   15.8497   37.6376 C   0  0  1  0  0  0  0  0  0  0  0  0
   -5.6365   14.5812   38.2305 O   0  0  0  0  0  0  0  0  0  0  0  0
   -6.9455   14.0752   37.8784 C   0  0  2  0  0  0  0  0  0  0  0  0
   -7.2937   12.9774   38.9512 C   0  0  2  0  0  0  0  0  0  0  0  0
   -7.3223   13.5596   40.2448 O   0  0  0  0  0  0  0  0  0  0  0  0
   -6.2196   11.8270   38.8740 C   0  0  1  0  0  0  0  0  0  0  0  0
   -6.5056   10.7641   39.8853 N   0  0  0  0  0  0  0  0  0  0  0  0
   -5.8225   11.1107   41.1501 C   0  0  0  0  0  0  0  0  0  0  0  0
   -6.2421   11.2252   37.4360 C   0  0  2  0  0  0  0  0  0  0  0  0
   -7.5397   10.6876   37.1854 O   0  0  0  0  0  0  0  0  0  0  0  0
   -5.2188   10.1039   37.2745 C   0  0  0  0  0  0  0  0  0  0  0  0
   -5.9437   12.3579   36.4021 C   0  0  0  0  0  0  0  0  0  0  0  0
   -6.9156   13.4637   36.5345 O   0  0  0  0  0  0  0  0  0  0  0  0
  1  3  1  0  0  0  0
  1  2  1  1  0  0  0
  3  5  1  0  0  0  0
  3  4  1  1  0  0  0
  5  6  1  6  0  0  0
  7  8  1  1  0  0  0
  7  5  1  0  0  0  0
  9 10  1  6  0  0  0
  9  7  1  0  0  0  0
 10  1  1  0  0  0  0
 11 13  1  6  0  0  0
 11  9  1  0  0  0  0
 12 11  1  0  0  0  0
 14 15  1  6  0  0  0
 16 14  1  0  0  0  0
 17 18  1  6  0  0  0
 17 16  1  0  0  0  0
 19  2  1  1  0  0  0
 19 20  1  0  0  0  0
 19 17  1  0  0  0  0
 20 21  1  6  0  0  0
 20 22  1  0  0  0  0
 22 23  1  1  0  0  0
 22 14  1  0  0  0  0
 24 23  1  1  0  0  0
 24 25  1  0  0  0  0
 25 27  1  0  0  0  0
 25 26  1  1  0  0  0
 27 28  1  1  0  0  0
 28 29  1  0  0  0  0
 30 31  1  6  0  0  0
 30 32  1  0  0  0  0
 30 27  1  0  0  0  0
 33 30  1  0  0  0  0
 34 33  1  0  0  0  0
 34 24  1  0  0  0  0
M  END
>  <CHROM.1>
-163.31834663,-168.14962074,-144.85699624,97.00016673,-162.78791745,-89.14216133
-3.55628094,15.82757423,36.86532560,-0.80699559,-0.39332516,2.99185294

>  <Name>
lig.pdb

>  <RI>
0

>  <Rbt.Current_Directory>
/home/itssahil/PROJECTS/Mol_Feturizer/New_Systems/rnas/4k32

>  <Rbt.Executable>
rbdock ($Id: //depot/dev/client3/rdock/2013.1/src/exe/rbdock.cxx#4 $)

>  <Rbt.Library>
libRbt.so (2013.1, Build901 2013/11/27)

>  <Rbt.Parameter_File>
/export/apps/rDock/src/rDock_2013.1_src/data/scripts/dock_solv.prm

>  <Rbt.Receptor>
prm/pocket_docking_3.prm

>  <SCORE>
-18.7539

>  <SCORE.INTER>
-16.3065

>  <SCORE.INTER.CONST>
1

>  <SCORE.INTER.POLAR>
0

>  <SCORE.INTER.ROT>
6

>  <SCORE.INTER.SOLV>
24.6329

>  <SCORE.INTER.VDW>
-26.682

>  <SCORE.INTER.norm>
-0.479604

>  <SCORE.INTRA>
-2.44736

>  <SCORE.INTRA.DIHEDRAL>
-4.81828

>  <SCORE.INTRA.DIHEDRAL.0>
18.0069

>  <SCORE.INTRA.POLAR>
0

>  <SCORE.INTRA.POLAR.0>
0

>  <SCORE.INTRA.REPUL>
0

>  <SCORE.INTRA.REPUL.0>
0

>  <SCORE.INTRA.SOLV>
0.0693433

>  <SCORE.INTRA.SOLV.lig_0>
-70.7393

>  <SCORE.INTRA.VDW>
-0.0728918

>  <SCORE.INTRA.VDW.0>
-3.23471

>  <SCORE.INTRA.norm>
-0.0719812

>  <SCORE.RESTR>
0

>  <SCORE.RESTR.CAVITY>
0

>  <SCORE.RESTR.norm>
0

>  <SCORE.SYSTEM>
0

>  <SCORE.SYSTEM.CONST>
0

>  <SCORE.SYSTEM.DIHEDRAL>
0

>  <SCORE.SYSTEM.SOLV>
0

>  <SCORE.SYSTEM.norm>
0

>  <SCORE.heavy>
34

>  <SCORE.norm>
-0.551585

>  <RMSD>
0.631

$$$$
lig.pdb
 OpenBabel11021811503D
libRbt.so/2013.1/901 2013/11/27
 34 36  0  0  0  0  0  0  0  0999 V2000
   -1.3298   16.8034   35.2843 C   0  0  2  0  0  0  0  0  0  0  0  0
   -1.8017   17.1736   36.5845 O   0  0  0  0  0  0  0  0  0  0  0  0
    0.2118   16.4387   35.3927 C   0  0  2  0  0  0  0  0  0  0  0  0
    0.4459   15.3054   36.3178 N   0  0  0  0  0  0  0  0  0  0  0  0
    1.0029   17.6823   35.8704 C   0  0  1  0  0  0  0  0  0  0  0  0
    2.3956   17.3750   35.9674 O   0  0  0  0  0  0  0  0  0  0  0  0
    0.7512   18.8333   34.8802 C   0  0  2  0  0  0  0  0  0  0  0  0
    1.4785   19.9862   35.3071 O   0  0  0  0  0  0  0  0  0  0  0  0
   -0.7937   19.1393   34.8027 C   0  0  2  0  0  0  0  0  0  0  0  0
   -1.5449   17.9380   34.3802 O   0  0  0  0  0  0  0  0  0  0  0  0
   -1.0988   20.2827   33.8034 C   0  0  2  0  0  0  0  0  0  0  0  0
   -2.4620   20.6902   33.9354 O   0  0  0  0  0  0  0  0  0  0  0  0
   -0.8621   19.8367   32.3689 C   0  0  0  0  0  0  0  0  0  0  0  0
   -5.5398   17.0400   38.6642 C   0  0  2  0  0  0  0  0  0  0  0  0
   -6.9737   17.1353   38.9492 N   0  0  0  0  0  0  0  0  0  0  0  0
   -5.1025   18.3957   38.0439 C   0  0  0  0  0  0  0  0  0  0  0  0
   -3.5782   18.3231   37.7568 C   0  0  2  0  0  0  0  0  0  0  0  0
   -3.1175   19.5920   37.1716 N   0  0  0  0  0  0  0  0  0  0  0  0
   -3.2519   17.1627   36.7787 C   0  0  2  0  0  0  0  0  0  0  0  0
   -3.7414   15.8178   37.4026 C   0  0  2  0  0  0  0  0  0  0  0  0
   -3.4498   14.7480   36.4932 O   0  0  0  0  0  0  0  0  0  0  0  0
   -5.2692   15.8500   37.6503 C   0  0  1  0  0  0  0  0  0  0  0  0
   -5.6384   14.5775   38.2370 O   0  0  0  0  0  0  0  0  0  0  0  0
   -6.9467   14.0702   37.8839 C   0  0  2  0  0  0  0  0  0  0  0  0
   -7.2939   12.9709   38.9555 C   0  0  2  0  0  0  0  0  0  0  0  0
   -7.3237   13.5519   40.2497 O   0  0  0  0  0  0  0  0  0  0  0  0
   -6.2184   11.8220   38.8775 C   0  0  1  0  0  0  0  0  0  0  0  0
   -6.5034   10.7577   39.8877 N   0  0  0  0  0  0  0  0  0  0  0  0
   -5.8397   11.1153   41.1598 C   0  0  0  0  0  0  0  0  0  0  0  0
   -6.2397   11.2215   37.4389 C   0  0  2  0  0  0  0  0  0  0  0  0
   -7.5366   10.6825   37.1875 O   0  0  0  0  0  0  0  0  0  0  0  0
   -5.2150   10.1017   37.2767 C   0  0  0  0  0  0  0  0  0  0  0  0
   -5.9424   12.3556   36.4062 C   0  0  0  0  0  0  0  0  0  0  0  0
   -6.9156   13.4600   36.5395 O   0  0  0  0  0  0  0  0  0  0  0  0
  1  3  1  0  0  0  0
  1  2  1  1  0  0  0
  3  5  1  0  0  0  0
  3  4  1  1  0  0  0
  5  6  1  6  0  0  0
  7  8  1  1  0  0  0
  7  5  1  0  0  0  0
  9 10  1  6  0  0  0
  9  7  1  0  0  0  0
 10  1  1  0  0  0  0
 11 13  1  6  0  0  0
 11  9  1  0  0  0  0
 12 11  1  0  0  0  0
 14 15  1  6  0  0  0
 16 14  1  0  0  0  0
 17 18  1  6  0  0  0
 17 16  1  0  0  0  0
 19  2  1  1  0  0  0
 19 20  1  0  0  0  0
 19 17  1  0  0  0  0
 20 21  1  6  0  0  0
 20 22  1  0  0  0  0
 22 23  1  1  0  0  0
 22 14  1  0  0  0  0
 24 23  1  1  0  0  0
 24 25  1  0  0  0  0
 25 27  1  0  0  0  0
 25 26  1  1  0  0  0
 27 28  1  1  0  0  0
 28 29  1  0  0  0  0
 30 31  1  6  0  0  0
 30 32  1  0  0  0  0
 30 27  1  0  0  0  0
 33 30  1  0  0  0  0
 34 33  1  0  0  0  0
 34 24  1  0  0  0  0
M  END
>  <CHROM.1>
-162.57681778,-169.73139629,-145.52019005,97.39394622,-162.51647482,-88.20785783
-3.55988759,15.82182894,36.86622945,-0.80338242,-0.40355509,2.99908735

>  <Name>
lig.pdb

>  <RI>
0

>  <Rbt.Current_Directory>
/home/itssahil/PROJECTS/Mol_Feturizer/New_Systems/rnas/4k32

>  <Rbt.Executable>
rbdock ($Id: //depot/dev/client3/rdock/2013.1/src/exe/rbdock.cxx#4 $)

>  <Rbt.Library>
libRbt.so (2013.1, Build901 2013/11/27)

>  <Rbt.Parameter_File>
/export/apps/rDock/src/rDock_2013.1_src/data/scripts/dock_solv.prm

>  <Rbt.Receptor>
prm/pocket_docking_3.prm

>  <SCORE>
-18.7487

>  <SCORE.INTER>
-16.2831

>  <SCORE.INTER.CONST>
1

>  <SCORE.INTER.POLAR>
0

>  <SCORE.INTER.ROT>
6

>  <SCORE.INTER.SOLV>
24.5688

>  <SCORE.INTER.VDW>
-26.645

>  <SCORE.INTER.norm>
-0.478915

>  <SCORE.INTRA>
-2.46561

>  <SCORE.INTRA.DIHEDRAL>
-4.87507

>  <SCORE.INTRA.DIHEDRAL.0>
18.0069

>  <SCORE.INTRA.POLAR>
0

>  <SCORE.INTRA.POLAR.0>
0

>  <SCORE.INTRA.REPUL>
0

>  <SCORE.INTRA.REPUL.0>
0

>  <SCORE.INTRA.SOLV>
0.020103

>  <SCORE.INTRA.SOLV.lig_0>
-70.7393

>  <SCORE.INTRA.VDW>
-0.0381276

>  <SCORE.INTRA.VDW.0>
-3.23471

>  <SCORE.INTRA.norm>
-0.072518

>  <SCORE.RESTR>
0

>  <SCORE.RESTR.CAVITY>
0

>  <SCORE.RESTR.norm>
0

>  <SCORE.SYSTEM>
0

>  <SCORE.SYSTEM.CONST>
0

>  <SCORE.SYSTEM.DIHEDRAL>
0

>  <SCORE.SYSTEM.SOLV>
0

>  <SCORE.SYSTEM.norm>
0

>  <SCORE.heavy>
34

>  <SCORE.norm>
-0.551433

>  <RMSD>
0.632

$$$$
lig.pdb
 OpenBabel11021811503D
libRbt.so/2013.1/901 2013/11/27
 34 36  0  0  0  0  0  0  0  0999 V2000
   -1.2909   16.6660   35.2201 C   0  0  2  0  0  0  0  0  0  0  0  0
   -1.8601   17.1911   36.4245 O   0  0  0  0  0  0  0  0  0  0  0  0
    0.2820   16.5612   35.4100 C   0  0  2  0  0  0  0  0  0  0  0  0
    0.6427   15.6622   36.5310 N   0  0  0  0  0  0  0  0  0  0  0  0
    0.8663   17.9747   35.6578 C   0  0  1  0  0  0  0  0  0  0  0  0
    2.2841   17.9014   35.8243 O   0  0  0  0  0  0  0  0  0  0  0  0
    0.4880   18.8765   34.4693 C   0  0  2  0  0  0  0  0  0  0  0  0
    1.0241   20.1831   34.6833 O   0  0  0  0  0  0  0  0  0  0  0  0
   -1.0809   18.9293   34.3206 C   0  0  2  0  0  0  0  0  0  0  0  0
   -1.6338   17.5729   34.1197 O   0  0  0  0  0  0  0  0  0  0  0  0
   -1.5105   19.8141   33.1241 C   0  0  2  0  0  0  0  0  0  0  0  0
   -0.7090   19.5063   31.9819 O   0  0  0  0  0  0  0  0  0  0  0  0
   -1.3488   21.2914   33.4469 C   0  0  0  0  0  0  0  0  0  0  0  0
   -5.5780   16.3594   38.3744 C   0  0  2  0  0  0  0  0  0  0  0  0
   -7.0152   16.2829   38.6475 N   0  0  0  0  0  0  0  0  0  0  0  0
   -5.2518   17.8400   38.0348 C   0  0  0  0  0  0  0  0  0  0  0  0
   -3.7263   17.9463   37.7655 C   0  0  2  0  0  0  0  0  0  0  0  0
   -3.3699   19.3371   37.4442 N   0  0  0  0  0  0  0  0  0  0  0  0
   -3.3048   17.0271   36.5878 C   0  0  2  0  0  0  0  0  0  0  0  0
   -3.6838   15.5521   36.9321 C   0  0  2  0  0  0  0  0  0  0  0  0
   -3.3044   14.7054   35.8386 O   0  0  0  0  0  0  0  0  0  0  0  0
   -5.2095   15.4136   37.1548 C   0  0  1  0  0  0  0  0  0  0  0  0
   -5.4745   14.0263   37.4785 O   0  0  0  0  0  0  0  0  0  0  0  0
   -6.8234   13.5629   37.2350 C   0  0  2  0  0  0  0  0  0  0  0  0
   -7.2068   12.6637   38.4686 C   0  0  2  0  0  0  0  0  0  0  0  0
   -7.1580   13.4334   39.6597 O   0  0  0  0  0  0  0  0  0  0  0  0
   -6.2111   11.4449   38.5432 C   0  0  1  0  0  0  0  0  0  0  0  0
   -6.5322   10.5668   39.7095 N   0  0  0  0  0  0  0  0  0  0  0  0
   -5.8358   11.0865   40.9059 C   0  0  0  0  0  0  0  0  0  0  0  0
   -6.3168   10.6379   37.2136 C   0  0  2  0  0  0  0  0  0  0  0  0
   -7.6531   10.1577   37.0750 O   0  0  0  0  0  0  0  0  0  0  0  0
   -5.3723    9.4385   37.2016 C   0  0  0  0  0  0  0  0  0  0  0  0
   -5.9795   11.5806   36.0142 C   0  0  0  0  0  0  0  0  0  0  0  0
   -6.8744   12.7568   35.9987 O   0  0  0  0  0  0  0  0  0  0  0  0
  1  3  1  0  0  0  0
  1  2  1  1  0  0  0
  3  5  1  0  0  0  0
  3  4  1  1  0  0  0
  5  6  1  6  0  0  0
  7  8  1  1  0  0  0
  7  5  1  0  0  0  0
  9 10  1  6  0  0  0
  9  7  1  0  0  0  0
 10  1  1  0  0  0  0
 11 13  1  1  0  0  0
 11  9  1  0  0  0  0
 12 11  1  0  0  0  0
 14 15  1  6  0  0  0
 16 14  1  0  0  0  0
 17 18  1  6  0  0  0
 17 16  1  0  0  0  0
 19  2  1  1  0  0  0
 19 20  1  0  0  0  0
 19 17  1  0  0  0  0
 20 21  1  6  0  0  0
 20 22  1  0  0  0  0
 22 23  1  1  0  0  0
 22 14  1  0  0  0  0
 24 23  1  1  0  0  0
 24 25  1  0  0  0  0
 25 27  1  0  0  0  0
 25 26  1  1  0  0  0
 27 28  1  1  0  0  0
 28 29  1  0  0  0  0
 30 31  1  6  0  0  0
 30 32  1  0  0  0  0
 30 27  1  0  0  0  0
 33 30  1  0  0  0  0
 34 33  1  0  0  0  0
 34 24  1  0  0  0  0
M  END
>  <CHROM.1>
-163.96628206,45.36512377,-166.95076596,86.38654752,-138.31702095,-86.69706977
-3.56719960,15.58145096,36.55296313,-0.79915116,-0.48463819,3.09881034

>  <Name>
lig.pdb

>  <RI>
0

>  <Rbt.Current_Directory>
/home/itssahil/PROJECTS/Mol_Feturizer/New_Systems/rnas/4k32

>  <Rbt.Executable>
rbdock ($Id: //depot/dev/client3/rdock/2013.1/src/exe/rbdock.cxx#4 $)

>  <Rbt.Library>
libRbt.so (2013.1, Build901 2013/11/27)

>  <Rbt.Parameter_File>
/export/apps/rDock/src/rDock_2013.1_src/data/scripts/dock_solv.prm

>  <Rbt.Receptor>
prm/pocket_docking_2.prm

>  <SCORE>
-19.2362

>  <SCORE.INTER>
-16.6483

>  <SCORE.INTER.CONST>
1

>  <SCORE.INTER.POLAR>
0

>  <SCORE.INTER.ROT>
6

>  <SCORE.INTER.SOLV>
25.6204

>  <SCORE.INTER.VDW>
-27.239

>  <SCORE.INTER.norm>
-0.489657

>  <SCORE.INTRA>
-2.59366

>  <SCORE.INTRA.DIHEDRAL>
-6.16193

>  <SCORE.INTRA.DIHEDRAL.0>
18.0069

>  <SCORE.INTRA.POLAR>
0

>  <SCORE.INTRA.POLAR.0>
0

>  <SCORE.INTRA.REPUL>
0

>  <SCORE.INTRA.REPUL.0>
0

>  <SCORE.INTRA.SOLV>
-0.40403

>  <SCORE.INTRA.SOLV.lig_0>
-70.7393

>  <SCORE.INTRA.VDW>
0.689314

>  <SCORE.INTRA.VDW.0>
-3.23471

>  <SCORE.INTRA.norm>
-0.0762843

>  <SCORE.RESTR>
0.00577456

>  <SCORE.RESTR.CAVITY>
0.00577456

>  <SCORE.RESTR.norm>
0.00016984

>  <SCORE.SYSTEM>
0

>  <SCORE.SYSTEM.CONST>
0

>  <SCORE.SYSTEM.DIHEDRAL>
0

>  <SCORE.SYSTEM.SOLV>
0

>  <SCORE.SYSTEM.norm>
0

>  <SCORE.heavy>
34

>  <SCORE.norm>
-0.565772

>  <RMSD>
0.641

$$$$
lig.pdb
 OpenBabel11021811503D
libRbt.so/2013.1/901 2013/11/27
 34 36  0  0  0  0  0  0  0  0999 V2000
   -1.2615   16.6238   35.1820 C   0  0  2  0  0  0  0  0  0  0  0  0
   -1.8214   17.1504   36.3901 O   0  0  0  0  0  0  0  0  0  0  0  0
    0.3079   16.4796   35.3749 C   0  0  2  0  0  0  0  0  0  0  0  0
    0.6440   15.5613   36.4878 N   0  0  0  0  0  0  0  0  0  0  0  0
    0.9250   17.8763   35.6383 C   0  0  1  0  0  0  0  0  0  0  0  0
    2.3402   17.7675   35.8078 O   0  0  0  0  0  0  0  0  0  0  0  0
    0.5717   18.7985   34.4579 C   0  0  2  0  0  0  0  0  0  0  0  0
    1.1382   20.0898   34.6862 O   0  0  0  0  0  0  0  0  0  0  0  0
   -0.9951   18.8902   34.3057 C   0  0  2  0  0  0  0  0  0  0  0  0
   -1.5796   17.5494   34.0898 O   0  0  0  0  0  0  0  0  0  0  0  0
   -1.4001   19.7968   33.1169 C   0  0  2  0  0  0  0  0  0  0  0  0
   -0.5597   19.5264   31.9934 O   0  0  0  0  0  0  0  0  0  0  0  0
   -1.2692   21.2682   33.4782 C   0  0  0  0  0  0  0  0  0  0  0  0
   -5.5369   16.3565   38.3602 C   0  0  2  0  0  0  0  0  0  0  0  0
   -6.9736   16.2904   38.6390 N   0  0  0  0  0  0  0  0  0  0  0  0
   -5.2038   17.8322   38.0065 C   0  0  0  0  0  0  0  0  0  0  0  0
   -3.6786   17.9276   37.7309 C   0  0  2  0  0  0  0  0  0  0  0  0
   -3.3157   19.3137   37.3961 N   0  0  0  0  0  0  0  0  0  0  0  0
   -3.2664   16.9958   36.5599 C   0  0  2  0  0  0  0  0  0  0  0  0
   -3.6524   15.5260   36.9184 C   0  0  2  0  0  0  0  0  0  0  0  0
   -3.2816   14.6677   35.8311 O   0  0  0  0  0  0  0  0  0  0  0  0
   -5.1780   15.3980   37.1477 C   0  0  1  0  0  0  0  0  0  0  0  0
   -5.4495   14.0151   37.4846 O   0  0  0  0  0  0  0  0  0  0  0  0
   -6.7989   13.5539   37.2393 C   0  0  2  0  0  0  0  0  0  0  0  0
   -7.1841   12.6525   38.4707 C   0  0  2  0  0  0  0  0  0  0  0  0
   -7.1349   13.4194   39.6635 O   0  0  0  0  0  0  0  0  0  0  0  0
   -6.1899   11.4323   38.5431 C   0  0  1  0  0  0  0  0  0  0  0  0
   -6.5128   10.5519   39.7072 N   0  0  0  0  0  0  0  0  0  0  0  0
   -5.8419   11.0862   40.9118 C   0  0  0  0  0  0  0  0  0  0  0  0
   -6.2959   10.6283   37.2116 C   0  0  2  0  0  0  0  0  0  0  0  0
   -7.6328   10.1502   37.0712 O   0  0  0  0  0  0  0  0  0  0  0  0
   -5.3529    9.4279   37.1974 C   0  0  0  0  0  0  0  0  0  0  0  0
   -5.9568   11.5734   36.0145 C   0  0  0  0  0  0  0  0  0  0  0  0
   -6.8502   12.7507   36.0012 O   0  0  0  0  0  0  0  0  0  0  0  0
  1  3  1  0  0  0  0
  1  2  1  1  0  0  0
  3  5  1  0  0  0  0
  3  4  1  1  0  0  0
  5  6  1  6  0  0  0
  7  8  1  1  0  0  0
  7  5  1  0  0  0  0
  9 10  1  6  0  0  0
  9  7  1  0  0  0  0
 10  1  1  0  0  0  0
 11 13  1  1  0  0  0
 11  9  1  0  0  0  0
 12 11  1  0  0  0  0
 14 15  1  6  0  0  0
 16 14  1  0  0  0  0
 17 18  1  6  0  0  0
 17 16  1  0  0  0  0
 19  2  1  1  0  0  0
 19 20  1  0  0  0  0
 19 17  1  0  0  0  0
 20 21  1  6  0  0  0
 20 22  1  0  0  0  0
 22 23  1  1  0  0  0
 22 14  1  0  0  0  0
 24 23  1  1  0  0  0
 24 25  1  0  0  0  0
 25 27  1  0  0  0  0
 25 26  1  1  0  0  0
 27 28  1  1  0  0  0
 28 29  1  0  0  0  0
 30 31  1  6  0  0  0
 30 32  1  0  0  0  0
 30 27  1  0  0  0  0
 33 30  1  0  0  0  0
 34 33  1  0  0  0  0
 34 24  1  0  0  0  0
M  END
>  <CHROM.1>
-162.80728383,42.57132845,-166.32695054,86.89049869,-139.09523953,-85.38364686
-3.52331579,15.55136860,36.54215258,-0.79338260,-0.48155369,3.09614728

>  <Name>
lig.pdb

>  <RI>
0

>  <Rbt.Current_Directory>
/home/itssahil/PROJECTS/Mol_Feturizer/New_Systems/rnas/4k32

>  <Rbt.Executable>
rbdock ($Id: //depot/dev/client3/rdock/2013.1/src/exe/rbdock.cxx#4 $)

>  <Rbt.Library>
libRbt.so (2013.1, Build901 2013/11/27)

>  <Rbt.Parameter_File>
/export/apps/rDock/src/rDock_2013.1_src/data/scripts/dock_solv.prm

>  <Rbt.Receptor>
prm/pocket_docking_2.prm

>  <SCORE>
-19.2731

>  <SCORE.INTER>
-16.8758

>  <SCORE.INTER.CONST>
1

>  <SCORE.INTER.POLAR>
0

>  <SCORE.INTER.ROT>
6

>  <SCORE.INTER.SOLV>
25.5556

>  <SCORE.INTER.VDW>
-27.3691

>  <SCORE.INTER.norm>
-0.496347

>  <SCORE.INTRA>
-2.43003

>  <SCORE.INTRA.DIHEDRAL>
-5.6993

>  <SCORE.INTRA.DIHEDRAL.0>
18.0069

>  <SCORE.INTRA.POLAR>
0

>  <SCORE.INTRA.POLAR.0>
0

>  <SCORE.INTRA.REPUL>
0

>  <SCORE.INTRA.REPUL.0>
0

>  <SCORE.INTRA.SOLV>
-0.366009

>  <SCORE.INTRA.SOLV.lig_0>
-70.7393

>  <SCORE.INTRA.VDW>
0.602627

>  <SCORE.INTRA.VDW.0>
-3.23471

>  <SCORE.INTRA.norm>
-0.0714714

>  <SCORE.RESTR>
0.0327446

>  <SCORE.RESTR.CAVITY>
0.0327446

>  <SCORE.RESTR.norm>
0.000963075

>  <SCORE.SYSTEM>
0

>  <SCORE.SYSTEM.CONST>
0

>  <SCORE.SYSTEM.DIHEDRAL>
0

>  <SCORE.SYSTEM.SOLV>
0

>  <SCORE.SYSTEM.norm>
0

>  <SCORE.heavy>
34

>  <SCORE.norm>
-0.566855

>  <RMSD>
0.648

$$$$
lig.pdb
 OpenBabel11021811503D
libRbt.so/2013.1/901 2013/11/27
 34 36  0  0  0  0  0  0  0  0999 V2000
   -1.2275   16.6989   35.2262 C   0  0  2  0  0  0  0  0  0  0  0  0
   -1.7739   17.2654   36.4224 O   0  0  0  0  0  0  0  0  0  0  0  0
    0.3453   16.5704   35.4022 C   0  0  2  0  0  0  0  0  0  0  0  0
    0.7021   15.6943   36.5424 N   0  0  0  0  0  0  0  0  0  0  0  0
    0.9575   17.9790   35.6069 C   0  0  1  0  0  0  0  0  0  0  0  0
    2.3756   17.8841   35.7603 O   0  0  0  0  0  0  0  0  0  0  0  0
    0.5825   18.8564   34.3993 C   0  0  2  0  0  0  0  0  0  0  0  0
    1.1443   20.1581   34.5735 O   0  0  0  0  0  0  0  0  0  0  0  0
   -0.9868   18.9340   34.2659 C   0  0  2  0  0  0  0  0  0  0  0  0
   -1.5662   17.5832   34.1062 O   0  0  0  0  0  0  0  0  0  0  0  0
   -1.4136   19.7952   33.0513 C   0  0  2  0  0  0  0  0  0  0  0  0
   -0.6199   19.4542   31.9131 O   0  0  0  0  0  0  0  0  0  0  0  0
   -1.2371   21.2779   33.3397 C   0  0  0  0  0  0  0  0  0  0  0  0
   -5.5173   16.6786   38.4121 C   0  0  2  0  0  0  0  0  0  0  0  0
   -6.9565   16.6642   38.6854 N   0  0  0  0  0  0  0  0  0  0  0  0
   -5.1459   18.1227   37.9757 C   0  0  0  0  0  0  0  0  0  0  0  0
   -3.6176   18.1645   37.7045 C   0  0  2  0  0  0  0  0  0  0  0  0
   -3.2186   19.5194   37.2923 N   0  0  0  0  0  0  0  0  0  0  0  0
   -3.2231   17.1565   36.5920 C   0  0  2  0  0  0  0  0  0  0  0  0
   -3.6472   15.7199   37.0326 C   0  0  2  0  0  0  0  0  0  0  0  0
   -3.2927   14.7911   35.9990 O   0  0  0  0  0  0  0  0  0  0  0  0
   -5.1766   15.6429   37.2593 C   0  0  1  0  0  0  0  0  0  0  0  0
   -5.4840   14.2889   37.6740 O   0  0  0  0  0  0  0  0  0  0  0  0
   -6.8256   13.8265   37.3913 C   0  0  2  0  0  0  0  0  0  0  0  0
   -7.2285   12.8916   38.5918 C   0  0  2  0  0  0  0  0  0  0  0  0
   -7.2066   13.6279   39.8045 O   0  0  0  0  0  0  0  0  0  0  0  0
   -6.2282   11.6756   38.6520 C   0  0  1  0  0  0  0  0  0  0  0  0
   -6.5675   10.7639   39.7869 N   0  0  0  0  0  0  0  0  0  0  0  0
   -5.8091   11.1868   40.9837 C   0  0  0  0  0  0  0  0  0  0  0  0
   -6.3039   10.9055   37.2986 C   0  0  2  0  0  0  0  0  0  0  0  0
   -7.6349   10.4234   37.1206 O   0  0  0  0  0  0  0  0  0  0  0  0
   -5.3534    9.7112   37.2718 C   0  0  0  0  0  0  0  0  0  0  0  0
   -5.9482   11.8828   36.1327 C   0  0  0  0  0  0  0  0  0  0  0  0
   -6.8486   13.0550   36.1324 O   0  0  0  0  0  0  0  0  0  0  0  0
  1  3  1  0  0  0  0
  1  2  1  1  0  0  0
  3  5  1  0  0  0  0
  3  4  1  1  0  0  0
  5  6  1  6  0  0  0
  7  8  1  1  0  0  0
  7  5  1  0  0  0  0
  9 10  1  6  0  0  0
  9  7  1  0  0  0  0
 10  1  1  0  0  0  0
 11 13  1  1  0  0  0
 11  9  1  0  0  0  0
 12 11  1  0  0  0  0
 14 15  1  6  0  0  0
 16 14  1  0  0  0  0
 17 18  1  6  0  0  0
 17 16  1  0  0  0  0
 19  2  1  1  0  0  0
 19 20  1  0  0  0  0
 19 17  1  0  0  0  0
 20 21  1  6  0  0  0
 20 22  1  0  0  0  0
 22 23  1  1  0  0  0
 22 14  1  0  0  0  0
 24 23  1  1  0  0  0
 24 25  1  0  0  0  0
 25 27  1  0  0  0  0
 25 26  1  1  0  0  0
 27 28  1  1  0  0  0
 28 29  1  0  0  0  0
 30 31  1  6  0  0  0
 30 32  1  0  0  0  0
 30 27  1  0  0  0  0
 33 30  1  0  0  0  0
 34 33  1  0  0  0  0
 34 24  1  0  0  0  0
M  END
>  <CHROM.1>
-165.19448281,44.70131786,-164.10778412,89.64673169,-144.83377993,-91.34659166
-3.51517235,15.72394887,36.58002692,-0.78344471,-0.47876614,3.07209971

>  <Name>
lig.pdb

>  <RI>
0

>  <Rbt.Current_Directory>
/home/itssahil/PROJECTS/Mol_Feturizer/New_Systems/rnas/4k32

>  <Rbt.Executable>
rbdock ($Id: //depot/dev/client3/rdock/2013.1/src/exe/rbdock.cxx#4 $)

>  <Rbt.Library>
libRbt.so (2013.1, Build901 2013/11/27)

>  <Rbt.Parameter_File>
/export/apps/rDock/src/rDock_2013.1_src/data/scripts/dock_solv.prm

>  <Rbt.Receptor>
prm/pocket_docking_3.prm

>  <SCORE>
-19.5889

>  <SCORE.INTER>
-16.5288

>  <SCORE.INTER.CONST>
1

>  <SCORE.INTER.POLAR>
0

>  <SCORE.INTER.ROT>
6

>  <SCORE.INTER.SOLV>
25.8216

>  <SCORE.INTER.VDW>
-27.2264

>  <SCORE.INTER.norm>
-0.486141

>  <SCORE.INTRA>
-3.06016

>  <SCORE.INTRA.DIHEDRAL>
-6.25234

>  <SCORE.INTRA.DIHEDRAL.0>
18.0069

>  <SCORE.INTRA.POLAR>
0

>  <SCORE.INTRA.POLAR.0>
0

>  <SCORE.INTRA.REPUL>
0

>  <SCORE.INTRA.REPUL.0>
0

>  <SCORE.INTRA.SOLV>
-0.571496

>  <SCORE.INTRA.SOLV.lig_0>
-70.7393

>  <SCORE.INTRA.VDW>
0.35176

>  <SCORE.INTRA.VDW.0>
-3.23471

>  <SCORE.INTRA.norm>
-0.0900046

>  <SCORE.RESTR>
0

>  <SCORE.RESTR.CAVITY>
0

>  <SCORE.RESTR.norm>
0

>  <SCORE.SYSTEM>
0

>  <SCORE.SYSTEM.CONST>
0

>  <SCORE.SYSTEM.DIHEDRAL>
0

>  <SCORE.SYSTEM.SOLV>
0

>  <SCORE.SYSTEM.norm>
0

>  <SCORE.heavy>
34

>  <SCORE.norm>
-0.576145

>  <RMSD>
0.649

$$$$
lig.pdb
 OpenBabel11021811503D
libRbt.so/2013.1/901 2013/11/27
 34 36  0  0  0  0  0  0  0  0999 V2000
   -1.3655   16.6687   35.1762 C   0  0  2  0  0  0  0  0  0  0  0  0
   -1.9127   17.2156   36.3811 O   0  0  0  0  0  0  0  0  0  0  0  0
    0.2013   16.4958   35.3673 C   0  0  2  0  0  0  0  0  0  0  0  0
    0.5218   15.5801   36.4870 N   0  0  0  0  0  0  0  0  0  0  0  0
    0.8456   17.8824   35.6184 C   0  0  1  0  0  0  0  0  0  0  0  0
    2.2589   17.7478   35.7861 O   0  0  0  0  0  0  0  0  0  0  0  0
    0.5077   18.8018   34.4312 C   0  0  2  0  0  0  0  0  0  0  0  0
    1.0994   20.0837   34.6482 O   0  0  0  0  0  0  0  0  0  0  0  0
   -1.0573   18.9225   34.2813 C   0  0  2  0  0  0  0  0  0  0  0  0
   -1.6679   17.5915   34.0772 O   0  0  0  0  0  0  0  0  0  0  0  0
   -1.4472   19.8272   33.0860 C   0  0  2  0  0  0  0  0  0  0  0  0
   -0.6338   19.5118   31.9544 O   0  0  0  0  0  0  0  0  0  0  0  0
   -1.2582   21.2976   33.4250 C   0  0  0  0  0  0  0  0  0  0  0  0
   -5.5858   16.3774   38.4113 C   0  0  2  0  0  0  0  0  0  0  0  0
   -7.0166   16.2993   38.7161 N   0  0  0  0  0  0  0  0  0  0  0  0
   -5.2683   17.8589   38.0676 C   0  0  0  0  0  0  0  0  0  0  0  0
   -3.7492   17.9668   37.7647 C   0  0  2  0  0  0  0  0  0  0  0  0
   -3.4009   19.3585   37.4383 N   0  0  0  0  0  0  0  0  0  0  0  0
   -3.3534   17.0502   36.5761 C   0  0  2  0  0  0  0  0  0  0  0  0
   -3.7236   15.5743   36.9258 C   0  0  2  0  0  0  0  0  0  0  0  0
   -3.3681   14.7300   35.8224 O   0  0  0  0  0  0  0  0  0  0  0  0
   -5.2439   15.4343   37.1820 C   0  0  1  0  0  0  0  0  0  0  0  0
   -5.5007   14.0461   37.5088 O   0  0  0  0  0  0  0  0  0  0  0  0
   -6.8499   13.5774   37.2771 C   0  0  2  0  0  0  0  0  0  0  0  0
   -7.2108   12.6588   38.5032 C   0  0  2  0  0  0  0  0  0  0  0  0
   -7.1506   13.4122   39.7040 O   0  0  0  0  0  0  0  0  0  0  0  0
   -6.2064   11.4456   38.5474 C   0  0  1  0  0  0  0  0  0  0  0  0
   -6.5061   10.5493   39.7055 N   0  0  0  0  0  0  0  0  0  0  0  0
   -5.8217   11.0744   40.9066 C   0  0  0  0  0  0  0  0  0  0  0  0
   -6.3250   10.6563   37.2082 C   0  0  2  0  0  0  0  0  0  0  0  0
   -7.6601   10.1694   37.0810 O   0  0  0  0  0  0  0  0  0  0  0  0
   -5.3733    9.4634   37.1668 C   0  0  0  0  0  0  0  0  0  0  0  0
   -6.0101   11.6177   36.0176 C   0  0  0  0  0  0  0  0  0  0  0  0
   -6.9126   12.7881   36.0305 O   0  0  0  0  0  0  0  0  0  0  0  0
  1  3  1  0  0  0  0
  1  2  1  1  0  0  0
  3  5  1  0  0  0  0
  3  4  1  1  0  0  0
  5  6  1  6  0  0  0
  7  8  1  1  0  0  0
  7  5  1  0  0  0  0
  9 10  1  6  0  0  0
  9  7  1  0  0  0  0
 10  1  1  0  0  0  0
 11 13  1  1  0  0  0
 11  9  1  0  0  0  0
 12 11  1  0  0  0  0
 14 15  1  6  0  0  0
 16 14  1  0  0  0  0
 17 18  1  6  0  0  0
 17 16  1  0  0  0  0
 19  2  1  1  0  0  0
 19 20  1  0  0  0  0
 19 17  1  0  0  0  0
 20 21  1  6  0  0  0
 20 22  1  0  0  0  0
 22 23  1  1  0  0  0
 22 14  1  0  0  0  0
 24 23  1  1  0  0  0
 24 25  1  0  0  0  0
 25 27  1  0  0  0  0
 25 26  1  1  0  0  0
 27 28  1  1  0  0  0
 28 29  1  0  0  0  0
 30 31  1  6  0  0  0
 30 32  1  0  0  0  0
 30 27  1  0  0  0  0
 33 30  1  0  0  0  0
 34 33  1  0  0  0  0
 34 24  1  0  0  0  0
M  END
>  <CHROM.1>
-160.80228056,43.81531688,-168.20710987,87.20263788,-139.20511236,-85.42009541
-3.57886729,15.57484226,36.54646811,-0.78620004,-0.50625869,3.11412730

>  <Name>
lig.pdb

>  <RI>
0

>  <Rbt.Current_Directory>
/home/itssahil/PROJECTS/Mol_Feturizer/New_Systems/rnas/4k32

>  <Rbt.Executable>
rbdock ($Id: //depot/dev/client3/rdock/2013.1/src/exe/rbdock.cxx#4 $)

>  <Rbt.Library>
libRbt.so (2013.1, Build901 2013/11/27)

>  <Rbt.Parameter_File>
/export/apps/rDock/src/rDock_2013.1_src/data/scripts/dock_solv.prm

>  <Rbt.Receptor>
prm/pocket_docking_2.prm

>  <SCORE>
-19.1762

>  <SCORE.INTER>
-16.8699

>  <SCORE.INTER.CONST>
1

>  <SCORE.INTER.POLAR>
0

>  <SCORE.INTER.ROT>
6

>  <SCORE.INTER.SOLV>
25.5967

>  <SCORE.INTER.VDW>
-27.3789

>  <SCORE.INTER.norm>
-0.496175

>  <SCORE.INTRA>
-2.30627

>  <SCORE.INTRA.DIHEDRAL>
-5.70333

>  <SCORE.INTRA.DIHEDRAL.0>
18.0069

>  <SCORE.INTRA.POLAR>
0

>  <SCORE.INTRA.POLAR.0>
0

>  <SCORE.INTRA.REPUL>
0

>  <SCORE.INTRA.REPUL.0>
0

>  <SCORE.INTRA.SOLV>
-0.376351

>  <SCORE.INTRA.SOLV.lig_0>
-70.7393

>  <SCORE.INTRA.VDW>
0.733573

>  <SCORE.INTRA.VDW.0>
-3.23471

>  <SCORE.INTRA.norm>
-0.0678314

>  <SCORE.RESTR>
0

>  <SCORE.RESTR.CAVITY>
0

>  <SCORE.RESTR.norm>
0

>  <SCORE.SYSTEM>
0

>  <SCORE.SYSTEM.CONST>
0

>  <SCORE.SYSTEM.DIHEDRAL>
0

>  <SCORE.SYSTEM.SOLV>
0

>  <SCORE.SYSTEM.norm>
0

>  <SCORE.heavy>
34

>  <SCORE.norm>
-0.564006

>  <RMSD>
0.650

$$$$
lig.pdb
 OpenBabel11021811503D
libRbt.so/2013.1/901 2013/11/27
 34 36  0  0  0  0  0  0  0  0999 V2000
   -1.2473   16.7046   35.2789 C   0  0  2  0  0  0  0  0  0  0  0  0
   -1.7365   17.0414   36.5818 O   0  0  0  0  0  0  0  0  0  0  0  0
    0.3059   16.3937   35.3885 C   0  0  2  0  0  0  0  0  0  0  0  0
    0.5773   15.2580   36.3003 N   0  0  0  0  0  0  0  0  0  0  0  0
    1.0506   17.6587   35.8848 C   0  0  1  0  0  0  0  0  0  0  0  0
    2.4531   17.4000   35.9832 O   0  0  0  0  0  0  0  0  0  0  0  0
    0.7613   18.8124   34.9080 C   0  0  2  0  0  0  0  0  0  0  0  0
    1.4455   19.9850   35.3521 O   0  0  0  0  0  0  0  0  0  0  0  0
   -0.7933   19.0640   34.8286 C   0  0  2  0  0  0  0  0  0  0  0  0
   -1.4997   17.8421   34.3883 O   0  0  0  0  0  0  0  0  0  0  0  0
   -1.1357   20.2084   33.8425 C   0  0  2  0  0  0  0  0  0  0  0  0
   -2.5122   20.5675   33.9766 O   0  0  0  0  0  0  0  0  0  0  0  0
   -0.8816   19.7881   32.4032 C   0  0  0  0  0  0  0  0  0  0  0  0
   -5.5139   17.0119   38.5934 C   0  0  2  0  0  0  0  0  0  0  0  0
   -6.9514   17.1329   38.8485 N   0  0  0  0  0  0  0  0  0  0  0  0
   -5.0475   18.3443   37.9447 C   0  0  0  0  0  0  0  0  0  0  0  0
   -3.5192   18.2448   37.6886 C   0  0  2  0  0  0  0  0  0  0  0  0
   -3.0313   19.4913   37.0779 N   0  0  0  0  0  0  0  0  0  0  0  0
   -3.1900   17.0540   36.7488 C   0  0  2  0  0  0  0  0  0  0  0  0
   -3.7085   15.7330   37.3998 C   0  0  2  0  0  0  0  0  0  0  0  0
   -3.4141   14.6350   36.5255 O   0  0  0  0  0  0  0  0  0  0  0  0
   -5.2401   15.7911   37.6176 C   0  0  1  0  0  0  0  0  0  0  0  0
   -5.6367   14.5399   38.2316 O   0  0  0  0  0  0  0  0  0  0  0  0
   -6.9406   14.0345   37.8602 C   0  0  2  0  0  0  0  0  0  0  0  0
   -7.2909   12.9142   38.9089 C   0  0  2  0  0  0  0  0  0  0  0  0
   -7.3318   13.4711   40.2133 O   0  0  0  0  0  0  0  0  0  0  0  0
   -6.2106   11.7709   38.8171 C   0  0  1  0  0  0  0  0  0  0  0  0
   -6.4985   10.6871   39.8054 N   0  0  0  0  0  0  0  0  0  0  0  0
   -5.8209   11.0090   41.0797 C   0  0  0  0  0  0  0  0  0  0  0  0
   -6.2197   11.1971   37.3676 C   0  0  2  0  0  0  0  0  0  0  0  0
   -7.5128   10.6581   37.0971 O   0  0  0  0  0  0  0  0  0  0  0  0
   -5.1897   10.0842   37.1918 C   0  0  0  0  0  0  0  0  0  0  0  0
   -5.9196   12.3512   36.3581 C   0  0  0  0  0  0  0  0  0  0  0  0
   -6.8979   13.4494   36.5050 O   0  0  0  0  0  0  0  0  0  0  0  0
  1  3  1  0  0  0  0
  1  2  1  1  0  0  0
  3  5  1  0  0  0  0
  3  4  1  1  0  0  0
  5  6  1  6  0  0  0
  7  8  1  1  0  0  0
  7  5  1  0  0  0  0
  9 10  1  6  0  0  0
  9  7  1  0  0  0  0
 10  1  1  0  0  0  0
 11 13  1  6  0  0  0
 11  9  1  0  0  0  0
 12 11  1  0  0  0  0
 14 15  1  6  0  0  0
 16 14  1  0  0  0  0
 17 18  1  6  0  0  0
 17 16  1  0  0  0  0
 19  2  1  1  0  0  0
 19 20  1  0  0  0  0
 19 17  1  0  0  0  0
 20 21  1  6  0  0  0
 20 22  1  0  0  0  0
 22 23  1  1  0  0  0
 22 14  1  0  0  0  0
 24 23  1  1  0  0  0
 24 25  1  0  0  0  0
 25 27  1  0  0  0  0
 25 26  1  1  0  0  0
 27 28  1  1  0  0  0
 28 29  1  0  0  0  0
 30 31  1  6  0  0  0
 30 32  1  0  0  0  0
 30 27  1  0  0  0  0
 33 30  1  0  0  0  0
 34 33  1  0  0  0  0
 34 24  1  0  0  0  0
M  END
>  <CHROM.1>
-166.10652021,-169.59521678,-142.02062052,97.83979231,-165.55848990,-89.41354080
-3.53273341,15.76557798,36.84031076,-0.80701888,-0.37948430,2.98722424

>  <Name>
lig.pdb

>  <RI>
0

>  <Rbt.Current_Directory>
/home/itssahil/PROJECTS/Mol_Feturizer/New_Systems/rnas/4k32

>  <Rbt.Executable>
rbdock ($Id: //depot/dev/client3/rdock/2013.1/src/exe/rbdock.cxx#4 $)

>  <Rbt.Library>
libRbt.so (2013.1, Build901 2013/11/27)

>  <Rbt.Parameter_File>
/export/apps/rDock/src/rDock_2013.1_src/data/scripts/dock_solv.prm

>  <Rbt.Receptor>
prm/pocket_docking_2.prm

>  <SCORE>
-18.607

>  <SCORE.INTER>
-16.0364

>  <SCORE.INTER.CONST>
1

>  <SCORE.INTER.POLAR>
0

>  <SCORE.INTER.ROT>
6

>  <SCORE.INTER.SOLV>
24.7992

>  <SCORE.INTER.VDW>
-26.5574

>  <SCORE.INTER.norm>
-0.47166

>  <SCORE.INTRA>
-2.5706

>  <SCORE.INTRA.DIHEDRAL>
-5.0371

>  <SCORE.INTRA.DIHEDRAL.0>
18.0069

>  <SCORE.INTRA.POLAR>
0

>  <SCORE.INTRA.POLAR.0>
0

>  <SCORE.INTRA.REPUL>
0

>  <SCORE.INTRA.REPUL.0>
0

>  <SCORE.INTRA.SOLV>
0.204229

>  <SCORE.INTRA.SOLV.lig_0>
-70.7393

>  <SCORE.INTRA.VDW>
-0.154162

>  <SCORE.INTRA.VDW.0>
-3.23471

>  <SCORE.INTRA.norm>
-0.0756058

>  <SCORE.RESTR>
0

>  <SCORE.RESTR.CAVITY>
0

>  <SCORE.RESTR.norm>
0

>  <SCORE.SYSTEM>
0

>  <SCORE.SYSTEM.CONST>
0

>  <SCORE.SYSTEM.DIHEDRAL>
0

>  <SCORE.SYSTEM.SOLV>
0

>  <SCORE.SYSTEM.norm>
0

>  <SCORE.heavy>
34

>  <SCORE.norm>
-0.547266

>  <RMSD>
0.651

$$$$
lig.pdb
 OpenBabel11021811503D
libRbt.so/2013.1/901 2013/11/27
 34 36  0  0  0  0  0  0  0  0999 V2000
   -1.2721   16.5922   35.2415 C   0  0  2  0  0  0  0  0  0  0  0  0
   -1.8250   17.1249   36.4502 O   0  0  0  0  0  0  0  0  0  0  0  0
    0.2992   16.4544   35.4239 C   0  0  2  0  0  0  0  0  0  0  0  0
    0.6463   15.5445   36.5403 N   0  0  0  0  0  0  0  0  0  0  0  0
    0.9135   17.8548   35.6737 C   0  0  1  0  0  0  0  0  0  0  0  0
    2.3303   17.7518   35.8336 O   0  0  0  0  0  0  0  0  0  0  0  0
    0.5485   18.7682   34.4899 C   0  0  2  0  0  0  0  0  0  0  0  0
    1.1124   20.0627   34.7057 O   0  0  0  0  0  0  0  0  0  0  0  0
   -1.0196   18.8537   34.3485 C   0  0  2  0  0  0  0  0  0  0  0  0
   -1.6012   17.5097   34.1457 O   0  0  0  0  0  0  0  0  0  0  0  0
   -1.4363   19.7512   33.1569 C   0  0  2  0  0  0  0  0  0  0  0  0
   -0.6607   19.4167   32.0044 O   0  0  0  0  0  0  0  0  0  0  0  0
   -1.2222   21.2226   33.4758 C   0  0  0  0  0  0  0  0  0  0  0  0
   -5.5455   16.4049   38.4390 C   0  0  2  0  0  0  0  0  0  0  0  0
   -6.9827   16.3540   38.7187 N   0  0  0  0  0  0  0  0  0  0  0  0
   -5.2044   17.8686   38.0453 C   0  0  0  0  0  0  0  0  0  0  0  0
   -3.6787   17.9483   37.7682 C   0  0  2  0  0  0  0  0  0  0  0  0
   -3.3082   19.3227   37.3959 N   0  0  0  0  0  0  0  0  0  0  0  0
   -3.2709   16.9827   36.6233 C   0  0  2  0  0  0  0  0  0  0  0  0
   -3.6648   15.5253   37.0217 C   0  0  2  0  0  0  0  0  0  0  0  0
   -3.2981   14.6356   35.9584 O   0  0  0  0  0  0  0  0  0  0  0  0
   -5.1912   15.4117   37.2534 C   0  0  1  0  0  0  0  0  0  0  0  0
   -5.4702   14.0399   37.6278 O   0  0  0  0  0  0  0  0  0  0  0  0
   -6.8076   13.5638   37.3478 C   0  0  2  0  0  0  0  0  0  0  0  0
   -7.2014   12.6309   38.5528 C   0  0  2  0  0  0  0  0  0  0  0  0
   -7.1859   13.3731   39.7620 O   0  0  0  0  0  0  0  0  0  0  0  0
   -6.1899   11.4245   38.6183 C   0  0  1  0  0  0  0  0  0  0  0  0
   -6.5205   10.5151   39.7576 N   0  0  0  0  0  0  0  0  0  0  0  0
   -5.8781   11.0325   40.9849 C   0  0  0  0  0  0  0  0  0  0  0  0
   -6.2590   10.6474   37.2686 C   0  0  2  0  0  0  0  0  0  0  0  0
   -7.5855   10.1522   37.0933 O   0  0  0  0  0  0  0  0  0  0  0  0
   -5.2975    9.4618   37.2471 C   0  0  0  0  0  0  0  0  0  0  0  0
   -5.9126   11.6224   36.0980 C   0  0  0  0  0  0  0  0  0  0  0  0
   -6.8238   12.7862   36.0925 O   0  0  0  0  0  0  0  0  0  0  0  0
  1  3  1  0  0  0  0
  1  2  1  1  0  0  0
  3  5  1  0  0  0  0
  3  4  1  1  0  0  0
  5  6  1  6  0  0  0
  7  8  1  1  0  0  0
  7  5  1  0  0  0  0
  9 10  1  6  0  0  0
  9  7  1  0  0  0  0
 10  1  1  0  0  0  0
 11 13  1  1  0  0  0
 11  9  1  0  0  0  0
 12 11  1  0  0  0  0
 14 15  1  6  0  0  0
 16 14  1  0  0  0  0
 17 18  1  6  0  0  0
 17 16  1  0  0  0  0
 19  2  1  1  0  0  0
 19 20  1  0  0  0  0
 19 17  1  0  0  0  0
 20 21  1  6  0  0  0
 20 22  1  0  0  0  0
 22 23  1  1  0  0  0
 22 14  1  0  0  0  0
 24 23  1  1  0  0  0
 24 25  1  0  0  0  0
 25 27  1  0  0  0  0
 25 26  1  1  0  0  0
 27 28  1  1  0  0  0
 28 29  1  0  0  0  0
 30 31  1  6  0  0  0
 30 32  1  0  0  0  0
 30 27  1  0  0  0  0
 33 30  1  0  0  0  0
 34 33  1  0  0  0  0
 34 24  1  0  0  0  0
M  END
>  <CHROM.1>
-163.60243883,46.25640354,-164.80759871,89.14644126,-142.53662949,-85.48445790
-3.52996263,15.54129923,36.60238517,-0.79167347,-0.48796407,3.09418762

>  <Name>
lig.pdb

>  <RI>
0

>  <Rbt.Current_Directory>
/home/itssahil/PROJECTS/Mol_Feturizer/New_Systems/rnas/4k32

>  <Rbt.Executable>
rbdock ($Id: //depot/dev/client3/rdock/2013.1/src/exe/rbdock.cxx#4 $)

>  <Rbt.Library>
libRbt.so (2013.1, Build901 2013/11/27)

>  <Rbt.Parameter_File>
/export/apps/rDock/src/rDock_2013.1_src/data/scripts/dock_solv.prm

>  <Rbt.Receptor>
prm/pocket_docking_2.prm

>  <SCORE>
-19.1783

>  <SCORE.INTER>
-16.6768

>  <SCORE.INTER.CONST>
1

>  <SCORE.INTER.POLAR>
0

>  <SCORE.INTER.ROT>
6

>  <SCORE.INTER.SOLV>
25.4566

>  <SCORE.INTER.VDW>
-27.2034

>  <SCORE.INTER.norm>
-0.490494

>  <SCORE.INTRA>
-2.54097

>  <SCORE.INTRA.DIHEDRAL>
-6.14588

>  <SCORE.INTRA.DIHEDRAL.0>
18.0069

>  <SCORE.INTRA.POLAR>
0

>  <SCORE.INTRA.POLAR.0>
0

>  <SCORE.INTRA.REPUL>
0

>  <SCORE.INTRA.REPUL.0>
0

>  <SCORE.INTRA.SOLV>
-0.471694

>  <SCORE.INTRA.SOLV.lig_0>
-70.7393

>  <SCORE.INTRA.VDW>
0.767811

>  <SCORE.INTRA.VDW.0>
-3.23471

>  <SCORE.INTRA.norm>
-0.0747345

>  <SCORE.RESTR>
0.0394622

>  <SCORE.RESTR.CAVITY>
0.0394622

>  <SCORE.RESTR.norm>
0.00116065

>  <SCORE.SYSTEM>
0

>  <SCORE.SYSTEM.CONST>
0

>  <SCORE.SYSTEM.DIHEDRAL>
0

>  <SCORE.SYSTEM.SOLV>
0

>  <SCORE.SYSTEM.norm>
0

>  <SCORE.heavy>
34

>  <SCORE.norm>
-0.564068

>  <RMSD>
0.651

$$$$
lig.pdb
 OpenBabel11021811503D
libRbt.so/2013.1/901 2013/11/27
 34 36  0  0  0  0  0  0  0  0999 V2000
   -1.2146   16.7514   35.2468 C   0  0  2  0  0  0  0  0  0  0  0  0
   -1.7232   17.1035   36.5381 O   0  0  0  0  0  0  0  0  0  0  0  0
    0.3396   16.4551   35.3808 C   0  0  2  0  0  0  0  0  0  0  0  0
    0.6084   15.3354   36.3131 N   0  0  0  0  0  0  0  0  0  0  0  0
    1.0676   17.7334   35.8674 C   0  0  1  0  0  0  0  0  0  0  0  0
    2.4707   17.4879   35.9875 O   0  0  0  0  0  0  0  0  0  0  0  0
    0.7814   18.8699   34.8697 C   0  0  2  0  0  0  0  0  0  0  0  0
    1.4504   20.0547   35.3046 O   0  0  0  0  0  0  0  0  0  0  0  0
   -0.7740   19.1074   34.7667 C   0  0  2  0  0  0  0  0  0  0  0  0
   -1.4647   17.8732   34.3359 O   0  0  0  0  0  0  0  0  0  0  0  0
   -1.1129   20.2339   33.7591 C   0  0  2  0  0  0  0  0  0  0  0  0
   -2.4881   20.6002   33.8869 O   0  0  0  0  0  0  0  0  0  0  0  0
   -0.8609   19.7855   32.3280 C   0  0  0  0  0  0  0  0  0  0  0  0
   -5.5254   17.0575   38.5021 C   0  0  2  0  0  0  0  0  0  0  0  0
   -6.9670   17.1686   38.7382 N   0  0  0  0  0  0  0  0  0  0  0  0
   -5.0615   18.3891   37.8499 C   0  0  0  0  0  0  0  0  0  0  0  0
   -3.5294   18.3002   37.6137 C   0  0  2  0  0  0  0  0  0  0  0  0
   -3.0437   19.5463   37.0004 N   0  0  0  0  0  0  0  0  0  0  0  0
   -3.1788   17.1055   36.6867 C   0  0  2  0  0  0  0  0  0  0  0  0
   -3.6949   15.7849   37.3404 C   0  0  2  0  0  0  0  0  0  0  0  0
   -3.3806   14.6833   36.4778 O   0  0  0  0  0  0  0  0  0  0  0  0
   -5.2295   15.8321   37.5384 C   0  0  1  0  0  0  0  0  0  0  0  0
   -5.6238   14.5821   38.1563 O   0  0  0  0  0  0  0  0  0  0  0  0
   -6.9452   14.0965   37.8219 C   0  0  2  0  0  0  0  0  0  0  0  0
   -7.3010   13.0132   38.9068 C   0  0  2  0  0  0  0  0  0  0  0  0
   -7.3058   13.6058   40.1961 O   0  0  0  0  0  0  0  0  0  0  0  0
   -6.2481   11.8436   38.8274 C   0  0  1  0  0  0  0  0  0  0  0  0
   -6.5419   10.7937   39.8499 N   0  0  0  0  0  0  0  0  0  0  0  0
   -5.8130   11.1203   41.0944 C   0  0  0  0  0  0  0  0  0  0  0  0
   -6.2964   11.2313   37.3945 C   0  0  2  0  0  0  0  0  0  0  0  0
   -7.6058   10.7147   37.1618 O   0  0  0  0  0  0  0  0  0  0  0  0
   -5.2946   10.0911   37.2311 C   0  0  0  0  0  0  0  0  0  0  0  0
   -5.9893   12.3507   36.3487 C   0  0  0  0  0  0  0  0  0  0  0  0
   -6.9401   13.4743   36.4826 O   0  0  0  0  0  0  0  0  0  0  0  0
  1  3  1  0  0  0  0
  1  2  1  1  0  0  0
  3  5  1  0  0  0  0
  3  4  1  1  0  0  0
  5  6  1  6  0  0  0
  7  8  1  1  0  0  0
  7  5  1  0  0  0  0
  9 10  1  6  0  0  0
  9  7  1  0  0  0  0
 10  1  1  0  0  0  0
 11 13  1  6  0  0  0
 11  9  1  0  0  0  0
 12 11  1  0  0  0  0
 14 15  1  6  0  0  0
 16 14  1  0  0  0  0
 17 18  1  6  0  0  0
 17 16  1  0  0  0  0
 19  2  1  1  0  0  0
 19 20  1  0  0  0  0
 19 17  1  0  0  0  0
 20 21  1  6  0  0  0
 20 22  1  0  0  0  0
 22 23  1  1  0  0  0
 22 14  1  0  0  0  0
 24 23  1  1  0  0  0
 24 25  1  0  0  0  0
 25 27  1  0  0  0  0
 25 26  1  1  0  0  0
 27 28  1  1  0  0  0
 28 29  1  0  0  0  0
 30 31  1  6  0  0  0
 30 32  1  0  0  0  0
 30 27  1  0  0  0  0
 33 30  1  0  0  0  0
 34 33  1  0  0  0  0
 34 24  1  0  0  0  0
M  END
>  <CHROM.1>
-166.05934888,-168.56243499,-142.49920663,94.96155527,-163.42131357,-90.51034520
-3.53665631,15.82004118,36.80552048,-0.80953274,-0.36009043,2.96489412

>  <Name>
lig.pdb

>  <RI>
0

>  <Rbt.Current_Directory>
/home/itssahil/PROJECTS/Mol_Feturizer/New_Systems/rnas/4k32

>  <Rbt.Executable>
rbdock ($Id: //depot/dev/client3/rdock/2013.1/src/exe/rbdock.cxx#4 $)

>  <Rbt.Library>
libRbt.so (2013.1, Build901 2013/11/27)

>  <Rbt.Parameter_File>
/export/apps/rDock/src/rDock_2013.1_src/data/scripts/dock_solv.prm

>  <Rbt.Receptor>
prm/pocket_docking_2.prm

>  <SCORE>
-18.5527

>  <SCORE.INTER>
-15.9099

>  <SCORE.INTER.CONST>
1

>  <SCORE.INTER.POLAR>
0

>  <SCORE.INTER.ROT>
6

>  <SCORE.INTER.SOLV>
25.0874

>  <SCORE.INTER.VDW>
-26.569

>  <SCORE.INTER.norm>
-0.467937

>  <SCORE.INTRA>
-2.64284

>  <SCORE.INTRA.DIHEDRAL>
-5.21267

>  <SCORE.INTRA.DIHEDRAL.0>
18.0069

>  <SCORE.INTRA.POLAR>
0

>  <SCORE.INTRA.POLAR.0>
0

>  <SCORE.INTRA.REPUL>
0

>  <SCORE.INTRA.REPUL.0>
0

>  <SCORE.INTRA.SOLV>
0.245976

>  <SCORE.INTRA.SOLV.lig_0>
-70.7393

>  <SCORE.INTRA.VDW>
-0.159493

>  <SCORE.INTRA.VDW.0>
-3.23471

>  <SCORE.INTRA.norm>
-0.0777305

>  <SCORE.RESTR>
0

>  <SCORE.RESTR.CAVITY>
0

>  <SCORE.RESTR.norm>
0

>  <SCORE.SYSTEM>
0

>  <SCORE.SYSTEM.CONST>
0

>  <SCORE.SYSTEM.DIHEDRAL>
0

>  <SCORE.SYSTEM.SOLV>
0

>  <SCORE.SYSTEM.norm>
0

>  <SCORE.heavy>
34

>  <SCORE.norm>
-0.545668

>  <RMSD>
0.652

$$$$
lig.pdb
 OpenBabel11021811503D
libRbt.so/2013.1/901 2013/11/27
 34 36  0  0  0  0  0  0  0  0999 V2000
   -1.2664   16.6123   35.2052 C   0  0  2  0  0  0  0  0  0  0  0  0
   -1.8252   17.1356   36.4152 O   0  0  0  0  0  0  0  0  0  0  0  0
    0.3037   16.4706   35.3952 C   0  0  2  0  0  0  0  0  0  0  0  0
    0.6433   15.5508   36.5058 N   0  0  0  0  0  0  0  0  0  0  0  0
    0.9186   17.8680   35.6602 C   0  0  1  0  0  0  0  0  0  0  0  0
    2.3343   17.7615   35.8270 O   0  0  0  0  0  0  0  0  0  0  0  0
    0.5616   18.7918   34.4821 C   0  0  2  0  0  0  0  0  0  0  0  0
    1.1261   20.0836   34.7119 O   0  0  0  0  0  0  0  0  0  0  0  0
   -1.0056   18.8809   34.3328 C   0  0  2  0  0  0  0  0  0  0  0  0
   -1.5880   17.5394   34.1153 O   0  0  0  0  0  0  0  0  0  0  0  0
   -1.4143   19.7890   33.1464 C   0  0  2  0  0  0  0  0  0  0  0  0
   -0.6111   19.4847   32.0045 O   0  0  0  0  0  0  0  0  0  0  0  0
   -1.2314   21.2589   33.4909 C   0  0  0  0  0  0  0  0  0  0  0  0
   -5.5486   16.3662   38.3802 C   0  0  2  0  0  0  0  0  0  0  0  0
   -6.9862   16.3073   38.6558 N   0  0  0  0  0  0  0  0  0  0  0  0
   -5.2085   17.8389   38.0203 C   0  0  0  0  0  0  0  0  0  0  0  0
   -3.6824   17.9268   37.7480 C   0  0  2  0  0  0  0  0  0  0  0  0
   -3.3129   19.3097   37.4075 N   0  0  0  0  0  0  0  0  0  0  0  0
   -3.2712   16.9877   36.5823 C   0  0  2  0  0  0  0  0  0  0  0  0
   -3.6641   15.5213   36.9469 C   0  0  2  0  0  0  0  0  0  0  0  0
   -3.2942   14.6563   35.8645 O   0  0  0  0  0  0  0  0  0  0  0  0
   -5.1907   15.4006   37.1730 C   0  0  1  0  0  0  0  0  0  0  0  0
   -5.4687   14.0204   37.5158 O   0  0  0  0  0  0  0  0  0  0  0  0
   -6.8185   13.5627   37.2664 C   0  0  2  0  0  0  0  0  0  0  0  0
   -7.2032   12.6477   38.4880 C   0  0  2  0  0  0  0  0  0  0  0  0
   -7.1526   13.4012   39.6893 O   0  0  0  0  0  0  0  0  0  0  0  0
   -6.2096   11.4263   38.5459 C   0  0  1  0  0  0  0  0  0  0  0  0
   -6.5320   10.5331   39.7003 N   0  0  0  0  0  0  0  0  0  0  0  0
   -5.8710   11.0612   40.9131 C   0  0  0  0  0  0  0  0  0  0  0  0
   -6.3171   10.6373   37.2055 C   0  0  2  0  0  0  0  0  0  0  0  0
   -7.6544   10.1615   37.0609 O   0  0  0  0  0  0  0  0  0  0  0  0
   -5.3748    9.4366   37.1772 C   0  0  0  0  0  0  0  0  0  0  0  0
   -5.9785   11.5955   36.0188 C   0  0  0  0  0  0  0  0  0  0  0  0
   -6.8714   12.7734   36.0195 O   0  0  0  0  0  0  0  0  0  0  0  0
  1  3  1  0  0  0  0
  1  2  1  1  0  0  0
  3  5  1  0  0  0  0
  3  4  1  1  0  0  0
  5  6  1  6  0  0  0
  7  8  1  1  0  0  0
  7  5  1  0  0  0  0
  9 10  1  6  0  0  0
  9  7  1  0  0  0  0
 10  1  1  0  0  0  0
 11 13  1  1  0  0  0
 11  9  1  0  0  0  0
 12 11  1  0  0  0  0
 14 15  1  6  0  0  0
 16 14  1  0  0  0  0
 17 18  1  6  0  0  0
 17 16  1  0  0  0  0
 19  2  1  1  0  0  0
 19 20  1  0  0  0  0
 19 17  1  0  0  0  0
 20 21  1  6  0  0  0
 20 22  1  0  0  0  0
 22 23  1  1  0  0  0
 22 14  1  0  0  0  0
 24 23  1  1  0  0  0
 24 25  1  0  0  0  0
 25 27  1  0  0  0  0
 25 26  1  1  0  0  0
 27 28  1  1  0  0  0
 28 29  1  0  0  0  0
 30 31  1  6  0  0  0
 30 32  1  0  0  0  0
 30 27  1  0  0  0  0
 33 30  1  0  0  0  0
 34 33  1  0  0  0  0
 34 24  1  0  0  0  0
M  END
>  <CHROM.1>
-163.28808797,44.89168931,-165.75392231,87.03154204,-140.10129755,-84.81567823
-3.53578440,15.54736348,36.55851786,-0.79027703,-0.48218251,3.10011949

>  <Name>
lig.pdb

>  <RI>
0

>  <Rbt.Current_Directory>
/home/itssahil/PROJECTS/Mol_Feturizer/New_Systems/rnas/4k32

>  <Rbt.Executable>
rbdock ($Id: //depot/dev/client3/rdock/2013.1/src/exe/rbdock.cxx#4 $)

>  <Rbt.Library>
libRbt.so (2013.1, Build901 2013/11/27)

>  <Rbt.Parameter_File>
/export/apps/rDock/src/rDock_2013.1_src/data/scripts/dock_solv.prm

>  <Rbt.Receptor>
prm/pocket_docking_2.prm

>  <SCORE>
-19.3518

>  <SCORE.INTER>
-16.8769

>  <SCORE.INTER.CONST>
1

>  <SCORE.INTER.POLAR>
0

>  <SCORE.INTER.ROT>
6

>  <SCORE.INTER.SOLV>
25.5699

>  <SCORE.INTER.VDW>
-27.3746

>  <SCORE.INTER.norm>
-0.496378

>  <SCORE.INTRA>
-2.50522

>  <SCORE.INTRA.DIHEDRAL>
-6.09434

>  <SCORE.INTRA.DIHEDRAL.0>
18.0069

>  <SCORE.INTRA.POLAR>
0

>  <SCORE.INTRA.POLAR.0>
0

>  <SCORE.INTRA.REPUL>
0

>  <SCORE.INTRA.REPUL.0>
0

>  <SCORE.INTRA.SOLV>
-0.398164

>  <SCORE.INTRA.SOLV.lig_0>
-70.7393

>  <SCORE.INTRA.VDW>
0.741032

>  <SCORE.INTRA.VDW.0>
-3.23471

>  <SCORE.INTRA.norm>
-0.073683

>  <SCORE.RESTR>
0.0302796

>  <SCORE.RESTR.CAVITY>
0.0302796

>  <SCORE.RESTR.norm>
0.000890578

>  <SCORE.SYSTEM>
0

>  <SCORE.SYSTEM.CONST>
0

>  <SCORE.SYSTEM.DIHEDRAL>
0

>  <SCORE.SYSTEM.SOLV>
0

>  <SCORE.SYSTEM.norm>
0

>  <SCORE.heavy>
34

>  <SCORE.norm>
-0.569171

>  <RMSD>
0.656

$$$$
lig.pdb
 OpenBabel11021811503D
libRbt.so/2013.1/901 2013/11/27
 34 36  0  0  0  0  0  0  0  0999 V2000
   -1.2453   16.7291   35.2842 C   0  0  2  0  0  0  0  0  0  0  0  0
   -1.7504   17.0701   36.5799 O   0  0  0  0  0  0  0  0  0  0  0  0
    0.3107   16.4386   35.4103 C   0  0  2  0  0  0  0  0  0  0  0  0
    0.5878   15.3137   36.3336 N   0  0  0  0  0  0  0  0  0  0  0  0
    1.0350   17.7167   35.9029 C   0  0  1  0  0  0  0  0  0  0  0  0
    2.4396   17.4764   36.0160 O   0  0  0  0  0  0  0  0  0  0  0  0
    0.7402   18.8588   34.9143 C   0  0  2  0  0  0  0  0  0  0  0  0
    1.4057   20.0434   35.3549 O   0  0  0  0  0  0  0  0  0  0  0  0
   -0.8166   19.0903   34.8189 C   0  0  2  0  0  0  0  0  0  0  0  0
   -1.5038   17.8562   34.3821 O   0  0  0  0  0  0  0  0  0  0  0  0
   -1.1643   20.2224   33.8205 C   0  0  2  0  0  0  0  0  0  0  0  0
   -2.5451   20.5688   33.9429 O   0  0  0  0  0  0  0  0  0  0  0  0
   -0.8969   19.7920   32.3866 C   0  0  0  0  0  0  0  0  0  0  0  0
   -5.5489   17.0477   38.5515 C   0  0  2  0  0  0  0  0  0  0  0  0
   -6.9899   17.1625   38.7892 N   0  0  0  0  0  0  0  0  0  0  0  0
   -5.0851   18.3721   37.8848 C   0  0  0  0  0  0  0  0  0  0  0  0
   -3.5535   18.2794   37.6466 C   0  0  2  0  0  0  0  0  0  0  0  0
   -3.0679   19.5187   37.0196 N   0  0  0  0  0  0  0  0  0  0  0  0
   -3.2057   17.0749   36.7312 C   0  0  2  0  0  0  0  0  0  0  0  0
   -3.7217   15.7616   37.3995 C   0  0  2  0  0  0  0  0  0  0  0  0
   -3.4101   14.6509   36.5476 O   0  0  0  0  0  0  0  0  0  0  0  0
   -5.2559   15.8122   37.5999 C   0  0  1  0  0  0  0  0  0  0  0  0
   -5.6501   14.5690   38.2314 O   0  0  0  0  0  0  0  0  0  0  0  0
   -6.9638   14.0695   37.8871 C   0  0  2  0  0  0  0  0  0  0  0  0
   -7.2959   12.9485   38.9408 C   0  0  2  0  0  0  0  0  0  0  0  0
   -7.3065   13.5027   40.2470 O   0  0  0  0  0  0  0  0  0  0  0  0
   -6.2224   11.8011   38.8235 C   0  0  1  0  0  0  0  0  0  0  0  0
   -6.4933   10.7163   39.8156 N   0  0  0  0  0  0  0  0  0  0  0  0
   -5.8504   11.0704   41.0993 C   0  0  0  0  0  0  0  0  0  0  0  0
   -6.2651   11.2303   37.3734 C   0  0  2  0  0  0  0  0  0  0  0  0
   -7.5658   10.6971   37.1298 O   0  0  0  0  0  0  0  0  0  0  0  0
   -5.2435   10.1138   37.1732 C   0  0  0  0  0  0  0  0  0  0  0  0
   -5.9821   12.3854   36.3600 C   0  0  0  0  0  0  0  0  0  0  0  0
   -6.9526   13.4871   36.5301 O   0  0  0  0  0  0  0  0  0  0  0  0
  1  3  1  0  0  0  0
  1  2  1  1  0  0  0
  3  5  1  0  0  0  0
  3  4  1  1  0  0  0
  5  6  1  6  0  0  0
  7  8  1  1  0  0  0
  7  5  1  0  0  0  0
  9 10  1  6  0  0  0
  9  7  1  0  0  0  0
 10  1  1  0  0  0  0
 11 13  1  6  0  0  0
 11  9  1  0  0  0  0
 12 11  1  0  0  0  0
 14 15  1  6  0  0  0
 16 14  1  0  0  0  0
 17 18  1  6  0  0  0
 17 16  1  0  0  0  0
 19  2  1  1  0  0  0
 19 20  1  0  0  0  0
 19 17  1  0  0  0  0
 20 21  1  6  0  0  0
 20 22  1  0  0  0  0
 22 23  1  1  0  0  0
 22 14  1  0  0  0  0
 24 23  1  1  0  0  0
 24 25  1  0  0  0  0
 25 27  1  0  0  0  0
 25 26  1  1  0  0  0
 27 28  1  1  0  0  0
 28 29  1  0  0  0  0
 30 31  1  6  0  0  0
 30 32  1  0  0  0  0
 30 27  1  0  0  0  0
 33 30  1  0  0  0  0
 34 33  1  0  0  0  0
 34 24  1  0  0  0  0
M  END
>  <CHROM.1>
-166.51992934,-169.37877262,-141.34111891,95.96205028,-166.22029975,-86.24621489
-3.55437741,15.79850225,36.83875710,-0.81180210,-0.36467897,2.97118499

>  <Name>
lig.pdb

>  <RI>
0

>  <Rbt.Current_Directory>
/home/itssahil/PROJECTS/Mol_Feturizer/New_Systems/rnas/4k32

>  <Rbt.Executable>
rbdock ($Id: //depot/dev/client3/rdock/2013.1/src/exe/rbdock.cxx#4 $)

>  <Rbt.Library>
libRbt.so (2013.1, Build901 2013/11/27)

>  <Rbt.Parameter_File>
/export/apps/rDock/src/rDock_2013.1_src/data/scripts/dock_solv.prm

>  <Rbt.Receptor>
prm/pocket_docking_2.prm

>  <SCORE>
-18.6014

>  <SCORE.INTER>
-16.037

>  <SCORE.INTER.CONST>
1

>  <SCORE.INTER.POLAR>
0

>  <SCORE.INTER.ROT>
6

>  <SCORE.INTER.SOLV>
24.9189

>  <SCORE.INTER.VDW>
-26.5976

>  <SCORE.INTER.norm>
-0.471677

>  <SCORE.INTRA>
-2.56442

>  <SCORE.INTRA.DIHEDRAL>
-5.46503

>  <SCORE.INTRA.DIHEDRAL.0>
18.0069

>  <SCORE.INTRA.POLAR>
0

>  <SCORE.INTRA.POLAR.0>
0

>  <SCORE.INTRA.REPUL>
0

>  <SCORE.INTRA.REPUL.0>
0

>  <SCORE.INTRA.SOLV>
0.26847

>  <SCORE.INTRA.SOLV.lig_0>
-70.7393

>  <SCORE.INTRA.VDW>
0.033862

>  <SCORE.INTRA.VDW.0>
-3.23471

>  <SCORE.INTRA.norm>
-0.0754241

>  <SCORE.RESTR>
0

>  <SCORE.RESTR.CAVITY>
0

>  <SCORE.RESTR.norm>
0

>  <SCORE.SYSTEM>
0

>  <SCORE.SYSTEM.CONST>
0

>  <SCORE.SYSTEM.DIHEDRAL>
0

>  <SCORE.SYSTEM.SOLV>
0

>  <SCORE.SYSTEM.norm>
0

>  <SCORE.heavy>
34

>  <SCORE.norm>
-0.547101

>  <RMSD>
0.663

$$$$
lig.pdb
 OpenBabel11021811503D
libRbt.so/2013.1/901 2013/11/27
 34 36  0  0  0  0  0  0  0  0999 V2000
   -1.2751   16.6244   35.1779 C   0  0  2  0  0  0  0  0  0  0  0  0
   -1.8297   17.1614   36.3838 O   0  0  0  0  0  0  0  0  0  0  0  0
    0.2959   16.4868   35.3633 C   0  0  2  0  0  0  0  0  0  0  0  0
    0.6410   15.5807   36.4835 N   0  0  0  0  0  0  0  0  0  0  0  0
    0.9102   17.8879   35.6092 C   0  0  1  0  0  0  0  0  0  0  0  0
    2.3267   17.7850   35.7717 O   0  0  0  0  0  0  0  0  0  0  0  0
    0.5475   18.7971   34.4216 C   0  0  2  0  0  0  0  0  0  0  0  0
    1.1113   20.0923   34.6338 O   0  0  0  0  0  0  0  0  0  0  0  0
   -1.0204   18.8827   34.2774 C   0  0  2  0  0  0  0  0  0  0  0  0
   -1.6021   17.5381   34.0783 O   0  0  0  0  0  0  0  0  0  0  0  0
   -1.4349   19.7761   33.0819 C   0  0  2  0  0  0  0  0  0  0  0  0
   -0.6431   19.4517   31.9376 O   0  0  0  0  0  0  0  0  0  0  0  0
   -1.2417   21.2497   33.4041 C   0  0  0  0  0  0  0  0  0  0  0  0
   -5.5337   16.3596   38.3723 C   0  0  2  0  0  0  0  0  0  0  0  0
   -6.9687   16.2934   38.6597 N   0  0  0  0  0  0  0  0  0  0  0  0
   -5.2010   17.8371   38.0257 C   0  0  0  0  0  0  0  0  0  0  0  0
   -3.6775   17.9325   37.7411 C   0  0  2  0  0  0  0  0  0  0  0  0
   -3.3150   19.3201   37.4127 N   0  0  0  0  0  0  0  0  0  0  0  0
   -3.2738   17.0075   36.5618 C   0  0  2  0  0  0  0  0  0  0  0  0
   -3.6592   15.5359   36.9136 C   0  0  2  0  0  0  0  0  0  0  0  0
   -3.2963   14.6839   35.8186 O   0  0  0  0  0  0  0  0  0  0  0  0
   -5.1835   15.4083   37.1516 C   0  0  1  0  0  0  0  0  0  0  0  0
   -5.4545   14.0236   37.4816 O   0  0  0  0  0  0  0  0  0  0  0  0
   -6.8052   13.5647   37.2391 C   0  0  2  0  0  0  0  0  0  0  0  0
   -7.1884   12.6615   38.4699 C   0  0  2  0  0  0  0  0  0  0  0  0
   -7.1350   13.4262   39.6639 O   0  0  0  0  0  0  0  0  0  0  0  0
   -6.1956   11.4398   38.5374 C   0  0  1  0  0  0  0  0  0  0  0  0
   -6.5166   10.5578   39.7007 N   0  0  0  0  0  0  0  0  0  0  0  0
   -5.8011   11.0597   40.8935 C   0  0  0  0  0  0  0  0  0  0  0  0
   -6.3062   10.6385   37.2047 C   0  0  2  0  0  0  0  0  0  0  0  0
   -7.6441   10.1624   37.0670 O   0  0  0  0  0  0  0  0  0  0  0  0
   -5.3650    9.4367   37.1859 C   0  0  0  0  0  0  0  0  0  0  0  0
   -5.9691   11.5852   36.0084 C   0  0  0  0  0  0  0  0  0  0  0  0
   -6.8610   12.7638   35.9996 O   0  0  0  0  0  0  0  0  0  0  0  0
  1  3  1  0  0  0  0
  1  2  1  1  0  0  0
  3  5  1  0  0  0  0
  3  4  1  1  0  0  0
  5  6  1  6  0  0  0
  7  8  1  1  0  0  0
  7  5  1  0  0  0  0
  9 10  1  6  0  0  0
  9  7  1  0  0  0  0
 10  1  1  0  0  0  0
 11 13  1  1  0  0  0
 11  9  1  0  0  0  0
 12 11  1  0  0  0  0
 14 15  1  6  0  0  0
 16 14  1  0  0  0  0
 17 18  1  6  0  0  0
 17 16  1  0  0  0  0
 19  2  1  1  0  0  0
 19 20  1  0  0  0  0
 19 17  1  0  0  0  0
 20 21  1  6  0  0  0
 20 22  1  0  0  0  0
 22 23  1  1  0  0  0
 22 14  1  0  0  0  0
 24 23  1  1  0  0  0
 24 25  1  0  0  0  0
 25 27  1  0  0  0  0
 25 26  1  1  0  0  0
 27 28  1  1  0  0  0
 28 29  1  0  0  0  0
 30 31  1  6  0  0  0
 30 32  1  0  0  0  0
 30 27  1  0  0  0  0
 33 30  1  0  0  0  0
 34 33  1  0  0  0  0
 34 24  1  0  0  0  0
M  END
>  <CHROM.1>
-162.96552256,45.35428600,-167.20772664,87.02658793,-138.85236637,-87.48716050
-3.53286071,15.55356819,36.53040023,-0.78833978,-0.49408671,3.10503745

>  <Name>
lig.pdb

>  <RI>
0

>  <Rbt.Current_Directory>
/home/itssahil/PROJECTS/Mol_Feturizer/New_Systems/rnas/4k32

>  <Rbt.Executable>
rbdock ($Id: //depot/dev/client3/rdock/2013.1/src/exe/rbdock.cxx#4 $)

>  <Rbt.Library>
libRbt.so (2013.1, Build901 2013/11/27)

>  <Rbt.Parameter_File>
/export/apps/rDock/src/rDock_2013.1_src/data/scripts/dock_solv.prm

>  <Rbt.Receptor>
prm/pocket_docking_2.prm

>  <SCORE>
-19.3179

>  <SCORE.INTER>
-16.8131

>  <SCORE.INTER.CONST>
1

>  <SCORE.INTER.POLAR>
0

>  <SCORE.INTER.ROT>
6

>  <SCORE.INTER.SOLV>
25.7246

>  <SCORE.INTER.VDW>
-27.3836

>  <SCORE.INTER.norm>
-0.494504

>  <SCORE.INTRA>
-2.53773

>  <SCORE.INTRA.DIHEDRAL>
-5.98917

>  <SCORE.INTRA.DIHEDRAL.0>
18.0069

>  <SCORE.INTRA.POLAR>
0

>  <SCORE.INTRA.POLAR.0>
0

>  <SCORE.INTRA.REPUL>
0

>  <SCORE.INTRA.REPUL.0>
0

>  <SCORE.INTRA.SOLV>
-0.404621

>  <SCORE.INTRA.SOLV.lig_0>
-70.7393

>  <SCORE.INTRA.VDW>
0.659162

>  <SCORE.INTRA.VDW.0>
-3.23471

>  <SCORE.INTRA.norm>
-0.0746392

>  <SCORE.RESTR>
0.0329718

>  <SCORE.RESTR.CAVITY>
0.0329718

>  <SCORE.RESTR.norm>
0.000969758

>  <SCORE.SYSTEM>
0

>  <SCORE.SYSTEM.CONST>
0

>  <SCORE.SYSTEM.DIHEDRAL>
0

>  <SCORE.SYSTEM.SOLV>
0

>  <SCORE.SYSTEM.norm>
0

>  <SCORE.heavy>
34

>  <SCORE.norm>
-0.568173

>  <RMSD>
0.665

$$$$
lig.pdb
 OpenBabel11021811503D
libRbt.so/2013.1/901 2013/11/27
 34 36  0  0  0  0  0  0  0  0999 V2000
   -1.2787   16.6835   35.2370 C   0  0  2  0  0  0  0  0  0  0  0  0
   -1.8020   17.2528   36.4421 O   0  0  0  0  0  0  0  0  0  0  0  0
    0.2920   16.5166   35.3991 C   0  0  2  0  0  0  0  0  0  0  0  0
    0.6372   15.6232   36.5294 N   0  0  0  0  0  0  0  0  0  0  0  0
    0.9389   17.9087   35.6100 C   0  0  1  0  0  0  0  0  0  0  0  0
    2.3555   17.7793   35.7512 O   0  0  0  0  0  0  0  0  0  0  0  0
    0.5750   18.8045   34.4126 C   0  0  2  0  0  0  0  0  0  0  0  0
    1.1687   20.0912   34.5925 O   0  0  0  0  0  0  0  0  0  0  0  0
   -0.9930   18.9200   34.2926 C   0  0  2  0  0  0  0  0  0  0  0  0
   -1.6053   17.5845   34.1269 O   0  0  0  0  0  0  0  0  0  0  0  0
   -1.4090   19.8009   33.0884 C   0  0  2  0  0  0  0  0  0  0  0  0
   -0.6386   19.4448   31.9389 O   0  0  0  0  0  0  0  0  0  0  0  0
   -1.1870   21.2761   33.3838 C   0  0  0  0  0  0  0  0  0  0  0  0
   -5.5299   16.7644   38.4867 C   0  0  2  0  0  0  0  0  0  0  0  0
   -6.9663   16.7724   38.7747 N   0  0  0  0  0  0  0  0  0  0  0  0
   -5.1494   18.1907   38.0019 C   0  0  0  0  0  0  0  0  0  0  0  0
   -3.6237   18.2091   37.7142 C   0  0  2  0  0  0  0  0  0  0  0  0
   -3.2163   19.5467   37.2562 N   0  0  0  0  0  0  0  0  0  0  0  0
   -3.2503   17.1633   36.6295 C   0  0  2  0  0  0  0  0  0  0  0  0
   -3.6834   15.7453   37.1187 C   0  0  2  0  0  0  0  0  0  0  0  0
   -3.3484   14.7815   36.1110 O   0  0  0  0  0  0  0  0  0  0  0  0
   -5.2110   15.6903   37.3632 C   0  0  1  0  0  0  0  0  0  0  0  0
   -5.5268   14.3528   37.8228 O   0  0  0  0  0  0  0  0  0  0  0  0
   -6.8695   13.8874   37.5504 C   0  0  2  0  0  0  0  0  0  0  0  0
   -7.2279   12.8829   38.7079 C   0  0  2  0  0  0  0  0  0  0  0  0
   -7.1829   13.5523   39.9582 O   0  0  0  0  0  0  0  0  0  0  0  0
   -6.2109   11.6798   38.6751 C   0  0  1  0  0  0  0  0  0  0  0  0
   -6.5079   10.7029   39.7668 N   0  0  0  0  0  0  0  0  0  0  0  0
   -5.8154   11.1372   40.9991 C   0  0  0  0  0  0  0  0  0  0  0  0
   -6.3132   10.9835   37.2840 C   0  0  2  0  0  0  0  0  0  0  0  0
   -7.6422   10.4930   37.1147 O   0  0  0  0  0  0  0  0  0  0  0  0
   -5.3486    9.8062   37.1669 C   0  0  0  0  0  0  0  0  0  0  0  0
   -6.0015   12.0279   36.1645 C   0  0  0  0  0  0  0  0  0  0  0  0
   -6.9165   13.1854   36.2521 O   0  0  0  0  0  0  0  0  0  0  0  0
  1  3  1  0  0  0  0
  1  2  1  1  0  0  0
  3  5  1  0  0  0  0
  3  4  1  1  0  0  0
  5  6  1  6  0  0  0
  7  8  1  1  0  0  0
  7  5  1  0  0  0  0
  9 10  1  6  0  0  0
  9  7  1  0  0  0  0
 10  1  1  0  0  0  0
 11 13  1  1  0  0  0
 11  9  1  0  0  0  0
 12 11  1  0  0  0  0
 14 15  1  6  0  0  0
 16 14  1  0  0  0  0
 17 18  1  6  0  0  0
 17 16  1  0  0  0  0
 19  2  1  1  0  0  0
 19 20  1  0  0  0  0
 19 17  1  0  0  0  0
 20 21  1  6  0  0  0
 20 22  1  0  0  0  0
 22 23  1  1  0  0  0
 22 14  1  0  0  0  0
 24 23  1  1  0  0  0
 24 25  1  0  0  0  0
 25 27  1  0  0  0  0
 25 26  1  1  0  0  0
 27 28  1  1  0  0  0
 28 29  1  0  0  0  0
 30 31  1  6  0  0  0
 30 32  1  0  0  0  0
 30 27  1  0  0  0  0
 33 30  1  0  0  0  0
 34 33  1  0  0  0  0
 34 24  1  0  0  0  0
M  END
>  <CHROM.1>
-164.53514858,45.06686072,-162.09703701,90.53721216,-150.33279250,-86.47494397
-3.53097066,15.73486942,36.61931006,-0.77620274,-0.48835961,3.07554502

>  <Name>
lig.pdb

>  <RI>
0

>  <Rbt.Current_Directory>
/home/itssahil/PROJECTS/Mol_Feturizer/New_Systems/rnas/4k32

>  <Rbt.Executable>
rbdock ($Id: //depot/dev/client3/rdock/2013.1/src/exe/rbdock.cxx#4 $)

>  <Rbt.Library>
libRbt.so (2013.1, Build901 2013/11/27)

>  <Rbt.Parameter_File>
/export/apps/rDock/src/rDock_2013.1_src/data/scripts/dock_solv.prm

>  <Rbt.Receptor>
prm/pocket_docking_4.prm

>  <SCORE>
-19.724

>  <SCORE.INTER>
-16.525

>  <SCORE.INTER.CONST>
1

>  <SCORE.INTER.POLAR>
0

>  <SCORE.INTER.ROT>
6

>  <SCORE.INTER.SOLV>
25.6651

>  <SCORE.INTER.VDW>
-27.1717

>  <SCORE.INTER.norm>
-0.486028

>  <SCORE.INTRA>
-3.19905

>  <SCORE.INTRA.DIHEDRAL>
-6.91728

>  <SCORE.INTRA.DIHEDRAL.0>
18.0069

>  <SCORE.INTRA.POLAR>
0

>  <SCORE.INTRA.POLAR.0>
0

>  <SCORE.INTRA.REPUL>
0

>  <SCORE.INTRA.REPUL.0>
0

>  <SCORE.INTRA.SOLV>
-0.593284

>  <SCORE.INTRA.SOLV.lig_0>
-70.7393

>  <SCORE.INTRA.VDW>
0.556238

>  <SCORE.INTRA.VDW.0>
-3.23471

>  <SCORE.INTRA.norm>
-0.0940896

>  <SCORE.RESTR>
0

>  <SCORE.RESTR.CAVITY>
0

>  <SCORE.RESTR.norm>
0

>  <SCORE.SYSTEM>
0

>  <SCORE.SYSTEM.CONST>
0

>  <SCORE.SYSTEM.DIHEDRAL>
0

>  <SCORE.SYSTEM.SOLV>
0

>  <SCORE.SYSTEM.norm>
0

>  <SCORE.heavy>
34

>  <SCORE.norm>
-0.580118

>  <RMSD>
0.675

$$$$
lig.pdb
 OpenBabel11021811503D
libRbt.so/2013.1/901 2013/11/27
 34 36  0  0  0  0  0  0  0  0999 V2000
   -1.3050   16.9587   35.2676 C   0  0  2  0  0  0  0  0  0  0  0  0
   -1.8087   17.3564   36.5476 O   0  0  0  0  0  0  0  0  0  0  0  0
    0.1847   16.4405   35.4511 C   0  0  2  0  0  0  0  0  0  0  0  0
    0.2544   15.2771   36.3658 N   0  0  0  0  0  0  0  0  0  0  0  0
    1.0675   17.5923   35.9940 C   0  0  1  0  0  0  0  0  0  0  0  0
    2.4156   17.1463   36.1593 O   0  0  0  0  0  0  0  0  0  0  0  0
    0.9857   18.7761   35.0137 C   0  0  2  0  0  0  0  0  0  0  0  0
    1.7989   19.8447   35.5007 O   0  0  0  0  0  0  0  0  0  0  0  0
   -0.5148   19.2357   34.8598 C   0  0  2  0  0  0  0  0  0  0  0  0
   -1.3567   18.1212   34.3751 O   0  0  0  0  0  0  0  0  0  0  0  0
   -0.6499   20.4173   33.8675 C   0  0  2  0  0  0  0  0  0  0  0  0
    0.3151   21.4240   34.1791 O   0  0  0  0  0  0  0  0  0  0  0  0
   -2.0371   21.0367   33.9361 C   0  0  0  0  0  0  0  0  0  0  0  0
   -5.5677   17.0840   38.5755 C   0  0  2  0  0  0  0  0  0  0  0  0
   -7.0072   17.1336   38.8427 N   0  0  0  0  0  0  0  0  0  0  0  0
   -5.1620   18.4608   37.9807 C   0  0  0  0  0  0  0  0  0  0  0  0
   -3.6327   18.4366   37.7128 C   0  0  2  0  0  0  0  0  0  0  0  0
   -3.2017   19.7268   37.1522 N   0  0  0  0  0  0  0  0  0  0  0  0
   -3.2603   17.3007   36.7224 C   0  0  2  0  0  0  0  0  0  0  0  0
   -3.7185   15.9331   37.3203 C   0  0  2  0  0  0  0  0  0  0  0  0
   -3.3843   14.8858   36.3994 O   0  0  0  0  0  0  0  0  0  0  0  0
   -5.2496   15.9175   37.5481 C   0  0  1  0  0  0  0  0  0  0  0  0
   -5.5891   14.6263   38.1114 O   0  0  0  0  0  0  0  0  0  0  0  0
   -6.9204   14.1374   37.8241 C   0  0  2  0  0  0  0  0  0  0  0  0
   -7.2454   13.0727   38.9368 C   0  0  2  0  0  0  0  0  0  0  0  0
   -7.2114   13.6865   40.2157 O   0  0  0  0  0  0  0  0  0  0  0  0
   -6.1967   11.9003   38.8457 C   0  0  1  0  0  0  0  0  0  0  0  0
   -6.4614   10.8678   39.8936 N   0  0  0  0  0  0  0  0  0  0  0  0
   -5.7845   11.2713   41.1448 C   0  0  0  0  0  0  0  0  0  0  0  0
   -6.2880   11.2645   37.4251 C   0  0  2  0  0  0  0  0  0  0  0  0
   -7.6043   10.7463   37.2397 O   0  0  0  0  0  0  0  0  0  0  0  0
   -5.2928   10.1200   37.2511 C   0  0  0  0  0  0  0  0  0  0  0  0
   -6.0105   12.3660   36.3524 C   0  0  0  0  0  0  0  0  0  0  0  0
   -6.9557   13.4932   36.4958 O   0  0  0  0  0  0  0  0  0  0  0  0
  1  3  1  0  0  0  0
  1  2  1  1  0  0  0
  3  5  1  0  0  0  0
  3  4  1  1  0  0  0
  5  6  1  6  0  0  0
  7  8  1  1  0  0  0
  7  5  1  0  0  0  0
  9 10  1  6  0  0  0
  9  7  1  0  0  0  0
 10  1  1  0  0  0  0
 11 13  1  1  0  0  0
 11  9  1  0  0  0  0
 12 11  1  0  0  0  0
 14 15  1  6  0  0  0
 16 14  1  0  0  0  0
 17 18  1  6  0  0  0
 17 16  1  0  0  0  0
 19  2  1  1  0  0  0
 19 20  1  0  0  0  0
 19 17  1  0  0  0  0
 20 21  1  6  0  0  0
 20 22  1  0  0  0  0
 22 23  1  1  0  0  0
 22 14  1  0  0  0  0
 24 23  1  1  0  0  0
 24 25  1  0  0  0  0
 25 27  1  0  0  0  0
 25 26  1  1  0  0  0
 27 28  1  1  0  0  0
 28 29  1  0  0  0  0
 30 31  1  6  0  0  0
 30 32  1  0  0  0  0
 30 27  1  0  0  0  0
 33 30  1  0  0  0  0
 34 33  1  0  0  0  0
 34 24  1  0  0  0  0
M  END
>  <CHROM.1>
-154.00422633,-48.18836773,-148.37007325,92.44790377,-158.66951850,-85.95223083
-3.46776604,15.93807859,36.91748628,-0.79986698,-0.36445673,3.01625959

>  <Name>
lig.pdb

>  <RI>
0

>  <Rbt.Current_Directory>
/home/itssahil/PROJECTS/Mol_Feturizer/New_Systems/rnas/4k32

>  <Rbt.Executable>
rbdock ($Id: //depot/dev/client3/rdock/2013.1/src/exe/rbdock.cxx#4 $)

>  <Rbt.Library>
libRbt.so (2013.1, Build901 2013/11/27)

>  <Rbt.Parameter_File>
/export/apps/rDock/src/rDock_2013.1_src/data/scripts/dock_solv.prm

>  <Rbt.Receptor>
prm/pocket_docking_3.prm

>  <SCORE>
-16.99

>  <SCORE.INTER>
-15.192

>  <SCORE.INTER.CONST>
1

>  <SCORE.INTER.POLAR>
0

>  <SCORE.INTER.ROT>
6

>  <SCORE.INTER.SOLV>
23.3111

>  <SCORE.INTER.VDW>
-25.4984

>  <SCORE.INTER.norm>
-0.446825

>  <SCORE.INTRA>
-1.79797

>  <SCORE.INTRA.DIHEDRAL>
-4.17312

>  <SCORE.INTRA.DIHEDRAL.0>
18.0069

>  <SCORE.INTRA.POLAR>
0

>  <SCORE.INTRA.POLAR.0>
0

>  <SCORE.INTRA.REPUL>
0

>  <SCORE.INTRA.REPUL.0>
0

>  <SCORE.INTRA.SOLV>
0.669289

>  <SCORE.INTRA.SOLV.lig_0>
-70.7393

>  <SCORE.INTRA.VDW>
-0.0460556

>  <SCORE.INTRA.VDW.0>
-3.23471

>  <SCORE.INTRA.norm>
-0.0528815

>  <SCORE.RESTR>
0

>  <SCORE.RESTR.CAVITY>
0

>  <SCORE.RESTR.norm>
0

>  <SCORE.SYSTEM>
0

>  <SCORE.SYSTEM.CONST>
0

>  <SCORE.SYSTEM.DIHEDRAL>
0

>  <SCORE.SYSTEM.SOLV>
0

>  <SCORE.SYSTEM.norm>
0

>  <SCORE.heavy>
34

>  <SCORE.norm>
-0.499706

>  <RMSD>
0.723

$$$$
lig.pdb
 OpenBabel11021811503D
libRbt.so/2013.1/901 2013/11/27
 34 36  0  0  0  0  0  0  0  0999 V2000
   -1.2802   16.7361   35.2582 C   0  0  2  0  0  0  0  0  0  0  0  0
   -1.7888   17.3225   36.4615 O   0  0  0  0  0  0  0  0  0  0  0  0
    0.2911   16.5628   35.4071 C   0  0  2  0  0  0  0  0  0  0  0  0
    0.6427   15.6811   36.5446 N   0  0  0  0  0  0  0  0  0  0  0  0
    0.9472   17.9539   35.5950 C   0  0  1  0  0  0  0  0  0  0  0  0
    2.3644   17.8188   35.7239 O   0  0  0  0  0  0  0  0  0  0  0  0
    0.5762   18.8373   34.3905 C   0  0  2  0  0  0  0  0  0  0  0  0
    1.1783   20.1229   34.5492 O   0  0  0  0  0  0  0  0  0  0  0  0
   -0.9923   18.9596   34.2843 C   0  0  2  0  0  0  0  0  0  0  0  0
   -1.6130   17.6255   34.1406 O   0  0  0  0  0  0  0  0  0  0  0  0
   -1.4155   19.8283   33.0737 C   0  0  2  0  0  0  0  0  0  0  0  0
   -0.6553   19.4572   31.9222 O   0  0  0  0  0  0  0  0  0  0  0  0
   -1.1870   21.3060   33.3509 C   0  0  0  0  0  0  0  0  0  0  0  0
   -5.5272   17.0322   38.5245 C   0  0  2  0  0  0  0  0  0  0  0  0
   -6.9638   17.0816   38.8073 N   0  0  0  0  0  0  0  0  0  0  0  0
   -5.1244   18.4158   37.9436 C   0  0  0  0  0  0  0  0  0  0  0  0
   -3.5980   18.3915   37.6596 C   0  0  2  0  0  0  0  0  0  0  0  0
   -3.1696   19.6880   37.1116 N   0  0  0  0  0  0  0  0  0  0  0  0
   -3.2386   17.2679   36.6506 C   0  0  2  0  0  0  0  0  0  0  0  0
   -3.6940   15.8936   37.2352 C   0  0  2  0  0  0  0  0  0  0  0  0
   -3.3719   14.8578   36.2972 O   0  0  0  0  0  0  0  0  0  0  0  0
   -5.2226   15.8785   37.4786 C   0  0  1  0  0  0  0  0  0  0  0  0
   -5.5595   14.5808   38.0284 O   0  0  0  0  0  0  0  0  0  0  0  0
   -6.8930   14.0964   37.7439 C   0  0  2  0  0  0  0  0  0  0  0  0
   -7.2283   13.0499   38.8707 C   0  0  2  0  0  0  0  0  0  0  0  0
   -7.1943   13.6817   40.1408 O   0  0  0  0  0  0  0  0  0  0  0  0
   -6.1869   11.8695   38.7997 C   0  0  1  0  0  0  0  0  0  0  0  0
   -6.4615   10.8539   39.8615 N   0  0  0  0  0  0  0  0  0  0  0  0
   -5.7228   11.2300   41.0860 C   0  0  0  0  0  0  0  0  0  0  0  0
   -6.2778   11.2141   37.3881 C   0  0  2  0  0  0  0  0  0  0  0  0
   -7.5969   10.7017   37.2059 O   0  0  0  0  0  0  0  0  0  0  0  0
   -5.2895   10.0609   37.2337 C   0  0  0  0  0  0  0  0  0  0  0  0
   -5.9899   12.2983   36.3006 C   0  0  0  0  0  0  0  0  0  0  0  0
   -6.9283   13.4335   36.4248 O   0  0  0  0  0  0  0  0  0  0  0  0
  1  3  1  0  0  0  0
  1  2  1  1  0  0  0
  3  5  1  0  0  0  0
  3  4  1  1  0  0  0
  5  6  1  6  0  0  0
  7  8  1  1  0  0  0
  7  5  1  0  0  0  0
  9 10  1  6  0  0  0
  9  7  1  0  0  0  0
 10  1  1  0  0  0  0
 11 13  1  1  0  0  0
 11  9  1  0  0  0  0
 12 11  1  0  0  0  0
 14 15  1  6  0  0  0
 16 14  1  0  0  0  0
 17 18  1  6  0  0  0
 17 16  1  0  0  0  0
 19  2  1  1  0  0  0
 19 20  1  0  0  0  0
 19 17  1  0  0  0  0
 20 21  1  6  0  0  0
 20 22  1  0  0  0  0
 22 23  1  1  0  0  0
 22 14  1  0  0  0  0
 24 23  1  1  0  0  0
 24 25  1  0  0  0  0
 25 27  1  0  0  0  0
 25 26  1  1  0  0  0
 27 28  1  1  0  0  0
 28 29  1  0  0  0  0
 30 31  1  6  0  0  0
 30 32  1  0  0  0  0
 30 27  1  0  0  0  0
 33 30  1  0  0  0  0
 34 33  1  0  0  0  0
 34 24  1  0  0  0  0
M  END
>  <CHROM.1>
-165.78106240,44.88861285,-158.34572172,92.69508640,-157.02335682,-89.17218626
-3.52175067,15.86751133,36.67227868,-0.78036958,-0.47641723,3.03575414

>  <Name>
lig.pdb

>  <RI>
0

>  <Rbt.Current_Directory>
/home/itssahil/PROJECTS/Mol_Feturizer/New_Systems/rnas/4k32

>  <Rbt.Executable>
rbdock ($Id: //depot/dev/client3/rdock/2013.1/src/exe/rbdock.cxx#4 $)

>  <Rbt.Library>
libRbt.so (2013.1, Build901 2013/11/27)

>  <Rbt.Parameter_File>
/export/apps/rDock/src/rDock_2013.1_src/data/scripts/dock_solv.prm

>  <Rbt.Receptor>
prm/pocket_docking_3.prm

>  <SCORE>
-19.9052

>  <SCORE.INTER>
-16.2488

>  <SCORE.INTER.CONST>
1

>  <SCORE.INTER.POLAR>
0

>  <SCORE.INTER.ROT>
6

>  <SCORE.INTER.SOLV>
25.3311

>  <SCORE.INTER.VDW>
-26.8762

>  <SCORE.INTER.norm>
-0.477906

>  <SCORE.INTRA>
-3.6564

>  <SCORE.INTRA.DIHEDRAL>
-7.20357

>  <SCORE.INTRA.DIHEDRAL.0>
18.0069

>  <SCORE.INTRA.POLAR>
0

>  <SCORE.INTRA.POLAR.0>
0

>  <SCORE.INTRA.REPUL>
0

>  <SCORE.INTRA.REPUL.0>
0

>  <SCORE.INTRA.SOLV>
-0.557753

>  <SCORE.INTRA.SOLV.lig_0>
-70.7393

>  <SCORE.INTRA.VDW>
0.224262

>  <SCORE.INTRA.VDW.0>
-3.23471

>  <SCORE.INTRA.norm>
-0.107541

>  <SCORE.RESTR>
0

>  <SCORE.RESTR.CAVITY>
0

>  <SCORE.RESTR.norm>
0

>  <SCORE.SYSTEM>
0

>  <SCORE.SYSTEM.CONST>
0

>  <SCORE.SYSTEM.DIHEDRAL>
0

>  <SCORE.SYSTEM.SOLV>
0

>  <SCORE.SYSTEM.norm>
0

>  <SCORE.heavy>
34

>  <SCORE.norm>
-0.585447

>  <RMSD>
0.731

$$$$
lig.pdb
 OpenBabel11021811503D
libRbt.so/2013.1/901 2013/11/27
 34 36  0  0  0  0  0  0  0  0999 V2000
   -1.2801   16.6986   35.3010 C   0  0  2  0  0  0  0  0  0  0  0  0
   -1.7865   17.2925   36.5015 O   0  0  0  0  0  0  0  0  0  0  0  0
    0.2911   16.5237   35.4493 C   0  0  2  0  0  0  0  0  0  0  0  0
    0.6424   15.6478   36.5913 N   0  0  0  0  0  0  0  0  0  0  0  0
    0.9496   17.9148   35.6288 C   0  0  1  0  0  0  0  0  0  0  0  0
    2.3668   17.7780   35.7571 O   0  0  0  0  0  0  0  0  0  0  0  0
    0.5789   18.7920   34.4198 C   0  0  2  0  0  0  0  0  0  0  0  0
    1.1831   20.0775   34.5708 O   0  0  0  0  0  0  0  0  0  0  0  0
   -0.9895   18.9163   34.3145 C   0  0  2  0  0  0  0  0  0  0  0  0
   -1.6126   17.5824   34.1788 O   0  0  0  0  0  0  0  0  0  0  0  0
   -1.4126   19.7788   33.0995 C   0  0  2  0  0  0  0  0  0  0  0  0
   -0.6375   19.4166   31.9552 O   0  0  0  0  0  0  0  0  0  0  0  0
   -1.2050   21.2595   33.3777 C   0  0  0  0  0  0  0  0  0  0  0  0
   -5.5339   17.0559   38.5551 C   0  0  2  0  0  0  0  0  0  0  0  0
   -6.9709   17.1205   38.8327 N   0  0  0  0  0  0  0  0  0  0  0  0
   -5.1173   18.4297   37.9612 C   0  0  0  0  0  0  0  0  0  0  0  0
   -3.5903   18.3894   37.6824 C   0  0  2  0  0  0  0  0  0  0  0  0
   -3.1490   19.6764   37.1223 N   0  0  0  0  0  0  0  0  0  0  0  0
   -3.2374   17.2523   36.6864 C   0  0  2  0  0  0  0  0  0  0  0  0
   -3.7063   15.8882   37.2838 C   0  0  2  0  0  0  0  0  0  0  0  0
   -3.3902   14.8398   36.3577 O   0  0  0  0  0  0  0  0  0  0  0  0
   -5.2359   15.8887   37.5224 C   0  0  1  0  0  0  0  0  0  0  0  0
   -5.5857   14.5998   38.0846 O   0  0  0  0  0  0  0  0  0  0  0  0
   -6.9044   14.1009   37.7594 C   0  0  2  0  0  0  0  0  0  0  0  0
   -7.2584   13.0430   38.8697 C   0  0  2  0  0  0  0  0  0  0  0  0
   -7.2682   13.6668   40.1441 O   0  0  0  0  0  0  0  0  0  0  0  0
   -6.2008   11.8760   38.8210 C   0  0  1  0  0  0  0  0  0  0  0  0
   -6.4927   10.8501   39.8682 N   0  0  0  0  0  0  0  0  0  0  0  0
   -5.7892   11.2243   41.1139 C   0  0  0  0  0  0  0  0  0  0  0  0
   -6.2437   11.2287   37.4033 C   0  0  2  0  0  0  0  0  0  0  0  0
   -7.5506   10.7014   37.1806 O   0  0  0  0  0  0  0  0  0  0  0  0
   -5.2371   10.0888   37.2698 C   0  0  0  0  0  0  0  0  0  0  0  0
   -5.9387   12.3235   36.3311 C   0  0  0  0  0  0  0  0  0  0  0  0
   -6.8942   13.4463   36.4357 O   0  0  0  0  0  0  0  0  0  0  0  0
  1  3  1  0  0  0  0
  1  2  1  1  0  0  0
  3  5  1  0  0  0  0
  3  4  1  1  0  0  0
  5  6  1  6  0  0  0
  7  8  1  1  0  0  0
  7  5  1  0  0  0  0
  9 10  1  6  0  0  0
  9  7  1  0  0  0  0
 10  1  1  0  0  0  0
 11 13  1  1  0  0  0
 11  9  1  0  0  0  0
 12 11  1  0  0  0  0
 14 15  1  6  0  0  0
 16 14  1  0  0  0  0
 17 18  1  6  0  0  0
 17 16  1  0  0  0  0
 19  2  1  1  0  0  0
 19 20  1  0  0  0  0
 19 17  1  0  0  0  0
 20 21  1  6  0  0  0
 20 22  1  0  0  0  0
 22 23  1  1  0  0  0
 22 14  1  0  0  0  0
 24 23  1  1  0  0  0
 24 25  1  0  0  0  0
 25 27  1  0  0  0  0
 25 26  1  1  0  0  0
 27 28  1  1  0  0  0
 28 29  1  0  0  0  0
 30 31  1  6  0  0  0
 30 32  1  0  0  0  0
 30 27  1  0  0  0  0
 33 30  1  0  0  0  0
 34 33  1  0  0  0  0
 34 24  1  0  0  0  0
M  END
>  <CHROM.1>
-166.33130590,43.86202484,-157.86550374,94.92422380,-158.65166674,-89.40040462
-3.52288082,15.85488368,36.69980551,-0.77538334,-0.47717045,3.03764358

>  <Name>
lig.pdb

>  <RI>
0

>  <Rbt.Current_Directory>
/home/itssahil/PROJECTS/Mol_Feturizer/New_Systems/rnas/4k32

>  <Rbt.Executable>
rbdock ($Id: //depot/dev/client3/rdock/2013.1/src/exe/rbdock.cxx#4 $)

>  <Rbt.Library>
libRbt.so (2013.1, Build901 2013/11/27)

>  <Rbt.Parameter_File>
/export/apps/rDock/src/rDock_2013.1_src/data/scripts/dock_solv.prm

>  <Rbt.Receptor>
prm/pocket_docking_3.prm

>  <SCORE>
-19.9147

>  <SCORE.INTER>
-16.2534

>  <SCORE.INTER.CONST>
1

>  <SCORE.INTER.POLAR>
0

>  <SCORE.INTER.ROT>
6

>  <SCORE.INTER.SOLV>
25.1693

>  <SCORE.INTER.VDW>
-26.8254

>  <SCORE.INTER.norm>
-0.478042

>  <SCORE.INTRA>
-3.66127

>  <SCORE.INTRA.DIHEDRAL>
-6.95366

>  <SCORE.INTRA.DIHEDRAL.0>
18.0069

>  <SCORE.INTRA.POLAR>
0

>  <SCORE.INTRA.POLAR.0>
0

>  <SCORE.INTRA.REPUL>
0

>  <SCORE.INTRA.REPUL.0>
0

>  <SCORE.INTRA.SOLV>
-0.583686

>  <SCORE.INTRA.SOLV.lig_0>
-70.7393

>  <SCORE.INTRA.VDW>
0.107399

>  <SCORE.INTRA.VDW.0>
-3.23471

>  <SCORE.INTRA.norm>
-0.107685

>  <SCORE.RESTR>
0

>  <SCORE.RESTR.CAVITY>
0

>  <SCORE.RESTR.norm>
0

>  <SCORE.SYSTEM>
0

>  <SCORE.SYSTEM.CONST>
0

>  <SCORE.SYSTEM.DIHEDRAL>
0

>  <SCORE.SYSTEM.SOLV>
0

>  <SCORE.SYSTEM.norm>
0

>  <SCORE.heavy>
34

>  <SCORE.norm>
-0.585726

>  <RMSD>
0.737

$$$$
lig.pdb
 OpenBabel11021811503D
libRbt.so/2013.1/901 2013/11/27
 34 36  0  0  0  0  0  0  0  0999 V2000
   -1.2729   16.6787   35.2946 C   0  0  2  0  0  0  0  0  0  0  0  0
   -1.7769   17.2591   36.5026 O   0  0  0  0  0  0  0  0  0  0  0  0
    0.2974   16.4945   35.4409 C   0  0  2  0  0  0  0  0  0  0  0  0
    0.6443   15.6020   36.5713 N   0  0  0  0  0  0  0  0  0  0  0  0
    0.9623   17.8800   35.6389 C   0  0  1  0  0  0  0  0  0  0  0  0
    2.3787   17.7350   35.7657 O   0  0  0  0  0  0  0  0  0  0  0  0
    0.5960   18.7749   34.4415 C   0  0  2  0  0  0  0  0  0  0  0  0
    1.2062   20.0554   34.6096 O   0  0  0  0  0  0  0  0  0  0  0  0
   -0.9717   18.9078   34.3374 C   0  0  2  0  0  0  0  0  0  0  0  0
   -1.6009   17.5787   34.1840 O   0  0  0  0  0  0  0  0  0  0  0  0
   -1.3904   19.7883   33.1338 C   0  0  2  0  0  0  0  0  0  0  0  0
   -0.6173   19.4369   31.9847 O   0  0  0  0  0  0  0  0  0  0  0  0
   -1.1750   21.2641   33.4312 C   0  0  0  0  0  0  0  0  0  0  0  0
   -5.5286   17.0544   38.5519 C   0  0  2  0  0  0  0  0  0  0  0  0
   -6.9658   17.1264   38.8265 N   0  0  0  0  0  0  0  0  0  0  0  0
   -5.1063   18.4212   37.9458 C   0  0  0  0  0  0  0  0  0  0  0  0
   -3.5790   18.3731   37.6701 C   0  0  2  0  0  0  0  0  0  0  0  0
   -3.1324   19.6533   37.0986 N   0  0  0  0  0  0  0  0  0  0  0  0
   -3.2283   17.2255   36.6854 C   0  0  2  0  0  0  0  0  0  0  0  0
   -3.7029   15.8686   37.2948 C   0  0  2  0  0  0  0  0  0  0  0  0
   -3.3887   14.8105   36.3792 O   0  0  0  0  0  0  0  0  0  0  0  0
   -5.2328   15.8765   37.5307 C   0  0  1  0  0  0  0  0  0  0  0  0
   -5.5878   14.5941   38.1044 O   0  0  0  0  0  0  0  0  0  0  0  0
   -6.9071   14.0959   37.7804 C   0  0  2  0  0  0  0  0  0  0  0  0
   -7.2580   13.0336   38.8874 C   0  0  2  0  0  0  0  0  0  0  0  0
   -7.2652   13.6525   40.1642 O   0  0  0  0  0  0  0  0  0  0  0  0
   -6.2000   11.8673   38.8318 C   0  0  1  0  0  0  0  0  0  0  0  0
   -6.4890   10.8373   39.8757 N   0  0  0  0  0  0  0  0  0  0  0  0
   -5.7978   11.2167   41.1267 C   0  0  0  0  0  0  0  0  0  0  0  0
   -6.2458   11.2254   37.4118 C   0  0  2  0  0  0  0  0  0  0  0  0
   -7.5530   10.6983   37.1900 O   0  0  0  0  0  0  0  0  0  0  0  0
   -5.2390   10.0865   37.2716 C   0  0  0  0  0  0  0  0  0  0  0  0
   -5.9438   12.3244   36.3431 C   0  0  0  0  0  0  0  0  0  0  0  0
   -6.8996   13.4464   36.4542 O   0  0  0  0  0  0  0  0  0  0  0  0
  1  3  1  0  0  0  0
  1  2  1  1  0  0  0
  3  5  1  0  0  0  0
  3  4  1  1  0  0  0
  5  6  1  6  0  0  0
  7  8  1  1  0  0  0
  7  5  1  0  0  0  0
  9 10  1  6  0  0  0
  9  7  1  0  0  0  0
 10  1  1  0  0  0  0
 11 13  1  1  0  0  0
 11  9  1  0  0  0  0
 12 11  1  0  0  0  0
 14 15  1  6  0  0  0
 16 14  1  0  0  0  0
 17 18  1  6  0  0  0
 17 16  1  0  0  0  0
 19  2  1  1  0  0  0
 19 20  1  0  0  0  0
 19 17  1  0  0  0  0
 20 21  1  6  0  0  0
 20 22  1  0  0  0  0
 22 23  1  1  0  0  0
 22 14  1  0  0  0  0
 24 23  1  1  0  0  0
 24 25  1  0  0  0  0
 25 27  1  0  0  0  0
 25 26  1  1  0  0  0
 27 28  1  1  0  0  0
 28 29  1  0  0  0  0
 30 31  1  6  0  0  0
 30 32  1  0  0  0  0
 30 27  1  0  0  0  0
 33 30  1  0  0  0  0
 34 33  1  0  0  0  0
 34 24  1  0  0  0  0
M  END
>  <CHROM.1>
-166.44447999,43.90671193,-156.51901232,94.99836844,-159.50393521,-88.63728758
-3.51596286,15.84241297,36.70993272,-0.77638550,-0.47099669,3.03244553

>  <Name>
lig.pdb

>  <RI>
0

>  <Rbt.Current_Directory>
/home/itssahil/PROJECTS/Mol_Feturizer/New_Systems/rnas/4k32

>  <Rbt.Executable>
rbdock ($Id: //depot/dev/client3/rdock/2013.1/src/exe/rbdock.cxx#4 $)

>  <Rbt.Library>
libRbt.so (2013.1, Build901 2013/11/27)

>  <Rbt.Parameter_File>
/export/apps/rDock/src/rDock_2013.1_src/data/scripts/dock_solv.prm

>  <Rbt.Receptor>
prm/pocket_docking_3.prm

>  <SCORE>
-19.8711

>  <SCORE.INTER>
-16.2897

>  <SCORE.INTER.CONST>
1

>  <SCORE.INTER.POLAR>
0

>  <SCORE.INTER.ROT>
6

>  <SCORE.INTER.SOLV>
25.0453

>  <SCORE.INTER.VDW>
-26.8083

>  <SCORE.INTER.norm>
-0.47911

>  <SCORE.INTRA>
-3.5814

>  <SCORE.INTRA.DIHEDRAL>
-6.88972

>  <SCORE.INTRA.DIHEDRAL.0>
18.0069

>  <SCORE.INTRA.POLAR>
0

>  <SCORE.INTRA.POLAR.0>
0

>  <SCORE.INTRA.REPUL>
0

>  <SCORE.INTRA.REPUL.0>
0

>  <SCORE.INTRA.SOLV>
-0.504971

>  <SCORE.INTRA.SOLV.lig_0>
-70.7393

>  <SCORE.INTRA.VDW>
0.115946

>  <SCORE.INTRA.VDW.0>
-3.23471

>  <SCORE.INTRA.norm>
-0.105335

>  <SCORE.RESTR>
0

>  <SCORE.RESTR.CAVITY>
0

>  <SCORE.RESTR.norm>
0

>  <SCORE.SYSTEM>
0

>  <SCORE.SYSTEM.CONST>
0

>  <SCORE.SYSTEM.DIHEDRAL>
0

>  <SCORE.SYSTEM.SOLV>
0

>  <SCORE.SYSTEM.norm>
0

>  <SCORE.heavy>
34

>  <SCORE.norm>
-0.584445

>  <RMSD>
0.738

$$$$
lig.pdb
 OpenBabel11021811503D
libRbt.so/2013.1/901 2013/11/27
 34 36  0  0  0  0  0  0  0  0999 V2000
   -1.2646   16.6914   35.2527 C   0  0  2  0  0  0  0  0  0  0  0  0
   -1.7694   17.2688   36.4618 O   0  0  0  0  0  0  0  0  0  0  0  0
    0.3082   16.5238   35.3926 C   0  0  2  0  0  0  0  0  0  0  0  0
    0.6691   15.6371   36.5232 N   0  0  0  0  0  0  0  0  0  0  0  0
    0.9595   17.9165   35.5853 C   0  0  1  0  0  0  0  0  0  0  0  0
    2.3779   17.7865   35.7063 O   0  0  0  0  0  0  0  0  0  0  0  0
    0.5788   18.8053   34.3878 C   0  0  2  0  0  0  0  0  0  0  0  0
    1.1764   20.0924   34.5509 O   0  0  0  0  0  0  0  0  0  0  0  0
   -0.9907   18.9217   34.2902 C   0  0  2  0  0  0  0  0  0  0  0  0
   -1.6066   17.5859   34.1419 O   0  0  0  0  0  0  0  0  0  0  0  0
   -1.4236   19.7955   33.0868 C   0  0  2  0  0  0  0  0  0  0  0  0
   -0.6674   19.4345   31.9294 O   0  0  0  0  0  0  0  0  0  0  0  0
   -1.2001   21.2726   33.3715 C   0  0  0  0  0  0  0  0  0  0  0  0
   -5.5144   17.0198   38.5184 C   0  0  2  0  0  0  0  0  0  0  0  0
   -6.9512   17.0815   38.7977 N   0  0  0  0  0  0  0  0  0  0  0  0
   -5.1003   18.3963   37.9289 C   0  0  0  0  0  0  0  0  0  0  0  0
   -3.5735   18.3591   37.6484 C   0  0  2  0  0  0  0  0  0  0  0  0
   -3.1345   19.6486   37.0924 N   0  0  0  0  0  0  0  0  0  0  0  0
   -3.2201   17.2260   36.6481 C   0  0  2  0  0  0  0  0  0  0  0  0
   -3.6866   15.8591   37.2412 C   0  0  2  0  0  0  0  0  0  0  0  0
   -3.3699   14.8144   36.3111 O   0  0  0  0  0  0  0  0  0  0  0  0
   -5.2159   15.8567   37.4813 C   0  0  1  0  0  0  0  0  0  0  0  0
   -5.5633   14.5653   38.0393 O   0  0  0  0  0  0  0  0  0  0  0  0
   -6.8965   14.0845   37.7476 C   0  0  2  0  0  0  0  0  0  0  0  0
   -7.2355   13.0292   38.8651 C   0  0  2  0  0  0  0  0  0  0  0  0
   -7.2041   13.6506   40.1403 O   0  0  0  0  0  0  0  0  0  0  0  0
   -6.1950   11.8485   38.7871 C   0  0  1  0  0  0  0  0  0  0  0  0
   -6.4732   10.8245   39.8399 N   0  0  0  0  0  0  0  0  0  0  0  0
   -5.7610   11.2059   41.0784 C   0  0  0  0  0  0  0  0  0  0  0  0
   -6.2831   11.2045   37.3700 C   0  0  2  0  0  0  0  0  0  0  0  0
   -7.6021   10.6948   37.1804 O   0  0  0  0  0  0  0  0  0  0  0  0
   -5.2954   10.0517   37.2087 C   0  0  0  0  0  0  0  0  0  0  0  0
   -5.9915   12.2972   36.2920 C   0  0  0  0  0  0  0  0  0  0  0  0
   -6.9291   13.4323   36.4231 O   0  0  0  0  0  0  0  0  0  0  0  0
  1  3  1  0  0  0  0
  1  2  1  1  0  0  0
  3  5  1  0  0  0  0
  3  4  1  1  0  0  0
  5  6  1  6  0  0  0
  7  8  1  1  0  0  0
  7  5  1  0  0  0  0
  9 10  1  6  0  0  0
  9  7  1  0  0  0  0
 10  1  1  0  0  0  0
 11 13  1  1  0  0  0
 11  9  1  0  0  0  0
 12 11  1  0  0  0  0
 14 15  1  6  0  0  0
 16 14  1  0  0  0  0
 17 18  1  6  0  0  0
 17 16  1  0  0  0  0
 19  2  1  1  0  0  0
 19 20  1  0  0  0  0
 19 17  1  0  0  0  0
 20 21  1  6  0  0  0
 20 22  1  0  0  0  0
 22 23  1  1  0  0  0
 22 14  1  0  0  0  0
 24 23  1  1  0  0  0
 24 25  1  0  0  0  0
 25 27  1  0  0  0  0
 25 26  1  1  0  0  0
 27 28  1  1  0  0  0
 28 29  1  0  0  0  0
 30 31  1  6  0  0  0
 30 32  1  0  0  0  0
 30 27  1  0  0  0  0
 33 30  1  0  0  0  0
 34 33  1  0  0  0  0
 34 24  1  0  0  0  0
M  END
>  <CHROM.1>
-166.71602047,44.87399648,-157.27670141,93.09994610,-158.06270037,-87.94429609
-3.51846103,15.84084775,36.66733052,-0.77796566,-0.47477744,3.03623671

>  <Name>
lig.pdb

>  <RI>
0

>  <Rbt.Current_Directory>
/home/itssahil/PROJECTS/Mol_Feturizer/New_Systems/rnas/4k32

>  <Rbt.Executable>
rbdock ($Id: //depot/dev/client3/rdock/2013.1/src/exe/rbdock.cxx#4 $)

>  <Rbt.Library>
libRbt.so (2013.1, Build901 2013/11/27)

>  <Rbt.Parameter_File>
/export/apps/rDock/src/rDock_2013.1_src/data/scripts/dock_solv.prm

>  <Rbt.Receptor>
prm/pocket_docking_4.prm

>  <SCORE>
-19.9292

>  <SCORE.INTER>
-16.2712

>  <SCORE.INTER.CONST>
1

>  <SCORE.INTER.POLAR>
0

>  <SCORE.INTER.ROT>
6

>  <SCORE.INTER.SOLV>
25.3722

>  <SCORE.INTER.VDW>
-26.9048

>  <SCORE.INTER.norm>
-0.478564

>  <SCORE.INTRA>
-3.65806

>  <SCORE.INTRA.DIHEDRAL>
-7.27815

>  <SCORE.INTRA.DIHEDRAL.0>
18.0069

>  <SCORE.INTRA.POLAR>
0

>  <SCORE.INTRA.POLAR.0>
0

>  <SCORE.INTRA.REPUL>
0

>  <SCORE.INTRA.REPUL.0>
0

>  <SCORE.INTRA.SOLV>
-0.521141

>  <SCORE.INTRA.SOLV.lig_0>
-70.7393

>  <SCORE.INTRA.VDW>
0.241587

>  <SCORE.INTRA.VDW.0>
-3.23471

>  <SCORE.INTRA.norm>
-0.10759

>  <SCORE.RESTR>
0

>  <SCORE.RESTR.CAVITY>
0

>  <SCORE.RESTR.norm>
0

>  <SCORE.SYSTEM>
0

>  <SCORE.SYSTEM.CONST>
0

>  <SCORE.SYSTEM.DIHEDRAL>
0

>  <SCORE.SYSTEM.SOLV>
0

>  <SCORE.SYSTEM.norm>
0

>  <SCORE.heavy>
34

>  <SCORE.norm>
-0.586154

>  <RMSD>
0.739

$$$$
lig.pdb
 OpenBabel11021811503D
libRbt.so/2013.1/901 2013/11/27
 34 36  0  0  0  0  0  0  0  0999 V2000
   -1.2586   16.6890   35.2590 C   0  0  2  0  0  0  0  0  0  0  0  0
   -1.7610   17.2579   36.4731 O   0  0  0  0  0  0  0  0  0  0  0  0
    0.3149   16.5240   35.3930 C   0  0  2  0  0  0  0  0  0  0  0  0
    0.6813   15.6313   36.5171 N   0  0  0  0  0  0  0  0  0  0  0  0
    0.9637   17.9170   35.5921 C   0  0  1  0  0  0  0  0  0  0  0  0
    2.3828   17.7894   35.7079 O   0  0  0  0  0  0  0  0  0  0  0  0
    0.5774   18.8121   34.4012 C   0  0  2  0  0  0  0  0  0  0  0  0
    1.1727   20.0996   34.5703 O   0  0  0  0  0  0  0  0  0  0  0  0
   -0.9926   18.9257   34.3092 C   0  0  2  0  0  0  0  0  0  0  0  0
   -1.6061   17.5894   34.1547 O   0  0  0  0  0  0  0  0  0  0  0  0
   -1.4312   19.8058   33.1124 C   0  0  2  0  0  0  0  0  0  0  0  0
   -0.6541   19.4771   31.9593 O   0  0  0  0  0  0  0  0  0  0  0  0
   -1.2438   21.2835   33.4191 C   0  0  0  0  0  0  0  0  0  0  0  0
   -5.5148   17.0739   38.5205 C   0  0  2  0  0  0  0  0  0  0  0  0
   -6.9522   17.1503   38.7931 N   0  0  0  0  0  0  0  0  0  0  0  0
   -5.0897   18.4357   37.9051 C   0  0  0  0  0  0  0  0  0  0  0  0
   -3.5623   18.3831   37.6311 C   0  0  2  0  0  0  0  0  0  0  0  0
   -3.1130   19.6585   37.0510 N   0  0  0  0  0  0  0  0  0  0  0  0
   -3.2125   17.2280   36.6548 C   0  0  2  0  0  0  0  0  0  0  0  0
   -3.6900   15.8763   37.2734 C   0  0  2  0  0  0  0  0  0  0  0  0
   -3.3767   14.8112   36.3656 O   0  0  0  0  0  0  0  0  0  0  0  0
   -5.2201   15.8884   37.5078 C   0  0  1  0  0  0  0  0  0  0  0  0
   -5.5778   14.6107   38.0903 O   0  0  0  0  0  0  0  0  0  0  0  0
   -6.8979   14.1128   37.7692 C   0  0  2  0  0  0  0  0  0  0  0  0
   -7.2508   13.0581   38.8829 C   0  0  2  0  0  0  0  0  0  0  0  0
   -7.2570   13.6850   40.1558 O   0  0  0  0  0  0  0  0  0  0  0  0
   -6.1949   11.8895   38.8347 C   0  0  1  0  0  0  0  0  0  0  0  0
   -6.4858   10.8666   39.8850 N   0  0  0  0  0  0  0  0  0  0  0  0
   -5.8329   11.2772   41.1467 C   0  0  0  0  0  0  0  0  0  0  0  0
   -6.2418   11.2389   37.4187 C   0  0  2  0  0  0  0  0  0  0  0  0
   -7.5499   10.7128   37.2002 O   0  0  0  0  0  0  0  0  0  0  0  0
   -5.2371   10.0972   37.2858 C   0  0  0  0  0  0  0  0  0  0  0  0
   -5.9377   12.3306   36.3432 C   0  0  0  0  0  0  0  0  0  0  0  0
   -6.8915   13.4549   36.4472 O   0  0  0  0  0  0  0  0  0  0  0  0
  1  3  1  0  0  0  0
  1  2  1  1  0  0  0
  3  5  1  0  0  0  0
  3  4  1  1  0  0  0
  5  6  1  6  0  0  0
  7  8  1  1  0  0  0
  7  5  1  0  0  0  0
  9 10  1  6  0  0  0
  9  7  1  0  0  0  0
 10  1  1  0  0  0  0
 11 13  1  1  0  0  0
 11  9  1  0  0  0  0
 12 11  1  0  0  0  0
 14 15  1  6  0  0  0
 16 14  1  0  0  0  0
 17 18  1  6  0  0  0
 17 16  1  0  0  0  0
 19  2  1  1  0  0  0
 19 20  1  0  0  0  0
 19 17  1  0  0  0  0
 20 21  1  6  0  0  0
 20 22  1  0  0  0  0
 22 23  1  1  0  0  0
 22 14  1  0  0  0  0
 24 23  1  1  0  0  0
 24 25  1  0  0  0  0
 25 27  1  0  0  0  0
 25 26  1  1  0  0  0
 27 28  1  1  0  0  0
 28 29  1  0  0  0  0
 30 31  1  6  0  0  0
 30 32  1  0  0  0  0
 30 27  1  0  0  0  0
 33 30  1  0  0  0  0
 34 33  1  0  0  0  0
 34 24  1  0  0  0  0
M  END
>  <CHROM.1>
-167.56660707,43.39942045,-155.47070450,94.95789312,-159.54241314,-86.67924544
-3.51547646,15.86313376,36.68868370,-0.78028754,-0.46980210,3.02529281

>  <Name>
lig.pdb

>  <RI>
0

>  <Rbt.Current_Directory>
/home/itssahil/PROJECTS/Mol_Feturizer/New_Systems/rnas/4k32

>  <Rbt.Executable>
rbdock ($Id: //depot/dev/client3/rdock/2013.1/src/exe/rbdock.cxx#4 $)

>  <Rbt.Library>
libRbt.so (2013.1, Build901 2013/11/27)

>  <Rbt.Parameter_File>
/export/apps/rDock/src/rDock_2013.1_src/data/scripts/dock_solv.prm

>  <Rbt.Receptor>
prm/pocket_docking_5.prm

>  <SCORE>
-19.8845

>  <SCORE.INTER>
-16.4188

>  <SCORE.INTER.CONST>
1

>  <SCORE.INTER.POLAR>
0

>  <SCORE.INTER.ROT>
6

>  <SCORE.INTER.SOLV>
25.1138

>  <SCORE.INTER.VDW>
-26.9171

>  <SCORE.INTER.norm>
-0.482906

>  <SCORE.INTRA>
-3.46566

>  <SCORE.INTRA.DIHEDRAL>
-6.8561

>  <SCORE.INTRA.DIHEDRAL.0>
18.0069

>  <SCORE.INTRA.POLAR>
0

>  <SCORE.INTRA.POLAR.0>
0

>  <SCORE.INTRA.REPUL>
0

>  <SCORE.INTRA.REPUL.0>
0

>  <SCORE.INTRA.SOLV>
-0.429775

>  <SCORE.INTRA.SOLV.lig_0>
-70.7393

>  <SCORE.INTRA.VDW>
0.177275

>  <SCORE.INTRA.VDW.0>
-3.23471

>  <SCORE.INTRA.norm>
-0.101931

>  <SCORE.RESTR>
0

>  <SCORE.RESTR.CAVITY>
0

>  <SCORE.RESTR.norm>
0

>  <SCORE.SYSTEM>
0

>  <SCORE.SYSTEM.CONST>
0

>  <SCORE.SYSTEM.DIHEDRAL>
0

>  <SCORE.SYSTEM.SOLV>
0

>  <SCORE.SYSTEM.norm>
0

>  <SCORE.heavy>
34

>  <SCORE.norm>
-0.584837

>  <RMSD>
0.739

$$$$
lig.pdb
 OpenBabel11021811503D
libRbt.so/2013.1/901 2013/11/27
 34 36  0  0  0  0  0  0  0  0999 V2000
   -1.2733   16.6921   35.2801 C   0  0  2  0  0  0  0  0  0  0  0  0
   -1.7775   17.2668   36.4908 O   0  0  0  0  0  0  0  0  0  0  0  0
    0.2993   16.5224   35.4196 C   0  0  2  0  0  0  0  0  0  0  0  0
    0.6593   15.6323   36.5478 N   0  0  0  0  0  0  0  0  0  0  0  0
    0.9521   17.9139   35.6159 C   0  0  1  0  0  0  0  0  0  0  0  0
    2.3703   17.7820   35.7366 O   0  0  0  0  0  0  0  0  0  0  0  0
    0.5724   18.8062   34.4208 C   0  0  2  0  0  0  0  0  0  0  0  0
    1.1713   20.0923   34.5873 O   0  0  0  0  0  0  0  0  0  0  0  0
   -0.9970   18.9246   34.3235 C   0  0  2  0  0  0  0  0  0  0  0  0
   -1.6144   17.5899   34.1717 O   0  0  0  0  0  0  0  0  0  0  0  0
   -1.4290   19.8021   33.1225 C   0  0  2  0  0  0  0  0  0  0  0  0
   -0.6811   19.4358   31.9614 O   0  0  0  0  0  0  0  0  0  0  0  0
   -1.1929   21.2774   33.4065 C   0  0  0  0  0  0  0  0  0  0  0  0
   -5.5313   17.0718   38.5372 C   0  0  2  0  0  0  0  0  0  0  0  0
   -6.9688   17.1453   38.8099 N   0  0  0  0  0  0  0  0  0  0  0  0
   -5.1083   18.4358   37.9252 C   0  0  0  0  0  0  0  0  0  0  0  0
   -3.5807   18.3863   37.6512 C   0  0  2  0  0  0  0  0  0  0  0  0
   -3.1335   19.6638   37.0744 N   0  0  0  0  0  0  0  0  0  0  0  0
   -3.2291   17.2342   36.6722 C   0  0  2  0  0  0  0  0  0  0  0  0
   -3.7044   15.8802   37.2874 C   0  0  2  0  0  0  0  0  0  0  0  0
   -3.3893   14.8178   36.3770 O   0  0  0  0  0  0  0  0  0  0  0  0
   -5.2345   15.8893   37.5217 C   0  0  1  0  0  0  0  0  0  0  0  0
   -5.5903   14.6095   38.1010 O   0  0  0  0  0  0  0  0  0  0  0  0
   -6.9101   14.1109   37.7795 C   0  0  2  0  0  0  0  0  0  0  0  0
   -7.2595   13.0503   38.8887 C   0  0  2  0  0  0  0  0  0  0  0  0
   -7.2648   13.6712   40.1646 O   0  0  0  0  0  0  0  0  0  0  0  0
   -6.2016   11.8839   38.8334 C   0  0  1  0  0  0  0  0  0  0  0  0
   -6.4892   10.8554   39.8793 N   0  0  0  0  0  0  0  0  0  0  0  0
   -5.7591   11.2122   41.1147 C   0  0  0  0  0  0  0  0  0  0  0  0
   -6.2495   11.2398   37.4144 C   0  0  2  0  0  0  0  0  0  0  0  0
   -7.5570   10.7125   37.1953 O   0  0  0  0  0  0  0  0  0  0  0  0
   -5.2430   10.1006   37.2745 C   0  0  0  0  0  0  0  0  0  0  0  0
   -5.9489   12.3372   36.3436 C   0  0  0  0  0  0  0  0  0  0  0  0
   -6.9045   13.4593   36.4544 O   0  0  0  0  0  0  0  0  0  0  0  0
  1  3  1  0  0  0  0
  1  2  1  1  0  0  0
  3  5  1  0  0  0  0
  3  4  1  1  0  0  0
  5  6  1  6  0  0  0
  7  8  1  1  0  0  0
  7  5  1  0  0  0  0
  9 10  1  6  0  0  0
  9  7  1  0  0  0  0
 10  1  1  0  0  0  0
 11 13  1  1  0  0  0
 11  9  1  0  0  0  0
 12 11  1  0  0  0  0
 14 15  1  6  0  0  0
 16 14  1  0  0  0  0
 17 18  1  6  0  0  0
 17 16  1  0  0  0  0
 19  2  1  1  0  0  0
 19 20  1  0  0  0  0
 19 17  1  0  0  0  0
 20 21  1  6  0  0  0
 20 22  1  0  0  0  0
 22 23  1  1  0  0  0
 22 14  1  0  0  0  0
 24 23  1  1  0  0  0
 24 25  1  0  0  0  0
 25 27  1  0  0  0  0
 25 26  1  1  0  0  0
 27 28  1  1  0  0  0
 28 29  1  0  0  0  0
 30 31  1  6  0  0  0
 30 32  1  0  0  0  0
 30 27  1  0  0  0  0
 33 30  1  0  0  0  0
 34 33  1  0  0  0  0
 34 24  1  0  0  0  0
M  END
>  <CHROM.1>
-167.16526371,45.35538680,-155.95096031,94.90499219,-159.67240773,-90.54789054
-3.52279836,15.85886560,36.69887567,-0.78115232,-0.46817399,3.02558465

>  <Name>
lig.pdb

>  <RI>
0

>  <Rbt.Current_Directory>
/home/itssahil/PROJECTS/Mol_Feturizer/New_Systems/rnas/4k32

>  <Rbt.Executable>
rbdock ($Id: //depot/dev/client3/rdock/2013.1/src/exe/rbdock.cxx#4 $)

>  <Rbt.Library>
libRbt.so (2013.1, Build901 2013/11/27)

>  <Rbt.Parameter_File>
/export/apps/rDock/src/rDock_2013.1_src/data/scripts/dock_solv.prm

>  <Rbt.Receptor>
prm/pocket_docking_5.prm

>  <SCORE>
-19.9329

>  <SCORE.INTER>
-16.274

>  <SCORE.INTER.CONST>
1

>  <SCORE.INTER.POLAR>
0

>  <SCORE.INTER.ROT>
6

>  <SCORE.INTER.SOLV>
25.1451

>  <SCORE.INTER.VDW>
-26.831

>  <SCORE.INTER.norm>
-0.478646

>  <SCORE.INTRA>
-3.65892

>  <SCORE.INTRA.DIHEDRAL>
-7.00503

>  <SCORE.INTRA.DIHEDRAL.0>
18.0069

>  <SCORE.INTRA.POLAR>
0

>  <SCORE.INTRA.POLAR.0>
0

>  <SCORE.INTRA.REPUL>
0

>  <SCORE.INTRA.REPUL.0>
0

>  <SCORE.INTRA.SOLV>
-0.499155

>  <SCORE.INTRA.SOLV.lig_0>
-70.7393

>  <SCORE.INTRA.VDW>
0.0931772

>  <SCORE.INTRA.VDW.0>
-3.23471

>  <SCORE.INTRA.norm>
-0.107615

>  <SCORE.RESTR>
0

>  <SCORE.RESTR.CAVITY>
0

>  <SCORE.RESTR.norm>
0

>  <SCORE.SYSTEM>
0

>  <SCORE.SYSTEM.CONST>
0

>  <SCORE.SYSTEM.DIHEDRAL>
0

>  <SCORE.SYSTEM.SOLV>
0

>  <SCORE.SYSTEM.norm>
0

>  <SCORE.heavy>
34

>  <SCORE.norm>
-0.586262

>  <RMSD>
0.743

$$$$
lig.pdb
 OpenBabel11021811503D
libRbt.so/2013.1/901 2013/11/27
 34 36  0  0  0  0  0  0  0  0999 V2000
   -1.2682   16.6952   35.2753 C   0  0  2  0  0  0  0  0  0  0  0  0
   -1.7725   17.2785   36.4818 O   0  0  0  0  0  0  0  0  0  0  0  0
    0.3048   16.5293   35.4148 C   0  0  2  0  0  0  0  0  0  0  0  0
    0.6672   15.6487   36.5497 N   0  0  0  0  0  0  0  0  0  0  0  0
    0.9553   17.9234   35.5998 C   0  0  1  0  0  0  0  0  0  0  0  0
    2.3739   17.7949   35.7203 O   0  0  0  0  0  0  0  0  0  0  0  0
    0.5732   18.8057   34.3981 C   0  0  2  0  0  0  0  0  0  0  0  0
    1.1700   20.0941   34.5540 O   0  0  0  0  0  0  0  0  0  0  0  0
   -0.9965   18.9207   34.3011 C   0  0  2  0  0  0  0  0  0  0  0  0
   -1.6117   17.5837   34.1602 O   0  0  0  0  0  0  0  0  0  0  0  0
   -1.4309   19.7880   33.0936 C   0  0  2  0  0  0  0  0  0  0  0  0
   -0.6572   19.4397   31.9439 O   0  0  0  0  0  0  0  0  0  0  0  0
   -1.2340   21.2683   33.3810 C   0  0  0  0  0  0  0  0  0  0  0  0
   -5.5190   17.0441   38.5372 C   0  0  2  0  0  0  0  0  0  0  0  0
   -6.9558   17.1099   38.8156 N   0  0  0  0  0  0  0  0  0  0  0  0
   -5.1015   18.4179   37.9438 C   0  0  0  0  0  0  0  0  0  0  0  0
   -3.5747   18.3764   37.6642 C   0  0  2  0  0  0  0  0  0  0  0  0
   -3.1325   19.6633   37.1046 N   0  0  0  0  0  0  0  0  0  0  0  0
   -3.2233   17.2395   36.6675 C   0  0  2  0  0  0  0  0  0  0  0  0
   -3.6932   15.8755   37.2644 C   0  0  2  0  0  0  0  0  0  0  0  0
   -3.3784   14.8273   36.3377 O   0  0  0  0  0  0  0  0  0  0  0  0
   -5.2226   15.8772   37.5037 C   0  0  1  0  0  0  0  0  0  0  0  0
   -5.5733   14.5883   38.0655 O   0  0  0  0  0  0  0  0  0  0  0  0
   -6.9042   14.1054   37.7669 C   0  0  2  0  0  0  0  0  0  0  0  0
   -7.2516   13.0575   38.8888 C   0  0  2  0  0  0  0  0  0  0  0  0
   -7.2298   13.6874   40.1600 O   0  0  0  0  0  0  0  0  0  0  0  0
   -6.2105   11.8764   38.8265 C   0  0  1  0  0  0  0  0  0  0  0  0
   -6.4965   10.8595   39.8840 N   0  0  0  0  0  0  0  0  0  0  0  0
   -5.7900   11.2467   41.1239 C   0  0  0  0  0  0  0  0  0  0  0  0
   -6.2878   11.2231   37.4131 C   0  0  2  0  0  0  0  0  0  0  0  0
   -7.6053   10.7120   37.2170 O   0  0  0  0  0  0  0  0  0  0  0  0
   -5.2989   10.0693   37.2669 C   0  0  0  0  0  0  0  0  0  0  0  0
   -5.9881   12.3086   36.3301 C   0  0  0  0  0  0  0  0  0  0  0  0
   -6.9268   13.4444   36.4466 O   0  0  0  0  0  0  0  0  0  0  0  0
  1  3  1  0  0  0  0
  1  2  1  1  0  0  0
  3  5  1  0  0  0  0
  3  4  1  1  0  0  0
  5  6  1  6  0  0  0
  7  8  1  1  0  0  0
  7  5  1  0  0  0  0
  9 10  1  6  0  0  0
  9  7  1  0  0  0  0
 10  1  1  0  0  0  0
 11 13  1  1  0  0  0
 11  9  1  0  0  0  0
 12 11  1  0  0  0  0
 14 15  1  6  0  0  0
 16 14  1  0  0  0  0
 17 18  1  6  0  0  0
 17 16  1  0  0  0  0
 19  2  1  1  0  0  0
 19 20  1  0  0  0  0
 19 17  1  0  0  0  0
 20 21  1  6  0  0  0
 20 22  1  0  0  0  0
 22 23  1  1  0  0  0
 22 14  1  0  0  0  0
 24 23  1  1  0  0  0
 24 25  1  0  0  0  0
 25 27  1  0  0  0  0
 25 26  1  1  0  0  0
 27 28  1  1  0  0  0
 28 29  1  0  0  0  0
 30 31  1  6  0  0  0
 30 32  1  0  0  0  0
 30 27  1  0  0  0  0
 33 30  1  0  0  0  0
 34 33  1  0  0  0  0
 34 24  1  0  0  0  0
M  END
>  <CHROM.1>
-166.90423630,43.74521544,-157.33431181,93.50733312,-157.94187056,-88.13398632
-3.52561942,15.85545694,36.69032183,-0.77658563,-0.47499445,3.03331019

>  <Name>
lig.pdb

>  <RI>
0

>  <Rbt.Current_Directory>
/home/itssahil/PROJECTS/Mol_Feturizer/New_Systems/rnas/4k32

>  <Rbt.Executable>
rbdock ($Id: //depot/dev/client3/rdock/2013.1/src/exe/rbdock.cxx#4 $)

>  <Rbt.Library>
libRbt.so (2013.1, Build901 2013/11/27)

>  <Rbt.Parameter_File>
/export/apps/rDock/src/rDock_2013.1_src/data/scripts/dock_solv.prm

>  <Rbt.Receptor>
prm/pocket_docking_4.prm

>  <SCORE>
-19.9671

>  <SCORE.INTER>
-16.3304

>  <SCORE.INTER.CONST>
1

>  <SCORE.INTER.POLAR>
0

>  <SCORE.INTER.ROT>
6

>  <SCORE.INTER.SOLV>
25.2705

>  <SCORE.INTER.VDW>
-26.9104

>  <SCORE.INTER.norm>
-0.480304

>  <SCORE.INTRA>
-3.63673

>  <SCORE.INTRA.DIHEDRAL>
-7.09424

>  <SCORE.INTRA.DIHEDRAL.0>
18.0069

>  <SCORE.INTRA.POLAR>
0

>  <SCORE.INTRA.POLAR.0>
0

>  <SCORE.INTRA.REPUL>
0

>  <SCORE.INTRA.REPUL.0>
0

>  <SCORE.INTRA.SOLV>
-0.514798

>  <SCORE.INTRA.SOLV.lig_0>
-70.7393

>  <SCORE.INTRA.VDW>
0.167788

>  <SCORE.INTRA.VDW.0>
-3.23471

>  <SCORE.INTRA.norm>
-0.106963

>  <SCORE.RESTR>
0

>  <SCORE.RESTR.CAVITY>
0

>  <SCORE.RESTR.norm>
0

>  <SCORE.SYSTEM>
0

>  <SCORE.SYSTEM.CONST>
0

>  <SCORE.SYSTEM.DIHEDRAL>
0

>  <SCORE.SYSTEM.SOLV>
0

>  <SCORE.SYSTEM.norm>
0

>  <SCORE.heavy>
34

>  <SCORE.norm>
-0.587267

>  <RMSD>
0.744

$$$$
lig.pdb
 OpenBabel11021811503D
libRbt.so/2013.1/901 2013/11/27
 34 36  0  0  0  0  0  0  0  0999 V2000
   -1.2745   16.6893   35.2604 C   0  0  2  0  0  0  0  0  0  0  0  0
   -1.7759   17.2651   36.4717 O   0  0  0  0  0  0  0  0  0  0  0  0
    0.2968   16.5091   35.4009 C   0  0  2  0  0  0  0  0  0  0  0  0
    0.6500   15.6145   36.5278 N   0  0  0  0  0  0  0  0  0  0  0  0
    0.9586   17.8959   35.6002 C   0  0  1  0  0  0  0  0  0  0  0  0
    2.3758   17.7544   35.7218 O   0  0  0  0  0  0  0  0  0  0  0  0
    0.5857   18.7928   34.4064 C   0  0  2  0  0  0  0  0  0  0  0  0
    1.1930   20.0746   34.5758 O   0  0  0  0  0  0  0  0  0  0  0  0
   -0.9828   18.9217   34.3081 C   0  0  2  0  0  0  0  0  0  0  0  0
   -1.6088   17.5913   34.1534 O   0  0  0  0  0  0  0  0  0  0  0  0
   -1.4080   19.8042   33.1083 C   0  0  2  0  0  0  0  0  0  0  0  0
   -0.6312   19.4645   31.9581 O   0  0  0  0  0  0  0  0  0  0  0  0
   -1.2052   21.2803   33.4126 C   0  0  0  0  0  0  0  0  0  0  0  0
   -5.5220   17.0381   38.5289 C   0  0  2  0  0  0  0  0  0  0  0  0
   -6.9585   17.1073   38.8081 N   0  0  0  0  0  0  0  0  0  0  0  0
   -5.1012   18.4115   37.9368 C   0  0  0  0  0  0  0  0  0  0  0  0
   -3.5747   18.3663   37.6564 C   0  0  2  0  0  0  0  0  0  0  0  0
   -3.1295   19.6527   37.0980 N   0  0  0  0  0  0  0  0  0  0  0  0
   -3.2268   17.2297   36.6581 C   0  0  2  0  0  0  0  0  0  0  0  0
   -3.6999   15.8662   37.2537 C   0  0  2  0  0  0  0  0  0  0  0  0
   -3.3883   14.8183   36.3255 O   0  0  0  0  0  0  0  0  0  0  0  0
   -5.2292   15.8716   37.4939 C   0  0  1  0  0  0  0  0  0  0  0  0
   -5.5829   14.5830   38.0542 O   0  0  0  0  0  0  0  0  0  0  0  0
   -6.9164   14.1055   37.7588 C   0  0  2  0  0  0  0  0  0  0  0  0
   -7.2670   13.0619   38.8837 C   0  0  2  0  0  0  0  0  0  0  0  0
   -7.2405   13.6948   40.1534 O   0  0  0  0  0  0  0  0  0  0  0  0
   -6.2315   11.8759   38.8228 C   0  0  1  0  0  0  0  0  0  0  0  0
   -6.5207   10.8628   39.8831 N   0  0  0  0  0  0  0  0  0  0  0  0
   -5.7978   11.2412   41.1164 C   0  0  0  0  0  0  0  0  0  0  0  0
   -6.3139   11.2195   37.4111 C   0  0  2  0  0  0  0  0  0  0  0  0
   -7.6341   10.7141   37.2181 O   0  0  0  0  0  0  0  0  0  0  0  0
   -5.3306   10.0608   37.2662 C   0  0  0  0  0  0  0  0  0  0  0  0
   -6.0109   12.3010   36.3250 C   0  0  0  0  0  0  0  0  0  0  0  0
   -6.9440   13.4414   36.4401 O   0  0  0  0  0  0  0  0  0  0  0  0
  1  3  1  0  0  0  0
  1  2  1  1  0  0  0
  3  5  1  0  0  0  0
  3  4  1  1  0  0  0
  5  6  1  6  0  0  0
  7  8  1  1  0  0  0
  7  5  1  0  0  0  0
  9 10  1  6  0  0  0
  9  7  1  0  0  0  0
 10  1  1  0  0  0  0
 11 13  1  1  0  0  0
 11  9  1  0  0  0  0
 12 11  1  0  0  0  0
 14 15  1  6  0  0  0
 16 14  1  0  0  0  0
 17 18  1  6  0  0  0
 17 16  1  0  0  0  0
 19  2  1  1  0  0  0
 19 20  1  0  0  0  0
 19 17  1  0  0  0  0
 20 21  1  6  0  0  0
 20 22  1  0  0  0  0
 22 23  1  1  0  0  0
 22 14  1  0  0  0  0
 24 23  1  1  0  0  0
 24 25  1  0  0  0  0
 25 27  1  0  0  0  0
 25 26  1  1  0  0  0
 27 28  1  1  0  0  0
 28 29  1  0  0  0  0
 30 31  1  6  0  0  0
 30 32  1  0  0  0  0
 30 27  1  0  0  0  0
 33 30  1  0  0  0  0
 34 33  1  0  0  0  0
 34 24  1  0  0  0  0
M  END
>  <CHROM.1>
-166.57400927,43.49065439,-156.96385635,93.34841430,-157.67634013,-88.79225301
-3.53011168,15.84967863,36.68743900,-0.77481665,-0.47193170,3.03333633

>  <Name>
lig.pdb

>  <RI>
0

>  <Rbt.Current_Directory>
/home/itssahil/PROJECTS/Mol_Feturizer/New_Systems/rnas/4k32

>  <Rbt.Executable>
rbdock ($Id: //depot/dev/client3/rdock/2013.1/src/exe/rbdock.cxx#4 $)

>  <Rbt.Library>
libRbt.so (2013.1, Build901 2013/11/27)

>  <Rbt.Parameter_File>
/export/apps/rDock/src/rDock_2013.1_src/data/scripts/dock_solv.prm

>  <Rbt.Receptor>
prm/pocket_docking_5.prm

>  <SCORE>
-19.8723

>  <SCORE.INTER>
-16.2879

>  <SCORE.INTER.CONST>
1

>  <SCORE.INTER.POLAR>
0

>  <SCORE.INTER.ROT>
6

>  <SCORE.INTER.SOLV>
25.2933

>  <SCORE.INTER.VDW>
-26.8897

>  <SCORE.INTER.norm>
-0.479054

>  <SCORE.INTRA>
-3.58447

>  <SCORE.INTRA.DIHEDRAL>
-6.92522

>  <SCORE.INTRA.DIHEDRAL.0>
18.0069

>  <SCORE.INTRA.POLAR>
0

>  <SCORE.INTRA.POLAR.0>
0

>  <SCORE.INTRA.REPUL>
0

>  <SCORE.INTRA.REPUL.0>
0

>  <SCORE.INTRA.SOLV>
-0.468924

>  <SCORE.INTRA.SOLV.lig_0>
-70.7393

>  <SCORE.INTRA.VDW>
0.112602

>  <SCORE.INTRA.VDW.0>
-3.23471

>  <SCORE.INTRA.norm>
-0.105426

>  <SCORE.RESTR>
0

>  <SCORE.RESTR.CAVITY>
0

>  <SCORE.RESTR.norm>
0

>  <SCORE.SYSTEM>
0

>  <SCORE.SYSTEM.CONST>
0

>  <SCORE.SYSTEM.DIHEDRAL>
0

>  <SCORE.SYSTEM.SOLV>
0

>  <SCORE.SYSTEM.norm>
0

>  <SCORE.heavy>
34

>  <SCORE.norm>
-0.58448

>  <RMSD>
0.744

$$$$
lig.pdb
 OpenBabel11021811503D
libRbt.so/2013.1/901 2013/11/27
 34 36  0  0  0  0  0  0  0  0999 V2000
   -1.2687   16.6965   35.2879 C   0  0  2  0  0  0  0  0  0  0  0  0
   -1.7760   17.2672   36.4992 O   0  0  0  0  0  0  0  0  0  0  0  0
    0.3035   16.5264   35.4307 C   0  0  2  0  0  0  0  0  0  0  0  0
    0.6607   15.6326   36.5570 N   0  0  0  0  0  0  0  0  0  0  0  0
    0.9557   17.9173   35.6333 C   0  0  1  0  0  0  0  0  0  0  0  0
    2.3737   17.7850   35.7571 O   0  0  0  0  0  0  0  0  0  0  0  0
    0.5790   18.8135   34.4402 C   0  0  2  0  0  0  0  0  0  0  0  0
    1.1775   20.0990   34.6124 O   0  0  0  0  0  0  0  0  0  0  0  0
   -0.9901   18.9322   34.3394 C   0  0  2  0  0  0  0  0  0  0  0  0
   -1.6071   17.5979   34.1816 O   0  0  0  0  0  0  0  0  0  0  0  0
   -1.4191   19.8136   33.1402 C   0  0  2  0  0  0  0  0  0  0  0  0
   -0.6724   19.4473   31.9784 O   0  0  0  0  0  0  0  0  0  0  0  0
   -1.1782   21.2875   33.4273 C   0  0  0  0  0  0  0  0  0  0  0  0
   -5.5390   17.0943   38.5306 C   0  0  2  0  0  0  0  0  0  0  0  0
   -6.9775   17.1724   38.7964 N   0  0  0  0  0  0  0  0  0  0  0  0
   -5.1108   18.4529   37.9104 C   0  0  0  0  0  0  0  0  0  0  0  0
   -3.5821   18.3986   37.6435 C   0  0  2  0  0  0  0  0  0  0  0  0
   -3.1299   19.6710   37.0593 N   0  0  0  0  0  0  0  0  0  0  0  0
   -3.2284   17.2386   36.6745 C   0  0  2  0  0  0  0  0  0  0  0  0
   -3.7090   15.8901   37.2975 C   0  0  2  0  0  0  0  0  0  0  0  0
   -3.3920   14.8205   36.3963 O   0  0  0  0  0  0  0  0  0  0  0  0
   -5.2401   15.9038   37.5251 C   0  0  1  0  0  0  0  0  0  0  0  0
   -5.6008   14.6290   38.1121 O   0  0  0  0  0  0  0  0  0  0  0  0
   -6.9192   14.1294   37.7867 C   0  0  2  0  0  0  0  0  0  0  0  0
   -7.2727   13.0710   38.8968 C   0  0  2  0  0  0  0  0  0  0  0  0
   -7.2830   13.6946   40.1713 O   0  0  0  0  0  0  0  0  0  0  0  0
   -6.2143   11.9047   38.8479 C   0  0  1  0  0  0  0  0  0  0  0  0
   -6.5057   10.8784   39.8949 N   0  0  0  0  0  0  0  0  0  0  0  0
   -5.7741   11.2336   41.1299 C   0  0  0  0  0  0  0  0  0  0  0  0
   -6.2566   11.2577   37.4301 C   0  0  2  0  0  0  0  0  0  0  0  0
   -7.5631   10.7296   37.2072 O   0  0  0  0  0  0  0  0  0  0  0  0
   -5.2493   10.1184   37.2965 C   0  0  0  0  0  0  0  0  0  0  0  0
   -5.9522   12.3529   36.3582 C   0  0  0  0  0  0  0  0  0  0  0  0
   -6.9084   13.4750   36.4629 O   0  0  0  0  0  0  0  0  0  0  0  0
  1  3  1  0  0  0  0
  1  2  1  1  0  0  0
  3  5  1  0  0  0  0
  3  4  1  1  0  0  0
  5  6  1  6  0  0  0
  7  8  1  1  0  0  0
  7  5  1  0  0  0  0
  9 10  1  6  0  0  0
  9  7  1  0  0  0  0
 10  1  1  0  0  0  0
 11 13  1  1  0  0  0
 11  9  1  0  0  0  0
 12 11  1  0  0  0  0
 14 15  1  6  0  0  0
 16 14  1  0  0  0  0
 17 18  1  6  0  0  0
 17 16  1  0  0  0  0
 19  2  1  1  0  0  0
 19 20  1  0  0  0  0
 19 17  1  0  0  0  0
 20 21  1  6  0  0  0
 20 22  1  0  0  0  0
 22 23  1  1  0  0  0
 22 14  1  0  0  0  0
 24 23  1  1  0  0  0
 24 25  1  0  0  0  0
 25 27  1  0  0  0  0
 25 26  1  1  0  0  0
 27 28  1  1  0  0  0
 28 29  1  0  0  0  0
 30 31  1  6  0  0  0
 30 32  1  0  0  0  0
 30 27  1  0  0  0  0
 33 30  1  0  0  0  0
 34 33  1  0  0  0  0
 34 24  1  0  0  0  0
M  END
>  <CHROM.1>
-167.39650460,45.60116526,-155.25468012,95.01041523,-160.02975841,-90.87706080
-3.52488774,15.87139036,36.70877599,-0.78191663,-0.46156930,3.01971892

>  <Name>
lig.pdb

>  <RI>
0

>  <Rbt.Current_Directory>
/home/itssahil/PROJECTS/Mol_Feturizer/New_Systems/rnas/4k32

>  <Rbt.Executable>
rbdock ($Id: //depot/dev/client3/rdock/2013.1/src/exe/rbdock.cxx#4 $)

>  <Rbt.Library>
libRbt.so (2013.1, Build901 2013/11/27)

>  <Rbt.Parameter_File>
/export/apps/rDock/src/rDock_2013.1_src/data/scripts/dock_solv.prm

>  <Rbt.Receptor>
prm/pocket_docking_3.prm

>  <SCORE>
-19.9033

>  <SCORE.INTER>
-16.2691

>  <SCORE.INTER.CONST>
1

>  <SCORE.INTER.POLAR>
0

>  <SCORE.INTER.ROT>
6

>  <SCORE.INTER.SOLV>
25.0671

>  <SCORE.INTER.VDW>
-26.8018

>  <SCORE.INTER.norm>
-0.478502

>  <SCORE.INTRA>
-3.63422

>  <SCORE.INTRA.DIHEDRAL>
-6.95925

>  <SCORE.INTRA.DIHEDRAL.0>
18.0069

>  <SCORE.INTRA.POLAR>
0

>  <SCORE.INTRA.POLAR.0>
0

>  <SCORE.INTRA.REPUL>
0

>  <SCORE.INTRA.REPUL.0>
0

>  <SCORE.INTRA.SOLV>
-0.46393

>  <SCORE.INTRA.SOLV.lig_0>
-70.7393

>  <SCORE.INTRA.VDW>
0.0773664

>  <SCORE.INTRA.VDW.0>
-3.23471

>  <SCORE.INTRA.norm>
-0.106889

>  <SCORE.RESTR>
0

>  <SCORE.RESTR.CAVITY>
0

>  <SCORE.RESTR.norm>
0

>  <SCORE.SYSTEM>
0

>  <SCORE.SYSTEM.CONST>
0

>  <SCORE.SYSTEM.DIHEDRAL>
0

>  <SCORE.SYSTEM.SOLV>
0

>  <SCORE.SYSTEM.norm>
0

>  <SCORE.heavy>
34

>  <SCORE.norm>
-0.585391

>  <RMSD>
0.746

$$$$
lig.pdb
 OpenBabel11021811503D
libRbt.so/2013.1/901 2013/11/27
 34 36  0  0  0  0  0  0  0  0999 V2000
   -1.2782   16.7086   35.2624 C   0  0  2  0  0  0  0  0  0  0  0  0
   -1.7774   17.2975   36.4683 O   0  0  0  0  0  0  0  0  0  0  0  0
    0.2931   16.5277   35.4029 C   0  0  2  0  0  0  0  0  0  0  0  0
    0.6464   15.6443   36.5385 N   0  0  0  0  0  0  0  0  0  0  0  0
    0.9569   17.9156   35.5872 C   0  0  1  0  0  0  0  0  0  0  0  0
    2.3741   17.7736   35.7086 O   0  0  0  0  0  0  0  0  0  0  0  0
    0.5838   18.8007   34.3847 C   0  0  2  0  0  0  0  0  0  0  0  0
    1.1929   20.0834   34.5401 O   0  0  0  0  0  0  0  0  0  0  0  0
   -0.9846   18.9307   34.2869 C   0  0  2  0  0  0  0  0  0  0  0  0
   -1.6126   17.5995   34.1465 O   0  0  0  0  0  0  0  0  0  0  0  0
   -1.4101   19.8013   33.0785 C   0  0  2  0  0  0  0  0  0  0  0  0
   -0.6804   19.4053   31.9156 O   0  0  0  0  0  0  0  0  0  0  0  0
   -1.1421   21.2750   33.3414 C   0  0  0  0  0  0  0  0  0  0  0  0
   -5.5135   17.0521   38.5414 C   0  0  2  0  0  0  0  0  0  0  0  0
   -6.9489   17.1164   38.8275 N   0  0  0  0  0  0  0  0  0  0  0  0
   -5.0989   18.4291   37.9533 C   0  0  0  0  0  0  0  0  0  0  0  0
   -3.5736   18.3890   37.6657 C   0  0  2  0  0  0  0  0  0  0  0  0
   -3.1342   19.6789   37.1108 N   0  0  0  0  0  0  0  0  0  0  0  0
   -3.2273   17.2575   36.6611 C   0  0  2  0  0  0  0  0  0  0  0  0
   -3.6942   15.8903   37.2531 C   0  0  2  0  0  0  0  0  0  0  0  0
   -3.3842   14.8471   36.3191 O   0  0  0  0  0  0  0  0  0  0  0  0
   -5.2224   15.8908   37.5002 C   0  0  1  0  0  0  0  0  0  0  0  0
   -5.5703   14.5989   38.0567 O   0  0  0  0  0  0  0  0  0  0  0  0
   -6.8977   14.1112   37.7505 C   0  0  2  0  0  0  0  0  0  0  0  0
   -7.2518   13.0695   38.8761 C   0  0  2  0  0  0  0  0  0  0  0  0
   -7.2417   13.7074   40.1435 O   0  0  0  0  0  0  0  0  0  0  0  0
   -6.2077   11.8904   38.8296 C   0  0  1  0  0  0  0  0  0  0  0  0
   -6.5001   10.8794   39.8911 N   0  0  0  0  0  0  0  0  0  0  0  0
   -5.7600   11.2458   41.1177 C   0  0  0  0  0  0  0  0  0  0  0  0
   -6.2722   11.2280   37.4197 C   0  0  2  0  0  0  0  0  0  0  0  0
   -7.5870   10.7128   37.2162 O   0  0  0  0  0  0  0  0  0  0  0  0
   -5.2797   10.0756   37.2887 C   0  0  0  0  0  0  0  0  0  0  0  0
   -5.9662   12.3075   36.3324 C   0  0  0  0  0  0  0  0  0  0  0  0
   -6.9082   13.4419   36.4342 O   0  0  0  0  0  0  0  0  0  0  0  0
  1  3  1  0  0  0  0
  1  2  1  1  0  0  0
  3  5  1  0  0  0  0
  3  4  1  1  0  0  0
  5  6  1  6  0  0  0
  7  8  1  1  0  0  0
  7  5  1  0  0  0  0
  9 10  1  6  0  0  0
  9  7  1  0  0  0  0
 10  1  1  0  0  0  0
 11 13  1  1  0  0  0
 11  9  1  0  0  0  0
 12 11  1  0  0  0  0
 14 15  1  6  0  0  0
 16 14  1  0  0  0  0
 17 18  1  6  0  0  0
 17 16  1  0  0  0  0
 19  2  1  1  0  0  0
 19 20  1  0  0  0  0
 19 17  1  0  0  0  0
 20 21  1  6  0  0  0
 20 22  1  0  0  0  0
 22 23  1  1  0  0  0
 22 14  1  0  0  0  0
 24 23  1  1  0  0  0
 24 25  1  0  0  0  0
 25 27  1  0  0  0  0
 25 26  1  1  0  0  0
 27 28  1  1  0  0  0
 28 29  1  0  0  0  0
 30 31  1  6  0  0  0
 30 32  1  0  0  0  0
 30 27  1  0  0  0  0
 33 30  1  0  0  0  0
 34 33  1  0  0  0  0
 34 24  1  0  0  0  0
M  END
>  <CHROM.1>
-166.16029174,46.24675940,-157.94770817,94.14217913,-157.38253717,-90.43102216
-3.51924321,15.86115819,36.68263243,-0.77336255,-0.48164385,3.03813031

>  <Name>
lig.pdb

>  <RI>
0

>  <Rbt.Current_Directory>
/home/itssahil/PROJECTS/Mol_Feturizer/New_Systems/rnas/4k32

>  <Rbt.Executable>
rbdock ($Id: //depot/dev/client3/rdock/2013.1/src/exe/rbdock.cxx#4 $)

>  <Rbt.Library>
libRbt.so (2013.1, Build901 2013/11/27)

>  <Rbt.Parameter_File>
/export/apps/rDock/src/rDock_2013.1_src/data/scripts/dock_solv.prm

>  <Rbt.Receptor>
prm/pocket_docking_5.prm

>  <SCORE>
-19.8983

>  <SCORE.INTER>
-16.2985

>  <SCORE.INTER.CONST>
1

>  <SCORE.INTER.POLAR>
0

>  <SCORE.INTER.ROT>
6

>  <SCORE.INTER.SOLV>
25.3212

>  <SCORE.INTER.VDW>
-26.9061

>  <SCORE.INTER.norm>
-0.479368

>  <SCORE.INTRA>
-3.59975

>  <SCORE.INTRA.DIHEDRAL>
-7.07161

>  <SCORE.INTRA.DIHEDRAL.0>
18.0069

>  <SCORE.INTRA.POLAR>
0

>  <SCORE.INTRA.POLAR.0>
0

>  <SCORE.INTRA.REPUL>
0

>  <SCORE.INTRA.REPUL.0>
0

>  <SCORE.INTRA.SOLV>
-0.570783

>  <SCORE.INTRA.SOLV.lig_0>
-70.7393

>  <SCORE.INTRA.VDW>
0.221452

>  <SCORE.INTRA.VDW.0>
-3.23471

>  <SCORE.INTRA.norm>
-0.105875

>  <SCORE.RESTR>
0

>  <SCORE.RESTR.CAVITY>
0

>  <SCORE.RESTR.norm>
0

>  <SCORE.SYSTEM>
0

>  <SCORE.SYSTEM.CONST>
0

>  <SCORE.SYSTEM.DIHEDRAL>
0

>  <SCORE.SYSTEM.SOLV>
0

>  <SCORE.SYSTEM.norm>
0

>  <SCORE.heavy>
34

>  <SCORE.norm>
-0.585243

>  <RMSD>
0.746

$$$$
lig.pdb
 OpenBabel11021811503D
libRbt.so/2013.1/901 2013/11/27
 34 36  0  0  0  0  0  0  0  0999 V2000
   -1.2121   16.6003   35.2581 C   0  0  2  0  0  0  0  0  0  0  0  0
   -1.7216   17.1334   36.4854 O   0  0  0  0  0  0  0  0  0  0  0  0
    0.3663   16.4773   35.3788 C   0  0  2  0  0  0  0  0  0  0  0  0
    0.7655   15.5755   36.4844 N   0  0  0  0  0  0  0  0  0  0  0  0
    0.9773   17.8842   35.5983 C   0  0  1  0  0  0  0  0  0  0  0  0
    2.4002   17.7945   35.7025 O   0  0  0  0  0  0  0  0  0  0  0  0
    0.5576   18.7889   34.4261 C   0  0  2  0  0  0  0  0  0  0  0  0
    1.1178   20.0894   34.6142 O   0  0  0  0  0  0  0  0  0  0  0  0
   -1.0156   18.8599   34.3465 C   0  0  2  0  0  0  0  0  0  0  0  0
   -1.5925   17.5098   34.1723 O   0  0  0  0  0  0  0  0  0  0  0  0
   -1.4871   19.7483   33.1686 C   0  0  2  0  0  0  0  0  0  0  0  0
   -0.7274   19.4430   31.9975 O   0  0  0  0  0  0  0  0  0  0  0  0
   -1.3125   21.2246   33.4893 C   0  0  0  0  0  0  0  0  0  0  0  0
   -5.5042   17.0181   38.4843 C   0  0  2  0  0  0  0  0  0  0  0  0
   -6.9443   17.1120   38.7361 N   0  0  0  0  0  0  0  0  0  0  0  0
   -5.0583   18.3653   37.8517 C   0  0  0  0  0  0  0  0  0  0  0  0
   -3.5279   18.2943   37.5994 C   0  0  2  0  0  0  0  0  0  0  0  0
   -3.0592   19.5555   37.0040 N   0  0  0  0  0  0  0  0  0  0  0  0
   -3.1757   17.1196   36.6479 C   0  0  2  0  0  0  0  0  0  0  0  0
   -3.6738   15.7830   37.2828 C   0  0  2  0  0  0  0  0  0  0  0  0
   -3.3581   14.6998   36.3976 O   0  0  0  0  0  0  0  0  0  0  0  0
   -5.2067   15.8128   37.4962 C   0  0  1  0  0  0  0  0  0  0  0  0
   -5.5840   14.5485   38.0953 O   0  0  0  0  0  0  0  0  0  0  0  0
   -6.9092   14.0636   37.7754 C   0  0  2  0  0  0  0  0  0  0  0  0
   -7.2552   12.9832   38.8665 C   0  0  2  0  0  0  0  0  0  0  0  0
   -7.2463   13.5789   40.1543 O   0  0  0  0  0  0  0  0  0  0  0  0
   -6.2045   11.8123   38.7792 C   0  0  1  0  0  0  0  0  0  0  0  0
   -6.4890   10.7651   39.8072 N   0  0  0  0  0  0  0  0  0  0  0  0
   -5.8039   11.1310   41.0655 C   0  0  0  0  0  0  0  0  0  0  0  0
   -6.2680   11.1966   37.3483 C   0  0  2  0  0  0  0  0  0  0  0  0
   -7.5802   10.6809   37.1302 O   0  0  0  0  0  0  0  0  0  0  0  0
   -5.2691   10.0549   37.1775 C   0  0  0  0  0  0  0  0  0  0  0  0
   -5.9702   12.3132   36.2968 C   0  0  0  0  0  0  0  0  0  0  0  0
   -6.9185   13.4382   36.4377 O   0  0  0  0  0  0  0  0  0  0  0  0
  1  3  1  0  0  0  0
  1  2  1  1  0  0  0
  3  5  1  0  0  0  0
  3  4  1  1  0  0  0
  5  6  1  6  0  0  0
  7  8  1  1  0  0  0
  7  5  1  0  0  0  0
  9 10  1  6  0  0  0
  9  7  1  0  0  0  0
 10  1  1  0  0  0  0
 11 13  1  1  0  0  0
 11  9  1  0  0  0  0
 12 11  1  0  0  0  0
 14 15  1  6  0  0  0
 16 14  1  0  0  0  0
 17 18  1  6  0  0  0
 17 16  1  0  0  0  0
 19  2  1  1  0  0  0
 19 20  1  0  0  0  0
 19 17  1  0  0  0  0
 20 21  1  6  0  0  0
 20 22  1  0  0  0  0
 22 23  1  1  0  0  0
 22 14  1  0  0  0  0
 24 23  1  1  0  0  0
 24 25  1  0  0  0  0
 25 27  1  0  0  0  0
 25 26  1  1  0  0  0
 27 28  1  1  0  0  0
 28 29  1  0  0  0  0
 30 31  1  6  0  0  0
 30 32  1  0  0  0  0
 30 27  1  0  0  0  0
 33 30  1  0  0  0  0
 34 33  1  0  0  0  0
 34 24  1  0  0  0  0
M  END
>  <CHROM.1>
-170.48079402,44.55635765,-152.42593580,94.36831664,-161.98028751,-87.59235791
-3.51462567,15.79900653,36.67529228,-0.78812011,-0.44935490,3.01486051

>  <Name>
lig.pdb

>  <RI>
0

>  <Rbt.Current_Directory>
/home/itssahil/PROJECTS/Mol_Feturizer/New_Systems/rnas/4k32

>  <Rbt.Executable>
rbdock ($Id: //depot/dev/client3/rdock/2013.1/src/exe/rbdock.cxx#4 $)

>  <Rbt.Library>
libRbt.so (2013.1, Build901 2013/11/27)

>  <Rbt.Parameter_File>
/export/apps/rDock/src/rDock_2013.1_src/data/scripts/dock_solv.prm

>  <Rbt.Receptor>
prm/pocket_docking_2.prm

>  <SCORE>
-19.554

>  <SCORE.INTER>
-15.9557

>  <SCORE.INTER.CONST>
1

>  <SCORE.INTER.POLAR>
0

>  <SCORE.INTER.ROT>
6

>  <SCORE.INTER.SOLV>
25.344

>  <SCORE.INTER.VDW>
-26.6851

>  <SCORE.INTER.norm>
-0.469286

>  <SCORE.INTRA>
-3.61191

>  <SCORE.INTRA.DIHEDRAL>
-7.1793

>  <SCORE.INTRA.DIHEDRAL.0>
18.0069

>  <SCORE.INTRA.POLAR>
0

>  <SCORE.INTRA.POLAR.0>
0

>  <SCORE.INTRA.REPUL>
0

>  <SCORE.INTRA.REPUL.0>
0

>  <SCORE.INTRA.SOLV>
-0.270928

>  <SCORE.INTRA.SOLV.lig_0>
-70.7393

>  <SCORE.INTRA.VDW>
0.1132

>  <SCORE.INTRA.VDW.0>
-3.23471

>  <SCORE.INTRA.norm>
-0.106233

>  <SCORE.RESTR>
0.0136711

>  <SCORE.RESTR.CAVITY>
0.0136711

>  <SCORE.RESTR.norm>
0.00040209

>  <SCORE.SYSTEM>
0

>  <SCORE.SYSTEM.CONST>
0

>  <SCORE.SYSTEM.DIHEDRAL>
0

>  <SCORE.SYSTEM.SOLV>
0

>  <SCORE.SYSTEM.norm>
0

>  <SCORE.heavy>
34

>  <SCORE.norm>
-0.575116

>  <RMSD>
0.751

$$$$
lig.pdb
 OpenBabel11021811503D
libRbt.so/2013.1/901 2013/11/27
 34 36  0  0  0  0  0  0  0  0999 V2000
   -1.2676   16.6717   35.2753 C   0  0  2  0  0  0  0  0  0  0  0  0
   -1.7659   17.2459   36.4887 O   0  0  0  0  0  0  0  0  0  0  0  0
    0.3061   16.5053   35.4056 C   0  0  2  0  0  0  0  0  0  0  0  0
    0.6746   15.6164   36.5321 N   0  0  0  0  0  0  0  0  0  0  0  0
    0.9572   17.8983   35.5975 C   0  0  1  0  0  0  0  0  0  0  0  0
    2.3764   17.7694   35.7098 O   0  0  0  0  0  0  0  0  0  0  0  0
    0.5686   18.7893   34.4042 C   0  0  2  0  0  0  0  0  0  0  0  0
    1.1658   20.0766   34.5667 O   0  0  0  0  0  0  0  0  0  0  0  0
   -1.0016   18.9043   34.3162 C   0  0  2  0  0  0  0  0  0  0  0  0
   -1.6171   17.5682   34.1686 O   0  0  0  0  0  0  0  0  0  0  0  0
   -1.4425   19.7804   33.1173 C   0  0  2  0  0  0  0  0  0  0  0  0
   -0.7251   19.3921   31.9442 O   0  0  0  0  0  0  0  0  0  0  0  0
   -1.1746   21.2533   33.3849 C   0  0  0  0  0  0  0  0  0  0  0  0
   -5.5137   17.0553   38.5463 C   0  0  2  0  0  0  0  0  0  0  0  0
   -6.9500   17.1331   38.8241 N   0  0  0  0  0  0  0  0  0  0  0  0
   -5.0872   18.4207   37.9400 C   0  0  0  0  0  0  0  0  0  0  0  0
   -3.5608   18.3666   37.6608 C   0  0  2  0  0  0  0  0  0  0  0  0
   -3.1102   19.6452   37.0891 N   0  0  0  0  0  0  0  0  0  0  0  0
   -3.2169   17.2181   36.6747 C   0  0  2  0  0  0  0  0  0  0  0  0
   -3.6957   15.8628   37.2844 C   0  0  2  0  0  0  0  0  0  0  0  0
   -3.3879   14.8040   36.3675 O   0  0  0  0  0  0  0  0  0  0  0  0
   -5.2250   15.8769   37.5238 C   0  0  1  0  0  0  0  0  0  0  0  0
   -5.5841   14.5956   38.0975 O   0  0  0  0  0  0  0  0  0  0  0  0
   -6.9065   14.1035   37.7769 C   0  0  2  0  0  0  0  0  0  0  0  0
   -7.2632   13.0495   38.8902 C   0  0  2  0  0  0  0  0  0  0  0  0
   -7.2660   13.6757   40.1635 O   0  0  0  0  0  0  0  0  0  0  0  0
   -6.2122   11.8766   38.8407 C   0  0  1  0  0  0  0  0  0  0  0  0
   -6.5068   10.8543   39.8906 N   0  0  0  0  0  0  0  0  0  0  0  0
   -5.7872   11.2197   41.1297 C   0  0  0  0  0  0  0  0  0  0  0  0
   -6.2626   11.2270   37.4244 C   0  0  2  0  0  0  0  0  0  0  0  0
   -7.5729   10.7065   37.2063 O   0  0  0  0  0  0  0  0  0  0  0  0
   -5.2627   10.0813   37.2902 C   0  0  0  0  0  0  0  0  0  0  0  0
   -5.9545   12.3181   36.3493 C   0  0  0  0  0  0  0  0  0  0  0  0
   -6.9035   13.4463   36.4545 O   0  0  0  0  0  0  0  0  0  0  0  0
  1  3  1  0  0  0  0
  1  2  1  1  0  0  0
  3  5  1  0  0  0  0
  3  4  1  1  0  0  0
  5  6  1  6  0  0  0
  7  8  1  1  0  0  0
  7  5  1  0  0  0  0
  9 10  1  6  0  0  0
  9  7  1  0  0  0  0
 10  1  1  0  0  0  0
 11 13  1  1  0  0  0
 11  9  1  0  0  0  0
 12 11  1  0  0  0  0
 14 15  1  6  0  0  0
 16 14  1  0  0  0  0
 17 18  1  6  0  0  0
 17 16  1  0  0  0  0
 19  2  1  1  0  0  0
 19 20  1  0  0  0  0
 19 17  1  0  0  0  0
 20 21  1  6  0  0  0
 20 22  1  0  0  0  0
 22 23  1  1  0  0  0
 22 14  1  0  0  0  0
 24 23  1  1  0  0  0
 24 25  1  0  0  0  0
 25 27  1  0  0  0  0
 25 26  1  1  0  0  0
 27 28  1  1  0  0  0
 28 29  1  0  0  0  0
 30 31  1  6  0  0  0
 30 32  1  0  0  0  0
 30 27  1  0  0  0  0
 33 30  1  0  0  0  0
 34 33  1  0  0  0  0
 34 24  1  0  0  0  0
M  END
>  <CHROM.1>
-167.55135443,46.82430025,-156.13952501,94.95407195,-159.09932501,-89.94976876
-3.52243343,15.84421863,36.69722183,-0.77629663,-0.47528554,3.03157107

>  <Name>
lig.pdb

>  <RI>
0

>  <Rbt.Current_Directory>
/home/itssahil/PROJECTS/Mol_Feturizer/New_Systems/rnas/4k32

>  <Rbt.Executable>
rbdock ($Id: //depot/dev/client3/rdock/2013.1/src/exe/rbdock.cxx#4 $)

>  <Rbt.Library>
libRbt.so (2013.1, Build901 2013/11/27)

>  <Rbt.Parameter_File>
/export/apps/rDock/src/rDock_2013.1_src/data/scripts/dock_solv.prm

>  <Rbt.Receptor>
prm/pocket_docking_4.prm

>  <SCORE>
-19.9584

>  <SCORE.INTER>
-16.3492

>  <SCORE.INTER.CONST>
1

>  <SCORE.INTER.POLAR>
0

>  <SCORE.INTER.ROT>
6

>  <SCORE.INTER.SOLV>
25.2415

>  <SCORE.INTER.VDW>
-26.9133

>  <SCORE.INTER.norm>
-0.480858

>  <SCORE.INTRA>
-3.60924

>  <SCORE.INTRA.DIHEDRAL>
-7.13444

>  <SCORE.INTRA.DIHEDRAL.0>
18.0069

>  <SCORE.INTRA.POLAR>
0

>  <SCORE.INTRA.POLAR.0>
0

>  <SCORE.INTRA.REPUL>
0

>  <SCORE.INTRA.REPUL.0>
0

>  <SCORE.INTRA.SOLV>
-0.516773

>  <SCORE.INTRA.SOLV.lig_0>
-70.7393

>  <SCORE.INTRA.VDW>
0.21637

>  <SCORE.INTRA.VDW.0>
-3.23471

>  <SCORE.INTRA.norm>
-0.106154

>  <SCORE.RESTR>
0

>  <SCORE.RESTR.CAVITY>
0

>  <SCORE.RESTR.norm>
0

>  <SCORE.SYSTEM>
0

>  <SCORE.SYSTEM.CONST>
0

>  <SCORE.SYSTEM.DIHEDRAL>
0

>  <SCORE.SYSTEM.SOLV>
0

>  <SCORE.SYSTEM.norm>
0

>  <SCORE.heavy>
34

>  <SCORE.norm>
-0.587012

>  <RMSD>
0.752

$$$$
lig.pdb
 OpenBabel11021811503D
libRbt.so/2013.1/901 2013/11/27
 34 36  0  0  0  0  0  0  0  0999 V2000
   -1.1923   16.6215   35.2386 C   0  0  2  0  0  0  0  0  0  0  0  0
   -1.7040   17.1635   36.4611 O   0  0  0  0  0  0  0  0  0  0  0  0
    0.3837   16.4799   35.3707 C   0  0  2  0  0  0  0  0  0  0  0  0
    0.7643   15.5761   36.4811 N   0  0  0  0  0  0  0  0  0  0  0  0
    1.0098   17.8800   35.5913 C   0  0  1  0  0  0  0  0  0  0  0  0
    2.4308   17.7736   35.7057 O   0  0  0  0  0  0  0  0  0  0  0  0
    0.6092   18.7869   34.4141 C   0  0  2  0  0  0  0  0  0  0  0  0
    1.1836   20.0810   34.6031 O   0  0  0  0  0  0  0  0  0  0  0  0
   -0.9624   18.8764   34.3233 C   0  0  2  0  0  0  0  0  0  0  0  0
   -1.5542   17.5329   34.1481 O   0  0  0  0  0  0  0  0  0  0  0  0
   -1.4150   19.7676   33.1400 C   0  0  2  0  0  0  0  0  0  0  0  0
   -0.6748   19.4268   31.9663 O   0  0  0  0  0  0  0  0  0  0  0  0
   -1.1913   21.2407   33.4444 C   0  0  0  0  0  0  0  0  0  0  0  0
   -5.4885   17.0290   38.4551 C   0  0  2  0  0  0  0  0  0  0  0  0
   -6.9288   17.1211   38.7065 N   0  0  0  0  0  0  0  0  0  0  0  0
   -5.0413   18.3826   37.8374 C   0  0  0  0  0  0  0  0  0  0  0  0
   -3.5106   18.3135   37.5858 C   0  0  2  0  0  0  0  0  0  0  0  0
   -3.0406   19.5807   37.0044 N   0  0  0  0  0  0  0  0  0  0  0  0
   -3.1582   17.1488   36.6220 C   0  0  2  0  0  0  0  0  0  0  0  0
   -3.6577   15.8058   37.2420 C   0  0  2  0  0  0  0  0  0  0  0  0
   -3.3418   14.7320   36.3455 O   0  0  0  0  0  0  0  0  0  0  0  0
   -5.1908   15.8342   37.4543 C   0  0  1  0  0  0  0  0  0  0  0  0
   -5.5694   14.5638   38.0394 O   0  0  0  0  0  0  0  0  0  0  0  0
   -6.9060   14.0982   37.7385 C   0  0  2  0  0  0  0  0  0  0  0  0
   -7.2645   13.0464   38.8532 C   0  0  2  0  0  0  0  0  0  0  0  0
   -7.2347   13.6670   40.1288 O   0  0  0  0  0  0  0  0  0  0  0  0
   -6.2369   11.8540   38.7818 C   0  0  1  0  0  0  0  0  0  0  0  0
   -6.5338   10.8329   39.8323 N   0  0  0  0  0  0  0  0  0  0  0  0
   -5.8100   11.1951   41.0698 C   0  0  0  0  0  0  0  0  0  0  0  0
   -6.3227   11.2116   37.3639 C   0  0  2  0  0  0  0  0  0  0  0  0
   -7.6461   10.7170   37.1651 O   0  0  0  0  0  0  0  0  0  0  0  0
   -5.3471   10.0477   37.2088 C   0  0  0  0  0  0  0  0  0  0  0  0
   -6.0114   12.3013   36.2883 C   0  0  0  0  0  0  0  0  0  0  0  0
   -6.9370   13.4468   36.4135 O   0  0  0  0  0  0  0  0  0  0  0  0
  1  3  1  0  0  0  0
  1  2  1  1  0  0  0
  3  5  1  0  0  0  0
  3  4  1  1  0  0  0
  5  6  1  6  0  0  0
  7  8  1  1  0  0  0
  7  5  1  0  0  0  0
  9 10  1  6  0  0  0
  9  7  1  0  0  0  0
 10  1  1  0  0  0  0
 11 13  1  1  0  0  0
 11  9  1  0  0  0  0
 12 11  1  0  0  0  0
 14 15  1  6  0  0  0
 16 14  1  0  0  0  0
 17 18  1  6  0  0  0
 17 16  1  0  0  0  0
 19  2  1  1  0  0  0
 19 20  1  0  0  0  0
 19 17  1  0  0  0  0
 20 21  1  6  0  0  0
 20 22  1  0  0  0  0
 22 23  1  1  0  0  0
 22 14  1  0  0  0  0
 24 23  1  1  0  0  0
 24 25  1  0  0  0  0
 25 27  1  0  0  0  0
 25 26  1  1  0  0  0
 27 28  1  1  0  0  0
 28 29  1  0  0  0  0
 30 31  1  6  0  0  0
 30 32  1  0  0  0  0
 30 27  1  0  0  0  0
 33 30  1  0  0  0  0
 34 33  1  0  0  0  0
 34 24  1  0  0  0  0
M  END
>  <CHROM.1>
-169.58262132,46.03922696,-153.50296957,92.97420202,-159.68321358,-88.76232755
-3.50266482,15.81899808,36.65954243,-0.78015784,-0.44786951,3.01630156

>  <Name>
lig.pdb

>  <RI>
0

>  <Rbt.Current_Directory>
/home/itssahil/PROJECTS/Mol_Feturizer/New_Systems/rnas/4k32

>  <Rbt.Executable>
rbdock ($Id: //depot/dev/client3/rdock/2013.1/src/exe/rbdock.cxx#4 $)

>  <Rbt.Library>
libRbt.so (2013.1, Build901 2013/11/27)

>  <Rbt.Parameter_File>
/export/apps/rDock/src/rDock_2013.1_src/data/scripts/dock_solv.prm

>  <Rbt.Receptor>
prm/pocket_docking_2.prm

>  <SCORE>
-19.5505

>  <SCORE.INTER>
-15.9614

>  <SCORE.INTER.CONST>
1

>  <SCORE.INTER.POLAR>
0

>  <SCORE.INTER.ROT>
6

>  <SCORE.INTER.SOLV>
25.5014

>  <SCORE.INTER.VDW>
-26.7414

>  <SCORE.INTER.norm>
-0.469452

>  <SCORE.INTRA>
-3.61001

>  <SCORE.INTRA.DIHEDRAL>
-7.2924

>  <SCORE.INTRA.DIHEDRAL.0>
18.0069

>  <SCORE.INTRA.POLAR>
0

>  <SCORE.INTRA.POLAR.0>
0

>  <SCORE.INTRA.REPUL>
0

>  <SCORE.INTRA.REPUL.0>
0

>  <SCORE.INTRA.SOLV>
-0.306775

>  <SCORE.INTRA.SOLV.lig_0>
-70.7393

>  <SCORE.INTRA.VDW>
0.189581

>  <SCORE.INTRA.VDW.0>
-3.23471

>  <SCORE.INTRA.norm>
-0.106177

>  <SCORE.RESTR>
0.0208637

>  <SCORE.RESTR.CAVITY>
0.0208637

>  <SCORE.RESTR.norm>
0.000613638

>  <SCORE.SYSTEM>
0

>  <SCORE.SYSTEM.CONST>
0

>  <SCORE.SYSTEM.DIHEDRAL>
0

>  <SCORE.SYSTEM.SOLV>
0

>  <SCORE.SYSTEM.norm>
0

>  <SCORE.heavy>
34

>  <SCORE.norm>
-0.575015

>  <RMSD>
0.762

$$$$
lig.pdb
 OpenBabel11021811503D
libRbt.so/2013.1/901 2013/11/27
 34 36  0  0  0  0  0  0  0  0999 V2000
   -1.2544   16.6655   35.2580 C   0  0  2  0  0  0  0  0  0  0  0  0
   -1.7581   17.2468   36.4658 O   0  0  0  0  0  0  0  0  0  0  0  0
    0.3181   16.4957   35.3980 C   0  0  2  0  0  0  0  0  0  0  0  0
    0.6778   15.6112   36.5308 N   0  0  0  0  0  0  0  0  0  0  0  0
    0.9717   17.8878   35.5869 C   0  0  1  0  0  0  0  0  0  0  0  0
    2.3899   17.7557   35.7079 O   0  0  0  0  0  0  0  0  0  0  0  0
    0.5922   18.7740   34.3872 C   0  0  2  0  0  0  0  0  0  0  0  0
    1.1919   20.0606   34.5468 O   0  0  0  0  0  0  0  0  0  0  0  0
   -0.9771   18.8928   34.2897 C   0  0  2  0  0  0  0  0  0  0  0  0
   -1.5953   17.5576   34.1450 O   0  0  0  0  0  0  0  0  0  0  0  0
   -1.4089   19.7642   33.0842 C   0  0  2  0  0  0  0  0  0  0  0  0
   -0.6774   19.3763   31.9196 O   0  0  0  0  0  0  0  0  0  0  0  0
   -1.1501   21.2388   33.3512 C   0  0  0  0  0  0  0  0  0  0  0  0
   -5.5110   17.0441   38.5130 C   0  0  2  0  0  0  0  0  0  0  0  0
   -6.9482   17.1184   38.7871 N   0  0  0  0  0  0  0  0  0  0  0  0
   -5.0857   18.4117   37.9108 C   0  0  0  0  0  0  0  0  0  0  0  0
   -3.5584   18.3613   37.6356 C   0  0  2  0  0  0  0  0  0  0  0  0
   -3.1089   19.6421   37.0679 N   0  0  0  0  0  0  0  0  0  0  0  0
   -3.2095   17.2157   36.6479 C   0  0  2  0  0  0  0  0  0  0  0  0
   -3.6872   15.8581   37.2534 C   0  0  2  0  0  0  0  0  0  0  0  0
   -3.3747   14.8019   36.3350 O   0  0  0  0  0  0  0  0  0  0  0  0
   -5.2171   15.8685   37.4887 C   0  0  1  0  0  0  0  0  0  0  0  0
   -5.5751   14.5852   38.0587 O   0  0  0  0  0  0  0  0  0  0  0  0
   -6.9077   14.1066   37.7608 C   0  0  2  0  0  0  0  0  0  0  0  0
   -7.2606   13.0649   38.8867 C   0  0  2  0  0  0  0  0  0  0  0  0
   -7.2375   13.7001   40.1553 O   0  0  0  0  0  0  0  0  0  0  0  0
   -6.2243   11.8793   38.8306 C   0  0  1  0  0  0  0  0  0  0  0  0
   -6.5156   10.8680   39.8920 N   0  0  0  0  0  0  0  0  0  0  0  0
   -5.7719   11.2322   41.1171 C   0  0  0  0  0  0  0  0  0  0  0  0
   -6.3029   11.2202   37.4199 C   0  0  2  0  0  0  0  0  0  0  0  0
   -7.6223   10.7138   37.2245 O   0  0  0  0  0  0  0  0  0  0  0  0
   -5.3186   10.0618   37.2796 C   0  0  0  0  0  0  0  0  0  0  0  0
   -5.9976   12.2999   36.3326 C   0  0  0  0  0  0  0  0  0  0  0  0
   -6.9316   13.4401   36.4433 O   0  0  0  0  0  0  0  0  0  0  0  0
  1  3  1  0  0  0  0
  1  2  1  1  0  0  0
  3  5  1  0  0  0  0
  3  4  1  1  0  0  0
  5  6  1  6  0  0  0
  7  8  1  1  0  0  0
  7  5  1  0  0  0  0
  9 10  1  6  0  0  0
  9  7  1  0  0  0  0
 10  1  1  0  0  0  0
 11 13  1  1  0  0  0
 11  9  1  0  0  0  0
 12 11  1  0  0  0  0
 14 15  1  6  0  0  0
 16 14  1  0  0  0  0
 17 18  1  6  0  0  0
 17 16  1  0  0  0  0
 19  2  1  1  0  0  0
 19 20  1  0  0  0  0
 19 17  1  0  0  0  0
 20 21  1  6  0  0  0
 20 22  1  0  0  0  0
 22 23  1  1  0  0  0
 22 14  1  0  0  0  0
 24 23  1  1  0  0  0
 24 25  1  0  0  0  0
 25 27  1  0  0  0  0
 25 26  1  1  0  0  0
 27 28  1  1  0  0  0
 28 29  1  0  0  0  0
 30 31  1  6  0  0  0
 30 32  1  0  0  0  0
 30 27  1  0  0  0  0
 33 30  1  0  0  0  0
 34 33  1  0  0  0  0
 34 24  1  0  0  0  0
M  END
>  <CHROM.1>
-167.15297400,46.31705105,-156.68341340,93.47180654,-158.11555065,-90.05297783
-3.51848029,15.83876083,36.67896151,-0.77467605,-0.47033739,3.02748429

>  <Name>
lig.pdb

>  <RI>
0

>  <Rbt.Current_Directory>
/home/itssahil/PROJECTS/Mol_Feturizer/New_Systems/rnas/4k32

>  <Rbt.Executable>
rbdock ($Id: //depot/dev/client3/rdock/2013.1/src/exe/rbdock.cxx#4 $)

>  <Rbt.Library>
libRbt.so (2013.1, Build901 2013/11/27)

>  <Rbt.Parameter_File>
/export/apps/rDock/src/rDock_2013.1_src/data/scripts/dock_solv.prm

>  <Rbt.Receptor>
prm/pocket_docking_3.prm

>  <SCORE>
-19.9086

>  <SCORE.INTER>
-16.2406

>  <SCORE.INTER.CONST>
1

>  <SCORE.INTER.POLAR>
0

>  <SCORE.INTER.ROT>
6

>  <SCORE.INTER.SOLV>
25.4224

>  <SCORE.INTER.VDW>
-26.9012

>  <SCORE.INTER.norm>
-0.477666

>  <SCORE.INTRA>
-3.66795

>  <SCORE.INTRA.DIHEDRAL>
-7.23827

>  <SCORE.INTRA.DIHEDRAL.0>
18.0069

>  <SCORE.INTRA.POLAR>
0

>  <SCORE.INTRA.POLAR.0>
0

>  <SCORE.INTRA.REPUL>
0

>  <SCORE.INTRA.REPUL.0>
0

>  <SCORE.INTRA.SOLV>
-0.507534

>  <SCORE.INTRA.SOLV.lig_0>
-70.7393

>  <SCORE.INTRA.VDW>
0.204954

>  <SCORE.INTRA.VDW.0>
-3.23471

>  <SCORE.INTRA.norm>
-0.107881

>  <SCORE.RESTR>
0

>  <SCORE.RESTR.CAVITY>
0

>  <SCORE.RESTR.norm>
0

>  <SCORE.SYSTEM>
0

>  <SCORE.SYSTEM.CONST>
0

>  <SCORE.SYSTEM.DIHEDRAL>
0

>  <SCORE.SYSTEM.SOLV>
0

>  <SCORE.SYSTEM.norm>
0

>  <SCORE.heavy>
34

>  <SCORE.norm>
-0.585547

>  <RMSD>
0.762

$$$$
lig.pdb
 OpenBabel11021811503D
libRbt.so/2013.1/901 2013/11/27
 34 36  0  0  0  0  0  0  0  0999 V2000
   -1.2222   16.6593   35.2708 C   0  0  2  0  0  0  0  0  0  0  0  0
   -1.7192   17.0643   36.5511 O   0  0  0  0  0  0  0  0  0  0  0  0
    0.2875   16.1970   35.4395 C   0  0  2  0  0  0  0  0  0  0  0  0
    0.4125   15.0549   36.3749 N   0  0  0  0  0  0  0  0  0  0  0  0
    1.1378   17.3894   35.9457 C   0  0  1  0  0  0  0  0  0  0  0  0
    2.5031   16.9939   36.0972 O   0  0  0  0  0  0  0  0  0  0  0  0
    0.9988   18.5501   34.9445 C   0  0  2  0  0  0  0  0  0  0  0  0
    1.7815   19.6558   35.3975 O   0  0  0  0  0  0  0  0  0  0  0  0
   -0.5191   18.9540   34.8066 C   0  0  2  0  0  0  0  0  0  0  0  0
   -1.3289   17.8016   34.3572 O   0  0  0  0  0  0  0  0  0  0  0  0
   -0.7114   20.1105   33.7944 C   0  0  2  0  0  0  0  0  0  0  0  0
    0.2969   21.1027   33.9955 O   0  0  0  0  0  0  0  0  0  0  0  0
   -2.0749   20.7637   33.9586 C   0  0  0  0  0  0  0  0  0  0  0  0
   -5.5001   16.9992   38.5554 C   0  0  2  0  0  0  0  0  0  0  0  0
   -6.9391   17.1073   38.8079 N   0  0  0  0  0  0  0  0  0  0  0  0
   -5.0442   18.3365   37.9091 C   0  0  0  0  0  0  0  0  0  0  0  0
   -3.5147   18.2507   37.6557 C   0  0  2  0  0  0  0  0  0  0  0  0
   -3.0365   19.5021   37.0473 N   0  0  0  0  0  0  0  0  0  0  0  0
   -3.1732   17.0639   36.7153 C   0  0  2  0  0  0  0  0  0  0  0  0
   -3.6813   15.7376   37.3639 C   0  0  2  0  0  0  0  0  0  0  0  0
   -3.3755   14.6432   36.4890 O   0  0  0  0  0  0  0  0  0  0  0  0
   -5.2136   15.7820   37.5787 C   0  0  1  0  0  0  0  0  0  0  0  0
   -5.6004   14.5267   38.1907 O   0  0  0  0  0  0  0  0  0  0  0  0
   -6.9223   14.0392   37.8611 C   0  0  2  0  0  0  0  0  0  0  0  0
   -7.2603   12.9341   38.9296 C   0  0  2  0  0  0  0  0  0  0  0  0
   -7.2550   13.5028   40.2295 O   0  0  0  0  0  0  0  0  0  0  0  0
   -6.2015   11.7726   38.8176 C   0  0  1  0  0  0  0  0  0  0  0  0
   -6.4783   10.7022   39.8237 N   0  0  0  0  0  0  0  0  0  0  0  0
   -5.7965   11.0474   41.0896 C   0  0  0  0  0  0  0  0  0  0  0  0
   -6.2613   11.1864   37.3743 C   0  0  2  0  0  0  0  0  0  0  0  0
   -7.5700   10.6661   37.1458 O   0  0  0  0  0  0  0  0  0  0  0  0
   -5.2546   10.0554   37.1795 C   0  0  0  0  0  0  0  0  0  0  0  0
   -5.9718   12.3266   36.3461 C   0  0  0  0  0  0  0  0  0  0  0  0
   -6.9278   13.4418   36.5107 O   0  0  0  0  0  0  0  0  0  0  0  0
  1  3  1  0  0  0  0
  1  2  1  1  0  0  0
  3  5  1  0  0  0  0
  3  4  1  1  0  0  0
  5  6  1  6  0  0  0
  7  8  1  1  0  0  0
  7  5  1  0  0  0  0
  9 10  1  6  0  0  0
  9  7  1  0  0  0  0
 10  1  1  0  0  0  0
 11 13  1  1  0  0  0
 11  9  1  0  0  0  0
 12 11  1  0  0  0  0
 14 15  1  6  0  0  0
 16 14  1  0  0  0  0
 17 18  1  6  0  0  0
 17 16  1  0  0  0  0
 19  2  1  1  0  0  0
 19 20  1  0  0  0  0
 19 17  1  0  0  0  0
 20 21  1  6  0  0  0
 20 22  1  0  0  0  0
 22 23  1  1  0  0  0
 22 14  1  0  0  0  0
 24 23  1  1  0  0  0
 24 25  1  0  0  0  0
 25 27  1  0  0  0  0
 25 26  1  1  0  0  0
 27 28  1  1  0  0  0
 28 29  1  0  0  0  0
 30 31  1  6  0  0  0
 30 32  1  0  0  0  0
 30 27  1  0  0  0  0
 33 30  1  0  0  0  0
 34 33  1  0  0  0  0
 34 24  1  0  0  0  0
M  END
>  <CHROM.1>
-158.76011659,-43.13044697,-145.47589322,95.26525524,-164.15724178,-87.52808428
-3.43174088,15.75707511,36.88930403,-0.78817301,-0.36346094,3.00887291

>  <Name>
lig.pdb

>  <RI>
0

>  <Rbt.Current_Directory>
/home/itssahil/PROJECTS/Mol_Feturizer/New_Systems/rnas/4k32

>  <Rbt.Executable>
rbdock ($Id: //depot/dev/client3/rdock/2013.1/src/exe/rbdock.cxx#4 $)

>  <Rbt.Library>
libRbt.so (2013.1, Build901 2013/11/27)

>  <Rbt.Parameter_File>
/export/apps/rDock/src/rDock_2013.1_src/data/scripts/dock_solv.prm

>  <Rbt.Receptor>
prm/pocket_docking_2.prm

>  <SCORE>
-16.5059

>  <SCORE.INTER>
-14.5827

>  <SCORE.INTER.CONST>
1

>  <SCORE.INTER.POLAR>
0

>  <SCORE.INTER.ROT>
6

>  <SCORE.INTER.SOLV>
23.2909

>  <SCORE.INTER.VDW>
-25.0855

>  <SCORE.INTER.norm>
-0.428904

>  <SCORE.INTRA>
-1.93303

>  <SCORE.INTRA.DIHEDRAL>
-4.27977

>  <SCORE.INTRA.DIHEDRAL.0>
18.0069

>  <SCORE.INTRA.POLAR>
0

>  <SCORE.INTRA.POLAR.0>
0

>  <SCORE.INTRA.REPUL>
0

>  <SCORE.INTRA.REPUL.0>
0

>  <SCORE.INTRA.SOLV>
0.65071

>  <SCORE.INTRA.SOLV.lig_0>
-70.7393

>  <SCORE.INTRA.VDW>
-0.1185

>  <SCORE.INTRA.VDW.0>
-3.23471

>  <SCORE.INTRA.norm>
-0.0568538

>  <SCORE.RESTR>
0.0098672

>  <SCORE.RESTR.CAVITY>
0.0098672

>  <SCORE.RESTR.norm>
0.000290212

>  <SCORE.SYSTEM>
0

>  <SCORE.SYSTEM.CONST>
0

>  <SCORE.SYSTEM.DIHEDRAL>
0

>  <SCORE.SYSTEM.SOLV>
0

>  <SCORE.SYSTEM.norm>
0

>  <SCORE.heavy>
34

>  <SCORE.norm>
-0.485467

>  <RMSD>
0.763

$$$$
lig.pdb
 OpenBabel11021811503D
libRbt.so/2013.1/901 2013/11/27
 34 36  0  0  0  0  0  0  0  0999 V2000
   -1.1934   16.5771   35.2792 C   0  0  2  0  0  0  0  0  0  0  0  0
   -1.7047   17.1112   36.5054 O   0  0  0  0  0  0  0  0  0  0  0  0
    0.3836   16.4426   35.4069 C   0  0  2  0  0  0  0  0  0  0  0  0
    0.7712   15.5356   36.5124 N   0  0  0  0  0  0  0  0  0  0  0  0
    1.0036   17.8446   35.6323 C   0  0  1  0  0  0  0  0  0  0  0  0
    2.4253   17.7445   35.7429 O   0  0  0  0  0  0  0  0  0  0  0  0
    0.5958   18.7548   34.4602 C   0  0  2  0  0  0  0  0  0  0  0  0
    1.1644   20.0509   34.6536 O   0  0  0  0  0  0  0  0  0  0  0  0
   -0.9765   18.8372   34.3735 C   0  0  2  0  0  0  0  0  0  0  0  0
   -1.5622   17.4917   34.1937 O   0  0  0  0  0  0  0  0  0  0  0  0
   -1.4362   19.7315   33.1953 C   0  0  2  0  0  0  0  0  0  0  0  0
   -0.6807   19.4157   32.0243 O   0  0  0  0  0  0  0  0  0  0  0  0
   -1.2419   21.2054   33.5156 C   0  0  0  0  0  0  0  0  0  0  0  0
   -5.4960   17.0399   38.4896 C   0  0  2  0  0  0  0  0  0  0  0  0
   -6.9368   17.1435   38.7339 N   0  0  0  0  0  0  0  0  0  0  0  0
   -5.0417   18.3762   37.8403 C   0  0  0  0  0  0  0  0  0  0  0  0
   -3.5106   18.2953   37.5955 C   0  0  2  0  0  0  0  0  0  0  0  0
   -3.0339   19.5460   36.9846 N   0  0  0  0  0  0  0  0  0  0  0  0
   -3.1595   17.1059   36.6618 C   0  0  2  0  0  0  0  0  0  0  0  0
   -3.6660   15.7804   37.3131 C   0  0  2  0  0  0  0  0  0  0  0  0
   -3.3513   14.6836   36.4443 O   0  0  0  0  0  0  0  0  0  0  0  0
   -5.1997   15.8197   37.5195 C   0  0  1  0  0  0  0  0  0  0  0  0
   -5.5849   14.5655   38.1346 O   0  0  0  0  0  0  0  0  0  0  0  0
   -6.9089   14.0791   37.8116 C   0  0  2  0  0  0  0  0  0  0  0  0
   -7.2523   12.9915   38.8962 C   0  0  2  0  0  0  0  0  0  0  0  0
   -7.2451   13.5795   40.1875 O   0  0  0  0  0  0  0  0  0  0  0  0
   -6.1986   11.8237   38.8021 C   0  0  1  0  0  0  0  0  0  0  0  0
   -6.4807   10.7697   39.8238 N   0  0  0  0  0  0  0  0  0  0  0  0
   -5.7975   11.1304   41.0846 C   0  0  0  0  0  0  0  0  0  0  0  0
   -6.2603   11.2164   37.3676 C   0  0  2  0  0  0  0  0  0  0  0  0
   -7.5712   10.6986   37.1461 O   0  0  0  0  0  0  0  0  0  0  0  0
   -5.2586   10.0782   37.1902 C   0  0  0  0  0  0  0  0  0  0  0  0
   -5.9652   12.3399   36.3227 C   0  0  0  0  0  0  0  0  0  0  0  0
   -6.9163   13.4617   36.4701 O   0  0  0  0  0  0  0  0  0  0  0  0
  1  3  1  0  0  0  0
  1  2  1  1  0  0  0
  3  5  1  0  0  0  0
  3  4  1  1  0  0  0
  5  6  1  6  0  0  0
  7  8  1  1  0  0  0
  7  5  1  0  0  0  0
  9 10  1  6  0  0  0
  9  7  1  0  0  0  0
 10  1  1  0  0  0  0
 11 13  1  1  0  0  0
 11  9  1  0  0  0  0
 12 11  1  0  0  0  0
 14 15  1  6  0  0  0
 16 14  1  0  0  0  0
 17 18  1  6  0  0  0
 17 16  1  0  0  0  0
 19  2  1  1  0  0  0
 19 20  1  0  0  0  0
 19 17  1  0  0  0  0
 20 21  1  6  0  0  0
 20 22  1  0  0  0  0
 22 23  1  1  0  0  0
 22 14  1  0  0  0  0
 24 23  1  1  0  0  0
 24 25  1  0  0  0  0
 25 27  1  0  0  0  0
 25 26  1  1  0  0  0
 27 28  1  1  0  0  0
 28 29  1  0  0  0  0
 30 31  1  6  0  0  0
 30 32  1  0  0  0  0
 30 27  1  0  0  0  0
 33 30  1  0  0  0  0
 34 33  1  0  0  0  0
 34 24  1  0  0  0  0
M  END
>  <CHROM.1>
-170.40452946,45.02414999,-151.52833666,94.60788147,-163.28998671,-87.54925402
-3.49675592,15.79327524,36.69795964,-0.78558456,-0.44261709,3.00889668

>  <Name>
lig.pdb

>  <RI>
0

>  <Rbt.Current_Directory>
/home/itssahil/PROJECTS/Mol_Feturizer/New_Systems/rnas/4k32

>  <Rbt.Executable>
rbdock ($Id: //depot/dev/client3/rdock/2013.1/src/exe/rbdock.cxx#4 $)

>  <Rbt.Library>
libRbt.so (2013.1, Build901 2013/11/27)

>  <Rbt.Parameter_File>
/export/apps/rDock/src/rDock_2013.1_src/data/scripts/dock_solv.prm

>  <Rbt.Receptor>
prm/pocket_docking_2.prm

>  <SCORE>
-19.5596

>  <SCORE.INTER>
-15.9447

>  <SCORE.INTER.CONST>
1

>  <SCORE.INTER.POLAR>
0

>  <SCORE.INTER.ROT>
6

>  <SCORE.INTER.SOLV>
25.1736

>  <SCORE.INTER.VDW>
-26.621

>  <SCORE.INTER.norm>
-0.468961

>  <SCORE.INTRA>
-3.61494

>  <SCORE.INTRA.DIHEDRAL>
-7.20338

>  <SCORE.INTRA.DIHEDRAL.0>
18.0069

>  <SCORE.INTRA.POLAR>
0

>  <SCORE.INTRA.POLAR.0>
0

>  <SCORE.INTRA.REPUL>
0

>  <SCORE.INTRA.REPUL.0>
0

>  <SCORE.INTRA.SOLV>
-0.236884

>  <SCORE.INTRA.SOLV.lig_0>
-70.7393

>  <SCORE.INTRA.VDW>
0.105192

>  <SCORE.INTRA.VDW.0>
-3.23471

>  <SCORE.INTRA.norm>
-0.106322

>  <SCORE.RESTR>
0

>  <SCORE.RESTR.CAVITY>
0

>  <SCORE.RESTR.norm>
0

>  <SCORE.SYSTEM>
0

>  <SCORE.SYSTEM.CONST>
0

>  <SCORE.SYSTEM.DIHEDRAL>
0

>  <SCORE.SYSTEM.SOLV>
0

>  <SCORE.SYSTEM.norm>
0

>  <SCORE.heavy>
34

>  <SCORE.norm>
-0.575283

>  <RMSD>
0.765

$$$$
lig.pdb
 OpenBabel11021811503D
libRbt.so/2013.1/901 2013/11/27
 34 36  0  0  0  0  0  0  0  0999 V2000
   -1.2129   16.5858   35.2626 C   0  0  2  0  0  0  0  0  0  0  0  0
   -1.7228   17.1255   36.4869 O   0  0  0  0  0  0  0  0  0  0  0  0
    0.3630   16.4422   35.3929 C   0  0  2  0  0  0  0  0  0  0  0  0
    0.7437   15.5352   36.5007 N   0  0  0  0  0  0  0  0  0  0  0  0
    0.9910   17.8410   35.6163 C   0  0  1  0  0  0  0  0  0  0  0  0
    2.4119   17.7327   35.7291 O   0  0  0  0  0  0  0  0  0  0  0  0
    0.5903   18.7512   34.4417 C   0  0  2  0  0  0  0  0  0  0  0  0
    1.1663   20.0443   34.6333 O   0  0  0  0  0  0  0  0  0  0  0  0
   -0.9813   18.8428   34.3526 C   0  0  2  0  0  0  0  0  0  0  0  0
   -1.5748   17.5004   34.1747 O   0  0  0  0  0  0  0  0  0  0  0  0
   -1.4340   19.7373   33.1719 C   0  0  2  0  0  0  0  0  0  0  0  0
   -0.6660   19.4275   32.0075 O   0  0  0  0  0  0  0  0  0  0  0  0
   -1.2497   21.2114   33.4970 C   0  0  0  0  0  0  0  0  0  0  0  0
   -5.5100   17.0266   38.4780 C   0  0  2  0  0  0  0  0  0  0  0  0
   -6.9502   17.1269   38.7268 N   0  0  0  0  0  0  0  0  0  0  0  0
   -5.0569   18.3719   37.8466 C   0  0  0  0  0  0  0  0  0  0  0  0
   -3.5262   18.2942   37.5975 C   0  0  2  0  0  0  0  0  0  0  0  0
   -3.0507   19.5535   37.0032 N   0  0  0  0  0  0  0  0  0  0  0  0
   -3.1773   17.1181   36.6463 C   0  0  2  0  0  0  0  0  0  0  0  0
   -3.6826   15.7836   37.2799 C   0  0  2  0  0  0  0  0  0  0  0  0
   -3.3700   14.6992   36.3951 O   0  0  0  0  0  0  0  0  0  0  0  0
   -5.2159   15.8202   37.4901 C   0  0  1  0  0  0  0  0  0  0  0  0
   -5.6000   14.5575   38.0882 O   0  0  0  0  0  0  0  0  0  0  0  0
   -6.9298   14.0827   37.7722 C   0  0  2  0  0  0  0  0  0  0  0  0
   -7.2862   13.0148   38.8722 C   0  0  2  0  0  0  0  0  0  0  0  0
   -7.2716   13.6210   40.1550 O   0  0  0  0  0  0  0  0  0  0  0  0
   -6.2468   11.8332   38.7947 C   0  0  1  0  0  0  0  0  0  0  0  0
   -6.5414   10.7973   39.8313 N   0  0  0  0  0  0  0  0  0  0  0  0
   -5.7934   11.1270   41.0635 C   0  0  0  0  0  0  0  0  0  0  0  0
   -6.3162   11.2062   37.3690 C   0  0  2  0  0  0  0  0  0  0  0  0
   -7.6333   10.7014   37.1550 O   0  0  0  0  0  0  0  0  0  0  0  0
   -5.3283   10.0536   37.2078 C   0  0  0  0  0  0  0  0  0  0  0  0
   -6.0076   12.3111   36.3083 C   0  0  0  0  0  0  0  0  0  0  0  0
   -6.9450   13.4463   36.4397 O   0  0  0  0  0  0  0  0  0  0  0  0
  1  3  1  0  0  0  0
  1  2  1  1  0  0  0
  3  5  1  0  0  0  0
  3  4  1  1  0  0  0
  5  6  1  6  0  0  0
  7  8  1  1  0  0  0
  7  5  1  0  0  0  0
  9 10  1  6  0  0  0
  9  7  1  0  0  0  0
 10  1  1  0  0  0  0
 11 13  1  1  0  0  0
 11  9  1  0  0  0  0
 12 11  1  0  0  0  0
 14 15  1  6  0  0  0
 16 14  1  0  0  0  0
 17 18  1  6  0  0  0
 17 16  1  0  0  0  0
 19  2  1  1  0  0  0
 19 20  1  0  0  0  0
 19 17  1  0  0  0  0
 20 21  1  6  0  0  0
 20 22  1  0  0  0  0
 22 23  1  1  0  0  0
 22 14  1  0  0  0  0
 24 23  1  1  0  0  0
 24 25  1  0  0  0  0
 25 27  1  0  0  0  0
 25 26  1  1  0  0  0
 27 28  1  1  0  0  0
 28 29  1  0  0  0  0
 30 31  1  6  0  0  0
 30 32  1  0  0  0  0
 30 27  1  0  0  0  0
 33 30  1  0  0  0  0
 34 33  1  0  0  0  0
 34 24  1  0  0  0  0
M  END
>  <CHROM.1>
-169.87491283,44.22582506,-152.65063543,93.99299779,-161.33997726,-90.67660029
-3.51800447,15.79500698,36.68219791,-0.78240412,-0.44344463,3.01195292

>  <Name>
lig.pdb

>  <RI>
0

>  <Rbt.Current_Directory>
/home/itssahil/PROJECTS/Mol_Feturizer/New_Systems/rnas/4k32

>  <Rbt.Executable>
rbdock ($Id: //depot/dev/client3/rdock/2013.1/src/exe/rbdock.cxx#4 $)

>  <Rbt.Library>
libRbt.so (2013.1, Build901 2013/11/27)

>  <Rbt.Parameter_File>
/export/apps/rDock/src/rDock_2013.1_src/data/scripts/dock_solv.prm

>  <Rbt.Receptor>
prm/pocket_docking_2.prm

>  <SCORE>
-19.5168

>  <SCORE.INTER>
-15.8473

>  <SCORE.INTER.CONST>
1

>  <SCORE.INTER.POLAR>
0

>  <SCORE.INTER.ROT>
6

>  <SCORE.INTER.SOLV>
25.4122

>  <SCORE.INTER.VDW>
-26.6356

>  <SCORE.INTER.norm>
-0.466097

>  <SCORE.INTRA>
-3.67286

>  <SCORE.INTRA.DIHEDRAL>
-7.00415

>  <SCORE.INTRA.DIHEDRAL.0>
18.0069

>  <SCORE.INTRA.POLAR>
0

>  <SCORE.INTRA.POLAR.0>
0

>  <SCORE.INTRA.REPUL>
0

>  <SCORE.INTRA.REPUL.0>
0

>  <SCORE.INTRA.SOLV>
-0.276933

>  <SCORE.INTRA.SOLV.lig_0>
-70.7393

>  <SCORE.INTRA.VDW>
-0.0323172

>  <SCORE.INTRA.VDW.0>
-3.23471

>  <SCORE.INTRA.norm>
-0.108025

>  <SCORE.RESTR>
0.00338006

>  <SCORE.RESTR.CAVITY>
0.00338006

>  <SCORE.RESTR.norm>
9.94136e-05

>  <SCORE.SYSTEM>
0

>  <SCORE.SYSTEM.CONST>
0

>  <SCORE.SYSTEM.DIHEDRAL>
0

>  <SCORE.SYSTEM.SOLV>
0

>  <SCORE.SYSTEM.norm>
0

>  <SCORE.heavy>
34

>  <SCORE.norm>
-0.574023

>  <RMSD>
0.765

$$$$
lig.pdb
 OpenBabel11021811503D
libRbt.so/2013.1/901 2013/11/27
 34 36  0  0  0  0  0  0  0  0999 V2000
   -1.2392   16.6299   35.4221 C   0  0  2  0  0  0  0  0  0  0  0  0
   -1.7651   17.2203   36.6159 O   0  0  0  0  0  0  0  0  0  0  0  0
    0.3345   16.4893   35.5805 C   0  0  2  0  0  0  0  0  0  0  0  0
    0.6976   15.6281   36.7301 N   0  0  0  0  0  0  0  0  0  0  0  0
    0.9622   17.8952   35.7551 C   0  0  1  0  0  0  0  0  0  0  0  0
    2.3812   17.7894   35.8923 O   0  0  0  0  0  0  0  0  0  0  0  0
    0.5801   18.7568   34.5384 C   0  0  2  0  0  0  0  0  0  0  0  0
    1.1561   20.0558   34.6848 O   0  0  0  0  0  0  0  0  0  0  0  0
   -0.9899   18.8471   34.4233 C   0  0  2  0  0  0  0  0  0  0  0  0
   -1.5837   17.4994   34.2925 O   0  0  0  0  0  0  0  0  0  0  0  0
   -1.4240   19.6929   33.2005 C   0  0  2  0  0  0  0  0  0  0  0  0
   -0.6818   19.2929   32.0470 O   0  0  0  0  0  0  0  0  0  0  0  0
   -1.1825   21.1746   33.4435 C   0  0  0  0  0  0  0  0  0  0  0  0
   -5.5608   17.0848   38.5885 C   0  0  2  0  0  0  0  0  0  0  0  0
   -7.0033   17.1690   38.8297 N   0  0  0  0  0  0  0  0  0  0  0  0
   -5.1205   18.4327   37.9536 C   0  0  0  0  0  0  0  0  0  0  0  0
   -3.5878   18.3722   37.7124 C   0  0  2  0  0  0  0  0  0  0  0  0
   -3.1243   19.6345   37.1152 N   0  0  0  0  0  0  0  0  0  0  0  0
   -3.2202   17.1964   36.7681 C   0  0  2  0  0  0  0  0  0  0  0  0
   -3.7128   15.8586   37.4048 C   0  0  2  0  0  0  0  0  0  0  0  0
   -3.3828   14.7743   36.5262 O   0  0  0  0  0  0  0  0  0  0  0  0
   -5.2474   15.8779   37.6073 C   0  0  1  0  0  0  0  0  0  0  0  0
   -5.6195   14.6131   38.2088 O   0  0  0  0  0  0  0  0  0  0  0  0
   -6.9316   14.1080   37.8670 C   0  0  2  0  0  0  0  0  0  0  0  0
   -7.2733   13.0126   38.9443 C   0  0  2  0  0  0  0  0  0  0  0  0
   -7.2921   13.5973   40.2370 O   0  0  0  0  0  0  0  0  0  0  0  0
   -6.2013   11.8609   38.8615 C   0  0  1  0  0  0  0  0  0  0  0  0
   -6.4812   10.8002   39.8768 N   0  0  0  0  0  0  0  0  0  0  0  0
   -5.7386   11.1159   41.1160 C   0  0  0  0  0  0  0  0  0  0  0  0
   -6.2348   11.2564   37.4249 C   0  0  2  0  0  0  0  0  0  0  0  0
   -7.5348   10.7199   37.1846 O   0  0  0  0  0  0  0  0  0  0  0  0
   -5.2140   10.1336   37.2582 C   0  0  0  0  0  0  0  0  0  0  0  0
   -5.9425   12.3869   36.3868 C   0  0  0  0  0  0  0  0  0  0  0  0
   -6.9120   13.4940   36.5241 O   0  0  0  0  0  0  0  0  0  0  0  0
  1  3  1  0  0  0  0
  1  2  1  1  0  0  0
  3  5  1  0  0  0  0
  3  4  1  1  0  0  0
  5  6  1  6  0  0  0
  7  8  1  1  0  0  0
  7  5  1  0  0  0  0
  9 10  1  6  0  0  0
  9  7  1  0  0  0  0
 10  1  1  0  0  0  0
 11 13  1  1  0  0  0
 11  9  1  0  0  0  0
 12 11  1  0  0  0  0
 14 15  1  6  0  0  0
 16 14  1  0  0  0  0
 17 18  1  6  0  0  0
 17 16  1  0  0  0  0
 19  2  1  1  0  0  0
 19 20  1  0  0  0  0
 19 17  1  0  0  0  0
 20 21  1  6  0  0  0
 20 22  1  0  0  0  0
 22 23  1  1  0  0  0
 22 14  1  0  0  0  0
 24 23  1  1  0  0  0
 24 25  1  0  0  0  0
 25 27  1  0  0  0  0
 25 26  1  1  0  0  0
 27 28  1  1  0  0  0
 28 29  1  0  0  0  0
 30 31  1  6  0  0  0
 30 32  1  0  0  0  0
 30 27  1  0  0  0  0
 33 30  1  0  0  0  0
 34 33  1  0  0  0  0
 34 24  1  0  0  0  0
M  END
>  <CHROM.1>
-168.61719418,46.79133089,-155.23781796,95.18663821,-162.99201547,-91.71958557
-3.51962918,15.82789696,36.77661408,-0.78216036,-0.44976632,3.01611406

>  <Name>
lig.pdb

>  <RI>
0

>  <Rbt.Current_Directory>
/home/itssahil/PROJECTS/Mol_Feturizer/New_Systems/rnas/4k32

>  <Rbt.Executable>
rbdock ($Id: //depot/dev/client3/rdock/2013.1/src/exe/rbdock.cxx#4 $)

>  <Rbt.Library>
libRbt.so (2013.1, Build901 2013/11/27)

>  <Rbt.Parameter_File>
/export/apps/rDock/src/rDock_2013.1_src/data/scripts/dock_solv.prm

>  <Rbt.Receptor>
prm/pocket_docking_6.prm

>  <SCORE>
-19.7545

>  <SCORE.INTER>
-15.7434

>  <SCORE.INTER.CONST>
1

>  <SCORE.INTER.POLAR>
0

>  <SCORE.INTER.ROT>
6

>  <SCORE.INTER.SOLV>
24.876

>  <SCORE.INTER.VDW>
-26.3876

>  <SCORE.INTER.norm>
-0.463041

>  <SCORE.INTRA>
-4.01111

>  <SCORE.INTRA.DIHEDRAL>
-7.60167

>  <SCORE.INTRA.DIHEDRAL.0>
18.0069

>  <SCORE.INTRA.POLAR>
0

>  <SCORE.INTRA.POLAR.0>
0

>  <SCORE.INTRA.REPUL>
0

>  <SCORE.INTRA.REPUL.0>
0

>  <SCORE.INTRA.SOLV>
-0.595525

>  <SCORE.INTRA.SOLV.lig_0>
-70.7393

>  <SCORE.INTRA.VDW>
0.0874896

>  <SCORE.INTRA.VDW.0>
-3.23471

>  <SCORE.INTRA.norm>
-0.117974

>  <SCORE.RESTR>
0

>  <SCORE.RESTR.CAVITY>
0

>  <SCORE.RESTR.norm>
0

>  <SCORE.SYSTEM>
0

>  <SCORE.SYSTEM.CONST>
0

>  <SCORE.SYSTEM.DIHEDRAL>
0

>  <SCORE.SYSTEM.SOLV>
0

>  <SCORE.SYSTEM.norm>
0

>  <SCORE.heavy>
34

>  <SCORE.norm>
-0.581014

>  <RMSD>
0.774

$$$$
lig.pdb
 OpenBabel11021811503D
libRbt.so/2013.1/901 2013/11/27
 34 36  0  0  0  0  0  0  0  0999 V2000
   -1.2373   16.6176   35.3118 C   0  0  2  0  0  0  0  0  0  0  0  0
   -1.7406   17.1846   36.5265 O   0  0  0  0  0  0  0  0  0  0  0  0
    0.3382   16.4677   35.4406 C   0  0  2  0  0  0  0  0  0  0  0  0
    0.7170   15.5811   36.5654 N   0  0  0  0  0  0  0  0  0  0  0  0
    0.9746   17.8672   35.6340 C   0  0  1  0  0  0  0  0  0  0  0  0
    2.3952   17.7532   35.7450 O   0  0  0  0  0  0  0  0  0  0  0  0
    0.5756   18.7558   34.4424 C   0  0  2  0  0  0  0  0  0  0  0  0
    1.1593   20.0492   34.6063 O   0  0  0  0  0  0  0  0  0  0  0  0
   -0.9958   18.8544   34.3558 C   0  0  2  0  0  0  0  0  0  0  0  0
   -1.5972   17.5120   34.2067 O   0  0  0  0  0  0  0  0  0  0  0  0
   -1.4469   19.7275   33.1586 C   0  0  2  0  0  0  0  0  0  0  0  0
   -0.7488   19.3279   31.9777 O   0  0  0  0  0  0  0  0  0  0  0  0
   -1.1646   21.1997   33.4148 C   0  0  0  0  0  0  0  0  0  0  0  0
   -5.5159   17.1080   38.5409 C   0  0  2  0  0  0  0  0  0  0  0  0
   -6.9546   17.2114   38.7971 N   0  0  0  0  0  0  0  0  0  0  0  0
   -5.0662   18.4464   37.8926 C   0  0  0  0  0  0  0  0  0  0  0  0
   -3.5371   18.3656   37.6352 C   0  0  2  0  0  0  0  0  0  0  0  0
   -3.0648   19.6183   37.0249 N   0  0  0  0  0  0  0  0  0  0  0  0
   -3.1941   17.1794   36.6946 C   0  0  2  0  0  0  0  0  0  0  0  0
   -3.6960   15.8518   37.3452 C   0  0  2  0  0  0  0  0  0  0  0  0
   -3.3889   14.7580   36.4701 O   0  0  0  0  0  0  0  0  0  0  0  0
   -5.2280   15.8912   37.5641 C   0  0  1  0  0  0  0  0  0  0  0  0
   -5.6089   14.6349   38.1778 O   0  0  0  0  0  0  0  0  0  0  0  0
   -6.9172   14.1265   37.8263 C   0  0  2  0  0  0  0  0  0  0  0  0
   -7.2759   13.0499   38.9171 C   0  0  2  0  0  0  0  0  0  0  0  0
   -7.3113   13.6563   40.1994 O   0  0  0  0  0  0  0  0  0  0  0  0
   -6.2051   11.8951   38.8685 C   0  0  1  0  0  0  0  0  0  0  0  0
   -6.5012   10.8521   39.8975 N   0  0  0  0  0  0  0  0  0  0  0  0
   -5.8022   11.2053   41.1518 C   0  0  0  0  0  0  0  0  0  0  0  0
   -6.2200   11.2665   37.4419 C   0  0  2  0  0  0  0  0  0  0  0  0
   -7.5176   10.7283   37.1927 O   0  0  0  0  0  0  0  0  0  0  0  0
   -5.1992   10.1393   37.3082 C   0  0  0  0  0  0  0  0  0  0  0  0
   -5.9111   12.3789   36.3891 C   0  0  0  0  0  0  0  0  0  0  0  0
   -6.8803   13.4899   36.4944 O   0  0  0  0  0  0  0  0  0  0  0  0
  1  3  1  0  0  0  0
  1  2  1  1  0  0  0
  3  5  1  0  0  0  0
  3  4  1  1  0  0  0
  5  6  1  6  0  0  0
  7  8  1  1  0  0  0
  7  5  1  0  0  0  0
  9 10  1  6  0  0  0
  9  7  1  0  0  0  0
 10  1  1  0  0  0  0
 11 13  1  1  0  0  0
 11  9  1  0  0  0  0
 12 11  1  0  0  0  0
 14 15  1  6  0  0  0
 16 14  1  0  0  0  0
 17 18  1  6  0  0  0
 17 16  1  0  0  0  0
 19  2  1  1  0  0  0
 19 20  1  0  0  0  0
 19 17  1  0  0  0  0
 20 21  1  6  0  0  0
 20 22  1  0  0  0  0
 22 23  1  1  0  0  0
 22 14  1  0  0  0  0
 24 23  1  1  0  0  0
 24 25  1  0  0  0  0
 25 27  1  0  0  0  0
 25 26  1  1  0  0  0
 27 28  1  1  0  0  0
 28 29  1  0  0  0  0
 30 31  1  6  0  0  0
 30 32  1  0  0  0  0
 30 27  1  0  0  0  0
 33 30  1  0  0  0  0
 34 33  1  0  0  0  0
 34 24  1  0  0  0  0
M  END
>  <CHROM.1>
-169.42450408,48.15412488,-153.36287004,96.72377233,-162.77218007,-90.32083716
-3.51071483,15.83622712,36.72369509,-0.77929653,-0.45998330,3.01388447

>  <Name>
lig.pdb

>  <RI>
0

>  <Rbt.Current_Directory>
/home/itssahil/PROJECTS/Mol_Feturizer/New_Systems/rnas/4k32

>  <Rbt.Executable>
rbdock ($Id: //depot/dev/client3/rdock/2013.1/src/exe/rbdock.cxx#4 $)

>  <Rbt.Library>
libRbt.so (2013.1, Build901 2013/11/27)

>  <Rbt.Parameter_File>
/export/apps/rDock/src/rDock_2013.1_src/data/scripts/dock_solv.prm

>  <Rbt.Receptor>
prm/pocket_docking_3.prm

>  <SCORE>
-19.7631

>  <SCORE.INTER>
-16.1318

>  <SCORE.INTER.CONST>
1

>  <SCORE.INTER.POLAR>
0

>  <SCORE.INTER.ROT>
6

>  <SCORE.INTER.SOLV>
25.0623

>  <SCORE.INTER.VDW>
-26.7086

>  <SCORE.INTER.norm>
-0.474465

>  <SCORE.INTRA>
-3.63129

>  <SCORE.INTRA.DIHEDRAL>
-7.19544

>  <SCORE.INTRA.DIHEDRAL.0>
18.0069

>  <SCORE.INTRA.POLAR>
0

>  <SCORE.INTRA.POLAR.0>
0

>  <SCORE.INTRA.REPUL>
0

>  <SCORE.INTRA.REPUL.0>
0

>  <SCORE.INTRA.SOLV>
-0.443105

>  <SCORE.INTRA.SOLV.lig_0>
-70.7393

>  <SCORE.INTRA.VDW>
0.187981

>  <SCORE.INTRA.VDW.0>
-3.23471

>  <SCORE.INTRA.norm>
-0.106803

>  <SCORE.RESTR>
0

>  <SCORE.RESTR.CAVITY>
0

>  <SCORE.RESTR.norm>
0

>  <SCORE.SYSTEM>
0

>  <SCORE.SYSTEM.CONST>
0

>  <SCORE.SYSTEM.DIHEDRAL>
0

>  <SCORE.SYSTEM.SOLV>
0

>  <SCORE.SYSTEM.norm>
0

>  <SCORE.heavy>
34

>  <SCORE.norm>
-0.581267

>  <RMSD>
0.777

$$$$
lig.pdb
 OpenBabel11021811503D
libRbt.so/2013.1/901 2013/11/27
 34 36  0  0  0  0  0  0  0  0999 V2000
   -1.3619   16.6123   35.4084 C   0  0  2  0  0  0  0  0  0  0  0  0
   -1.8507   17.2162   36.6112 O   0  0  0  0  0  0  0  0  0  0  0  0
    0.2020   16.3827   35.5593 C   0  0  2  0  0  0  0  0  0  0  0  0
    0.5201   15.4885   36.6969 N   0  0  0  0  0  0  0  0  0  0  0  0
    0.9073   17.7492   35.7486 C   0  0  1  0  0  0  0  0  0  0  0  0
    2.3186   17.5632   35.8794 O   0  0  0  0  0  0  0  0  0  0  0  0
    0.5699   18.6458   34.5440 C   0  0  2  0  0  0  0  0  0  0  0  0
    1.2176   19.9089   34.7040 O   0  0  0  0  0  0  0  0  0  0  0  0
   -0.9930   18.8244   34.4358 C   0  0  2  0  0  0  0  0  0  0  0  0
   -1.6611   17.5134   34.2907 O   0  0  0  0  0  0  0  0  0  0  0  0
   -1.3832   19.7081   33.2250 C   0  0  2  0  0  0  0  0  0  0  0  0
   -0.6686   19.2810   32.0637 O   0  0  0  0  0  0  0  0  0  0  0  0
   -1.0579   21.1708   33.4846 C   0  0  0  0  0  0  0  0  0  0  0  0
   -5.5884   17.0583   38.6900 C   0  0  2  0  0  0  0  0  0  0  0  0
   -7.0224   17.1481   38.9757 N   0  0  0  0  0  0  0  0  0  0  0  0
   -5.1542   18.4196   38.0798 C   0  0  0  0  0  0  0  0  0  0  0  0
   -3.6298   18.3527   37.7921 C   0  0  2  0  0  0  0  0  0  0  0  0
   -3.1721   19.6270   37.2164 N   0  0  0  0  0  0  0  0  0  0  0  0
   -3.3009   17.2004   36.8054 C   0  0  2  0  0  0  0  0  0  0  0  0
   -3.7872   15.8497   37.4193 C   0  0  2  0  0  0  0  0  0  0  0  0
   -3.4932   14.7874   36.5019 O   0  0  0  0  0  0  0  0  0  0  0  0
   -5.3150   15.8765   37.6672 C   0  0  1  0  0  0  0  0  0  0  0  0
   -5.6813   14.5988   38.2444 O   0  0  0  0  0  0  0  0  0  0  0  0
   -6.9780   14.0791   37.8675 C   0  0  2  0  0  0  0  0  0  0  0  0
   -7.3411   12.9874   38.9416 C   0  0  2  0  0  0  0  0  0  0  0  0
   -7.4033   13.5801   40.2293 O   0  0  0  0  0  0  0  0  0  0  0  0
   -6.2564   11.8453   38.8981 C   0  0  1  0  0  0  0  0  0  0  0  0
   -6.5562   10.7885   39.9118 N   0  0  0  0  0  0  0  0  0  0  0  0
   -5.8287   11.1027   41.1602 C   0  0  0  0  0  0  0  0  0  0  0  0
   -6.2419   11.2314   37.4651 C   0  0  2  0  0  0  0  0  0  0  0  0
   -7.5292   10.6810   37.1904 O   0  0  0  0  0  0  0  0  0  0  0  0
   -5.2063   10.1173   37.3360 C   0  0  0  0  0  0  0  0  0  0  0  0
   -5.9297   12.3579   36.4285 C   0  0  0  0  0  0  0  0  0  0  0  0
   -6.9131   13.4566   36.5299 O   0  0  0  0  0  0  0  0  0  0  0  0
  1  3  1  0  0  0  0
  1  2  1  1  0  0  0
  3  5  1  0  0  0  0
  3  4  1  1  0  0  0
  5  6  1  6  0  0  0
  7  8  1  1  0  0  0
  7  5  1  0  0  0  0
  9 10  1  6  0  0  0
  9  7  1  0  0  0  0
 10  1  1  0  0  0  0
 11 13  1  1  0  0  0
 11  9  1  0  0  0  0
 12 11  1  0  0  0  0
 14 15  1  6  0  0  0
 16 14  1  0  0  0  0
 17 18  1  6  0  0  0
 17 16  1  0  0  0  0
 19  2  1  1  0  0  0
 19 20  1  0  0  0  0
 19 17  1  0  0  0  0
 20 21  1  6  0  0  0
 20 22  1  0  0  0  0
 22 23  1  1  0  0  0
 22 14  1  0  0  0  0
 24 23  1  1  0  0  0
 24 25  1  0  0  0  0
 25 27  1  0  0  0  0
 25 26  1  1  0  0  0
 27 28  1  1  0  0  0
 28 29  1  0  0  0  0
 30 31  1  6  0  0  0
 30 32  1  0  0  0  0
 30 27  1  0  0  0  0
 33 30  1  0  0  0  0
 34 33  1  0  0  0  0
 34 24  1  0  0  0  0
M  END
>  <CHROM.1>
-165.12776270,46.83750021,-157.36949756,98.52269775,-161.76248751,-93.00400673
-3.56262419,15.79051717,36.80466432,-0.76144221,-0.48420542,3.04974778

>  <Name>
lig.pdb

>  <RI>
0

>  <Rbt.Current_Directory>
/home/itssahil/PROJECTS/Mol_Feturizer/New_Systems/rnas/4k32

>  <Rbt.Executable>
rbdock ($Id: //depot/dev/client3/rdock/2013.1/src/exe/rbdock.cxx#4 $)

>  <Rbt.Library>
libRbt.so (2013.1, Build901 2013/11/27)

>  <Rbt.Parameter_File>
/export/apps/rDock/src/rDock_2013.1_src/data/scripts/dock_solv.prm

>  <Rbt.Receptor>
prm/pocket_docking_8.prm

>  <SCORE>
-19.52

>  <SCORE.INTER>
-15.8704

>  <SCORE.INTER.CONST>
1

>  <SCORE.INTER.POLAR>
0

>  <SCORE.INTER.ROT>
6

>  <SCORE.INTER.SOLV>
24.7368

>  <SCORE.INTER.VDW>
-26.4259

>  <SCORE.INTER.norm>
-0.466778

>  <SCORE.INTRA>
-3.65698

>  <SCORE.INTRA.DIHEDRAL>
-6.76449

>  <SCORE.INTRA.DIHEDRAL.0>
18.0069

>  <SCORE.INTRA.POLAR>
0

>  <SCORE.INTRA.POLAR.0>
0

>  <SCORE.INTRA.REPUL>
0

>  <SCORE.INTRA.REPUL.0>
0

>  <SCORE.INTRA.SOLV>
-0.693017

>  <SCORE.INTRA.SOLV.lig_0>
-70.7393

>  <SCORE.INTRA.VDW>
0.0717676

>  <SCORE.INTRA.VDW.0>
-3.23471

>  <SCORE.INTRA.norm>
-0.107558

>  <SCORE.RESTR>
0.00742796

>  <SCORE.RESTR.CAVITY>
0.00742796

>  <SCORE.RESTR.norm>
0.000218469

>  <SCORE.SYSTEM>
0

>  <SCORE.SYSTEM.CONST>
0

>  <SCORE.SYSTEM.DIHEDRAL>
0

>  <SCORE.SYSTEM.SOLV>
0

>  <SCORE.SYSTEM.norm>
0

>  <SCORE.heavy>
34

>  <SCORE.norm>
-0.574118

>  <RMSD>
0.780

$$$$
lig.pdb
 OpenBabel11021811503D
libRbt.so/2013.1/901 2013/11/27
 34 36  0  0  0  0  0  0  0  0999 V2000
   -1.2593   16.7503   35.2612 C   0  0  2  0  0  0  0  0  0  0  0  0
   -1.8328   17.3661   36.4197 O   0  0  0  0  0  0  0  0  0  0  0  0
    0.1428   16.1240   35.6653 C   0  0  2  0  0  0  0  0  0  0  0  0
    0.0025   15.0962   36.7230 N   0  0  0  0  0  0  0  0  0  0  0  0
    1.0908   17.2511   36.1469 C   0  0  1  0  0  0  0  0  0  0  0  0
    2.3620   16.7068   36.5089 O   0  0  0  0  0  0  0  0  0  0  0  0
    1.2272   18.2912   35.0206 C   0  0  2  0  0  0  0  0  0  0  0  0
    2.1024   19.3351   35.4503 O   0  0  0  0  0  0  0  0  0  0  0  0
   -0.1946   18.8648   34.6520 C   0  0  2  0  0  0  0  0  0  0  0  0
   -1.1034   17.7787   34.2273 O   0  0  0  0  0  0  0  0  0  0  0  0
   -0.1101   19.9061   33.5085 C   0  0  2  0  0  0  0  0  0  0  0  0
    0.7382   20.9873   33.9000 O   0  0  0  0  0  0  0  0  0  0  0  0
   -1.4837   20.4645   33.1709 C   0  0  0  0  0  0  0  0  0  0  0  0
   -5.5702   16.6750   38.3872 C   0  0  2  0  0  0  0  0  0  0  0  0
   -7.0096   16.6283   38.6553 N   0  0  0  0  0  0  0  0  0  0  0  0
   -5.2255   18.1329   37.9752 C   0  0  0  0  0  0  0  0  0  0  0  0
   -3.6975   18.2086   37.7099 C   0  0  2  0  0  0  0  0  0  0  0  0
   -3.3236   19.5774   37.3209 N   0  0  0  0  0  0  0  0  0  0  0  0
   -3.2802   17.2264   36.5826 C   0  0  2  0  0  0  0  0  0  0  0  0
   -3.6776   15.7750   36.9987 C   0  0  2  0  0  0  0  0  0  0  0  0
   -3.3020   14.8700   35.9516 O   0  0  0  0  0  0  0  0  0  0  0  0
   -5.2059   15.6648   37.2191 C   0  0  1  0  0  0  0  0  0  0  0  0
   -5.4883   14.2986   37.6109 O   0  0  0  0  0  0  0  0  0  0  0  0
   -6.8344   13.8306   37.3606 C   0  0  2  0  0  0  0  0  0  0  0  0
   -7.2075   12.9009   38.5747 C   0  0  2  0  0  0  0  0  0  0  0  0
   -7.1610   13.6439   39.7826 O   0  0  0  0  0  0  0  0  0  0  0  0
   -6.2023   11.6884   38.6191 C   0  0  1  0  0  0  0  0  0  0  0  0
   -6.5134   10.7817   39.7661 N   0  0  0  0  0  0  0  0  0  0  0  0
   -5.7333   11.2161   40.9447 C   0  0  0  0  0  0  0  0  0  0  0  0
   -6.3057   10.9107   37.2718 C   0  0  2  0  0  0  0  0  0  0  0  0
   -7.6388   10.4236   37.1260 O   0  0  0  0  0  0  0  0  0  0  0  0
   -5.3522    9.7192   37.2303 C   0  0  0  0  0  0  0  0  0  0  0  0
   -5.9790   11.8828   36.0931 C   0  0  0  0  0  0  0  0  0  0  0  0
   -6.8828   13.0522   36.1066 O   0  0  0  0  0  0  0  0  0  0  0  0
  1  3  1  0  0  0  0
  1  2  1  1  0  0  0
  3  5  1  0  0  0  0
  3  4  1  1  0  0  0
  5  6  1  6  0  0  0
  7  8  1  1  0  0  0
  7  5  1  0  0  0  0
  9 10  1  6  0  0  0
  9  7  1  0  0  0  0
 10  1  1  0  0  0  0
 11 13  1  1  0  0  0
 11  9  1  0  0  0  0
 12 11  1  0  0  0  0
 14 15  1  6  0  0  0
 16 14  1  0  0  0  0
 17 18  1  6  0  0  0
 17 16  1  0  0  0  0
 19  2  1  1  0  0  0
 19 20  1  0  0  0  0
 19 17  1  0  0  0  0
 20 21  1  6  0  0  0
 20 22  1  0  0  0  0
 22 23  1  1  0  0  0
 22 14  1  0  0  0  0
 24 23  1  1  0  0  0
 24 25  1  0  0  0  0
 25 27  1  0  0  0  0
 25 26  1  1  0  0  0
 27 28  1  1  0  0  0
 28 29  1  0  0  0  0
 30 31  1  6  0  0  0
 30 32  1  0  0  0  0
 30 27  1  0  0  0  0
 33 30  1  0  0  0  0
 34 33  1  0  0  0  0
 34 24  1  0  0  0  0
M  END
>  <CHROM.1>
-141.67660023,-59.13882001,-168.22275046,87.47940693,-143.03648829,-91.16195479
-3.39222736,15.64319322,36.75050003,-0.78016667,-0.33830551,3.01593045

>  <Name>
lig.pdb

>  <RI>
0

>  <Rbt.Current_Directory>
/home/itssahil/PROJECTS/Mol_Feturizer/New_Systems/rnas/4k32

>  <Rbt.Executable>
rbdock ($Id: //depot/dev/client3/rdock/2013.1/src/exe/rbdock.cxx#4 $)

>  <Rbt.Library>
libRbt.so (2013.1, Build901 2013/11/27)

>  <Rbt.Parameter_File>
/export/apps/rDock/src/rDock_2013.1_src/data/scripts/dock_solv.prm

>  <Rbt.Receptor>
prm/pocket_docking_4.prm

>  <SCORE>
-18.7234

>  <SCORE.INTER>
-17.1499

>  <SCORE.INTER.CONST>
1

>  <SCORE.INTER.POLAR>
0

>  <SCORE.INTER.ROT>
6

>  <SCORE.INTER.SOLV>
23.6668

>  <SCORE.INTER.VDW>
-26.9222

>  <SCORE.INTER.norm>
-0.504408

>  <SCORE.INTRA>
-1.57584

>  <SCORE.INTRA.DIHEDRAL>
-3.55642

>  <SCORE.INTRA.DIHEDRAL.0>
18.0069

>  <SCORE.INTRA.POLAR>
0

>  <SCORE.INTRA.POLAR.0>
0

>  <SCORE.INTRA.REPUL>
0

>  <SCORE.INTRA.REPUL.0>
0

>  <SCORE.INTRA.SOLV>
0.0937447

>  <SCORE.INTRA.SOLV.lig_0>
-70.7393

>  <SCORE.INTRA.VDW>
0.155498

>  <SCORE.INTRA.VDW.0>
-3.23471

>  <SCORE.INTRA.norm>
-0.0463482

>  <SCORE.RESTR>
0.00237203

>  <SCORE.RESTR.CAVITY>
0.00237203

>  <SCORE.RESTR.norm>
6.97655e-05

>  <SCORE.SYSTEM>
0

>  <SCORE.SYSTEM.CONST>
0

>  <SCORE.SYSTEM.DIHEDRAL>
0

>  <SCORE.SYSTEM.SOLV>
0

>  <SCORE.SYSTEM.norm>
0

>  <SCORE.heavy>
34

>  <SCORE.norm>
-0.550687

>  <RMSD>
0.784

$$$$
lig.pdb
 OpenBabel11021811503D
libRbt.so/2013.1/901 2013/11/27
 34 36  0  0  0  0  0  0  0  0999 V2000
   -1.4126   16.6917   35.2434 C   0  0  2  0  0  0  0  0  0  0  0  0
   -1.9949   17.3428   36.3780 O   0  0  0  0  0  0  0  0  0  0  0  0
   -0.0671   15.9850   35.7035 C   0  0  2  0  0  0  0  0  0  0  0  0
   -0.3098   14.9697   36.7547 N   0  0  0  0  0  0  0  0  0  0  0  0
    0.9255   17.0556   36.2227 C   0  0  1  0  0  0  0  0  0  0  0  0
    2.1470   16.4384   36.6355 O   0  0  0  0  0  0  0  0  0  0  0  0
    1.1678   18.0831   35.1028 C   0  0  2  0  0  0  0  0  0  0  0  0
    2.0850   19.0749   35.5673 O   0  0  0  0  0  0  0  0  0  0  0  0
   -0.2018   18.7384   34.6774 C   0  0  2  0  0  0  0  0  0  0  0  0
   -1.1552   17.7067   34.2166 O   0  0  0  0  0  0  0  0  0  0  0  0
   -0.0104   19.7703   33.5383 C   0  0  2  0  0  0  0  0  0  0  0  0
    0.8630   20.8144   33.9724 O   0  0  0  0  0  0  0  0  0  0  0  0
   -1.3381   20.3876   33.1270 C   0  0  0  0  0  0  0  0  0  0  0  0
   -5.6665   16.4787   38.4000 C   0  0  2  0  0  0  0  0  0  0  0  0
   -7.0977   16.3834   38.6980 N   0  0  0  0  0  0  0  0  0  0  0  0
   -5.3695   17.9597   38.0362 C   0  0  0  0  0  0  0  0  0  0  0  0
   -3.8504   18.0862   37.7402 C   0  0  2  0  0  0  0  0  0  0  0  0
   -3.5214   19.4782   37.3952 N   0  0  0  0  0  0  0  0  0  0  0  0
   -3.4339   17.1584   36.5674 C   0  0  2  0  0  0  0  0  0  0  0  0
   -3.7839   15.6823   36.9368 C   0  0  2  0  0  0  0  0  0  0  0  0
   -3.4092   14.8274   35.8481 O   0  0  0  0  0  0  0  0  0  0  0  0
   -5.3033   15.5230   37.1867 C   0  0  1  0  0  0  0  0  0  0  0  0
   -5.5409   14.1360   37.5325 O   0  0  0  0  0  0  0  0  0  0  0  0
   -6.8786   13.6405   37.2904 C   0  0  2  0  0  0  0  0  0  0  0  0
   -7.2372   12.7282   38.5219 C   0  0  2  0  0  0  0  0  0  0  0  0
   -7.2045   13.4950   39.7153 O   0  0  0  0  0  0  0  0  0  0  0  0
   -6.2116   11.5340   38.5904 C   0  0  1  0  0  0  0  0  0  0  0  0
   -6.5085   10.6445   39.7544 N   0  0  0  0  0  0  0  0  0  0  0  0
   -5.7669   11.1375   40.9348 C   0  0  0  0  0  0  0  0  0  0  0  0
   -6.3004   10.7288   37.2583 C   0  0  2  0  0  0  0  0  0  0  0  0
   -7.6249   10.2165   37.1210 O   0  0  0  0  0  0  0  0  0  0  0  0
   -5.3269    9.5531   37.2404 C   0  0  0  0  0  0  0  0  0  0  0  0
   -5.9890   11.6835   36.0613 C   0  0  0  0  0  0  0  0  0  0  0  0
   -6.9126   12.8374   36.0516 O   0  0  0  0  0  0  0  0  0  0  0  0
  1  3  1  0  0  0  0
  1  2  1  1  0  0  0
  3  5  1  0  0  0  0
  3  4  1  1  0  0  0
  5  6  1  6  0  0  0
  7  8  1  1  0  0  0
  7  5  1  0  0  0  0
  9 10  1  6  0  0  0
  9  7  1  0  0  0  0
 10  1  1  0  0  0  0
 11 13  1  1  0  0  0
 11  9  1  0  0  0  0
 12 11  1  0  0  0  0
 14 15  1  6  0  0  0
 16 14  1  0  0  0  0
 17 18  1  6  0  0  0
 17 16  1  0  0  0  0
 19  2  1  1  0  0  0
 19 20  1  0  0  0  0
 19 17  1  0  0  0  0
 20 21  1  6  0  0  0
 20 22  1  0  0  0  0
 22 23  1  1  0  0  0
 22 14  1  0  0  0  0
 24 23  1  1  0  0  0
 24 25  1  0  0  0  0
 25 27  1  0  0  0  0
 25 26  1  1  0  0  0
 27 28  1  1  0  0  0
 28 29  1  0  0  0  0
 30 31  1  6  0  0  0
 30 32  1  0  0  0  0
 30 27  1  0  0  0  0
 33 30  1  0  0  0  0
 34 33  1  0  0  0  0
 34 24  1  0  0  0  0
M  END
>  <CHROM.1>
-134.81544590,-60.25933369,-173.28734580,87.67695741,-139.55631426,-89.57217333
-3.45929513,15.49430909,36.75252304,-0.77972020,-0.35049107,3.03467410

>  <Name>
lig.pdb

>  <RI>
0

>  <Rbt.Current_Directory>
/home/itssahil/PROJECTS/Mol_Feturizer/New_Systems/rnas/4k32

>  <Rbt.Executable>
rbdock ($Id: //depot/dev/client3/rdock/2013.1/src/exe/rbdock.cxx#4 $)

>  <Rbt.Library>
libRbt.so (2013.1, Build901 2013/11/27)

>  <Rbt.Parameter_File>
/export/apps/rDock/src/rDock_2013.1_src/data/scripts/dock_solv.prm

>  <Rbt.Receptor>
prm/pocket_docking_2.prm

>  <SCORE>
-17.8648

>  <SCORE.INTER>
-17.2207

>  <SCORE.INTER.CONST>
1

>  <SCORE.INTER.POLAR>
0

>  <SCORE.INTER.ROT>
6

>  <SCORE.INTER.SOLV>
23.5132

>  <SCORE.INTER.VDW>
-26.9182

>  <SCORE.INTER.norm>
-0.506491

>  <SCORE.INTRA>
-0.704907

>  <SCORE.INTRA.DIHEDRAL>
-2.37947

>  <SCORE.INTRA.DIHEDRAL.0>
18.0069

>  <SCORE.INTRA.POLAR>
0

>  <SCORE.INTRA.POLAR.0>
0

>  <SCORE.INTRA.REPUL>
0

>  <SCORE.INTRA.REPUL.0>
0

>  <SCORE.INTRA.SOLV>
0.206869

>  <SCORE.INTRA.SOLV.lig_0>
-70.7393

>  <SCORE.INTRA.VDW>
0.381392

>  <SCORE.INTRA.VDW.0>
-3.23471

>  <SCORE.INTRA.norm>
-0.0207326

>  <SCORE.RESTR>
0.0608084

>  <SCORE.RESTR.CAVITY>
0.0608084

>  <SCORE.RESTR.norm>
0.00178848

>  <SCORE.SYSTEM>
0

>  <SCORE.SYSTEM.CONST>
0

>  <SCORE.SYSTEM.DIHEDRAL>
0

>  <SCORE.SYSTEM.SOLV>
0

>  <SCORE.SYSTEM.norm>
0

>  <SCORE.heavy>
34

>  <SCORE.norm>
-0.525435

>  <RMSD>
0.863

$$$$
lig.pdb
 OpenBabel11021811503D
libRbt.so/2013.1/901 2013/11/27
 34 36  0  0  0  0  0  0  0  0999 V2000
   -1.1701   16.5386   35.4398 C   0  0  2  0  0  0  0  0  0  0  0  0
   -1.7515   17.1868   36.5764 O   0  0  0  0  0  0  0  0  0  0  0  0
    0.2511   15.9670   35.8578 C   0  0  2  0  0  0  0  0  0  0  0  0
    0.1462   14.9809   36.9584 N   0  0  0  0  0  0  0  0  0  0  0  0
    1.1720   17.1380   36.2842 C   0  0  1  0  0  0  0  0  0  0  0  0
    2.4600   16.6431   36.6579 O   0  0  0  0  0  0  0  0  0  0  0  0
    1.2724   18.1333   35.1146 C   0  0  2  0  0  0  0  0  0  0  0  0
    2.1224   19.2171   35.4932 O   0  0  0  0  0  0  0  0  0  0  0  0
   -0.1669   18.6532   34.7344 C   0  0  2  0  0  0  0  0  0  0  0  0
   -1.0494   17.5266   34.3627 O   0  0  0  0  0  0  0  0  0  0  0  0
   -0.1186   19.6478   33.5479 C   0  0  2  0  0  0  0  0  0  0  0  0
    0.7371   20.7455   33.8709 O   0  0  0  0  0  0  0  0  0  0  0  0
   -1.5032   20.1893   33.2279 C   0  0  0  0  0  0  0  0  0  0  0  0
   -5.5607   16.7338   38.4742 C   0  0  2  0  0  0  0  0  0  0  0  0
   -7.0079   16.7428   38.7013 N   0  0  0  0  0  0  0  0  0  0  0  0
   -5.1649   18.1490   37.9697 C   0  0  0  0  0  0  0  0  0  0  0  0
   -3.6284   18.1669   37.7460 C   0  0  2  0  0  0  0  0  0  0  0  0
   -3.2065   19.4942   37.2716 N   0  0  0  0  0  0  0  0  0  0  0  0
   -3.2062   17.0957   36.7050 C   0  0  2  0  0  0  0  0  0  0  0  0
   -3.6547   15.6886   37.2115 C   0  0  2  0  0  0  0  0  0  0  0  0
   -3.2743   14.7011   36.2437 O   0  0  0  0  0  0  0  0  0  0  0  0
   -5.1911   15.6330   37.3928 C   0  0  1  0  0  0  0  0  0  0  0  0
   -5.5216   14.3062   37.8727 O   0  0  0  0  0  0  0  0  0  0  0  0
   -6.8590   13.8386   37.5787 C   0  0  2  0  0  0  0  0  0  0  0  0
   -7.2342   12.8335   38.7304 C   0  0  2  0  0  0  0  0  0  0  0  0
   -7.2103   13.5030   39.9812 O   0  0  0  0  0  0  0  0  0  0  0  0
   -6.2149   11.6321   38.7140 C   0  0  1  0  0  0  0  0  0  0  0  0
   -6.5277   10.6547   39.8007 N   0  0  0  0  0  0  0  0  0  0  0  0
   -5.8369   11.0773   41.0380 C   0  0  0  0  0  0  0  0  0  0  0  0
   -6.2937   10.9356   37.3214 C   0  0  2  0  0  0  0  0  0  0  0  0
   -7.6190   10.4429   37.1308 O   0  0  0  0  0  0  0  0  0  0  0  0
   -5.3254    9.7599   37.2198 C   0  0  0  0  0  0  0  0  0  0  0  0
   -5.9657   11.9805   36.2070 C   0  0  0  0  0  0  0  0  0  0  0  0
   -6.8839   13.1365   36.2798 O   0  0  0  0  0  0  0  0  0  0  0  0
  1  3  1  0  0  0  0
  1  2  1  1  0  0  0
  3  5  1  0  0  0  0
  3  4  1  1  0  0  0
  5  6  1  6  0  0  0
  7  8  1  1  0  0  0
  7  5  1  0  0  0  0
  9 10  1  6  0  0  0
  9  7  1  0  0  0  0
 10  1  1  0  0  0  0
 11 13  1  1  0  0  0
 11  9  1  0  0  0  0
 12 11  1  0  0  0  0
 14 15  1  6  0  0  0
 16 14  1  0  0  0  0
 17 18  1  6  0  0  0
 17 16  1  0  0  0  0
 19  2  1  1  0  0  0
 19 20  1  0  0  0  0
 19 17  1  0  0  0  0
 20 21  1  6  0  0  0
 20 22  1  0  0  0  0
 22 23  1  1  0  0  0
 22 14  1  0  0  0  0
 24 23  1  1  0  0  0
 24 25  1  0  0  0  0
 25 27  1  0  0  0  0
 25 26  1  1  0  0  0
 27 28  1  1  0  0  0
 28 29  1  0  0  0  0
 30 31  1  6  0  0  0
 30 32  1  0  0  0  0
 30 27  1  0  0  0  0
 33 30  1  0  0  0  0
 34 33  1  0  0  0  0
 34 24  1  0  0  0  0
M  END
>  <CHROM.1>
-145.88650718,-57.30833807,-164.76102389,89.36418021,-151.62075481,-87.44233884
-3.36579655,15.55529296,36.86193173,-0.76839083,-0.32269801,2.99612131

>  <Name>
lig.pdb

>  <RI>
0

>  <Rbt.Current_Directory>
/home/itssahil/PROJECTS/Mol_Feturizer/New_Systems/rnas/4k32

>  <Rbt.Executable>
rbdock ($Id: //depot/dev/client3/rdock/2013.1/src/exe/rbdock.cxx#4 $)

>  <Rbt.Library>
libRbt.so (2013.1, Build901 2013/11/27)

>  <Rbt.Parameter_File>
/export/apps/rDock/src/rDock_2013.1_src/data/scripts/dock_solv.prm

>  <Rbt.Receptor>
prm/pocket_docking_4.prm

>  <SCORE>
-18.9654

>  <SCORE.INTER>
-16.6121

>  <SCORE.INTER.CONST>
1

>  <SCORE.INTER.POLAR>
0

>  <SCORE.INTER.ROT>
6

>  <SCORE.INTER.SOLV>
23.5904

>  <SCORE.INTER.VDW>
-26.5382

>  <SCORE.INTER.norm>
-0.488592

>  <SCORE.INTRA>
-2.37568

>  <SCORE.INTRA.DIHEDRAL>
-5.21083

>  <SCORE.INTRA.DIHEDRAL.0>
18.0069

>  <SCORE.INTRA.POLAR>
0

>  <SCORE.INTRA.POLAR.0>
0

>  <SCORE.INTRA.REPUL>
0

>  <SCORE.INTRA.REPUL.0>
0

>  <SCORE.INTRA.SOLV>
-0.115422

>  <SCORE.INTRA.SOLV.lig_0>
-70.7393

>  <SCORE.INTRA.VDW>
0.287447

>  <SCORE.INTRA.VDW.0>
-3.23471

>  <SCORE.INTRA.norm>
-0.0698729

>  <SCORE.RESTR>
0.0223658

>  <SCORE.RESTR.CAVITY>
0.0223658

>  <SCORE.RESTR.norm>
0.000657817

>  <SCORE.SYSTEM>
0

>  <SCORE.SYSTEM.CONST>
0

>  <SCORE.SYSTEM.DIHEDRAL>
0

>  <SCORE.SYSTEM.SOLV>
0

>  <SCORE.SYSTEM.norm>
0

>  <SCORE.heavy>
34

>  <SCORE.norm>
-0.557807

>  <RMSD>
0.877

$$$$
lig.pdb
 OpenBabel11021811503D
libRbt.so/2013.1/901 2013/11/27
 34 36  0  0  0  0  0  0  0  0999 V2000
   -1.4370   16.6917   35.2000 C   0  0  2  0  0  0  0  0  0  0  0  0
   -2.0106   17.3266   36.3480 O   0  0  0  0  0  0  0  0  0  0  0  0
   -0.1029   15.9549   35.6454 C   0  0  2  0  0  0  0  0  0  0  0  0
   -0.3621   14.9205   36.6740 N   0  0  0  0  0  0  0  0  0  0  0  0
    0.9052   16.9986   36.1888 C   0  0  1  0  0  0  0  0  0  0  0  0
    2.1168   16.3541   36.5888 O   0  0  0  0  0  0  0  0  0  0  0  0
    1.1643   18.0466   35.0918 C   0  0  2  0  0  0  0  0  0  0  0  0
    2.0959   19.0139   35.5786 O   0  0  0  0  0  0  0  0  0  0  0  0
   -0.1948   18.7318   34.6799 C   0  0  2  0  0  0  0  0  0  0  0  0
   -1.1632   17.7249   34.1958 O   0  0  0  0  0  0  0  0  0  0  0  0
    0.0135   19.7854   33.5637 C   0  0  2  0  0  0  0  0  0  0  0  0
    0.9043   20.8049   34.0204 O   0  0  0  0  0  0  0  0  0  0  0  0
   -1.3038   20.4336   33.1671 C   0  0  0  0  0  0  0  0  0  0  0  0
   -5.6676   16.4436   38.3883 C   0  0  2  0  0  0  0  0  0  0  0  0
   -7.0967   16.3446   38.6953 N   0  0  0  0  0  0  0  0  0  0  0  0
   -5.3744   17.9276   38.0338 C   0  0  0  0  0  0  0  0  0  0  0  0
   -3.8576   18.0578   37.7284 C   0  0  2  0  0  0  0  0  0  0  0  0
   -3.5321   19.4527   37.3919 N   0  0  0  0  0  0  0  0  0  0  0  0
   -3.4482   17.1394   36.5459 C   0  0  2  0  0  0  0  0  0  0  0  0
   -3.7943   15.6602   36.9063 C   0  0  2  0  0  0  0  0  0  0  0  0
   -3.4262   14.8140   35.8086 O   0  0  0  0  0  0  0  0  0  0  0  0
   -5.3118   15.4975   37.1653 C   0  0  1  0  0  0  0  0  0  0  0  0
   -5.5458   14.1077   37.5022 O   0  0  0  0  0  0  0  0  0  0  0  0
   -6.8818   13.6099   37.2555 C   0  0  2  0  0  0  0  0  0  0  0  0
   -7.2454   12.7022   38.4889 C   0  0  2  0  0  0  0  0  0  0  0  0
   -7.2193   13.4737   39.6794 O   0  0  0  0  0  0  0  0  0  0  0  0
   -6.2191   11.5092   38.5671 C   0  0  1  0  0  0  0  0  0  0  0  0
   -6.5208   10.6241   39.7332 N   0  0  0  0  0  0  0  0  0  0  0  0
   -5.8333   11.1570   40.9290 C   0  0  0  0  0  0  0  0  0  0  0  0
   -6.3007   10.6987   37.2378 C   0  0  2  0  0  0  0  0  0  0  0  0
   -7.6240   10.1845   37.0961 O   0  0  0  0  0  0  0  0  0  0  0  0
   -5.3260    9.5239   37.2292 C   0  0  0  0  0  0  0  0  0  0  0  0
   -5.9845   11.6489   36.0385 C   0  0  0  0  0  0  0  0  0  0  0  0
   -6.9091   12.8018   36.0197 O   0  0  0  0  0  0  0  0  0  0  0  0
  1  3  1  0  0  0  0
  1  2  1  1  0  0  0
  3  5  1  0  0  0  0
  3  4  1  1  0  0  0
  5  6  1  6  0  0  0
  7  8  1  1  0  0  0
  7  5  1  0  0  0  0
  9 10  1  6  0  0  0
  9  7  1  0  0  0  0
 10  1  1  0  0  0  0
 11 13  1  1  0  0  0
 11  9  1  0  0  0  0
 12 11  1  0  0  0  0
 14 15  1  6  0  0  0
 16 14  1  0  0  0  0
 17 18  1  6  0  0  0
 17 16  1  0  0  0  0
 19  2  1  1  0  0  0
 19 20  1  0  0  0  0
 19 17  1  0  0  0  0
 20 21  1  6  0  0  0
 20 22  1  0  0  0  0
 22 23  1  1  0  0  0
 22 14  1  0  0  0  0
 24 23  1  1  0  0  0
 24 25  1  0  0  0  0
 25 27  1  0  0  0  0
 25 26  1  1  0  0  0
 27 28  1  1  0  0  0
 28 29  1  0  0  0  0
 30 31  1  6  0  0  0
 30 32  1  0  0  0  0
 30 27  1  0  0  0  0
 33 30  1  0  0  0  0
 34 33  1  0  0  0  0
 34 24  1  0  0  0  0
M  END
>  <CHROM.1>
-133.72209039,-60.14318657,-172.90403168,88.14343461,-138.91873176,-87.08290941
-3.46661751,15.47069769,36.73397903,-0.77596796,-0.35923979,3.04680266

>  <Name>
lig.pdb

>  <RI>
0

>  <Rbt.Current_Directory>
/home/itssahil/PROJECTS/Mol_Feturizer/New_Systems/rnas/4k32

>  <Rbt.Executable>
rbdock ($Id: //depot/dev/client3/rdock/2013.1/src/exe/rbdock.cxx#4 $)

>  <Rbt.Library>
libRbt.so (2013.1, Build901 2013/11/27)

>  <Rbt.Parameter_File>
/export/apps/rDock/src/rDock_2013.1_src/data/scripts/dock_solv.prm

>  <Rbt.Receptor>
prm/pocket_docking_2.prm

>  <SCORE>
-17.871

>  <SCORE.INTER>
-17.4671

>  <SCORE.INTER.CONST>
1

>  <SCORE.INTER.POLAR>
0

>  <SCORE.INTER.ROT>
6

>  <SCORE.INTER.SOLV>
23.5118

>  <SCORE.INTER.VDW>
-27.082

>  <SCORE.INTER.norm>
-0.513739

>  <SCORE.INTRA>
-0.443007

>  <SCORE.INTRA.DIHEDRAL>
-2.10421

>  <SCORE.INTRA.DIHEDRAL.0>
18.0069

>  <SCORE.INTRA.POLAR>
0

>  <SCORE.INTRA.POLAR.0>
0

>  <SCORE.INTRA.REPUL>
0

>  <SCORE.INTRA.REPUL.0>
0

>  <SCORE.INTRA.SOLV>
0.291778

>  <SCORE.INTRA.SOLV.lig_0>
-70.7393

>  <SCORE.INTRA.VDW>
0.463208

>  <SCORE.INTRA.VDW.0>
-3.23471

>  <SCORE.INTRA.norm>
-0.0130296

>  <SCORE.RESTR>
0.0391693

>  <SCORE.RESTR.CAVITY>
0.0391693

>  <SCORE.RESTR.norm>
0.00115204

>  <SCORE.SYSTEM>
0

>  <SCORE.SYSTEM.CONST>
0

>  <SCORE.SYSTEM.DIHEDRAL>
0

>  <SCORE.SYSTEM.SOLV>
0

>  <SCORE.SYSTEM.norm>
0

>  <SCORE.heavy>
34

>  <SCORE.norm>
-0.525617

>  <RMSD>
0.880

$$$$
lig.pdb
 OpenBabel11021811503D
libRbt.so/2013.1/901 2013/11/27
 34 36  0  0  0  0  0  0  0  0999 V2000
   -1.4594   16.7004   35.1580 C   0  0  2  0  0  0  0  0  0  0  0  0
   -2.0184   17.3346   36.3137 O   0  0  0  0  0  0  0  0  0  0  0  0
   -0.1321   15.9438   35.5907 C   0  0  2  0  0  0  0  0  0  0  0  0
   -0.3985   14.9058   36.6136 N   0  0  0  0  0  0  0  0  0  0  0  0
    0.8921   16.9711   36.1353 C   0  0  1  0  0  0  0  0  0  0  0  0
    2.0977   16.3086   36.5239 O   0  0  0  0  0  0  0  0  0  0  0  0
    1.1582   18.0233   35.0440 C   0  0  2  0  0  0  0  0  0  0  0  0
    2.1046   18.9754   35.5320 O   0  0  0  0  0  0  0  0  0  0  0  0
   -0.1945   18.7283   34.6446 C   0  0  2  0  0  0  0  0  0  0  0  0
   -1.1783   17.7370   34.1593 O   0  0  0  0  0  0  0  0  0  0  0  0
    0.0206   19.7868   33.5345 C   0  0  2  0  0  0  0  0  0  0  0  0
    0.9112   20.8026   34.0000 O   0  0  0  0  0  0  0  0  0  0  0  0
   -1.2937   20.4393   33.1350 C   0  0  0  0  0  0  0  0  0  0  0  0
   -5.6507   16.4512   38.3974 C   0  0  2  0  0  0  0  0  0  0  0  0
   -7.0759   16.3529   38.7218 N   0  0  0  0  0  0  0  0  0  0  0  0
   -5.3606   17.9355   38.0418 C   0  0  0  0  0  0  0  0  0  0  0  0
   -3.8475   18.0650   37.7180 C   0  0  2  0  0  0  0  0  0  0  0  0
   -3.5250   19.4602   37.3798 N   0  0  0  0  0  0  0  0  0  0  0  0
   -3.4536   17.1482   36.5289 C   0  0  2  0  0  0  0  0  0  0  0  0
   -3.7965   15.6687   36.8911 C   0  0  2  0  0  0  0  0  0  0  0  0
   -3.4427   14.8241   35.7874 O   0  0  0  0  0  0  0  0  0  0  0  0
   -5.3108   15.5069   37.1684 C   0  0  1  0  0  0  0  0  0  0  0  0
   -5.5419   14.1167   37.5058 O   0  0  0  0  0  0  0  0  0  0  0  0
   -6.8738   13.6130   37.2493 C   0  0  2  0  0  0  0  0  0  0  0  0
   -7.2410   12.7006   38.4780 C   0  0  2  0  0  0  0  0  0  0  0  0
   -7.2264   13.4693   39.6706 O   0  0  0  0  0  0  0  0  0  0  0  0
   -6.2094   11.5124   38.5600 C   0  0  1  0  0  0  0  0  0  0  0  0
   -6.5144   10.6229   39.7220 N   0  0  0  0  0  0  0  0  0  0  0  0
   -5.8345   11.1543   40.9228 C   0  0  0  0  0  0  0  0  0  0  0  0
   -6.2784   10.7048   37.2283 C   0  0  2  0  0  0  0  0  0  0  0  0
   -7.5983   10.1845   37.0768 O   0  0  0  0  0  0  0  0  0  0  0  0
   -5.2980    9.5347   37.2232 C   0  0  0  0  0  0  0  0  0  0  0  0
   -5.9591   11.6594   36.0334 C   0  0  0  0  0  0  0  0  0  0  0  0
   -6.8891   12.8079   36.0114 O   0  0  0  0  0  0  0  0  0  0  0  0
  1  3  1  0  0  0  0
  1  2  1  1  0  0  0
  3  5  1  0  0  0  0
  3  4  1  1  0  0  0
  5  6  1  6  0  0  0
  7  8  1  1  0  0  0
  7  5  1  0  0  0  0
  9 10  1  6  0  0  0
  9  7  1  0  0  0  0
 10  1  1  0  0  0  0
 11 13  1  1  0  0  0
 11  9  1  0  0  0  0
 12 11  1  0  0  0  0
 14 15  1  6  0  0  0
 16 14  1  0  0  0  0
 17 18  1  6  0  0  0
 17 16  1  0  0  0  0
 19  2  1  1  0  0  0
 19 20  1  0  0  0  0
 19 17  1  0  0  0  0
 20 21  1  6  0  0  0
 20 22  1  0  0  0  0
 22 23  1  1  0  0  0
 22 14  1  0  0  0  0
 24 23  1  1  0  0  0
 24 25  1  0  0  0  0
 25 27  1  0  0  0  0
 25 26  1  1  0  0  0
 27 28  1  1  0  0  0
 28 29  1  0  0  0  0
 30 31  1  6  0  0  0
 30 32  1  0  0  0  0
 30 27  1  0  0  0  0
 33 30  1  0  0  0  0
 34 33  1  0  0  0  0
 34 24  1  0  0  0  0
M  END
>  <CHROM.1>
-132.88056358,-61.00498083,-172.94288116,89.36176238,-139.17674949,-87.22722023
-3.46440691,15.47006554,36.71376184,-0.77287781,-0.37287247,3.05484935

>  <Name>
lig.pdb

>  <RI>
0

>  <Rbt.Current_Directory>
/home/itssahil/PROJECTS/Mol_Feturizer/New_Systems/rnas/4k32

>  <Rbt.Executable>
rbdock ($Id: //depot/dev/client3/rdock/2013.1/src/exe/rbdock.cxx#4 $)

>  <Rbt.Library>
libRbt.so (2013.1, Build901 2013/11/27)

>  <Rbt.Parameter_File>
/export/apps/rDock/src/rDock_2013.1_src/data/scripts/dock_solv.prm

>  <Rbt.Receptor>
prm/pocket_docking_2.prm

>  <SCORE>
-17.7059

>  <SCORE.INTER>
-17.4277

>  <SCORE.INTER.CONST>
1

>  <SCORE.INTER.POLAR>
0

>  <SCORE.INTER.ROT>
6

>  <SCORE.INTER.SOLV>
23.537

>  <SCORE.INTER.VDW>
-27.0642

>  <SCORE.INTER.norm>
-0.512581

>  <SCORE.INTRA>
-0.289114

>  <SCORE.INTRA.DIHEDRAL>
-1.81309

>  <SCORE.INTRA.DIHEDRAL.0>
18.0069

>  <SCORE.INTRA.POLAR>
0

>  <SCORE.INTRA.POLAR.0>
0

>  <SCORE.INTRA.REPUL>
0

>  <SCORE.INTRA.REPUL.0>
0

>  <SCORE.INTRA.SOLV>
0.307994

>  <SCORE.INTRA.SOLV.lig_0>
-70.7393

>  <SCORE.INTRA.VDW>
0.463434

>  <SCORE.INTRA.VDW.0>
-3.23471

>  <SCORE.INTRA.norm>
-0.00850334

>  <SCORE.RESTR>
0.0109562

>  <SCORE.RESTR.CAVITY>
0.0109562

>  <SCORE.RESTR.norm>
0.000322241

>  <SCORE.SYSTEM>
0

>  <SCORE.SYSTEM.CONST>
0

>  <SCORE.SYSTEM.DIHEDRAL>
0

>  <SCORE.SYSTEM.SOLV>
0

>  <SCORE.SYSTEM.norm>
0

>  <SCORE.heavy>
34

>  <SCORE.norm>
-0.520762

>  <RMSD>
0.882

$$$$
lig.pdb
 OpenBabel11021811503D
libRbt.so/2013.1/901 2013/11/27
 34 36  0  0  0  0  0  0  0  0999 V2000
   -1.4523   16.6779   35.1867 C   0  0  2  0  0  0  0  0  0  0  0  0
   -2.0160   17.3085   36.3420 O   0  0  0  0  0  0  0  0  0  0  0  0
   -0.1184   15.9332   35.6193 C   0  0  2  0  0  0  0  0  0  0  0  0
   -0.3751   14.8941   36.6436 N   0  0  0  0  0  0  0  0  0  0  0  0
    0.8974   16.9698   36.1620 C   0  0  1  0  0  0  0  0  0  0  0  0
    2.1090   16.3182   36.5505 O   0  0  0  0  0  0  0  0  0  0  0  0
    1.1537   18.0231   35.0694 C   0  0  2  0  0  0  0  0  0  0  0  0
    2.0922   18.9838   35.5557 O   0  0  0  0  0  0  0  0  0  0  0  0
   -0.2053   18.7160   34.6702 C   0  0  2  0  0  0  0  0  0  0  0  0
   -1.1808   17.7158   34.1866 O   0  0  0  0  0  0  0  0  0  0  0  0
   -0.0000   19.7751   33.5587 C   0  0  2  0  0  0  0  0  0  0  0  0
    0.8470   20.8215   34.0375 O   0  0  0  0  0  0  0  0  0  0  0  0
   -1.3256   20.3827   33.1269 C   0  0  0  0  0  0  0  0  0  0  0  0
   -5.6562   16.4286   38.4134 C   0  0  2  0  0  0  0  0  0  0  0  0
   -7.0828   16.3293   38.7318 N   0  0  0  0  0  0  0  0  0  0  0  0
   -5.3672   17.9117   38.0518 C   0  0  0  0  0  0  0  0  0  0  0  0
   -3.8529   18.0424   37.7343 C   0  0  2  0  0  0  0  0  0  0  0  0
   -3.5315   19.4365   37.3906 N   0  0  0  0  0  0  0  0  0  0  0  0
   -3.4518   17.1205   36.5516 C   0  0  2  0  0  0  0  0  0  0  0  0
   -3.7936   15.6422   36.9196 C   0  0  2  0  0  0  0  0  0  0  0  0
   -3.4332   14.7928   35.8218 O   0  0  0  0  0  0  0  0  0  0  0  0
   -5.3089   15.4789   37.1907 C   0  0  1  0  0  0  0  0  0  0  0  0
   -5.5389   14.0900   37.5340 O   0  0  0  0  0  0  0  0  0  0  0  0
   -6.8700   13.5837   37.2780 C   0  0  2  0  0  0  0  0  0  0  0  0
   -7.2338   12.6682   38.5055 C   0  0  2  0  0  0  0  0  0  0  0  0
   -7.2196   13.4348   39.6994 O   0  0  0  0  0  0  0  0  0  0  0  0
   -6.1994   11.4822   38.5842 C   0  0  1  0  0  0  0  0  0  0  0  0
   -6.5011   10.5900   39.7449 N   0  0  0  0  0  0  0  0  0  0  0  0
   -5.8204   11.1203   40.9458 C   0  0  0  0  0  0  0  0  0  0  0  0
   -6.2680   10.6769   37.2511 C   0  0  2  0  0  0  0  0  0  0  0  0
   -7.5868   10.1539   37.1001 O   0  0  0  0  0  0  0  0  0  0  0  0
   -5.2849    9.5090   37.2429 C   0  0  0  0  0  0  0  0  0  0  0  0
   -5.9521   11.6343   36.0576 C   0  0  0  0  0  0  0  0  0  0  0  0
   -6.8848   12.7808   36.0387 O   0  0  0  0  0  0  0  0  0  0  0  0
  1  3  1  0  0  0  0
  1  2  1  1  0  0  0
  3  5  1  0  0  0  0
  3  4  1  1  0  0  0
  5  6  1  6  0  0  0
  7  8  1  1  0  0  0
  7  5  1  0  0  0  0
  9 10  1  6  0  0  0
  9  7  1  0  0  0  0
 10  1  1  0  0  0  0
 11 13  1  1  0  0  0
 11  9  1  0  0  0  0
 12 11  1  0  0  0  0
 14 15  1  6  0  0  0
 16 14  1  0  0  0  0
 17 18  1  6  0  0  0
 17 16  1  0  0  0  0
 19  2  1  1  0  0  0
 19 20  1  0  0  0  0
 19 17  1  0  0  0  0
 20 21  1  6  0  0  0
 20 22  1  0  0  0  0
 22 23  1  1  0  0  0
 22 14  1  0  0  0  0
 24 23  1  1  0  0  0
 24 25  1  0  0  0  0
 25 27  1  0  0  0  0
 25 26  1  1  0  0  0
 27 28  1  1  0  0  0
 28 29  1  0  0  0  0
 30 31  1  6  0  0  0
 30 32  1  0  0  0  0
 30 27  1  0  0  0  0
 33 30  1  0  0  0  0
 34 33  1  0  0  0  0
 34 24  1  0  0  0  0
M  END
>  <CHROM.1>
-133.43799609,-62.89495606,-172.49400585,89.16377608,-139.56421113,-87.26318367
-3.46443824,15.44887223,36.73726697,-0.77763506,-0.36853211,3.04951652

>  <Name>
lig.pdb

>  <RI>
0

>  <Rbt.Current_Directory>
/home/itssahil/PROJECTS/Mol_Feturizer/New_Systems/rnas/4k32

>  <Rbt.Executable>
rbdock ($Id: //depot/dev/client3/rdock/2013.1/src/exe/rbdock.cxx#4 $)

>  <Rbt.Library>
libRbt.so (2013.1, Build901 2013/11/27)

>  <Rbt.Parameter_File>
/export/apps/rDock/src/rDock_2013.1_src/data/scripts/dock_solv.prm

>  <Rbt.Receptor>
prm/pocket_docking_2.prm

>  <SCORE>
-17.7676

>  <SCORE.INTER>
-17.4385

>  <SCORE.INTER.CONST>
1

>  <SCORE.INTER.POLAR>
0

>  <SCORE.INTER.ROT>
6

>  <SCORE.INTER.SOLV>
23.4507

>  <SCORE.INTER.VDW>
-27.0425

>  <SCORE.INTER.norm>
-0.512896

>  <SCORE.INTRA>
-0.354161

>  <SCORE.INTRA.DIHEDRAL>
-1.9215

>  <SCORE.INTRA.DIHEDRAL.0>
18.0069

>  <SCORE.INTRA.POLAR>
0

>  <SCORE.INTRA.POLAR.0>
0

>  <SCORE.INTRA.REPUL>
0

>  <SCORE.INTRA.REPUL.0>
0

>  <SCORE.INTRA.SOLV>
0.269438

>  <SCORE.INTRA.SOLV.lig_0>
-70.7393

>  <SCORE.INTRA.VDW>
0.471872

>  <SCORE.INTRA.VDW.0>
-3.23471

>  <SCORE.INTRA.norm>
-0.0104165

>  <SCORE.RESTR>
0.0249875

>  <SCORE.RESTR.CAVITY>
0.0249875

>  <SCORE.RESTR.norm>
0.000734926

>  <SCORE.SYSTEM>
0

>  <SCORE.SYSTEM.CONST>
0

>  <SCORE.SYSTEM.DIHEDRAL>
0

>  <SCORE.SYSTEM.SOLV>
0

>  <SCORE.SYSTEM.norm>
0

>  <SCORE.heavy>
34

>  <SCORE.norm>
-0.522577

>  <RMSD>
0.882

$$$$
lig.pdb
 OpenBabel11021811503D
libRbt.so/2013.1/901 2013/11/27
 34 36  0  0  0  0  0  0  0  0999 V2000
   -1.4654   16.7061   35.1567 C   0  0  2  0  0  0  0  0  0  0  0  0
   -2.0308   17.3400   36.3094 O   0  0  0  0  0  0  0  0  0  0  0  0
   -0.1367   15.9555   35.5952 C   0  0  2  0  0  0  0  0  0  0  0  0
   -0.4024   14.9182   36.6190 N   0  0  0  0  0  0  0  0  0  0  0  0
    0.8816   16.9878   36.1414 C   0  0  1  0  0  0  0  0  0  0  0  0
    2.0886   16.3308   36.5353 O   0  0  0  0  0  0  0  0  0  0  0  0
    1.1472   18.0392   35.0493 C   0  0  2  0  0  0  0  0  0  0  0  0
    2.0882   18.9959   35.5388 O   0  0  0  0  0  0  0  0  0  0  0  0
   -0.2069   18.7381   34.6441 C   0  0  2  0  0  0  0  0  0  0  0  0
   -1.1851   17.7421   34.1572 O   0  0  0  0  0  0  0  0  0  0  0  0
    0.0077   19.7956   33.5329 C   0  0  2  0  0  0  0  0  0  0  0  0
    0.8848   20.8209   34.0031 O   0  0  0  0  0  0  0  0  0  0  0  0
   -1.3092   20.4346   33.1204 C   0  0  0  0  0  0  0  0  0  0  0  0
   -5.6659   16.4292   38.3766 C   0  0  2  0  0  0  0  0  0  0  0  0
   -7.0916   16.3252   38.6970 N   0  0  0  0  0  0  0  0  0  0  0  0
   -5.3777   17.9176   38.0365 C   0  0  0  0  0  0  0  0  0  0  0  0
   -3.8642   18.0530   37.7172 C   0  0  2  0  0  0  0  0  0  0  0  0
   -3.5436   19.4521   37.3936 N   0  0  0  0  0  0  0  0  0  0  0  0
   -3.4661   17.1489   36.5198 C   0  0  2  0  0  0  0  0  0  0  0  0
   -3.8071   15.6652   36.8664 C   0  0  2  0  0  0  0  0  0  0  0  0
   -3.4495   14.8324   35.7550 O   0  0  0  0  0  0  0  0  0  0  0  0
   -5.3217   15.4979   37.1389 C   0  0  1  0  0  0  0  0  0  0  0  0
   -5.5510   14.1040   37.4619 O   0  0  0  0  0  0  0  0  0  0  0  0
   -6.8918   13.6105   37.2333 C   0  0  2  0  0  0  0  0  0  0  0  0
   -7.2419   12.7044   38.4717 C   0  0  2  0  0  0  0  0  0  0  0  0
   -7.1973   13.4763   39.6615 O   0  0  0  0  0  0  0  0  0  0  0  0
   -6.2185   11.5081   38.5366 C   0  0  1  0  0  0  0  0  0  0  0  0
   -6.5075   10.6243   39.7070 N   0  0  0  0  0  0  0  0  0  0  0  0
   -5.7877   11.1450   40.8891 C   0  0  0  0  0  0  0  0  0  0  0  0
   -6.3206   10.6975   37.2088 C   0  0  2  0  0  0  0  0  0  0  0  0
   -7.6473   10.1876   37.0851 O   0  0  0  0  0  0  0  0  0  0  0  0
   -5.3499    9.5194   37.1877 C   0  0  0  0  0  0  0  0  0  0  0  0
   -6.0173   11.6462   36.0051 C   0  0  0  0  0  0  0  0  0  0  0  0
   -6.9382   12.8022   35.9983 O   0  0  0  0  0  0  0  0  0  0  0  0
  1  3  1  0  0  0  0
  1  2  1  1  0  0  0
  3  5  1  0  0  0  0
  3  4  1  1  0  0  0
  5  6  1  6  0  0  0
  7  8  1  1  0  0  0
  7  5  1  0  0  0  0
  9 10  1  6  0  0  0
  9  7  1  0  0  0  0
 10  1  1  0  0  0  0
 11 13  1  1  0  0  0
 11  9  1  0  0  0  0
 12 11  1  0  0  0  0
 14 15  1  6  0  0  0
 16 14  1  0  0  0  0
 17 18  1  6  0  0  0
 17 16  1  0  0  0  0
 19  2  1  1  0  0  0
 19 20  1  0  0  0  0
 19 17  1  0  0  0  0
 20 21  1  6  0  0  0
 20 22  1  0  0  0  0
 22 23  1  1  0  0  0
 22 14  1  0  0  0  0
 24 23  1  1  0  0  0
 24 25  1  0  0  0  0
 25 27  1  0  0  0  0
 25 26  1  1  0  0  0
 27 28  1  1  0  0  0
 28 29  1  0  0  0  0
 30 31  1  6  0  0  0
 30 32  1  0  0  0  0
 30 27  1  0  0  0  0
 33 30  1  0  0  0  0
 34 33  1  0  0  0  0
 34 24  1  0  0  0  0
M  END
>  <CHROM.1>
-132.91329571,-61.43587022,-173.61576948,87.66092146,-138.08793801,-87.84198571
-3.47844018,15.47032509,36.70342853,-0.77544653,-0.36597614,3.05178806

>  <Name>
lig.pdb

>  <RI>
0

>  <Rbt.Current_Directory>
/home/itssahil/PROJECTS/Mol_Feturizer/New_Systems/rnas/4k32

>  <Rbt.Executable>
rbdock ($Id: //depot/dev/client3/rdock/2013.1/src/exe/rbdock.cxx#4 $)

>  <Rbt.Library>
libRbt.so (2013.1, Build901 2013/11/27)

>  <Rbt.Parameter_File>
/export/apps/rDock/src/rDock_2013.1_src/data/scripts/dock_solv.prm

>  <Rbt.Receptor>
prm/pocket_docking_2.prm

>  <SCORE>
-17.662

>  <SCORE.INTER>
-17.3004

>  <SCORE.INTER.CONST>
1

>  <SCORE.INTER.POLAR>
0

>  <SCORE.INTER.ROT>
6

>  <SCORE.INTER.SOLV>
23.6085

>  <SCORE.INTER.VDW>
-27.0031

>  <SCORE.INTER.norm>
-0.508834

>  <SCORE.INTRA>
-0.361601

>  <SCORE.INTRA.DIHEDRAL>
-1.98363

>  <SCORE.INTRA.DIHEDRAL.0>
18.0069

>  <SCORE.INTRA.POLAR>
0

>  <SCORE.INTRA.POLAR.0>
0

>  <SCORE.INTRA.REPUL>
0

>  <SCORE.INTRA.REPUL.0>
0

>  <SCORE.INTRA.SOLV>
0.334112

>  <SCORE.INTRA.SOLV.lig_0>
-70.7393

>  <SCORE.INTRA.VDW>
0.46316

>  <SCORE.INTRA.VDW.0>
-3.23471

>  <SCORE.INTRA.norm>
-0.0106353

>  <SCORE.RESTR>
0

>  <SCORE.RESTR.CAVITY>
0

>  <SCORE.RESTR.norm>
0

>  <SCORE.SYSTEM>
0

>  <SCORE.SYSTEM.CONST>
0

>  <SCORE.SYSTEM.DIHEDRAL>
0

>  <SCORE.SYSTEM.SOLV>
0

>  <SCORE.SYSTEM.norm>
0

>  <SCORE.heavy>
34

>  <SCORE.norm>
-0.51947

>  <RMSD>
0.885

$$$$
lig.pdb
 OpenBabel11021811503D
libRbt.so/2013.1/901 2013/11/27
 34 36  0  0  0  0  0  0  0  0999 V2000
   -1.4507   16.6893   35.1798 C   0  0  2  0  0  0  0  0  0  0  0  0
   -2.0142   17.3216   36.3343 O   0  0  0  0  0  0  0  0  0  0  0  0
   -0.1181   15.9430   35.6139 C   0  0  2  0  0  0  0  0  0  0  0  0
   -0.3770   14.9050   36.6388 N   0  0  0  0  0  0  0  0  0  0  0  0
    0.8988   16.9786   36.1565 C   0  0  1  0  0  0  0  0  0  0  0  0
    2.1092   16.3254   36.5463 O   0  0  0  0  0  0  0  0  0  0  0  0
    1.1573   18.0306   35.0633 C   0  0  2  0  0  0  0  0  0  0  0  0
    2.0970   18.9904   35.5494 O   0  0  0  0  0  0  0  0  0  0  0  0
   -0.2004   18.7252   34.6626 C   0  0  2  0  0  0  0  0  0  0  0  0
   -1.1771   17.7261   34.1792 O   0  0  0  0  0  0  0  0  0  0  0  0
    0.0071   19.7832   33.5505 C   0  0  2  0  0  0  0  0  0  0  0  0
    0.8719   20.8183   34.0222 O   0  0  0  0  0  0  0  0  0  0  0  0
   -1.3149   20.4079   33.1325 C   0  0  0  0  0  0  0  0  0  0  0  0
   -5.6599   16.4487   38.3991 C   0  0  2  0  0  0  0  0  0  0  0  0
   -7.0871   16.3534   38.7155 N   0  0  0  0  0  0  0  0  0  0  0  0
   -5.3654   17.9317   38.0418 C   0  0  0  0  0  0  0  0  0  0  0  0
   -3.8502   18.0581   37.7264 C   0  0  2  0  0  0  0  0  0  0  0  0
   -3.5236   19.4520   37.3869 N   0  0  0  0  0  0  0  0  0  0  0  0
   -3.4509   17.1380   36.5417 C   0  0  2  0  0  0  0  0  0  0  0  0
   -3.7982   15.6599   36.9053 C   0  0  2  0  0  0  0  0  0  0  0  0
   -3.4394   14.8122   35.8056 O   0  0  0  0  0  0  0  0  0  0  0  0
   -5.3143   15.5010   37.1743 C   0  0  1  0  0  0  0  0  0  0  0  0
   -5.5495   14.1120   37.5135 O   0  0  0  0  0  0  0  0  0  0  0  0
   -6.8869   13.6158   37.2708 C   0  0  2  0  0  0  0  0  0  0  0  0
   -7.2414   12.6949   38.4971 C   0  0  2  0  0  0  0  0  0  0  0  0
   -7.2075   13.4539   39.6954 O   0  0  0  0  0  0  0  0  0  0  0  0
   -6.2137   11.5020   38.5556 C   0  0  1  0  0  0  0  0  0  0  0  0
   -6.5068   10.6044   39.7143 N   0  0  0  0  0  0  0  0  0  0  0  0
   -5.8351   11.1412   40.9174 C   0  0  0  0  0  0  0  0  0  0  0  0
   -6.3040   10.7054   37.2184 C   0  0  2  0  0  0  0  0  0  0  0  0
   -7.6280   10.1918   37.0805 O   0  0  0  0  0  0  0  0  0  0  0  0
   -5.3286    9.5315   37.1908 C   0  0  0  0  0  0  0  0  0  0  0  0
   -5.9967   11.6684   36.0271 C   0  0  0  0  0  0  0  0  0  0  0  0
   -6.9222   12.8209   36.0269 O   0  0  0  0  0  0  0  0  0  0  0  0
  1  3  1  0  0  0  0
  1  2  1  1  0  0  0
  3  5  1  0  0  0  0
  3  4  1  1  0  0  0
  5  6  1  6  0  0  0
  7  8  1  1  0  0  0
  7  5  1  0  0  0  0
  9 10  1  6  0  0  0
  9  7  1  0  0  0  0
 10  1  1  0  0  0  0
 11 13  1  1  0  0  0
 11  9  1  0  0  0  0
 12 11  1  0  0  0  0
 14 15  1  6  0  0  0
 16 14  1  0  0  0  0
 17 18  1  6  0  0  0
 17 16  1  0  0  0  0
 19  2  1  1  0  0  0
 19 20  1  0  0  0  0
 19 17  1  0  0  0  0
 20 21  1  6  0  0  0
 20 22  1  0  0  0  0
 22 23  1  1  0  0  0
 22 14  1  0  0  0  0
 24 23  1  1  0  0  0
 24 25  1  0  0  0  0
 25 27  1  0  0  0  0
 25 26  1  1  0  0  0
 27 28  1  1  0  0  0
 28 29  1  0  0  0  0
 30 31  1  6  0  0  0
 30 32  1  0  0  0  0
 30 27  1  0  0  0  0
 33 30  1  0  0  0  0
 34 33  1  0  0  0  0
 34 24  1  0  0  0  0
M  END
>  <CHROM.1>
-133.55091753,-62.01113288,-172.65080836,88.38336896,-139.64883149,-85.88250890
-3.47056543,15.46697560,36.72366162,-0.77377673,-0.36724180,3.05228498

>  <Name>
lig.pdb

>  <RI>
0

>  <Rbt.Current_Directory>
/home/itssahil/PROJECTS/Mol_Feturizer/New_Systems/rnas/4k32

>  <Rbt.Executable>
rbdock ($Id: //depot/dev/client3/rdock/2013.1/src/exe/rbdock.cxx#4 $)

>  <Rbt.Library>
libRbt.so (2013.1, Build901 2013/11/27)

>  <Rbt.Parameter_File>
/export/apps/rDock/src/rDock_2013.1_src/data/scripts/dock_solv.prm

>  <Rbt.Receptor>
prm/pocket_docking_2.prm

>  <SCORE>
-17.7771

>  <SCORE.INTER>
-17.4151

>  <SCORE.INTER.CONST>
1

>  <SCORE.INTER.POLAR>
0

>  <SCORE.INTER.ROT>
6

>  <SCORE.INTER.SOLV>
23.5478

>  <SCORE.INTER.VDW>
-27.0593

>  <SCORE.INTER.norm>
-0.512208

>  <SCORE.INTRA>
-0.385243

>  <SCORE.INTRA.DIHEDRAL>
-2.16227

>  <SCORE.INTRA.DIHEDRAL.0>
18.0069

>  <SCORE.INTRA.POLAR>
0

>  <SCORE.INTRA.POLAR.0>
0

>  <SCORE.INTRA.REPUL>
0

>  <SCORE.INTRA.REPUL.0>
0

>  <SCORE.INTRA.SOLV>
0.269826

>  <SCORE.INTRA.SOLV.lig_0>
-70.7393

>  <SCORE.INTRA.VDW>
0.560978

>  <SCORE.INTRA.VDW.0>
-3.23471

>  <SCORE.INTRA.norm>
-0.0113307

>  <SCORE.RESTR>
0.023257

>  <SCORE.RESTR.CAVITY>
0.023257

>  <SCORE.RESTR.norm>
0.000684028

>  <SCORE.SYSTEM>
0

>  <SCORE.SYSTEM.CONST>
0

>  <SCORE.SYSTEM.DIHEDRAL>
0

>  <SCORE.SYSTEM.SOLV>
0

>  <SCORE.SYSTEM.norm>
0

>  <SCORE.heavy>
34

>  <SCORE.norm>
-0.522855

>  <RMSD>
0.885

$$$$
lig.pdb
 OpenBabel11021811503D
libRbt.so/2013.1/901 2013/11/27
 34 36  0  0  0  0  0  0  0  0999 V2000
   -1.4692   16.6771   35.1824 C   0  0  2  0  0  0  0  0  0  0  0  0
   -2.0344   17.3082   36.3367 O   0  0  0  0  0  0  0  0  0  0  0  0
   -0.1386   15.9282   35.6183 C   0  0  2  0  0  0  0  0  0  0  0  0
   -0.4013   14.8888   36.6408 N   0  0  0  0  0  0  0  0  0  0  0  0
    0.8785   16.9614   36.1649 C   0  0  1  0  0  0  0  0  0  0  0  0
    2.0871   16.3060   36.5564 O   0  0  0  0  0  0  0  0  0  0  0  0
    1.1409   18.0150   35.0741 C   0  0  2  0  0  0  0  0  0  0  0  0
    2.0808   18.9726   35.5640 O   0  0  0  0  0  0  0  0  0  0  0  0
   -0.2149   18.7121   34.6715 C   0  0  2  0  0  0  0  0  0  0  0  0
   -1.1918   17.7151   34.1842 O   0  0  0  0  0  0  0  0  0  0  0  0
   -0.0034   19.7716   33.5617 C   0  0  2  0  0  0  0  0  0  0  0  0
    0.8541   20.8096   34.0402 O   0  0  0  0  0  0  0  0  0  0  0  0
   -1.3247   20.3918   33.1348 C   0  0  0  0  0  0  0  0  0  0  0  0
   -5.6776   16.4305   38.4040 C   0  0  2  0  0  0  0  0  0  0  0  0
   -7.1045   16.3313   38.7204 N   0  0  0  0  0  0  0  0  0  0  0  0
   -5.3883   17.9131   38.0407 C   0  0  0  0  0  0  0  0  0  0  0  0
   -3.8736   18.0437   37.7252 C   0  0  2  0  0  0  0  0  0  0  0  0
   -3.5519   19.4374   37.3800 N   0  0  0  0  0  0  0  0  0  0  0  0
   -3.4705   17.1202   36.5444 C   0  0  2  0  0  0  0  0  0  0  0  0
   -3.8125   15.6423   36.9141 C   0  0  2  0  0  0  0  0  0  0  0  0
   -3.4504   14.7914   35.8180 O   0  0  0  0  0  0  0  0  0  0  0  0
   -5.3282   15.4791   37.1832 C   0  0  1  0  0  0  0  0  0  0  0  0
   -5.5585   14.0906   37.5282 O   0  0  0  0  0  0  0  0  0  0  0  0
   -6.8952   13.5899   37.2915 C   0  0  2  0  0  0  0  0  0  0  0  0
   -7.2426   12.6711   38.5214 C   0  0  2  0  0  0  0  0  0  0  0  0
   -7.2068   13.4333   39.7177 O   0  0  0  0  0  0  0  0  0  0  0  0
   -6.2112   11.4813   38.5794 C   0  0  1  0  0  0  0  0  0  0  0  0
   -6.4975   10.5859   39.7415 N   0  0  0  0  0  0  0  0  0  0  0  0
   -5.7895   11.1049   40.9314 C   0  0  0  0  0  0  0  0  0  0  0  0
   -6.3039   10.6811   37.2446 C   0  0  2  0  0  0  0  0  0  0  0  0
   -7.6268   10.1632   37.1127 O   0  0  0  0  0  0  0  0  0  0  0  0
   -5.3251    9.5099   37.2165 C   0  0  0  0  0  0  0  0  0  0  0  0
   -6.0037   11.6419   36.0497 C   0  0  0  0  0  0  0  0  0  0  0  0
   -6.9325   12.7915   36.0498 O   0  0  0  0  0  0  0  0  0  0  0  0
  1  3  1  0  0  0  0
  1  2  1  1  0  0  0
  3  5  1  0  0  0  0
  3  4  1  1  0  0  0
  5  6  1  6  0  0  0
  7  8  1  1  0  0  0
  7  5  1  0  0  0  0
  9 10  1  6  0  0  0
  9  7  1  0  0  0  0
 10  1  1  0  0  0  0
 11 13  1  1  0  0  0
 11  9  1  0  0  0  0
 12 11  1  0  0  0  0
 14 15  1  6  0  0  0
 16 14  1  0  0  0  0
 17 18  1  6  0  0  0
 17 16  1  0  0  0  0
 19  2  1  1  0  0  0
 19 20  1  0  0  0  0
 19 17  1  0  0  0  0
 20 21  1  6  0  0  0
 20 22  1  0  0  0  0
 22 23  1  1  0  0  0
 22 14  1  0  0  0  0
 24 23  1  1  0  0  0
 24 25  1  0  0  0  0
 25 27  1  0  0  0  0
 25 26  1  1  0  0  0
 27 28  1  1  0  0  0
 28 29  1  0  0  0  0
 30 31  1  6  0  0  0
 30 32  1  0  0  0  0
 30 27  1  0  0  0  0
 33 30  1  0  0  0  0
 34 33  1  0  0  0  0
 34 24  1  0  0  0  0
M  END
>  <CHROM.1>
-133.23305305,-62.41605548,-172.43708949,88.17562631,-139.70959292,-87.59506403
-3.48120890,15.44776999,36.73589650,-0.77825724,-0.36401467,3.04574407

>  <Name>
lig.pdb

>  <RI>
0

>  <Rbt.Current_Directory>
/home/itssahil/PROJECTS/Mol_Feturizer/New_Systems/rnas/4k32

>  <Rbt.Executable>
rbdock ($Id: //depot/dev/client3/rdock/2013.1/src/exe/rbdock.cxx#4 $)

>  <Rbt.Library>
libRbt.so (2013.1, Build901 2013/11/27)

>  <Rbt.Parameter_File>
/export/apps/rDock/src/rDock_2013.1_src/data/scripts/dock_solv.prm

>  <Rbt.Receptor>
prm/pocket_docking_2.prm

>  <SCORE>
-17.6902

>  <SCORE.INTER>
-17.2242

>  <SCORE.INTER.CONST>
1

>  <SCORE.INTER.POLAR>
0

>  <SCORE.INTER.ROT>
6

>  <SCORE.INTER.SOLV>
23.5317

>  <SCORE.INTER.VDW>
-26.9267

>  <SCORE.INTER.norm>
-0.506593

>  <SCORE.INTRA>
-0.47275

>  <SCORE.INTRA.DIHEDRAL>
-2.09756

>  <SCORE.INTRA.DIHEDRAL.0>
18.0069

>  <SCORE.INTRA.POLAR>
0

>  <SCORE.INTRA.POLAR.0>
0

>  <SCORE.INTRA.REPUL>
0

>  <SCORE.INTRA.REPUL.0>
0

>  <SCORE.INTRA.SOLV>
0.279138

>  <SCORE.INTRA.SOLV.lig_0>
-70.7393

>  <SCORE.INTRA.VDW>
0.436459

>  <SCORE.INTRA.VDW.0>
-3.23471

>  <SCORE.INTRA.norm>
-0.0139044

>  <SCORE.RESTR>
0.00671824

>  <SCORE.RESTR.CAVITY>
0.00671824

>  <SCORE.RESTR.norm>
0.000197595

>  <SCORE.SYSTEM>
0

>  <SCORE.SYSTEM.CONST>
0

>  <SCORE.SYSTEM.DIHEDRAL>
0

>  <SCORE.SYSTEM.SOLV>
0

>  <SCORE.SYSTEM.norm>
0

>  <SCORE.heavy>
34

>  <SCORE.norm>
-0.5203

>  <RMSD>
0.893

$$$$
lig.pdb
 OpenBabel11021811503D
libRbt.so/2013.1/901 2013/11/27
 34 36  0  0  0  0  0  0  0  0999 V2000
   -1.1942   16.6327   35.4421 C   0  0  2  0  0  0  0  0  0  0  0  0
   -1.7366   17.2996   36.5872 O   0  0  0  0  0  0  0  0  0  0  0  0
    0.2307   16.0476   35.8276 C   0  0  2  0  0  0  0  0  0  0  0  0
    0.1433   15.0739   36.9408 N   0  0  0  0  0  0  0  0  0  0  0  0
    1.1771   17.2110   36.2169 C   0  0  1  0  0  0  0  0  0  0  0  0
    2.4685   16.7037   36.5609 O   0  0  0  0  0  0  0  0  0  0  0  0
    1.2580   18.1932   35.0348 C   0  0  2  0  0  0  0  0  0  0  0  0
    2.1313   19.2699   35.3792 O   0  0  0  0  0  0  0  0  0  0  0  0
   -0.1845   18.7274   34.6881 C   0  0  2  0  0  0  0  0  0  0  0  0
   -1.0905   17.6084   34.3520 O   0  0  0  0  0  0  0  0  0  0  0  0
   -0.1560   19.7094   33.4906 C   0  0  2  0  0  0  0  0  0  0  0  0
    0.7652   20.7691   33.7552 O   0  0  0  0  0  0  0  0  0  0  0  0
   -1.5299   20.3115   33.2408 C   0  0  0  0  0  0  0  0  0  0  0  0
   -5.5217   17.0181   38.5648 C   0  0  2  0  0  0  0  0  0  0  0  0
   -6.9642   17.0703   38.8148 N   0  0  0  0  0  0  0  0  0  0  0  0
   -5.1031   18.4003   37.9920 C   0  0  0  0  0  0  0  0  0  0  0  0
   -3.5707   18.3730   37.7428 C   0  0  2  0  0  0  0  0  0  0  0  0
   -3.1275   19.6682   37.2035 N   0  0  0  0  0  0  0  0  0  0  0  0
   -3.1905   17.2478   36.7433 C   0  0  2  0  0  0  0  0  0  0  0  0
   -3.6616   15.8749   37.3187 C   0  0  2  0  0  0  0  0  0  0  0  0
   -3.3201   14.8375   36.3892 O   0  0  0  0  0  0  0  0  0  0  0  0
   -5.1954   15.8628   37.5272 C   0  0  1  0  0  0  0  0  0  0  0  0
   -5.5472   14.5662   38.0704 O   0  0  0  0  0  0  0  0  0  0  0  0
   -6.8818   14.0931   37.7731 C   0  0  2  0  0  0  0  0  0  0  0  0
   -7.2319   13.0403   38.8895 C   0  0  2  0  0  0  0  0  0  0  0  0
   -7.2025   13.6621   40.1645 O   0  0  0  0  0  0  0  0  0  0  0  0
   -6.1980   11.8535   38.8166 C   0  0  1  0  0  0  0  0  0  0  0  0
   -6.4868   10.8316   39.8686 N   0  0  0  0  0  0  0  0  0  0  0  0
   -5.8066   11.2281   41.1203 C   0  0  0  0  0  0  0  0  0  0  0  0
   -6.2836   11.2094   37.3994 C   0  0  2  0  0  0  0  0  0  0  0  0
   -7.6048   10.7074   37.2042 O   0  0  0  0  0  0  0  0  0  0  0  0
   -5.3020   10.0508   37.2429 C   0  0  0  0  0  0  0  0  0  0  0  0
   -5.9810   12.2999   36.3222 C   0  0  0  0  0  0  0  0  0  0  0  0
   -6.9125   13.4405   36.4487 O   0  0  0  0  0  0  0  0  0  0  0  0
  1  3  1  0  0  0  0
  1  2  1  1  0  0  0
  3  5  1  0  0  0  0
  3  4  1  1  0  0  0
  5  6  1  6  0  0  0
  7  8  1  1  0  0  0
  7  5  1  0  0  0  0
  9 10  1  6  0  0  0
  9  7  1  0  0  0  0
 10  1  1  0  0  0  0
 11 13  1  1  0  0  0
 11  9  1  0  0  0  0
 12 11  1  0  0  0  0
 14 15  1  6  0  0  0
 16 14  1  0  0  0  0
 17 18  1  6  0  0  0
 17 16  1  0  0  0  0
 19  2  1  1  0  0  0
 19 20  1  0  0  0  0
 19 17  1  0  0  0  0
 20 21  1  6  0  0  0
 20 22  1  0  0  0  0
 22 23  1  1  0  0  0
 22 14  1  0  0  0  0
 24 23  1  1  0  0  0
 24 25  1  0  0  0  0
 25 27  1  0  0  0  0
 25 26  1  1  0  0  0
 27 28  1  1  0  0  0
 28 29  1  0  0  0  0
 30 31  1  6  0  0  0
 30 32  1  0  0  0  0
 30 27  1  0  0  0  0
 33 30  1  0  0  0  0
 34 33  1  0  0  0  0
 34 24  1  0  0  0  0
M  END
>  <CHROM.1>
-146.91018689,-54.82480644,-162.41084830,91.78765035,-157.32472321,-86.47563362
-3.36094126,15.72554085,36.90363204,-0.75543134,-0.34736457,2.99211901

>  <Name>
lig.pdb

>  <RI>
0

>  <Rbt.Current_Directory>
/home/itssahil/PROJECTS/Mol_Feturizer/New_Systems/rnas/4k32

>  <Rbt.Executable>
rbdock ($Id: //depot/dev/client3/rdock/2013.1/src/exe/rbdock.cxx#4 $)

>  <Rbt.Library>
libRbt.so (2013.1, Build901 2013/11/27)

>  <Rbt.Parameter_File>
/export/apps/rDock/src/rDock_2013.1_src/data/scripts/dock_solv.prm

>  <Rbt.Receptor>
prm/pocket_docking_4.prm

>  <SCORE>
-18.9873

>  <SCORE.INTER>
-16.3599

>  <SCORE.INTER.CONST>
1

>  <SCORE.INTER.POLAR>
0

>  <SCORE.INTER.ROT>
6

>  <SCORE.INTER.SOLV>
23.3345

>  <SCORE.INTER.VDW>
-26.2848

>  <SCORE.INTER.norm>
-0.481174

>  <SCORE.INTRA>
-2.65871

>  <SCORE.INTRA.DIHEDRAL>
-5.61068

>  <SCORE.INTRA.DIHEDRAL.0>
18.0069

>  <SCORE.INTRA.POLAR>
0

>  <SCORE.INTRA.POLAR.0>
0

>  <SCORE.INTRA.REPUL>
0

>  <SCORE.INTRA.REPUL.0>
0

>  <SCORE.INTRA.SOLV>
-0.183098

>  <SCORE.INTRA.SOLV.lig_0>
-70.7393

>  <SCORE.INTRA.VDW>
0.238179

>  <SCORE.INTRA.VDW.0>
-3.23471

>  <SCORE.INTRA.norm>
-0.0781974

>  <SCORE.RESTR>
0.0312778

>  <SCORE.RESTR.CAVITY>
0.0312778

>  <SCORE.RESTR.norm>
0.000919934

>  <SCORE.SYSTEM>
0

>  <SCORE.SYSTEM.CONST>
0

>  <SCORE.SYSTEM.DIHEDRAL>
0

>  <SCORE.SYSTEM.SOLV>
0

>  <SCORE.SYSTEM.norm>
0

>  <SCORE.heavy>
34

>  <SCORE.norm>
-0.558451

>  <RMSD>
0.893

$$$$
lig.pdb
 OpenBabel11021811503D
libRbt.so/2013.1/901 2013/11/27
 34 36  0  0  0  0  0  0  0  0999 V2000
   -1.4619   16.6745   35.2119 C   0  0  2  0  0  0  0  0  0  0  0  0
   -2.0350   17.3230   36.3525 O   0  0  0  0  0  0  0  0  0  0  0  0
   -0.1350   15.9314   35.6684 C   0  0  2  0  0  0  0  0  0  0  0  0
   -0.4058   14.9075   36.7044 N   0  0  0  0  0  0  0  0  0  0  0  0
    0.8788   16.9721   36.2071 C   0  0  1  0  0  0  0  0  0  0  0  0
    2.0841   16.3219   36.6170 O   0  0  0  0  0  0  0  0  0  0  0  0
    1.1499   18.0092   35.1027 C   0  0  2  0  0  0  0  0  0  0  0  0
    2.0868   18.9735   35.5851 O   0  0  0  0  0  0  0  0  0  0  0  0
   -0.2025   18.7010   34.6799 C   0  0  2  0  0  0  0  0  0  0  0  0
   -1.1766   17.6974   34.2004 O   0  0  0  0  0  0  0  0  0  0  0  0
    0.0177   19.7438   33.5561 C   0  0  2  0  0  0  0  0  0  0  0  0
    0.8998   20.7704   34.0141 O   0  0  0  0  0  0  0  0  0  0  0  0
   -1.2958   20.3844   33.1355 C   0  0  0  0  0  0  0  0  0  0  0  0
   -5.6823   16.4376   38.4092 C   0  0  2  0  0  0  0  0  0  0  0  0
   -7.1100   16.3364   38.7219 N   0  0  0  0  0  0  0  0  0  0  0  0
   -5.3935   17.9212   38.0498 C   0  0  0  0  0  0  0  0  0  0  0  0
   -3.8782   18.0539   37.7382 C   0  0  2  0  0  0  0  0  0  0  0  0
   -3.5569   19.4485   37.3969 N   0  0  0  0  0  0  0  0  0  0  0  0
   -3.4715   17.1333   36.5564 C   0  0  2  0  0  0  0  0  0  0  0  0
   -3.8131   15.6543   36.9219 C   0  0  2  0  0  0  0  0  0  0  0  0
   -3.4475   14.8061   35.8249 O   0  0  0  0  0  0  0  0  0  0  0  0
   -5.3292   15.4891   37.1871 C   0  0  1  0  0  0  0  0  0  0  0  0
   -5.5590   14.0997   37.5284 O   0  0  0  0  0  0  0  0  0  0  0  0
   -6.8925   13.5960   37.2795 C   0  0  2  0  0  0  0  0  0  0  0  0
   -7.2475   12.6731   38.5041 C   0  0  2  0  0  0  0  0  0  0  0  0
   -7.2235   13.4324   39.7026 O   0  0  0  0  0  0  0  0  0  0  0  0
   -6.2134   11.4860   38.5676 C   0  0  1  0  0  0  0  0  0  0  0  0
   -6.5068   10.5868   39.7251 N   0  0  0  0  0  0  0  0  0  0  0  0
   -5.8179   11.1102   40.9243 C   0  0  0  0  0  0  0  0  0  0  0  0
   -6.2928   10.6889   37.2301 C   0  0  2  0  0  0  0  0  0  0  0  0
   -7.6132   10.1678   37.0860 O   0  0  0  0  0  0  0  0  0  0  0  0
   -5.3107    9.5205   37.2072 C   0  0  0  0  0  0  0  0  0  0  0  0
   -5.9854   11.6535   36.0401 C   0  0  0  0  0  0  0  0  0  0  0  0
   -6.9174   12.8007   36.0355 O   0  0  0  0  0  0  0  0  0  0  0  0
  1  3  1  0  0  0  0
  1  2  1  1  0  0  0
  3  5  1  0  0  0  0
  3  4  1  1  0  0  0
  5  6  1  6  0  0  0
  7  8  1  1  0  0  0
  7  5  1  0  0  0  0
  9 10  1  6  0  0  0
  9  7  1  0  0  0  0
 10  1  1  0  0  0  0
 11 13  1  1  0  0  0
 11  9  1  0  0  0  0
 12 11  1  0  0  0  0
 14 15  1  6  0  0  0
 16 14  1  0  0  0  0
 17 18  1  6  0  0  0
 17 16  1  0  0  0  0
 19  2  1  1  0  0  0
 19 20  1  0  0  0  0
 19 17  1  0  0  0  0
 20 21  1  6  0  0  0
 20 22  1  0  0  0  0
 22 23  1  1  0  0  0
 22 14  1  0  0  0  0
 24 23  1  1  0  0  0
 24 25  1  0  0  0  0
 25 27  1  0  0  0  0
 25 26  1  1  0  0  0
 27 28  1  1  0  0  0
 28 29  1  0  0  0  0
 30 31  1  6  0  0  0
 30 32  1  0  0  0  0
 30 27  1  0  0  0  0
 33 30  1  0  0  0  0
 34 33  1  0  0  0  0
 34 24  1  0  0  0  0
M  END
>  <CHROM.1>
-132.92924317,-60.94306156,-173.55608081,88.55669707,-139.79521230,-87.19068430
-3.47720718,15.45107195,36.74235494,-0.77591931,-0.36204298,3.04795599

>  <Name>
lig.pdb

>  <RI>
0

>  <Rbt.Current_Directory>
/home/itssahil/PROJECTS/Mol_Feturizer/New_Systems/rnas/4k32

>  <Rbt.Executable>
rbdock ($Id: //depot/dev/client3/rdock/2013.1/src/exe/rbdock.cxx#4 $)

>  <Rbt.Library>
libRbt.so (2013.1, Build901 2013/11/27)

>  <Rbt.Parameter_File>
/export/apps/rDock/src/rDock_2013.1_src/data/scripts/dock_solv.prm

>  <Rbt.Receptor>
prm/pocket_docking_2.prm

>  <SCORE>
-17.7059

>  <SCORE.INTER>
-17.3142

>  <SCORE.INTER.CONST>
1

>  <SCORE.INTER.POLAR>
0

>  <SCORE.INTER.ROT>
6

>  <SCORE.INTER.SOLV>
23.4901

>  <SCORE.INTER.VDW>
-26.9728

>  <SCORE.INTER.norm>
-0.509241

>  <SCORE.INTRA>
-0.413375

>  <SCORE.INTRA.DIHEDRAL>
-2.10891

>  <SCORE.INTRA.DIHEDRAL.0>
18.0069

>  <SCORE.INTRA.POLAR>
0

>  <SCORE.INTRA.POLAR.0>
0

>  <SCORE.INTRA.REPUL>
0

>  <SCORE.INTRA.REPUL.0>
0

>  <SCORE.INTRA.SOLV>
0.272607

>  <SCORE.INTRA.SOLV.lig_0>
-70.7393

>  <SCORE.INTRA.VDW>
0.504776

>  <SCORE.INTRA.VDW.0>
-3.23471

>  <SCORE.INTRA.norm>
-0.0121581

>  <SCORE.RESTR>
0.0216517

>  <SCORE.RESTR.CAVITY>
0.0216517

>  <SCORE.RESTR.norm>
0.000636816

>  <SCORE.SYSTEM>
0

>  <SCORE.SYSTEM.CONST>
0

>  <SCORE.SYSTEM.DIHEDRAL>
0

>  <SCORE.SYSTEM.SOLV>
0

>  <SCORE.SYSTEM.norm>
0

>  <SCORE.heavy>
34

>  <SCORE.norm>
-0.520762

>  <RMSD>
0.896

$$$$
lig.pdb
 OpenBabel11021811503D
libRbt.so/2013.1/901 2013/11/27
 34 36  0  0  0  0  0  0  0  0999 V2000
   -1.4424   16.6707   35.1727 C   0  0  2  0  0  0  0  0  0  0  0  0
   -2.0062   17.3056   36.3256 O   0  0  0  0  0  0  0  0  0  0  0  0
   -0.1173   15.9140   35.6116 C   0  0  2  0  0  0  0  0  0  0  0  0
   -0.3883   14.8765   36.6339 N   0  0  0  0  0  0  0  0  0  0  0  0
    0.9049   16.9413   36.1601 C   0  0  1  0  0  0  0  0  0  0  0  0
    2.1086   16.2787   36.5543 O   0  0  0  0  0  0  0  0  0  0  0  0
    1.1759   17.9929   35.0695 C   0  0  2  0  0  0  0  0  0  0  0  0
    2.1205   18.9450   35.5611 O   0  0  0  0  0  0  0  0  0  0  0  0
   -0.1748   18.6980   34.6638 C   0  0  2  0  0  0  0  0  0  0  0  0
   -1.1567   17.7067   34.1747 O   0  0  0  0  0  0  0  0  0  0  0  0
    0.0454   19.7559   33.5541 C   0  0  2  0  0  0  0  0  0  0  0  0
    0.9109   20.7870   34.0330 O   0  0  0  0  0  0  0  0  0  0  0  0
   -1.2708   20.3864   33.1268 C   0  0  0  0  0  0  0  0  0  0  0  0
   -5.6504   16.4233   38.3892 C   0  0  2  0  0  0  0  0  0  0  0  0
   -7.0773   16.3270   38.7066 N   0  0  0  0  0  0  0  0  0  0  0  0
   -5.3554   17.9081   38.0398 C   0  0  0  0  0  0  0  0  0  0  0  0
   -3.8405   18.0354   37.7236 C   0  0  2  0  0  0  0  0  0  0  0  0
   -3.5134   19.4309   37.3915 N   0  0  0  0  0  0  0  0  0  0  0  0
   -3.4429   17.1216   36.5334 C   0  0  2  0  0  0  0  0  0  0  0  0
   -3.7906   15.6417   36.8892 C   0  0  2  0  0  0  0  0  0  0  0  0
   -3.4335   14.7999   35.7845 O   0  0  0  0  0  0  0  0  0  0  0  0
   -5.3066   15.4822   37.1588 C   0  0  1  0  0  0  0  0  0  0  0  0
   -5.5423   14.0915   37.4906 O   0  0  0  0  0  0  0  0  0  0  0  0
   -6.8796   13.5969   37.2446 C   0  0  2  0  0  0  0  0  0  0  0  0
   -7.2427   12.6858   38.4757 C   0  0  2  0  0  0  0  0  0  0  0  0
   -7.2132   13.4535   39.6687 O   0  0  0  0  0  0  0  0  0  0  0  0
   -6.2184   11.4908   38.5483 C   0  0  1  0  0  0  0  0  0  0  0  0
   -6.5197   10.6024   39.7120 N   0  0  0  0  0  0  0  0  0  0  0  0
   -5.8881   11.1693   40.9230 C   0  0  0  0  0  0  0  0  0  0  0  0
   -6.3038   10.6847   37.2165 C   0  0  2  0  0  0  0  0  0  0  0  0
   -7.6282   10.1734   37.0755 O   0  0  0  0  0  0  0  0  0  0  0  0
   -5.3312    9.5082   37.2025 C   0  0  0  0  0  0  0  0  0  0  0  0
   -5.9879   11.6382   36.0198 C   0  0  0  0  0  0  0  0  0  0  0  0
   -6.9105   12.7929   36.0063 O   0  0  0  0  0  0  0  0  0  0  0  0
  1  3  1  0  0  0  0
  1  2  1  1  0  0  0
  3  5  1  0  0  0  0
  3  4  1  1  0  0  0
  5  6  1  6  0  0  0
  7  8  1  1  0  0  0
  7  5  1  0  0  0  0
  9 10  1  6  0  0  0
  9  7  1  0  0  0  0
 10  1  1  0  0  0  0
 11 13  1  1  0  0  0
 11  9  1  0  0  0  0
 12 11  1  0  0  0  0
 14 15  1  6  0  0  0
 16 14  1  0  0  0  0
 17 18  1  6  0  0  0
 17 16  1  0  0  0  0
 19  2  1  1  0  0  0
 19 20  1  0  0  0  0
 19 17  1  0  0  0  0
 20 21  1  6  0  0  0
 20 22  1  0  0  0  0
 22 23  1  1  0  0  0
 22 14  1  0  0  0  0
 24 23  1  1  0  0  0
 24 25  1  0  0  0  0
 25 27  1  0  0  0  0
 25 26  1  1  0  0  0
 27 28  1  1  0  0  0
 28 29  1  0  0  0  0
 30 31  1  6  0  0  0
 30 32  1  0  0  0  0
 30 27  1  0  0  0  0
 33 30  1  0  0  0  0
 34 33  1  0  0  0  0
 34 24  1  0  0  0  0
M  END
>  <CHROM.1>
-132.98381694,-62.26680156,-173.12016089,88.47566661,-138.86924561,-84.13086077
-3.46306094,15.44567005,36.71801339,-0.76925823,-0.36930506,3.05714932

>  <Name>
lig.pdb

>  <RI>
0

>  <Rbt.Current_Directory>
/home/itssahil/PROJECTS/Mol_Feturizer/New_Systems/rnas/4k32

>  <Rbt.Executable>
rbdock ($Id: //depot/dev/client3/rdock/2013.1/src/exe/rbdock.cxx#4 $)

>  <Rbt.Library>
libRbt.so (2013.1, Build901 2013/11/27)

>  <Rbt.Parameter_File>
/export/apps/rDock/src/rDock_2013.1_src/data/scripts/dock_solv.prm

>  <Rbt.Receptor>
prm/pocket_docking_2.prm

>  <SCORE>
-17.7484

>  <SCORE.INTER>
-17.6

>  <SCORE.INTER.CONST>
1

>  <SCORE.INTER.POLAR>
0

>  <SCORE.INTER.ROT>
6

>  <SCORE.INTER.SOLV>
23.5266

>  <SCORE.INTER.VDW>
-27.1756

>  <SCORE.INTER.norm>
-0.517648

>  <SCORE.INTRA>
-0.177958

>  <SCORE.INTRA.DIHEDRAL>
-2.03431

>  <SCORE.INTRA.DIHEDRAL.0>
18.0069

>  <SCORE.INTRA.POLAR>
0

>  <SCORE.INTRA.POLAR.0>
0

>  <SCORE.INTRA.REPUL>
0

>  <SCORE.INTRA.REPUL.0>
0

>  <SCORE.INTRA.SOLV>
0.316397

>  <SCORE.INTRA.SOLV.lig_0>
-70.7393

>  <SCORE.INTRA.VDW>
0.680997

>  <SCORE.INTRA.VDW.0>
-3.23471

>  <SCORE.INTRA.norm>
-0.00523407

>  <SCORE.RESTR>
0.0296263

>  <SCORE.RESTR.CAVITY>
0.0296263

>  <SCORE.RESTR.norm>
0.000871361

>  <SCORE.SYSTEM>
0

>  <SCORE.SYSTEM.CONST>
0

>  <SCORE.SYSTEM.DIHEDRAL>
0

>  <SCORE.SYSTEM.SOLV>
0

>  <SCORE.SYSTEM.norm>
0

>  <SCORE.heavy>
34

>  <SCORE.norm>
-0.522011

>  <RMSD>
0.906

$$$$
lig.pdb
 OpenBabel11021811503D
libRbt.so/2013.1/901 2013/11/27
 34 36  0  0  0  0  0  0  0  0999 V2000
   -1.4686   16.6500   35.2209 C   0  0  2  0  0  0  0  0  0  0  0  0
   -2.0386   17.3085   36.3575 O   0  0  0  0  0  0  0  0  0  0  0  0
   -0.1422   15.9083   35.6808 C   0  0  2  0  0  0  0  0  0  0  0  0
   -0.4127   14.8930   36.7253 N   0  0  0  0  0  0  0  0  0  0  0  0
    0.8744   16.9514   36.2094 C   0  0  1  0  0  0  0  0  0  0  0  0
    2.0793   16.3024   36.6222 O   0  0  0  0  0  0  0  0  0  0  0  0
    1.1452   17.9793   35.0963 C   0  0  2  0  0  0  0  0  0  0  0  0
    2.0846   18.9457   35.5694 O   0  0  0  0  0  0  0  0  0  0  0  0
   -0.2069   18.6701   34.6707 C   0  0  2  0  0  0  0  0  0  0  0  0
   -1.1835   17.6644   34.2008 O   0  0  0  0  0  0  0  0  0  0  0  0
    0.0131   19.7037   33.5382 C   0  0  2  0  0  0  0  0  0  0  0  0
    0.9356   20.7059   33.9698 O   0  0  0  0  0  0  0  0  0  0  0  0
   -1.2925   20.3802   33.1503 C   0  0  0  0  0  0  0  0  0  0  0  0
   -5.6911   16.4602   38.4205 C   0  0  2  0  0  0  0  0  0  0  0  0
   -7.1193   16.3688   38.7334 N   0  0  0  0  0  0  0  0  0  0  0  0
   -5.3952   17.9389   38.0467 C   0  0  0  0  0  0  0  0  0  0  0  0
   -3.8790   18.0615   37.7348 C   0  0  2  0  0  0  0  0  0  0  0  0
   -3.5511   19.4512   37.3800 N   0  0  0  0  0  0  0  0  0  0  0  0
   -3.4760   17.1274   36.5623 C   0  0  2  0  0  0  0  0  0  0  0  0
   -3.8246   15.6537   36.9421 C   0  0  2  0  0  0  0  0  0  0  0  0
   -3.4624   14.7931   35.8536 O   0  0  0  0  0  0  0  0  0  0  0  0
   -5.3417   15.4982   37.2080 C   0  0  1  0  0  0  0  0  0  0  0  0
   -5.5782   14.1133   37.5628 O   0  0  0  0  0  0  0  0  0  0  0  0
   -6.9111   13.6106   37.3091 C   0  0  2  0  0  0  0  0  0  0  0  0
   -7.2660   12.6774   38.5259 C   0  0  2  0  0  0  0  0  0  0  0  0
   -7.2432   13.4267   39.7306 O   0  0  0  0  0  0  0  0  0  0  0  0
   -6.2310   11.4906   38.5800 C   0  0  1  0  0  0  0  0  0  0  0  0
   -6.5242   10.5816   39.7298 N   0  0  0  0  0  0  0  0  0  0  0  0
   -5.8273   11.0895   40.9311 C   0  0  0  0  0  0  0  0  0  0  0  0
   -6.3092   10.7045   37.2359 C   0  0  2  0  0  0  0  0  0  0  0  0
   -7.6291   10.1836   37.0869 O   0  0  0  0  0  0  0  0  0  0  0  0
   -5.3261    9.5371   37.2037 C   0  0  0  0  0  0  0  0  0  0  0  0
   -6.0020   11.6792   36.0541 C   0  0  0  0  0  0  0  0  0  0  0  0
   -6.9348   12.8257   36.0585 O   0  0  0  0  0  0  0  0  0  0  0  0
  1  3  1  0  0  0  0
  1  2  1  1  0  0  0
  3  5  1  0  0  0  0
  3  4  1  1  0  0  0
  5  6  1  6  0  0  0
  7  8  1  1  0  0  0
  7  5  1  0  0  0  0
  9 10  1  6  0  0  0
  9  7  1  0  0  0  0
 10  1  1  0  0  0  0
 11 13  1  1  0  0  0
 11  9  1  0  0  0  0
 12 11  1  0  0  0  0
 14 15  1  6  0  0  0
 16 14  1  0  0  0  0
 17 18  1  6  0  0  0
 17 16  1  0  0  0  0
 19  2  1  1  0  0  0
 19 20  1  0  0  0  0
 19 17  1  0  0  0  0
 20 21  1  6  0  0  0
 20 22  1  0  0  0  0
 22 23  1  1  0  0  0
 22 14  1  0  0  0  0
 24 23  1  1  0  0  0
 24 25  1  0  0  0  0
 25 27  1  0  0  0  0
 25 26  1  1  0  0  0
 27 28  1  1  0  0  0
 28 29  1  0  0  0  0
 30 31  1  6  0  0  0
 30 32  1  0  0  0  0
 30 27  1  0  0  0  0
 33 30  1  0  0  0  0
 34 33  1  0  0  0  0
 34 24  1  0  0  0  0
M  END
>  <CHROM.1>
-133.17857749,-58.85235332,-173.34277021,88.98502395,-140.99456310,-87.64583427
-3.48526300,15.44577656,36.74907035,-0.77212648,-0.36288231,3.04609077

>  <Name>
lig.pdb

>  <RI>
0

>  <Rbt.Current_Directory>
/home/itssahil/PROJECTS/Mol_Feturizer/New_Systems/rnas/4k32

>  <Rbt.Executable>
rbdock ($Id: //depot/dev/client3/rdock/2013.1/src/exe/rbdock.cxx#4 $)

>  <Rbt.Library>
libRbt.so (2013.1, Build901 2013/11/27)

>  <Rbt.Parameter_File>
/export/apps/rDock/src/rDock_2013.1_src/data/scripts/dock_solv.prm

>  <Rbt.Receptor>
prm/pocket_docking_2.prm

>  <SCORE>
-17.7361

>  <SCORE.INTER>
-17.2375

>  <SCORE.INTER.CONST>
1

>  <SCORE.INTER.POLAR>
0

>  <SCORE.INTER.ROT>
6

>  <SCORE.INTER.SOLV>
23.569

>  <SCORE.INTER.VDW>
-26.948

>  <SCORE.INTER.norm>
-0.506986

>  <SCORE.INTRA>
-0.52173

>  <SCORE.INTRA.DIHEDRAL>
-2.22468

>  <SCORE.INTRA.DIHEDRAL.0>
18.0069

>  <SCORE.INTRA.POLAR>
0

>  <SCORE.INTRA.POLAR.0>
0

>  <SCORE.INTRA.REPUL>
0

>  <SCORE.INTRA.REPUL.0>
0

>  <SCORE.INTRA.SOLV>
0.230624

>  <SCORE.INTRA.SOLV.lig_0>
-70.7393

>  <SCORE.INTRA.VDW>
0.475298

>  <SCORE.INTRA.VDW.0>
-3.23471

>  <SCORE.INTRA.norm>
-0.015345

>  <SCORE.RESTR>
0.0231312

>  <SCORE.RESTR.CAVITY>
0.0231312

>  <SCORE.RESTR.norm>
0.000680328

>  <SCORE.SYSTEM>
0

>  <SCORE.SYSTEM.CONST>
0

>  <SCORE.SYSTEM.DIHEDRAL>
0

>  <SCORE.SYSTEM.SOLV>
0

>  <SCORE.SYSTEM.norm>
0

>  <SCORE.heavy>
34

>  <SCORE.norm>
-0.521651

>  <RMSD>
0.908

$$$$
lig.pdb
 OpenBabel11021811503D
libRbt.so/2013.1/901 2013/11/27
 34 36  0  0  0  0  0  0  0  0999 V2000
   -1.1764   16.5961   35.4641 C   0  0  2  0  0  0  0  0  0  0  0  0
   -1.7337   17.2520   36.6084 O   0  0  0  0  0  0  0  0  0  0  0  0
    0.2442   16.0089   35.8620 C   0  0  2  0  0  0  0  0  0  0  0  0
    0.1441   15.0251   36.9652 N   0  0  0  0  0  0  0  0  0  0  0  0
    1.1845   17.1697   36.2735 C   0  0  1  0  0  0  0  0  0  0  0  0
    2.4721   16.6605   36.6289 O   0  0  0  0  0  0  0  0  0  0  0  0
    1.2790   18.1626   35.1014 C   0  0  2  0  0  0  0  0  0  0  0  0
    2.1467   19.2370   35.4663 O   0  0  0  0  0  0  0  0  0  0  0  0
   -0.1597   18.6985   34.7417 C   0  0  2  0  0  0  0  0  0  0  0  0
   -1.0602   17.5817   34.3843 O   0  0  0  0  0  0  0  0  0  0  0  0
   -0.1174   19.6913   33.5536 C   0  0  2  0  0  0  0  0  0  0  0  0
    0.7430   20.7876   33.8689 O   0  0  0  0  0  0  0  0  0  0  0  0
   -1.5030   20.2355   33.2424 C   0  0  0  0  0  0  0  0  0  0  0  0
   -5.5592   17.0524   38.5168 C   0  0  2  0  0  0  0  0  0  0  0  0
   -7.0062   17.1200   38.7358 N   0  0  0  0  0  0  0  0  0  0  0  0
   -5.1213   18.4138   37.9095 C   0  0  0  0  0  0  0  0  0  0  0  0
   -3.5844   18.3707   37.6924 C   0  0  2  0  0  0  0  0  0  0  0  0
   -3.1230   19.6460   37.1218 N   0  0  0  0  0  0  0  0  0  0  0  0
   -3.1907   17.2127   36.7366 C   0  0  2  0  0  0  0  0  0  0  0  0
   -3.6812   15.8610   37.3451 C   0  0  2  0  0  0  0  0  0  0  0  0
   -3.3271   14.7932   36.4557 O   0  0  0  0  0  0  0  0  0  0  0  0
   -5.2189   15.8634   37.5228 C   0  0  1  0  0  0  0  0  0  0  0  0
   -5.5890   14.5864   38.0992 O   0  0  0  0  0  0  0  0  0  0  0  0
   -6.9091   14.0969   37.7656 C   0  0  2  0  0  0  0  0  0  0  0  0
   -7.2748   13.0367   38.8700 C   0  0  2  0  0  0  0  0  0  0  0  0
   -7.2871   13.6555   40.1468 O   0  0  0  0  0  0  0  0  0  0  0  0
   -6.2241   11.8635   38.8217 C   0  0  1  0  0  0  0  0  0  0  0  0
   -6.5272   10.8353   39.8634 N   0  0  0  0  0  0  0  0  0  0  0  0
   -5.8364   11.2061   41.1171 C   0  0  0  0  0  0  0  0  0  0  0  0
   -6.2640   11.2222   37.4013 C   0  0  2  0  0  0  0  0  0  0  0  0
   -7.5729   10.7037   37.1701 O   0  0  0  0  0  0  0  0  0  0  0  0
   -5.2637   10.0767   37.2681 C   0  0  0  0  0  0  0  0  0  0  0  0
   -5.9472   12.3193   36.3349 C   0  0  0  0  0  0  0  0  0  0  0  0
   -6.8964   13.4474   36.4394 O   0  0  0  0  0  0  0  0  0  0  0  0
  1  3  1  0  0  0  0
  1  2  1  1  0  0  0
  3  5  1  0  0  0  0
  3  4  1  1  0  0  0
  5  6  1  6  0  0  0
  7  8  1  1  0  0  0
  7  5  1  0  0  0  0
  9 10  1  6  0  0  0
  9  7  1  0  0  0  0
 10  1  1  0  0  0  0
 11 13  1  1  0  0  0
 11  9  1  0  0  0  0
 12 11  1  0  0  0  0
 14 15  1  6  0  0  0
 16 14  1  0  0  0  0
 17 18  1  6  0  0  0
 17 16  1  0  0  0  0
 19  2  1  1  0  0  0
 19 20  1  0  0  0  0
 19 17  1  0  0  0  0
 20 21  1  6  0  0  0
 20 22  1  0  0  0  0
 22 23  1  1  0  0  0
 22 14  1  0  0  0  0
 24 23  1  1  0  0  0
 24 25  1  0  0  0  0
 25 27  1  0  0  0  0
 25 26  1  1  0  0  0
 27 28  1  1  0  0  0
 28 29  1  0  0  0  0
 30 31  1  6  0  0  0
 30 32  1  0  0  0  0
 30 27  1  0  0  0  0
 33 30  1  0  0  0  0
 34 33  1  0  0  0  0
 34 24  1  0  0  0  0
M  END
>  <CHROM.1>
-147.69615627,-57.99044499,-159.77603976,93.11601253,-159.80163905,-88.94595521
-3.36479437,15.71339375,36.91522785,-0.75643320,-0.32670231,2.97746778

>  <Name>
lig.pdb

>  <RI>
0

>  <Rbt.Current_Directory>
/home/itssahil/PROJECTS/Mol_Feturizer/New_Systems/rnas/4k32

>  <Rbt.Executable>
rbdock ($Id: //depot/dev/client3/rdock/2013.1/src/exe/rbdock.cxx#4 $)

>  <Rbt.Library>
libRbt.so (2013.1, Build901 2013/11/27)

>  <Rbt.Parameter_File>
/export/apps/rDock/src/rDock_2013.1_src/data/scripts/dock_solv.prm

>  <Rbt.Receptor>
prm/pocket_docking_8.prm

>  <SCORE>
-19.2526

>  <SCORE.INTER>
-16.4521

>  <SCORE.INTER.CONST>
1

>  <SCORE.INTER.POLAR>
0

>  <SCORE.INTER.ROT>
6

>  <SCORE.INTER.SOLV>
23.3332

>  <SCORE.INTER.VDW>
-26.3458

>  <SCORE.INTER.norm>
-0.483884

>  <SCORE.INTRA>
-2.84726

>  <SCORE.INTRA.DIHEDRAL>
-5.52832

>  <SCORE.INTRA.DIHEDRAL.0>
18.0069

>  <SCORE.INTRA.POLAR>
0

>  <SCORE.INTRA.POLAR.0>
0

>  <SCORE.INTRA.REPUL>
0

>  <SCORE.INTRA.REPUL.0>
0

>  <SCORE.INTRA.SOLV>
-0.187233

>  <SCORE.INTRA.SOLV.lig_0>
-70.7393

>  <SCORE.INTRA.VDW>
0.0105215

>  <SCORE.INTRA.VDW.0>
-3.23471

>  <SCORE.INTRA.norm>
-0.0837428

>  <SCORE.RESTR>
0.0467387

>  <SCORE.RESTR.CAVITY>
0.0467387

>  <SCORE.RESTR.norm>
0.00137467

>  <SCORE.SYSTEM>
0

>  <SCORE.SYSTEM.CONST>
0

>  <SCORE.SYSTEM.DIHEDRAL>
0

>  <SCORE.SYSTEM.SOLV>
0

>  <SCORE.SYSTEM.norm>
0

>  <SCORE.heavy>
34

>  <SCORE.norm>
-0.566253

>  <RMSD>
0.919

$$$$
lig.pdb
 OpenBabel11021811503D
libRbt.so/2013.1/901 2013/11/27
 34 36  0  0  0  0  0  0  0  0999 V2000
   -1.1555   16.5790   35.4461 C   0  0  2  0  0  0  0  0  0  0  0  0
   -1.7185   17.2490   36.5795 O   0  0  0  0  0  0  0  0  0  0  0  0
    0.2727   16.0161   35.8516 C   0  0  2  0  0  0  0  0  0  0  0  0
    0.1865   15.0514   36.9727 N   0  0  0  0  0  0  0  0  0  0  0  0
    1.1998   17.1954   36.2400 C   0  0  1  0  0  0  0  0  0  0  0  0
    2.4941   16.7082   36.6019 O   0  0  0  0  0  0  0  0  0  0  0  0
    1.2802   18.1679   35.0499 C   0  0  2  0  0  0  0  0  0  0  0  0
    2.1357   19.2590   35.3933 O   0  0  0  0  0  0  0  0  0  0  0  0
   -0.1654   18.6799   34.6835 C   0  0  2  0  0  0  0  0  0  0  0  0
   -1.0532   17.5461   34.3483 O   0  0  0  0  0  0  0  0  0  0  0  0
   -0.1373   19.6513   33.4774 C   0  0  2  0  0  0  0  0  0  0  0  0
    0.7923   20.7072   33.7276 O   0  0  0  0  0  0  0  0  0  0  0  0
   -1.5087   20.2603   33.2300 C   0  0  0  0  0  0  0  0  0  0  0  0
   -5.5507   17.0638   38.4760 C   0  0  2  0  0  0  0  0  0  0  0  0
   -6.9986   17.1310   38.6888 N   0  0  0  0  0  0  0  0  0  0  0  0
   -5.1132   18.4189   37.8545 C   0  0  0  0  0  0  0  0  0  0  0  0
   -3.5754   18.3764   37.6436 C   0  0  2  0  0  0  0  0  0  0  0  0
   -3.1144   19.6459   37.0599 N   0  0  0  0  0  0  0  0  0  0  0  0
   -3.1759   17.2081   36.7027 C   0  0  2  0  0  0  0  0  0  0  0  0
   -3.6659   15.8627   37.3250 C   0  0  2  0  0  0  0  0  0  0  0  0
   -3.3065   14.7853   36.4495 O   0  0  0  0  0  0  0  0  0  0  0  0
   -5.2044   15.8640   37.4971 C   0  0  1  0  0  0  0  0  0  0  0  0
   -5.5740   14.5930   38.0868 O   0  0  0  0  0  0  0  0  0  0  0  0
   -6.9040   14.1127   37.7803 C   0  0  2  0  0  0  0  0  0  0  0  0
   -7.2537   13.0535   38.8908 C   0  0  2  0  0  0  0  0  0  0  0  0
   -7.2352   13.6706   40.1684 O   0  0  0  0  0  0  0  0  0  0  0  0
   -6.2120   11.8735   38.8192 C   0  0  1  0  0  0  0  0  0  0  0  0
   -6.5001   10.8458   39.8658 N   0  0  0  0  0  0  0  0  0  0  0  0
   -5.7956   11.2202   41.1108 C   0  0  0  0  0  0  0  0  0  0  0  0
   -6.2857   11.2342   37.3992 C   0  0  2  0  0  0  0  0  0  0  0  0
   -7.6026   10.7247   37.1948 O   0  0  0  0  0  0  0  0  0  0  0  0
   -5.2960   10.0824   37.2438 C   0  0  0  0  0  0  0  0  0  0  0  0
   -5.9839   12.3307   36.3278 C   0  0  0  0  0  0  0  0  0  0  0  0
   -6.9233   13.4649   36.4534 O   0  0  0  0  0  0  0  0  0  0  0  0
  1  3  1  0  0  0  0
  1  2  1  1  0  0  0
  3  5  1  0  0  0  0
  3  4  1  1  0  0  0
  5  6  1  6  0  0  0
  7  8  1  1  0  0  0
  7  5  1  0  0  0  0
  9 10  1  6  0  0  0
  9  7  1  0  0  0  0
 10  1  1  0  0  0  0
 11 13  1  1  0  0  0
 11  9  1  0  0  0  0
 12 11  1  0  0  0  0
 14 15  1  6  0  0  0
 16 14  1  0  0  0  0
 17 18  1  6  0  0  0
 17 16  1  0  0  0  0
 19  2  1  1  0  0  0
 19 20  1  0  0  0  0
 19 17  1  0  0  0  0
 20 21  1  6  0  0  0
 20 22  1  0  0  0  0
 22 23  1  1  0  0  0
 22 14  1  0  0  0  0
 24 23  1  1  0  0  0
 24 25  1  0  0  0  0
 25 27  1  0  0  0  0
 25 26  1  1  0  0  0
 27 28  1  1  0  0  0
 28 29  1  0  0  0  0
 30 31  1  6  0  0  0
 30 32  1  0  0  0  0
 30 27  1  0  0  0  0
 33 30  1  0  0  0  0
 34 33  1  0  0  0  0
 34 24  1  0  0  0  0
M  END
>  <CHROM.1>
-148.40347219,-53.37194351,-159.87797785,91.67026532,-160.20272359,-88.18871755
-3.35604011,15.71757028,36.89007018,-0.75767476,-0.32195655,2.96463765

>  <Name>
lig.pdb

>  <RI>
0

>  <Rbt.Current_Directory>
/home/itssahil/PROJECTS/Mol_Feturizer/New_Systems/rnas/4k32

>  <Rbt.Executable>
rbdock ($Id: //depot/dev/client3/rdock/2013.1/src/exe/rbdock.cxx#4 $)

>  <Rbt.Library>
libRbt.so (2013.1, Build901 2013/11/27)

>  <Rbt.Parameter_File>
/export/apps/rDock/src/rDock_2013.1_src/data/scripts/dock_solv.prm

>  <Rbt.Receptor>
prm/pocket_docking_8.prm

>  <SCORE>
-19.1529

>  <SCORE.INTER>
-16.2687

>  <SCORE.INTER.CONST>
1

>  <SCORE.INTER.POLAR>
0

>  <SCORE.INTER.ROT>
6

>  <SCORE.INTER.SOLV>
23.4472

>  <SCORE.INTER.VDW>
-26.2615

>  <SCORE.INTER.norm>
-0.478492

>  <SCORE.INTRA>
-2.91989

>  <SCORE.INTRA.DIHEDRAL>
-5.88151

>  <SCORE.INTRA.DIHEDRAL.0>
18.0069

>  <SCORE.INTRA.POLAR>
0

>  <SCORE.INTRA.POLAR.0>
0

>  <SCORE.INTRA.REPUL>
0

>  <SCORE.INTRA.REPUL.0>
0

>  <SCORE.INTRA.SOLV>
-0.149694

>  <SCORE.INTRA.SOLV.lig_0>
-70.7393

>  <SCORE.INTRA.VDW>
0.0957114

>  <SCORE.INTRA.VDW.0>
-3.23471

>  <SCORE.INTRA.norm>
-0.0858791

>  <SCORE.RESTR>
0.0357078

>  <SCORE.RESTR.CAVITY>
0.0357078

>  <SCORE.RESTR.norm>
0.00105023

>  <SCORE.SYSTEM>
0

>  <SCORE.SYSTEM.CONST>
0

>  <SCORE.SYSTEM.DIHEDRAL>
0

>  <SCORE.SYSTEM.SOLV>
0

>  <SCORE.SYSTEM.norm>
0

>  <SCORE.heavy>
34

>  <SCORE.norm>
-0.563321

>  <RMSD>
0.921

$$$$
lig.pdb
 OpenBabel11021811503D
libRbt.so/2013.1/901 2013/11/27
 34 36  0  0  0  0  0  0  0  0999 V2000
   -1.1920   16.6158   35.4081 C   0  0  2  0  0  0  0  0  0  0  0  0
   -1.7271   17.2645   36.5670 O   0  0  0  0  0  0  0  0  0  0  0  0
    0.2096   15.9753   35.7911 C   0  0  2  0  0  0  0  0  0  0  0  0
    0.0792   14.9718   36.8732 N   0  0  0  0  0  0  0  0  0  0  0  0
    1.1867   17.0965   36.2258 C   0  0  1  0  0  0  0  0  0  0  0  0
    2.4578   16.5391   36.5682 O   0  0  0  0  0  0  0  0  0  0  0  0
    1.3117   18.1108   35.0750 C   0  0  2  0  0  0  0  0  0  0  0  0
    2.2136   19.1489   35.4614 O   0  0  0  0  0  0  0  0  0  0  0  0
   -0.1095   18.6997   34.7291 C   0  0  2  0  0  0  0  0  0  0  0  0
   -1.0454   17.6200   34.3494 O   0  0  0  0  0  0  0  0  0  0  0  0
   -0.0367   19.7158   33.5623 C   0  0  2  0  0  0  0  0  0  0  0  0
    0.8339   20.7934   33.9123 O   0  0  0  0  0  0  0  0  0  0  0  0
   -1.4101   20.2854   33.2430 C   0  0  0  0  0  0  0  0  0  0  0  0
   -5.5190   17.0573   38.5406 C   0  0  2  0  0  0  0  0  0  0  0  0
   -6.9616   17.1272   38.7858 N   0  0  0  0  0  0  0  0  0  0  0  0
   -5.0873   18.4234   37.9395 C   0  0  0  0  0  0  0  0  0  0  0  0
   -3.5546   18.3778   37.6949 C   0  0  2  0  0  0  0  0  0  0  0  0
   -3.0991   19.6574   37.1292 N   0  0  0  0  0  0  0  0  0  0  0  0
   -3.1817   17.2284   36.7205 C   0  0  2  0  0  0  0  0  0  0  0  0
   -3.6658   15.8721   37.3237 C   0  0  2  0  0  0  0  0  0  0  0  0
   -3.3310   14.8123   36.4175 O   0  0  0  0  0  0  0  0  0  0  0  0
   -5.2002   15.8775   37.5287 C   0  0  1  0  0  0  0  0  0  0  0  0
   -5.5643   14.5958   38.0984 O   0  0  0  0  0  0  0  0  0  0  0  0
   -6.8894   14.1109   37.7782 C   0  0  2  0  0  0  0  0  0  0  0  0
   -7.2487   13.0538   38.8876 C   0  0  2  0  0  0  0  0  0  0  0  0
   -7.2463   13.6745   40.1636 O   0  0  0  0  0  0  0  0  0  0  0  0
   -6.2030   11.8765   38.8311 C   0  0  1  0  0  0  0  0  0  0  0  0
   -6.5002   10.8510   39.8771 N   0  0  0  0  0  0  0  0  0  0  0  0
   -5.7835   11.2125   41.1190 C   0  0  0  0  0  0  0  0  0  0  0  0
   -6.2589   11.2332   37.4120 C   0  0  2  0  0  0  0  0  0  0  0  0
   -7.5720   10.7195   37.1942 O   0  0  0  0  0  0  0  0  0  0  0  0
   -5.2644   10.0836   37.2711 C   0  0  0  0  0  0  0  0  0  0  0  0
   -5.9480   12.3275   36.3411 C   0  0  0  0  0  0  0  0  0  0  0  0
   -6.8918   13.4595   36.4529 O   0  0  0  0  0  0  0  0  0  0  0  0
  1  3  1  0  0  0  0
  1  2  1  1  0  0  0
  3  5  1  0  0  0  0
  3  4  1  1  0  0  0
  5  6  1  6  0  0  0
  7  8  1  1  0  0  0
  7  5  1  0  0  0  0
  9 10  1  6  0  0  0
  9  7  1  0  0  0  0
 10  1  1  0  0  0  0
 11 13  1  1  0  0  0
 11  9  1  0  0  0  0
 12 11  1  0  0  0  0
 14 15  1  6  0  0  0
 16 14  1  0  0  0  0
 17 18  1  6  0  0  0
 17 16  1  0  0  0  0
 19  2  1  1  0  0  0
 19 20  1  0  0  0  0
 19 17  1  0  0  0  0
 20 21  1  6  0  0  0
 20 22  1  0  0  0  0
 22 23  1  1  0  0  0
 22 14  1  0  0  0  0
 24 23  1  1  0  0  0
 24 25  1  0  0  0  0
 25 27  1  0  0  0  0
 25 26  1  1  0  0  0
 27 28  1  1  0  0  0
 28 29  1  0  0  0  0
 30 31  1  6  0  0  0
 30 32  1  0  0  0  0
 30 27  1  0  0  0  0
 33 30  1  0  0  0  0
 34 33  1  0  0  0  0
 34 24  1  0  0  0  0
M  END
>  <CHROM.1>
-145.63954358,-59.35655448,-159.92294138,93.39378545,-159.14504849,-89.59274814
-3.34268104,15.71260021,36.90875702,-0.74956021,-0.34244029,2.98954389

>  <Name>
lig.pdb

>  <RI>
0

>  <Rbt.Current_Directory>
/home/itssahil/PROJECTS/Mol_Feturizer/New_Systems/rnas/4k32

>  <Rbt.Executable>
rbdock ($Id: //depot/dev/client3/rdock/2013.1/src/exe/rbdock.cxx#4 $)

>  <Rbt.Library>
libRbt.so (2013.1, Build901 2013/11/27)

>  <Rbt.Parameter_File>
/export/apps/rDock/src/rDock_2013.1_src/data/scripts/dock_solv.prm

>  <Rbt.Receptor>
prm/pocket_docking_3.prm

>  <SCORE>
-19.2939

>  <SCORE.INTER>
-16.6998

>  <SCORE.INTER.CONST>
1

>  <SCORE.INTER.POLAR>
0

>  <SCORE.INTER.ROT>
6

>  <SCORE.INTER.SOLV>
23.2637

>  <SCORE.INTER.VDW>
-26.4878

>  <SCORE.INTER.norm>
-0.49117

>  <SCORE.INTRA>
-2.59411

>  <SCORE.INTRA.DIHEDRAL>
-5.0064

>  <SCORE.INTRA.DIHEDRAL.0>
18.0069

>  <SCORE.INTRA.POLAR>
0

>  <SCORE.INTRA.POLAR.0>
0

>  <SCORE.INTRA.REPUL>
0

>  <SCORE.INTRA.REPUL.0>
0

>  <SCORE.INTRA.SOLV>
-0.134047

>  <SCORE.INTRA.SOLV.lig_0>
-70.7393

>  <SCORE.INTRA.VDW>
-0.0238843

>  <SCORE.INTRA.VDW.0>
-3.23471

>  <SCORE.INTRA.norm>
-0.0762972

>  <SCORE.RESTR>
0

>  <SCORE.RESTR.CAVITY>
0

>  <SCORE.RESTR.norm>
0

>  <SCORE.SYSTEM>
0

>  <SCORE.SYSTEM.CONST>
0

>  <SCORE.SYSTEM.DIHEDRAL>
0

>  <SCORE.SYSTEM.SOLV>
0

>  <SCORE.SYSTEM.norm>
0

>  <SCORE.heavy>
34

>  <SCORE.norm>
-0.567467

>  <RMSD>
0.940

$$$$
lig.pdb
 OpenBabel11021811503D
libRbt.so/2013.1/901 2013/11/27
 34 36  0  0  0  0  0  0  0  0999 V2000
   -1.2181   16.6620   35.3711 C   0  0  2  0  0  0  0  0  0  0  0  0
   -1.7646   17.3294   36.5139 O   0  0  0  0  0  0  0  0  0  0  0  0
    0.1607   15.9944   35.7889 C   0  0  2  0  0  0  0  0  0  0  0  0
   -0.0150   15.0009   36.8738 N   0  0  0  0  0  0  0  0  0  0  0  0
    1.1517   17.0973   36.2385 C   0  0  1  0  0  0  0  0  0  0  0  0
    2.4027   16.5153   36.6124 O   0  0  0  0  0  0  0  0  0  0  0  0
    1.3238   18.1013   35.0847 C   0  0  2  0  0  0  0  0  0  0  0  0
    2.2389   19.1225   35.4848 O   0  0  0  0  0  0  0  0  0  0  0  0
   -0.0765   18.7181   34.7038 C   0  0  2  0  0  0  0  0  0  0  0  0
   -1.0268   17.6561   34.3099 O   0  0  0  0  0  0  0  0  0  0  0  0
    0.0437   19.7248   33.5329 C   0  0  2  0  0  0  0  0  0  0  0  0
    0.9038   20.8026   33.9074 O   0  0  0  0  0  0  0  0  0  0  0  0
   -1.3148   20.2959   33.1573 C   0  0  0  0  0  0  0  0  0  0  0  0
   -5.5544   17.0674   38.4851 C   0  0  2  0  0  0  0  0  0  0  0  0
   -6.9978   17.1184   38.7300 N   0  0  0  0  0  0  0  0  0  0  0  0
   -5.1394   18.4412   37.8899 C   0  0  0  0  0  0  0  0  0  0  0  0
   -3.6062   18.4155   37.6456 C   0  0  2  0  0  0  0  0  0  0  0  0
   -3.1663   19.7029   37.0854 N   0  0  0  0  0  0  0  0  0  0  0  0
   -3.2188   17.2747   36.6667 C   0  0  2  0  0  0  0  0  0  0  0  0
   -3.6863   15.9101   37.2642 C   0  0  2  0  0  0  0  0  0  0  0  0
   -3.3382   14.8583   36.3537 O   0  0  0  0  0  0  0  0  0  0  0  0
   -5.2207   15.8958   37.4685 C   0  0  1  0  0  0  0  0  0  0  0  0
   -5.5691   14.6074   38.0328 O   0  0  0  0  0  0  0  0  0  0  0  0
   -6.8958   14.1171   37.7273 C   0  0  2  0  0  0  0  0  0  0  0  0
   -7.2512   13.0818   38.8583 C   0  0  2  0  0  0  0  0  0  0  0  0
   -7.2435   13.7271   40.1220 O   0  0  0  0  0  0  0  0  0  0  0  0
   -6.2063   11.9031   38.8204 C   0  0  1  0  0  0  0  0  0  0  0  0
   -6.4998   10.8981   39.8873 N   0  0  0  0  0  0  0  0  0  0  0  0
   -5.8060   11.3021   41.1291 C   0  0  0  0  0  0  0  0  0  0  0  0
   -6.2681   11.2325   37.4143 C   0  0  2  0  0  0  0  0  0  0  0  0
   -7.5823   10.7153   37.2116 O   0  0  0  0  0  0  0  0  0  0  0  0
   -5.2747   10.0799   37.2917 C   0  0  0  0  0  0  0  0  0  0  0  0
   -5.9609   12.3057   36.3212 C   0  0  0  0  0  0  0  0  0  0  0  0
   -6.9037   13.4402   36.4149 O   0  0  0  0  0  0  0  0  0  0  0  0
  1  3  1  0  0  0  0
  1  2  1  1  0  0  0
  3  5  1  0  0  0  0
  3  4  1  1  0  0  0
  5  6  1  6  0  0  0
  7  8  1  1  0  0  0
  7  5  1  0  0  0  0
  9 10  1  6  0  0  0
  9  7  1  0  0  0  0
 10  1  1  0  0  0  0
 11 13  1  1  0  0  0
 11  9  1  0  0  0  0
 12 11  1  0  0  0  0
 14 15  1  6  0  0  0
 16 14  1  0  0  0  0
 17 18  1  6  0  0  0
 17 16  1  0  0  0  0
 19  2  1  1  0  0  0
 19 20  1  0  0  0  0
 19 17  1  0  0  0  0
 20 21  1  6  0  0  0
 20 22  1  0  0  0  0
 22 23  1  1  0  0  0
 22 14  1  0  0  0  0
 24 23  1  1  0  0  0
 24 25  1  0  0  0  0
 25 27  1  0  0  0  0
 25 26  1  1  0  0  0
 27 28  1  1  0  0  0
 28 29  1  0  0  0  0
 30 31  1  6  0  0  0
 30 32  1  0  0  0  0
 30 27  1  0  0  0  0
 33 30  1  0  0  0  0
 34 33  1  0  0  0  0
 34 24  1  0  0  0  0
M  END
>  <CHROM.1>
-143.03445908,-60.74351047,-161.50864577,92.46227752,-157.42900068,-88.15135969
-3.35324129,15.73153964,36.88332737,-0.75018323,-0.33736044,2.98383556

>  <Name>
lig.pdb

>  <RI>
0

>  <Rbt.Current_Directory>
/home/itssahil/PROJECTS/Mol_Feturizer/New_Systems/rnas/4k32

>  <Rbt.Executable>
rbdock ($Id: //depot/dev/client3/rdock/2013.1/src/exe/rbdock.cxx#4 $)

>  <Rbt.Library>
libRbt.so (2013.1, Build901 2013/11/27)

>  <Rbt.Parameter_File>
/export/apps/rDock/src/rDock_2013.1_src/data/scripts/dock_solv.prm

>  <Rbt.Receptor>
prm/pocket_docking_3.prm

>  <SCORE>
-19.1414

>  <SCORE.INTER>
-16.8165

>  <SCORE.INTER.CONST>
1

>  <SCORE.INTER.POLAR>
0

>  <SCORE.INTER.ROT>
6

>  <SCORE.INTER.SOLV>
23.3344

>  <SCORE.INTER.VDW>
-26.5891

>  <SCORE.INTER.norm>
-0.494603

>  <SCORE.INTRA>
-2.32501

>  <SCORE.INTRA.DIHEDRAL>
-4.71497

>  <SCORE.INTRA.DIHEDRAL.0>
18.0069

>  <SCORE.INTRA.POLAR>
0

>  <SCORE.INTRA.POLAR.0>
0

>  <SCORE.INTRA.REPUL>
0

>  <SCORE.INTRA.REPUL.0>
0

>  <SCORE.INTRA.SOLV>
-0.098615

>  <SCORE.INTRA.SOLV.lig_0>
-70.7393

>  <SCORE.INTRA.VDW>
0.081783

>  <SCORE.INTRA.VDW.0>
-3.23471

>  <SCORE.INTRA.norm>
-0.0683826

>  <SCORE.RESTR>
8.45883e-05

>  <SCORE.RESTR.CAVITY>
8.45883e-05

>  <SCORE.RESTR.norm>
2.48789e-06

>  <SCORE.SYSTEM>
0

>  <SCORE.SYSTEM.CONST>
0

>  <SCORE.SYSTEM.DIHEDRAL>
0

>  <SCORE.SYSTEM.SOLV>
0

>  <SCORE.SYSTEM.norm>
0

>  <SCORE.heavy>
34

>  <SCORE.norm>
-0.562983

>  <RMSD>
0.946

$$$$
lig.pdb
 OpenBabel11021811503D
libRbt.so/2013.1/901 2013/11/27
 34 36  0  0  0  0  0  0  0  0999 V2000
   -1.1910   16.5951   35.3885 C   0  0  2  0  0  0  0  0  0  0  0  0
   -1.7352   17.2506   36.5393 O   0  0  0  0  0  0  0  0  0  0  0  0
    0.2054   15.9531   35.7874 C   0  0  2  0  0  0  0  0  0  0  0  0
    0.0626   14.9550   36.8730 N   0  0  0  0  0  0  0  0  0  0  0  0
    1.1812   17.0740   36.2259 C   0  0  1  0  0  0  0  0  0  0  0  0
    2.4477   16.5152   36.5827 O   0  0  0  0  0  0  0  0  0  0  0  0
    1.3194   18.0825   35.0715 C   0  0  2  0  0  0  0  0  0  0  0  0
    2.2201   19.1203   35.4613 O   0  0  0  0  0  0  0  0  0  0  0  0
   -0.0972   18.6732   34.7096 C   0  0  2  0  0  0  0  0  0  0  0  0
   -1.0322   17.5939   34.3264 O   0  0  0  0  0  0  0  0  0  0  0  0
   -0.0111   19.6835   33.5388 C   0  0  2  0  0  0  0  0  0  0  0  0
    0.8394   20.7731   33.9010 O   0  0  0  0  0  0  0  0  0  0  0  0
   -1.3838   20.2353   33.1869 C   0  0  0  0  0  0  0  0  0  0  0  0
   -5.5344   17.0213   38.4964 C   0  0  2  0  0  0  0  0  0  0  0  0
   -6.9783   17.0837   38.7356 N   0  0  0  0  0  0  0  0  0  0  0  0
   -5.1068   18.3906   37.8996 C   0  0  0  0  0  0  0  0  0  0  0  0
   -3.5729   18.3529   37.6614 C   0  0  2  0  0  0  0  0  0  0  0  0
   -3.1213   19.6358   37.1000 N   0  0  0  0  0  0  0  0  0  0  0  0
   -3.1903   17.2071   36.6865 C   0  0  2  0  0  0  0  0  0  0  0  0
   -3.6703   15.8474   37.2853 C   0  0  2  0  0  0  0  0  0  0  0  0
   -3.3265   14.7909   36.3785 O   0  0  0  0  0  0  0  0  0  0  0  0
   -5.2055   15.8449   37.4837 C   0  0  1  0  0  0  0  0  0  0  0  0
   -5.5657   14.5605   38.0496 O   0  0  0  0  0  0  0  0  0  0  0  0
   -6.9008   14.0873   37.7541 C   0  0  2  0  0  0  0  0  0  0  0  0
   -7.2566   13.0483   38.8816 C   0  0  2  0  0  0  0  0  0  0  0  0
   -7.2290   13.6847   40.1495 O   0  0  0  0  0  0  0  0  0  0  0  0
   -6.2256   11.8581   38.8252 C   0  0  1  0  0  0  0  0  0  0  0  0
   -6.5198   10.8492   39.8881 N   0  0  0  0  0  0  0  0  0  0  0  0
   -5.8144   11.2403   41.1275 C   0  0  0  0  0  0  0  0  0  0  0  0
   -6.3090   11.1980   37.4153 C   0  0  2  0  0  0  0  0  0  0  0  0
   -7.6309   10.6971   37.2223 O   0  0  0  0  0  0  0  0  0  0  0  0
   -5.3300   10.0351   37.2749 C   0  0  0  0  0  0  0  0  0  0  0  0
   -6.0006   12.2752   36.3265 C   0  0  0  0  0  0  0  0  0  0  0  0
   -6.9295   13.4195   36.4373 O   0  0  0  0  0  0  0  0  0  0  0  0
  1  3  1  0  0  0  0
  1  2  1  1  0  0  0
  3  5  1  0  0  0  0
  3  4  1  1  0  0  0
  5  6  1  6  0  0  0
  7  8  1  1  0  0  0
  7  5  1  0  0  0  0
  9 10  1  6  0  0  0
  9  7  1  0  0  0  0
 10  1  1  0  0  0  0
 11 13  1  1  0  0  0
 11  9  1  0  0  0  0
 12 11  1  0  0  0  0
 14 15  1  6  0  0  0
 16 14  1  0  0  0  0
 17 18  1  6  0  0  0
 17 16  1  0  0  0  0
 19  2  1  1  0  0  0
 19 20  1  0  0  0  0
 19 17  1  0  0  0  0
 20 21  1  6  0  0  0
 20 22  1  0  0  0  0
 22 23  1  1  0  0  0
 22 14  1  0  0  0  0
 24 23  1  1  0  0  0
 24 25  1  0  0  0  0
 25 27  1  0  0  0  0
 25 26  1  1  0  0  0
 27 28  1  1  0  0  0
 28 29  1  0  0  0  0
 30 31  1  6  0  0  0
 30 32  1  0  0  0  0
 30 27  1  0  0  0  0
 33 30  1  0  0  0  0
 34 33  1  0  0  0  0
 34 24  1  0  0  0  0
M  END
>  <CHROM.1>
-145.04352527,-60.41703346,-160.52706835,91.70474539,-157.79507744,-87.87968358
-3.35420292,15.68815254,36.89127487,-0.74924181,-0.33537061,2.98252593

>  <Name>
lig.pdb

>  <RI>
0

>  <Rbt.Current_Directory>
/home/itssahil/PROJECTS/Mol_Feturizer/New_Systems/rnas/4k32

>  <Rbt.Executable>
rbdock ($Id: //depot/dev/client3/rdock/2013.1/src/exe/rbdock.cxx#4 $)

>  <Rbt.Library>
libRbt.so (2013.1, Build901 2013/11/27)

>  <Rbt.Parameter_File>
/export/apps/rDock/src/rDock_2013.1_src/data/scripts/dock_solv.prm

>  <Rbt.Receptor>
prm/pocket_docking_3.prm

>  <SCORE>
-19.2854

>  <SCORE.INTER>
-16.7687

>  <SCORE.INTER.CONST>
1

>  <SCORE.INTER.POLAR>
0

>  <SCORE.INTER.ROT>
6

>  <SCORE.INTER.SOLV>
23.417

>  <SCORE.INTER.VDW>
-26.5848

>  <SCORE.INTER.norm>
-0.493196

>  <SCORE.INTRA>
-2.51677

>  <SCORE.INTRA.DIHEDRAL>
-5.13297

>  <SCORE.INTRA.DIHEDRAL.0>
18.0069

>  <SCORE.INTRA.POLAR>
0

>  <SCORE.INTRA.POLAR.0>
0

>  <SCORE.INTRA.REPUL>
0

>  <SCORE.INTRA.REPUL.0>
0

>  <SCORE.INTRA.SOLV>
-0.105452

>  <SCORE.INTRA.SOLV.lig_0>
-70.7393

>  <SCORE.INTRA.VDW>
0.10244

>  <SCORE.INTRA.VDW.0>
-3.23471

>  <SCORE.INTRA.norm>
-0.0740226

>  <SCORE.RESTR>
0

>  <SCORE.RESTR.CAVITY>
0

>  <SCORE.RESTR.norm>
0

>  <SCORE.SYSTEM>
0

>  <SCORE.SYSTEM.CONST>
0

>  <SCORE.SYSTEM.DIHEDRAL>
0

>  <SCORE.SYSTEM.SOLV>
0

>  <SCORE.SYSTEM.norm>
0

>  <SCORE.heavy>
34

>  <SCORE.norm>
-0.567219

>  <RMSD>
0.951

$$$$
lig.pdb
 OpenBabel11021811503D
libRbt.so/2013.1/901 2013/11/27
 34 36  0  0  0  0  0  0  0  0999 V2000
   -1.1118   16.4897   35.5520 C   0  0  2  0  0  0  0  0  0  0  0  0
   -1.6834   17.1335   36.6961 O   0  0  0  0  0  0  0  0  0  0  0  0
    0.3312   15.9550   35.9430 C   0  0  2  0  0  0  0  0  0  0  0  0
    0.2735   14.9758   37.0533 N   0  0  0  0  0  0  0  0  0  0  0  0
    1.2334   17.1506   36.3400 C   0  0  1  0  0  0  0  0  0  0  0  0
    2.5405   16.6891   36.6891 O   0  0  0  0  0  0  0  0  0  0  0  0
    1.2847   18.1384   35.1608 C   0  0  2  0  0  0  0  0  0  0  0  0
    2.1171   19.2448   35.5123 O   0  0  0  0  0  0  0  0  0  0  0  0
   -0.1743   18.6213   34.8084 C   0  0  2  0  0  0  0  0  0  0  0  0
   -1.0379   17.4715   34.4649 O   0  0  0  0  0  0  0  0  0  0  0  0
   -0.1753   19.6070   33.6135 C   0  0  2  0  0  0  0  0  0  0  0  0
    0.6990   20.7030   33.8892 O   0  0  0  0  0  0  0  0  0  0  0  0
   -1.5705   20.1527   33.3524 C   0  0  0  0  0  0  0  0  0  0  0  0
   -5.5535   17.0633   38.5221 C   0  0  2  0  0  0  0  0  0  0  0  0
   -7.0041   17.1565   38.7040 N   0  0  0  0  0  0  0  0  0  0  0  0
   -5.0856   18.3905   37.8636 C   0  0  0  0  0  0  0  0  0  0  0  0
   -3.5448   18.3208   37.6845 C   0  0  2  0  0  0  0  0  0  0  0  0
   -3.0554   19.5635   37.0672 N   0  0  0  0  0  0  0  0  0  0  0  0
   -3.1433   17.1159   36.7920 C   0  0  2  0  0  0  0  0  0  0  0  0
   -3.6635   15.7990   37.4500 C   0  0  2  0  0  0  0  0  0  0  0  0
   -3.3021   14.6877   36.6188 O   0  0  0  0  0  0  0  0  0  0  0  0
   -5.2048   15.8263   37.5916 C   0  0  1  0  0  0  0  0  0  0  0  0
   -5.6031   14.5812   38.2169 O   0  0  0  0  0  0  0  0  0  0  0  0
   -6.9102   14.0773   37.8546 C   0  0  2  0  0  0  0  0  0  0  0  0
   -7.2706   12.9837   38.9277 C   0  0  2  0  0  0  0  0  0  0  0  0
   -7.3094   13.5700   40.2191 O   0  0  0  0  0  0  0  0  0  0  0  0
   -6.1988   11.8305   38.8636 C   0  0  1  0  0  0  0  0  0  0  0  0
   -6.4964   10.7714   39.8756 N   0  0  0  0  0  0  0  0  0  0  0  0
   -5.8392   11.1298   41.1508 C   0  0  0  0  0  0  0  0  0  0  0  0
   -6.2099   11.2242   37.4273 C   0  0  2  0  0  0  0  0  0  0  0  0
   -7.5066   10.6890   37.1669 O   0  0  0  0  0  0  0  0  0  0  0  0
   -5.1880   10.0999   37.2785 C   0  0  0  0  0  0  0  0  0  0  0  0
   -5.8995   12.3530   36.3926 C   0  0  0  0  0  0  0  0  0  0  0  0
   -6.8697   13.4615   36.5130 O   0  0  0  0  0  0  0  0  0  0  0  0
  1  3  1  0  0  0  0
  1  2  1  1  0  0  0
  3  5  1  0  0  0  0
  3  4  1  1  0  0  0
  5  6  1  6  0  0  0
  7  8  1  1  0  0  0
  7  5  1  0  0  0  0
  9 10  1  6  0  0  0
  9  7  1  0  0  0  0
 10  1  1  0  0  0  0
 11 13  1  1  0  0  0
 11  9  1  0  0  0  0
 12 11  1  0  0  0  0
 14 15  1  6  0  0  0
 16 14  1  0  0  0  0
 17 18  1  6  0  0  0
 17 16  1  0  0  0  0
 19  2  1  1  0  0  0
 19 20  1  0  0  0  0
 19 17  1  0  0  0  0
 20 21  1  6  0  0  0
 20 22  1  0  0  0  0
 22 23  1  1  0  0  0
 22 14  1  0  0  0  0
 24 23  1  1  0  0  0
 24 25  1  0  0  0  0
 25 27  1  0  0  0  0
 25 26  1  1  0  0  0
 27 28  1  1  0  0  0
 28 29  1  0  0  0  0
 30 31  1  6  0  0  0
 30 32  1  0  0  0  0
 30 27  1  0  0  0  0
 33 30  1  0  0  0  0
 34 33  1  0  0  0  0
 34 24  1  0  0  0  0
M  END
>  <CHROM.1>
-151.36873788,-55.21535271,-156.07100807,94.31888534,-164.61368704,-88.36613403
-3.34154270,15.67022396,36.96770001,-0.75980859,-0.30850048,2.95878418

>  <Name>
lig.pdb

>  <RI>
0

>  <Rbt.Current_Directory>
/home/itssahil/PROJECTS/Mol_Feturizer/New_Systems/rnas/4k32

>  <Rbt.Executable>
rbdock ($Id: //depot/dev/client3/rdock/2013.1/src/exe/rbdock.cxx#4 $)

>  <Rbt.Library>
libRbt.so (2013.1, Build901 2013/11/27)

>  <Rbt.Parameter_File>
/export/apps/rDock/src/rDock_2013.1_src/data/scripts/dock_solv.prm

>  <Rbt.Receptor>
prm/pocket_docking_4.prm

>  <SCORE>
-19.1538

>  <SCORE.INTER>
-15.9774

>  <SCORE.INTER.CONST>
1

>  <SCORE.INTER.POLAR>
0

>  <SCORE.INTER.ROT>
6

>  <SCORE.INTER.SOLV>
23.0954

>  <SCORE.INTER.VDW>
-25.9501

>  <SCORE.INTER.norm>
-0.469924

>  <SCORE.INTRA>
-3.19347

>  <SCORE.INTRA.DIHEDRAL>
-6.03222

>  <SCORE.INTRA.DIHEDRAL.0>
18.0069

>  <SCORE.INTRA.POLAR>
0

>  <SCORE.INTRA.POLAR.0>
0

>  <SCORE.INTRA.REPUL>
0

>  <SCORE.INTRA.REPUL.0>
0

>  <SCORE.INTRA.SOLV>
-0.134019

>  <SCORE.INTRA.SOLV.lig_0>
-70.7393

>  <SCORE.INTRA.VDW>
-0.110347

>  <SCORE.INTRA.VDW.0>
-3.23471

>  <SCORE.INTRA.norm>
-0.0939255

>  <SCORE.RESTR>
0.0170656

>  <SCORE.RESTR.CAVITY>
0.0170656

>  <SCORE.RESTR.norm>
0.000501929

>  <SCORE.SYSTEM>
0

>  <SCORE.SYSTEM.CONST>
0

>  <SCORE.SYSTEM.DIHEDRAL>
0

>  <SCORE.SYSTEM.SOLV>
0

>  <SCORE.SYSTEM.norm>
0

>  <SCORE.heavy>
34

>  <SCORE.norm>
-0.563347

>  <RMSD>
0.952

$$$$
lig.pdb
 OpenBabel11021811503D
libRbt.so/2013.1/901 2013/11/27
 34 36  0  0  0  0  0  0  0  0999 V2000
   -1.1741   16.5722   35.3998 C   0  0  2  0  0  0  0  0  0  0  0  0
   -1.7230   17.2247   36.5500 O   0  0  0  0  0  0  0  0  0  0  0  0
    0.2254   15.9378   35.8002 C   0  0  2  0  0  0  0  0  0  0  0  0
    0.0869   14.9390   36.8856 N   0  0  0  0  0  0  0  0  0  0  0  0
    1.1946   17.0640   36.2396 C   0  0  1  0  0  0  0  0  0  0  0  0
    2.4638   16.5122   36.5977 O   0  0  0  0  0  0  0  0  0  0  0  0
    1.3284   18.0733   35.0854 C   0  0  2  0  0  0  0  0  0  0  0  0
    2.2231   19.1160   35.4760 O   0  0  0  0  0  0  0  0  0  0  0  0
   -0.0909   18.6562   34.7220 C   0  0  2  0  0  0  0  0  0  0  0  0
   -1.0197   17.5719   34.3378 O   0  0  0  0  0  0  0  0  0  0  0  0
   -0.0092   19.6670   33.5513 C   0  0  2  0  0  0  0  0  0  0  0  0
    0.8617   20.7442   33.9015 O   0  0  0  0  0  0  0  0  0  0  0  0
   -1.3796   20.2381   33.2215 C   0  0  0  0  0  0  0  0  0  0  0  0
   -5.5411   17.0594   38.4766 C   0  0  2  0  0  0  0  0  0  0  0  0
   -6.9869   17.1340   38.7008 N   0  0  0  0  0  0  0  0  0  0  0  0
   -5.1015   18.4121   37.8516 C   0  0  0  0  0  0  0  0  0  0  0  0
   -3.5657   18.3617   37.6286 C   0  0  2  0  0  0  0  0  0  0  0  0
   -3.1028   19.6289   37.0413 N   0  0  0  0  0  0  0  0  0  0  0  0
   -3.1796   17.1914   36.6847 C   0  0  2  0  0  0  0  0  0  0  0  0
   -3.6717   15.8485   37.3110 C   0  0  2  0  0  0  0  0  0  0  0  0
   -3.3246   14.7692   36.4327 O   0  0  0  0  0  0  0  0  0  0  0  0
   -5.2087   15.8578   37.4951 C   0  0  1  0  0  0  0  0  0  0  0  0
   -5.5802   14.5887   38.0879 O   0  0  0  0  0  0  0  0  0  0  0  0
   -6.9001   14.0954   37.7589 C   0  0  2  0  0  0  0  0  0  0  0  0
   -7.2646   13.0442   38.8722 C   0  0  2  0  0  0  0  0  0  0  0  0
   -7.2769   13.6737   40.1438 O   0  0  0  0  0  0  0  0  0  0  0  0
   -6.2130   11.8715   38.8334 C   0  0  1  0  0  0  0  0  0  0  0  0
   -6.5150   10.8518   39.8837 N   0  0  0  0  0  0  0  0  0  0  0  0
   -5.8176   11.2293   41.1318 C   0  0  0  0  0  0  0  0  0  0  0  0
   -6.2528   11.2182   37.4184 C   0  0  2  0  0  0  0  0  0  0  0  0
   -7.5614   10.6968   37.1920 O   0  0  0  0  0  0  0  0  0  0  0  0
   -5.2517   10.0725   37.2944 C   0  0  0  0  0  0  0  0  0  0  0  0
   -5.9372   12.3067   36.3428 C   0  0  0  0  0  0  0  0  0  0  0  0
   -6.8873   13.4349   36.4382 O   0  0  0  0  0  0  0  0  0  0  0  0
  1  3  1  0  0  0  0
  1  2  1  1  0  0  0
  3  5  1  0  0  0  0
  3  4  1  1  0  0  0
  5  6  1  6  0  0  0
  7  8  1  1  0  0  0
  7  5  1  0  0  0  0
  9 10  1  6  0  0  0
  9  7  1  0  0  0  0
 10  1  1  0  0  0  0
 11 13  1  1  0  0  0
 11  9  1  0  0  0  0
 12 11  1  0  0  0  0
 14 15  1  6  0  0  0
 16 14  1  0  0  0  0
 17 18  1  6  0  0  0
 17 16  1  0  0  0  0
 19  2  1  1  0  0  0
 19 20  1  0  0  0  0
 19 17  1  0  0  0  0
 20 21  1  6  0  0  0
 20 22  1  0  0  0  0
 22 23  1  1  0  0  0
 22 14  1  0  0  0  0
 24 23  1  1  0  0  0
 24 25  1  0  0  0  0
 25 27  1  0  0  0  0
 25 26  1  1  0  0  0
 27 28  1  1  0  0  0
 28 29  1  0  0  0  0
 30 31  1  6  0  0  0
 30 32  1  0  0  0  0
 30 27  1  0  0  0  0
 33 30  1  0  0  0  0
 34 33  1  0  0  0  0
 34 24  1  0  0  0  0
M  END
>  <CHROM.1>
-145.97573006,-58.95833464,-158.80650018,93.49054891,-160.11413030,-89.27572246
-3.34118456,15.68877505,36.89511853,-0.75028863,-0.32902434,2.97481859

>  <Name>
lig.pdb

>  <RI>
0

>  <Rbt.Current_Directory>
/home/itssahil/PROJECTS/Mol_Feturizer/New_Systems/rnas/4k32

>  <Rbt.Executable>
rbdock ($Id: //depot/dev/client3/rdock/2013.1/src/exe/rbdock.cxx#4 $)

>  <Rbt.Library>
libRbt.so (2013.1, Build901 2013/11/27)

>  <Rbt.Parameter_File>
/export/apps/rDock/src/rDock_2013.1_src/data/scripts/dock_solv.prm

>  <Rbt.Receptor>
prm/pocket_docking_3.prm

>  <SCORE>
-19.3631

>  <SCORE.INTER>
-16.7571

>  <SCORE.INTER.CONST>
1

>  <SCORE.INTER.POLAR>
0

>  <SCORE.INTER.ROT>
6

>  <SCORE.INTER.SOLV>
23.3463

>  <SCORE.INTER.VDW>
-26.5535

>  <SCORE.INTER.norm>
-0.492856

>  <SCORE.INTRA>
-2.60604

>  <SCORE.INTRA.DIHEDRAL>
-5.03165

>  <SCORE.INTRA.DIHEDRAL.0>
18.0069

>  <SCORE.INTRA.POLAR>
0

>  <SCORE.INTRA.POLAR.0>
0

>  <SCORE.INTRA.REPUL>
0

>  <SCORE.INTRA.REPUL.0>
0

>  <SCORE.INTRA.SOLV>
-0.107604

>  <SCORE.INTRA.SOLV.lig_0>
-70.7393

>  <SCORE.INTRA.VDW>
-0.03641

>  <SCORE.INTRA.VDW.0>
-3.23471

>  <SCORE.INTRA.norm>
-0.0766481

>  <SCORE.RESTR>
0

>  <SCORE.RESTR.CAVITY>
0

>  <SCORE.RESTR.norm>
0

>  <SCORE.SYSTEM>
0

>  <SCORE.SYSTEM.CONST>
0

>  <SCORE.SYSTEM.DIHEDRAL>
0

>  <SCORE.SYSTEM.SOLV>
0

>  <SCORE.SYSTEM.norm>
0

>  <SCORE.heavy>
34

>  <SCORE.norm>
-0.569504

>  <RMSD>
0.957

$$$$
lig.pdb
 OpenBabel11021811503D
libRbt.so/2013.1/901 2013/11/27
 34 36  0  0  0  0  0  0  0  0999 V2000
   -1.1682   16.5553   35.3869 C   0  0  2  0  0  0  0  0  0  0  0  0
   -1.7179   17.2024   36.5399 O   0  0  0  0  0  0  0  0  0  0  0  0
    0.2344   15.9253   35.7833 C   0  0  2  0  0  0  0  0  0  0  0  0
    0.1016   14.9229   36.8661 N   0  0  0  0  0  0  0  0  0  0  0  0
    1.1999   17.0541   36.2244 C   0  0  1  0  0  0  0  0  0  0  0  0
    2.4718   16.5063   36.5790 O   0  0  0  0  0  0  0  0  0  0  0  0
    1.3279   18.0671   35.0729 C   0  0  2  0  0  0  0  0  0  0  0  0
    2.2190   19.1123   35.4652 O   0  0  0  0  0  0  0  0  0  0  0  0
   -0.0943   18.6455   34.7135 C   0  0  2  0  0  0  0  0  0  0  0  0
   -1.0194   17.5587   34.3276 O   0  0  0  0  0  0  0  0  0  0  0  0
   -0.0184   19.6600   33.5455 C   0  0  2  0  0  0  0  0  0  0  0  0
    0.8246   20.7549   33.9091 O   0  0  0  0  0  0  0  0  0  0  0  0
   -1.3960   20.2025   33.1983 C   0  0  0  0  0  0  0  0  0  0  0  0
   -5.5403   17.0591   38.4596 C   0  0  2  0  0  0  0  0  0  0  0  0
   -6.9865   17.1370   38.6799 N   0  0  0  0  0  0  0  0  0  0  0  0
   -5.0984   18.4052   37.8219 C   0  0  0  0  0  0  0  0  0  0  0  0
   -3.5621   18.3515   37.6028 C   0  0  2  0  0  0  0  0  0  0  0  0
   -3.0971   19.6123   37.0036 N   0  0  0  0  0  0  0  0  0  0  0  0
   -3.1748   17.1714   36.6717 C   0  0  2  0  0  0  0  0  0  0  0  0
   -3.6691   15.8352   37.3105 C   0  0  2  0  0  0  0  0  0  0  0  0
   -3.3209   14.7468   36.4441 O   0  0  0  0  0  0  0  0  0  0  0  0
   -5.2065   15.8474   37.4912 C   0  0  1  0  0  0  0  0  0  0  0  0
   -5.5802   14.5847   38.0960 O   0  0  0  0  0  0  0  0  0  0  0  0
   -6.9040   14.0945   37.7783 C   0  0  2  0  0  0  0  0  0  0  0  0
   -7.2600   13.0414   38.8925 C   0  0  2  0  0  0  0  0  0  0  0  0
   -7.2592   13.6679   40.1656 O   0  0  0  0  0  0  0  0  0  0  0  0
   -6.2109   11.8669   38.8410 C   0  0  1  0  0  0  0  0  0  0  0  0
   -6.5049   10.8452   39.8918 N   0  0  0  0  0  0  0  0  0  0  0  0
   -5.7855   11.2120   41.1305 C   0  0  0  0  0  0  0  0  0  0  0  0
   -6.2653   11.2170   37.4250 C   0  0  2  0  0  0  0  0  0  0  0  0
   -7.5769   10.6985   37.2097 O   0  0  0  0  0  0  0  0  0  0  0  0
   -5.2674   10.0697   37.2889 C   0  0  0  0  0  0  0  0  0  0  0  0
   -5.9577   12.3074   36.3490 C   0  0  0  0  0  0  0  0  0  0  0  0
   -6.9048   13.4371   36.4560 O   0  0  0  0  0  0  0  0  0  0  0  0
  1  3  1  0  0  0  0
  1  2  1  1  0  0  0
  3  5  1  0  0  0  0
  3  4  1  1  0  0  0
  5  6  1  6  0  0  0
  7  8  1  1  0  0  0
  7  5  1  0  0  0  0
  9 10  1  6  0  0  0
  9  7  1  0  0  0  0
 10  1  1  0  0  0  0
 11 13  1  1  0  0  0
 11  9  1  0  0  0  0
 12 11  1  0  0  0  0
 14 15  1  6  0  0  0
 16 14  1  0  0  0  0
 17 18  1  6  0  0  0
 17 16  1  0  0  0  0
 19  2  1  1  0  0  0
 19 20  1  0  0  0  0
 19 17  1  0  0  0  0
 20 21  1  6  0  0  0
 20 22  1  0  0  0  0
 22 23  1  1  0  0  0
 22 14  1  0  0  0  0
 24 23  1  1  0  0  0
 24 25  1  0  0  0  0
 25 27  1  0  0  0  0
 25 26  1  1  0  0  0
 27 28  1  1  0  0  0
 28 29  1  0  0  0  0
 30 31  1  6  0  0  0
 30 32  1  0  0  0  0
 30 27  1  0  0  0  0
 33 30  1  0  0  0  0
 34 33  1  0  0  0  0
 34 24  1  0  0  0  0
M  END
>  <CHROM.1>
-146.40730113,-60.27297048,-157.88851856,92.97983194,-160.75629949,-89.77753766
-3.34176475,15.68031282,36.89049806,-0.75227221,-0.32516592,2.96750436

>  <Name>
lig.pdb

>  <RI>
0

>  <Rbt.Current_Directory>
/home/itssahil/PROJECTS/Mol_Feturizer/New_Systems/rnas/4k32

>  <Rbt.Executable>
rbdock ($Id: //depot/dev/client3/rdock/2013.1/src/exe/rbdock.cxx#4 $)

>  <Rbt.Library>
libRbt.so (2013.1, Build901 2013/11/27)

>  <Rbt.Parameter_File>
/export/apps/rDock/src/rDock_2013.1_src/data/scripts/dock_solv.prm

>  <Rbt.Receptor>
prm/pocket_docking_3.prm

>  <SCORE>
-19.3588

>  <SCORE.INTER>
-16.6711

>  <SCORE.INTER.CONST>
1

>  <SCORE.INTER.POLAR>
0

>  <SCORE.INTER.ROT>
6

>  <SCORE.INTER.SOLV>
23.3887

>  <SCORE.INTER.VDW>
-26.5103

>  <SCORE.INTER.norm>
-0.490327

>  <SCORE.INTRA>
-2.68773

>  <SCORE.INTRA.DIHEDRAL>
-5.14136

>  <SCORE.INTRA.DIHEDRAL.0>
18.0069

>  <SCORE.INTRA.POLAR>
0

>  <SCORE.INTRA.POLAR.0>
0

>  <SCORE.INTRA.REPUL>
0

>  <SCORE.INTRA.REPUL.0>
0

>  <SCORE.INTRA.SOLV>
-0.103011

>  <SCORE.INTRA.SOLV.lig_0>
-70.7393

>  <SCORE.INTRA.VDW>
-0.0655445

>  <SCORE.INTRA.VDW.0>
-3.23471

>  <SCORE.INTRA.norm>
-0.0790509

>  <SCORE.RESTR>
0

>  <SCORE.RESTR.CAVITY>
0

>  <SCORE.RESTR.norm>
0

>  <SCORE.SYSTEM>
0

>  <SCORE.SYSTEM.CONST>
0

>  <SCORE.SYSTEM.DIHEDRAL>
0

>  <SCORE.SYSTEM.SOLV>
0

>  <SCORE.SYSTEM.norm>
0

>  <SCORE.heavy>
34

>  <SCORE.norm>
-0.569378

>  <RMSD>
0.964

$$$$
lig.pdb
 OpenBabel11021811503D
libRbt.so/2013.1/901 2013/11/27
 34 36  0  0  0  0  0  0  0  0999 V2000
   -1.1742   16.5569   35.4109 C   0  0  2  0  0  0  0  0  0  0  0  0
   -1.7246   17.2032   36.5640 O   0  0  0  0  0  0  0  0  0  0  0  0
    0.2269   15.9244   35.8083 C   0  0  2  0  0  0  0  0  0  0  0  0
    0.0913   14.9208   36.8896 N   0  0  0  0  0  0  0  0  0  0  0  0
    1.1934   17.0513   36.2522 C   0  0  1  0  0  0  0  0  0  0  0  0
    2.4640   16.5012   36.6076 O   0  0  0  0  0  0  0  0  0  0  0  0
    1.3243   18.0657   35.1021 C   0  0  2  0  0  0  0  0  0  0  0  0
    2.2164   19.1090   35.4969 O   0  0  0  0  0  0  0  0  0  0  0  0
   -0.0966   18.6465   34.7416 C   0  0  2  0  0  0  0  0  0  0  0  0
   -1.0227   17.5614   34.3531 O   0  0  0  0  0  0  0  0  0  0  0  0
   -0.0178   19.6624   33.5750 C   0  0  2  0  0  0  0  0  0  0  0  0
    0.8434   20.7449   33.9331 O   0  0  0  0  0  0  0  0  0  0  0  0
   -1.3911   20.2243   33.2417 C   0  0  0  0  0  0  0  0  0  0  0  0
   -5.5484   17.0483   38.4799 C   0  0  2  0  0  0  0  0  0  0  0  0
   -6.9947   17.1260   38.6999 N   0  0  0  0  0  0  0  0  0  0  0  0
   -5.1044   18.3992   37.8541 C   0  0  0  0  0  0  0  0  0  0  0  0
   -3.5681   18.3455   37.6355 C   0  0  2  0  0  0  0  0  0  0  0  0
   -3.1011   19.6108   37.0474 N   0  0  0  0  0  0  0  0  0  0  0  0
   -3.1816   17.1729   36.6946 C   0  0  2  0  0  0  0  0  0  0  0  0
   -3.6780   15.8320   37.3216 C   0  0  2  0  0  0  0  0  0  0  0  0
   -3.3305   14.7506   36.4461 O   0  0  0  0  0  0  0  0  0  0  0  0
   -5.2155   15.8445   37.5013 C   0  0  1  0  0  0  0  0  0  0  0  0
   -5.5912   14.5771   38.0951 O   0  0  0  0  0  0  0  0  0  0  0  0
   -6.9181   14.0949   37.7781 C   0  0  2  0  0  0  0  0  0  0  0  0
   -7.2738   13.0332   38.8842 C   0  0  2  0  0  0  0  0  0  0  0  0
   -7.2656   13.6481   40.1629 O   0  0  0  0  0  0  0  0  0  0  0  0
   -6.2295   11.8551   38.8180 C   0  0  1  0  0  0  0  0  0  0  0  0
   -6.5233   10.8251   39.8607 N   0  0  0  0  0  0  0  0  0  0  0  0
   -5.8196   11.1927   41.1082 C   0  0  0  0  0  0  0  0  0  0  0  0
   -6.2919   11.2183   37.3964 C   0  0  2  0  0  0  0  0  0  0  0  0
   -7.6064   10.7068   37.1816 O   0  0  0  0  0  0  0  0  0  0  0  0
   -5.2991   10.0684   37.2461 C   0  0  0  0  0  0  0  0  0  0  0  0
   -5.9844   12.3172   36.3291 C   0  0  0  0  0  0  0  0  0  0  0  0
   -6.9266   13.4495   36.4500 O   0  0  0  0  0  0  0  0  0  0  0  0
  1  3  1  0  0  0  0
  1  2  1  1  0  0  0
  3  5  1  0  0  0  0
  3  4  1  1  0  0  0
  5  6  1  6  0  0  0
  7  8  1  1  0  0  0
  7  5  1  0  0  0  0
  9 10  1  6  0  0  0
  9  7  1  0  0  0  0
 10  1  1  0  0  0  0
 11 13  1  1  0  0  0
 11  9  1  0  0  0  0
 12 11  1  0  0  0  0
 14 15  1  6  0  0  0
 16 14  1  0  0  0  0
 17 18  1  6  0  0  0
 17 16  1  0  0  0  0
 19  2  1  1  0  0  0
 19 20  1  0  0  0  0
 19 17  1  0  0  0  0
 20 21  1  6  0  0  0
 20 22  1  0  0  0  0
 22 23  1  1  0  0  0
 22 14  1  0  0  0  0
 24 23  1  1  0  0  0
 24 25  1  0  0  0  0
 25 27  1  0  0  0  0
 25 26  1  1  0  0  0
 27 28  1  1  0  0  0
 28 29  1  0  0  0  0
 30 31  1  6  0  0  0
 30 32  1  0  0  0  0
 30 27  1  0  0  0  0
 33 30  1  0  0  0  0
 34 33  1  0  0  0  0
 34 24  1  0  0  0  0
M  END
>  <CHROM.1>
-146.34707004,-59.34889163,-158.33051580,92.65267054,-160.69131921,-88.64171805
-3.35206554,15.67780076,36.90052083,-0.74907211,-0.32511273,2.97566004

>  <Name>
lig.pdb

>  <RI>
0

>  <Rbt.Current_Directory>
/home/itssahil/PROJECTS/Mol_Feturizer/New_Systems/rnas/4k32

>  <Rbt.Executable>
rbdock ($Id: //depot/dev/client3/rdock/2013.1/src/exe/rbdock.cxx#4 $)

>  <Rbt.Library>
libRbt.so (2013.1, Build901 2013/11/27)

>  <Rbt.Parameter_File>
/export/apps/rDock/src/rDock_2013.1_src/data/scripts/dock_solv.prm

>  <Rbt.Receptor>
prm/pocket_docking_3.prm

>  <SCORE>
-19.3767

>  <SCORE.INTER>
-16.6794

>  <SCORE.INTER.CONST>
1

>  <SCORE.INTER.POLAR>
0

>  <SCORE.INTER.ROT>
6

>  <SCORE.INTER.SOLV>
23.4054

>  <SCORE.INTER.VDW>
-26.5214

>  <SCORE.INTER.norm>
-0.49057

>  <SCORE.INTRA>
-2.69808

>  <SCORE.INTRA.DIHEDRAL>
-5.28893

>  <SCORE.INTRA.DIHEDRAL.0>
18.0069

>  <SCORE.INTRA.POLAR>
0

>  <SCORE.INTRA.POLAR.0>
0

>  <SCORE.INTRA.REPUL>
0

>  <SCORE.INTRA.REPUL.0>
0

>  <SCORE.INTRA.SOLV>
-0.103522

>  <SCORE.INTRA.SOLV.lig_0>
-70.7393

>  <SCORE.INTRA.VDW>
-0.00185314

>  <SCORE.INTRA.VDW.0>
-3.23471

>  <SCORE.INTRA.norm>
-0.0793553

>  <SCORE.RESTR>
0.000771649

>  <SCORE.RESTR.CAVITY>
0.000771649

>  <SCORE.RESTR.norm>
2.26956e-05

>  <SCORE.SYSTEM>
0

>  <SCORE.SYSTEM.CONST>
0

>  <SCORE.SYSTEM.DIHEDRAL>
0

>  <SCORE.SYSTEM.SOLV>
0

>  <SCORE.SYSTEM.norm>
0

>  <SCORE.heavy>
34

>  <SCORE.norm>
-0.569902

>  <RMSD>
0.969

$$$$
lig.pdb
 OpenBabel11021811503D
libRbt.so/2013.1/901 2013/11/27
 34 36  0  0  0  0  0  0  0  0999 V2000
   -1.1518   16.5581   35.3992 C   0  0  2  0  0  0  0  0  0  0  0  0
   -1.7043   17.2075   36.5495 O   0  0  0  0  0  0  0  0  0  0  0  0
    0.2481   15.9257   35.8012 C   0  0  2  0  0  0  0  0  0  0  0  0
    0.1094   14.9247   36.8846 N   0  0  0  0  0  0  0  0  0  0  0  0
    1.2143   17.0529   36.2446 C   0  0  1  0  0  0  0  0  0  0  0  0
    2.4838   16.5029   36.6042 O   0  0  0  0  0  0  0  0  0  0  0  0
    1.3484   18.0645   35.0924 C   0  0  2  0  0  0  0  0  0  0  0  0
    2.2403   19.1083   35.4868 O   0  0  0  0  0  0  0  0  0  0  0  0
   -0.0713   18.6454   34.7274 C   0  0  2  0  0  0  0  0  0  0  0  0
   -0.9972   17.5600   34.3394 O   0  0  0  0  0  0  0  0  0  0  0  0
    0.0108   19.6585   33.5586 C   0  0  2  0  0  0  0  0  0  0  0  0
    0.8783   20.7372   33.9128 O   0  0  0  0  0  0  0  0  0  0  0  0
   -1.3601   20.2270   33.2266 C   0  0  0  0  0  0  0  0  0  0  0  0
   -5.5269   17.0341   38.4664 C   0  0  2  0  0  0  0  0  0  0  0  0
   -6.9733   17.1067   38.6872 N   0  0  0  0  0  0  0  0  0  0  0  0
   -5.0872   18.3886   37.8452 C   0  0  0  0  0  0  0  0  0  0  0  0
   -3.5508   18.3403   37.6259 C   0  0  2  0  0  0  0  0  0  0  0  0
   -3.0878   19.6091   37.0422 N   0  0  0  0  0  0  0  0  0  0  0  0
   -3.1611   17.1723   36.6806 C   0  0  2  0  0  0  0  0  0  0  0  0
   -3.6533   15.8276   37.3029 C   0  0  2  0  0  0  0  0  0  0  0  0
   -3.3029   14.7505   36.4233 O   0  0  0  0  0  0  0  0  0  0  0  0
   -5.1907   15.8349   37.4833 C   0  0  1  0  0  0  0  0  0  0  0  0
   -5.5623   14.5643   38.0725 O   0  0  0  0  0  0  0  0  0  0  0  0
   -6.8968   14.0911   37.7743 C   0  0  2  0  0  0  0  0  0  0  0  0
   -7.2528   13.0481   38.8980 C   0  0  2  0  0  0  0  0  0  0  0  0
   -7.2269   13.6803   40.1680 O   0  0  0  0  0  0  0  0  0  0  0  0
   -6.2208   11.8589   38.8386 C   0  0  1  0  0  0  0  0  0  0  0  0
   -6.5153   10.8463   39.8980 N   0  0  0  0  0  0  0  0  0  0  0  0
   -5.8098   11.2328   41.1388 C   0  0  0  0  0  0  0  0  0  0  0  0
   -6.3025   11.2033   37.4265 C   0  0  2  0  0  0  0  0  0  0  0  0
   -7.6239   10.7021   37.2307 O   0  0  0  0  0  0  0  0  0  0  0  0
   -5.3225   10.0417   37.2831 C   0  0  0  0  0  0  0  0  0  0  0  0
   -5.9939   12.2844   36.3415 C   0  0  0  0  0  0  0  0  0  0  0  0
   -6.9238   13.4276   36.4552 O   0  0  0  0  0  0  0  0  0  0  0  0
  1  3  1  0  0  0  0
  1  2  1  1  0  0  0
  3  5  1  0  0  0  0
  3  4  1  1  0  0  0
  5  6  1  6  0  0  0
  7  8  1  1  0  0  0
  7  5  1  0  0  0  0
  9 10  1  6  0  0  0
  9  7  1  0  0  0  0
 10  1  1  0  0  0  0
 11 13  1  1  0  0  0
 11  9  1  0  0  0  0
 12 11  1  0  0  0  0
 14 15  1  6  0  0  0
 16 14  1  0  0  0  0
 17 18  1  6  0  0  0
 17 16  1  0  0  0  0
 19  2  1  1  0  0  0
 19 20  1  0  0  0  0
 19 17  1  0  0  0  0
 20 21  1  6  0  0  0
 20 22  1  0  0  0  0
 22 23  1  1  0  0  0
 22 14  1  0  0  0  0
 24 23  1  1  0  0  0
 24 25  1  0  0  0  0
 25 27  1  0  0  0  0
 25 26  1  1  0  0  0
 27 28  1  1  0  0  0
 28 29  1  0  0  0  0
 30 31  1  6  0  0  0
 30 32  1  0  0  0  0
 30 27  1  0  0  0  0
 33 30  1  0  0  0  0
 34 33  1  0  0  0  0
 34 24  1  0  0  0  0
M  END
>  <CHROM.1>
-146.03660687,-58.99376853,-158.79551001,91.56251199,-159.30496906,-87.95586502
-3.33489517,15.67585022,36.89886116,-0.74904703,-0.32393703,2.97123383

>  <Name>
lig.pdb

>  <RI>
0

>  <Rbt.Current_Directory>
/home/itssahil/PROJECTS/Mol_Feturizer/New_Systems/rnas/4k32

>  <Rbt.Executable>
rbdock ($Id: //depot/dev/client3/rdock/2013.1/src/exe/rbdock.cxx#4 $)

>  <Rbt.Library>
libRbt.so (2013.1, Build901 2013/11/27)

>  <Rbt.Parameter_File>
/export/apps/rDock/src/rDock_2013.1_src/data/scripts/dock_solv.prm

>  <Rbt.Receptor>
prm/pocket_docking_3.prm

>  <SCORE>
-19.4237

>  <SCORE.INTER>
-16.7988

>  <SCORE.INTER.CONST>
1

>  <SCORE.INTER.POLAR>
0

>  <SCORE.INTER.ROT>
6

>  <SCORE.INTER.SOLV>
23.4299

>  <SCORE.INTER.VDW>
-26.6092

>  <SCORE.INTER.norm>
-0.494081

>  <SCORE.INTRA>
-2.62797

>  <SCORE.INTRA.DIHEDRAL>
-5.30476

>  <SCORE.INTRA.DIHEDRAL.0>
18.0069

>  <SCORE.INTRA.POLAR>
0

>  <SCORE.INTRA.POLAR.0>
0

>  <SCORE.INTRA.REPUL>
0

>  <SCORE.INTRA.REPUL.0>
0

>  <SCORE.INTRA.SOLV>
-0.0589968

>  <SCORE.INTRA.SOLV.lig_0>
-70.7393

>  <SCORE.INTRA.VDW>
0.0539051

>  <SCORE.INTRA.VDW.0>
-3.23471

>  <SCORE.INTRA.norm>
-0.0772933

>  <SCORE.RESTR>
0.00302723

>  <SCORE.RESTR.CAVITY>
0.00302723

>  <SCORE.RESTR.norm>
8.90362e-05

>  <SCORE.SYSTEM>
0

>  <SCORE.SYSTEM.CONST>
0

>  <SCORE.SYSTEM.DIHEDRAL>
0

>  <SCORE.SYSTEM.SOLV>
0

>  <SCORE.SYSTEM.norm>
0

>  <SCORE.heavy>
34

>  <SCORE.norm>
-0.571286

>  <RMSD>
0.972

$$$$
lig.pdb
 OpenBabel11021811503D
libRbt.so/2013.1/901 2013/11/27
 34 36  0  0  0  0  0  0  0  0999 V2000
   -1.2066   16.5568   35.4413 C   0  0  2  0  0  0  0  0  0  0  0  0
   -1.7504   17.2049   36.5965 O   0  0  0  0  0  0  0  0  0  0  0  0
    0.1963   15.9241   35.8320 C   0  0  2  0  0  0  0  0  0  0  0  0
    0.0660   14.9219   36.9153 N   0  0  0  0  0  0  0  0  0  0  0  0
    1.1657   17.0510   36.2692 C   0  0  1  0  0  0  0  0  0  0  0  0
    2.4380   16.5007   36.6186 O   0  0  0  0  0  0  0  0  0  0  0  0
    1.2910   18.0638   35.1172 C   0  0  2  0  0  0  0  0  0  0  0  0
    2.1858   19.1072   35.5059 O   0  0  0  0  0  0  0  0  0  0  0  0
   -0.1315   18.6449   34.7635 C   0  0  2  0  0  0  0  0  0  0  0  0
   -1.0602   17.5598   34.3814 O   0  0  0  0  0  0  0  0  0  0  0  0
   -0.0584   19.6593   33.5952 C   0  0  2  0  0  0  0  0  0  0  0  0
    0.8488   20.7128   33.9248 O   0  0  0  0  0  0  0  0  0  0  0  0
   -1.4230   20.2658   33.3077 C   0  0  0  0  0  0  0  0  0  0  0  0
   -5.5780   17.1361   38.5099 C   0  0  2  0  0  0  0  0  0  0  0  0
   -7.0238   17.2328   38.7255 N   0  0  0  0  0  0  0  0  0  0  0  0
   -5.1211   18.4656   37.8485 C   0  0  0  0  0  0  0  0  0  0  0  0
   -3.5850   18.3922   37.6338 C   0  0  2  0  0  0  0  0  0  0  0  0
   -3.1058   19.6369   37.0125 N   0  0  0  0  0  0  0  0  0  0  0  0
   -3.2078   17.1912   36.7256 C   0  0  2  0  0  0  0  0  0  0  0  0
   -3.7171   15.8722   37.3878 C   0  0  2  0  0  0  0  0  0  0  0  0
   -3.3783   14.7645   36.5424 O   0  0  0  0  0  0  0  0  0  0  0  0
   -5.2547   15.9034   37.5648 C   0  0  1  0  0  0  0  0  0  0  0  0
   -5.6426   14.6560   38.1919 O   0  0  0  0  0  0  0  0  0  0  0  0
   -6.9521   14.1491   37.8429 C   0  0  2  0  0  0  0  0  0  0  0  0
   -7.3138   13.0790   38.9391 C   0  0  2  0  0  0  0  0  0  0  0  0
   -7.3477   13.6921   40.2183 O   0  0  0  0  0  0  0  0  0  0  0  0
   -6.2459   11.9212   38.8966 C   0  0  1  0  0  0  0  0  0  0  0  0
   -6.5447   10.8843   39.9309 N   0  0  0  0  0  0  0  0  0  0  0  0
   -5.8324   11.2338   41.1788 C   0  0  0  0  0  0  0  0  0  0  0  0
   -6.2622   11.2854   37.4732 C   0  0  2  0  0  0  0  0  0  0  0  0
   -7.5612   10.7493   37.2267 O   0  0  0  0  0  0  0  0  0  0  0  0
   -5.2443   10.1550   37.3455 C   0  0  0  0  0  0  0  0  0  0  0  0
   -5.9504   12.3916   36.4148 C   0  0  0  0  0  0  0  0  0  0  0  0
   -6.9167   13.5056   36.5143 O   0  0  0  0  0  0  0  0  0  0  0  0
  1  3  1  0  0  0  0
  1  2  1  1  0  0  0
  3  5  1  0  0  0  0
  3  4  1  1  0  0  0
  5  6  1  6  0  0  0
  7  8  1  1  0  0  0
  7  5  1  0  0  0  0
  9 10  1  6  0  0  0
  9  7  1  0  0  0  0
 10  1  1  0  0  0  0
 11 13  1  1  0  0  0
 11  9  1  0  0  0  0
 12 11  1  0  0  0  0
 14 15  1  6  0  0  0
 16 14  1  0  0  0  0
 17 18  1  6  0  0  0
 17 16  1  0  0  0  0
 19  2  1  1  0  0  0
 19 20  1  0  0  0  0
 19 17  1  0  0  0  0
 20 21  1  6  0  0  0
 20 22  1  0  0  0  0
 22 23  1  1  0  0  0
 22 14  1  0  0  0  0
 24 23  1  1  0  0  0
 24 25  1  0  0  0  0
 25 27  1  0  0  0  0
 25 26  1  1  0  0  0
 27 28  1  1  0  0  0
 28 29  1  0  0  0  0
 30 31  1  6  0  0  0
 30 32  1  0  0  0  0
 30 27  1  0  0  0  0
 33 30  1  0  0  0  0
 34 33  1  0  0  0  0
 34 24  1  0  0  0  0
M  END
>  <CHROM.1>
-147.14821133,-56.92122413,-156.54260851,95.11274872,-163.18232124,-90.96802662
-3.37269726,15.71211252,36.94273125,-0.74781574,-0.32747213,2.96683541

>  <Name>
lig.pdb

>  <RI>
0

>  <Rbt.Current_Directory>
/home/itssahil/PROJECTS/Mol_Feturizer/New_Systems/rnas/4k32

>  <Rbt.Executable>
rbdock ($Id: //depot/dev/client3/rdock/2013.1/src/exe/rbdock.cxx#4 $)

>  <Rbt.Library>
libRbt.so (2013.1, Build901 2013/11/27)

>  <Rbt.Parameter_File>
/export/apps/rDock/src/rDock_2013.1_src/data/scripts/dock_solv.prm

>  <Rbt.Receptor>
prm/pocket_docking_3.prm

>  <SCORE>
-19.1626

>  <SCORE.INTER>
-16.433

>  <SCORE.INTER.CONST>
1

>  <SCORE.INTER.POLAR>
0

>  <SCORE.INTER.ROT>
6

>  <SCORE.INTER.SOLV>
23.1441

>  <SCORE.INTER.VDW>
-26.27

>  <SCORE.INTER.norm>
-0.483324

>  <SCORE.INTRA>
-2.73394

>  <SCORE.INTRA.DIHEDRAL>
-4.9489

>  <SCORE.INTRA.DIHEDRAL.0>
18.0069

>  <SCORE.INTRA.POLAR>
0

>  <SCORE.INTRA.POLAR.0>
0

>  <SCORE.INTRA.REPUL>
0

>  <SCORE.INTRA.REPUL.0>
0

>  <SCORE.INTRA.SOLV>
-0.0915293

>  <SCORE.INTRA.SOLV.lig_0>
-70.7393

>  <SCORE.INTRA.VDW>
-0.213729

>  <SCORE.INTRA.VDW.0>
-3.23471

>  <SCORE.INTRA.norm>
-0.0804101

>  <SCORE.RESTR>
0.00438904

>  <SCORE.RESTR.CAVITY>
0.00438904

>  <SCORE.RESTR.norm>
0.00012909

>  <SCORE.SYSTEM>
0

>  <SCORE.SYSTEM.CONST>
0

>  <SCORE.SYSTEM.DIHEDRAL>
0

>  <SCORE.SYSTEM.SOLV>
0

>  <SCORE.SYSTEM.norm>
0

>  <SCORE.heavy>
34

>  <SCORE.norm>
-0.563605

>  <RMSD>
0.983

$$$$
lig.pdb
 OpenBabel11021811503D
libRbt.so/2013.1/901 2013/11/27
 34 36  0  0  0  0  0  0  0  0999 V2000
   -1.1330   16.4342   35.5063 C   0  0  2  0  0  0  0  0  0  0  0  0
   -1.6962   17.0921   36.6465 O   0  0  0  0  0  0  0  0  0  0  0  0
    0.2819   15.8405   35.9148 C   0  0  2  0  0  0  0  0  0  0  0  0
    0.1689   14.8566   37.0167 N   0  0  0  0  0  0  0  0  0  0  0  0
    1.2241   16.9968   36.3342 C   0  0  1  0  0  0  0  0  0  0  0  0
    2.5067   16.4818   36.6992 O   0  0  0  0  0  0  0  0  0  0  0  0
    1.3321   17.9899   35.1633 C   0  0  2  0  0  0  0  0  0  0  0  0
    2.2018   19.0602   35.5354 O   0  0  0  0  0  0  0  0  0  0  0  0
   -0.1013   18.5324   34.7927 C   0  0  2  0  0  0  0  0  0  0  0  0
   -1.0040   17.4198   34.4278 O   0  0  0  0  0  0  0  0  0  0  0  0
   -0.0454   19.5255   33.6054 C   0  0  2  0  0  0  0  0  0  0  0  0
    0.7931   20.6331   33.9397 O   0  0  0  0  0  0  0  0  0  0  0  0
   -1.4307   20.0512   33.2629 C   0  0  0  0  0  0  0  0  0  0  0  0
   -5.5597   17.0494   38.4871 C   0  0  2  0  0  0  0  0  0  0  0  0
   -7.0090   17.1529   38.6745 N   0  0  0  0  0  0  0  0  0  0  0  0
   -5.0851   18.3732   37.8265 C   0  0  0  0  0  0  0  0  0  0  0  0
   -3.5455   18.2927   37.6416 C   0  0  2  0  0  0  0  0  0  0  0  0
   -3.0497   19.5317   37.0221 N   0  0  0  0  0  0  0  0  0  0  0  0
   -3.1558   17.0847   36.7479 C   0  0  2  0  0  0  0  0  0  0  0  0
   -3.6828   15.7717   37.4082 C   0  0  2  0  0  0  0  0  0  0  0  0
   -3.3322   14.6576   36.5760 O   0  0  0  0  0  0  0  0  0  0  0  0
   -5.2233   15.8098   37.5556 C   0  0  1  0  0  0  0  0  0  0  0  0
   -5.6279   14.5676   38.1827 O   0  0  0  0  0  0  0  0  0  0  0  0
   -6.9399   14.0730   37.8257 C   0  0  2  0  0  0  0  0  0  0  0  0
   -7.3023   12.9795   38.8983 C   0  0  2  0  0  0  0  0  0  0  0  0
   -7.3311   13.5635   40.1912 O   0  0  0  0  0  0  0  0  0  0  0  0
   -6.2383   11.8196   38.8268 C   0  0  1  0  0  0  0  0  0  0  0  0
   -6.5379   10.7604   39.8381 N   0  0  0  0  0  0  0  0  0  0  0  0
   -5.8454   11.0950   41.1011 C   0  0  0  0  0  0  0  0  0  0  0  0
   -6.2603   11.2163   37.3894 C   0  0  2  0  0  0  0  0  0  0  0  0
   -7.5616   10.6900   37.1341 O   0  0  0  0  0  0  0  0  0  0  0  0
   -5.2464   10.0857   37.2334 C   0  0  0  0  0  0  0  0  0  0  0  0
   -5.9475   12.3451   36.3555 C   0  0  0  0  0  0  0  0  0  0  0  0
   -6.9099   13.4597   36.4827 O   0  0  0  0  0  0  0  0  0  0  0  0
  1  3  1  0  0  0  0
  1  2  1  1  0  0  0
  3  5  1  0  0  0  0
  3  4  1  1  0  0  0
  5  6  1  6  0  0  0
  7  8  1  1  0  0  0
  7  5  1  0  0  0  0
  9 10  1  6  0  0  0
  9  7  1  0  0  0  0
 10  1  1  0  0  0  0
 11 13  1  1  0  0  0
 11  9  1  0  0  0  0
 12 11  1  0  0  0  0
 14 15  1  6  0  0  0
 16 14  1  0  0  0  0
 17 18  1  6  0  0  0
 17 16  1  0  0  0  0
 19  2  1  1  0  0  0
 19 20  1  0  0  0  0
 19 17  1  0  0  0  0
 20 21  1  6  0  0  0
 20 22  1  0  0  0  0
 22 23  1  1  0  0  0
 22 14  1  0  0  0  0
 24 23  1  1  0  0  0
 24 25  1  0  0  0  0
 25 27  1  0  0  0  0
 25 26  1  1  0  0  0
 27 28  1  1  0  0  0
 28 29  1  0  0  0  0
 30 31  1  6  0  0  0
 30 32  1  0  0  0  0
 30 27  1  0  0  0  0
 33 30  1  0  0  0  0
 34 33  1  0  0  0  0
 34 24  1  0  0  0  0
M  END
>  <CHROM.1>
-149.00342519,-59.31351678,-156.58293877,94.30619554,-164.75367409,-89.72937018
-3.34592142,15.61878988,36.93826723,-0.74628275,-0.30939395,2.96321406

>  <Name>
lig.pdb

>  <RI>
0

>  <Rbt.Current_Directory>
/home/itssahil/PROJECTS/Mol_Feturizer/New_Systems/rnas/4k32

>  <Rbt.Executable>
rbdock ($Id: //depot/dev/client3/rdock/2013.1/src/exe/rbdock.cxx#4 $)

>  <Rbt.Library>
libRbt.so (2013.1, Build901 2013/11/27)

>  <Rbt.Parameter_File>
/export/apps/rDock/src/rDock_2013.1_src/data/scripts/dock_solv.prm

>  <Rbt.Receptor>
prm/pocket_docking_2.prm

>  <SCORE>
-19.0042

>  <SCORE.INTER>
-16.2784

>  <SCORE.INTER.CONST>
1

>  <SCORE.INTER.POLAR>
0

>  <SCORE.INTER.ROT>
6

>  <SCORE.INTER.SOLV>
23.3639

>  <SCORE.INTER.VDW>
-26.2402

>  <SCORE.INTER.norm>
-0.478775

>  <SCORE.INTRA>
-3.13549

>  <SCORE.INTRA.DIHEDRAL>
-5.74445

>  <SCORE.INTRA.DIHEDRAL.0>
18.0069

>  <SCORE.INTRA.POLAR>
0

>  <SCORE.INTRA.POLAR.0>
0

>  <SCORE.INTRA.REPUL>
0

>  <SCORE.INTRA.REPUL.0>
0

>  <SCORE.INTRA.SOLV>
-0.183796

>  <SCORE.INTRA.SOLV.lig_0>
-70.7393

>  <SCORE.INTRA.VDW>
-0.171369

>  <SCORE.INTRA.VDW.0>
-3.23471

>  <SCORE.INTRA.norm>
-0.0922204

>  <SCORE.RESTR>
0.409681

>  <SCORE.RESTR.CAVITY>
0.409681

>  <SCORE.RESTR.norm>
0.0120494

>  <SCORE.SYSTEM>
0

>  <SCORE.SYSTEM.CONST>
0

>  <SCORE.SYSTEM.DIHEDRAL>
0

>  <SCORE.SYSTEM.SOLV>
0

>  <SCORE.SYSTEM.norm>
0

>  <SCORE.heavy>
34

>  <SCORE.norm>
-0.558946

>  <RMSD>
1.015

$$$$
lig.pdb
 OpenBabel11021811503D
libRbt.so/2013.1/901 2013/11/27
 34 36  0  0  0  0  0  0  0  0999 V2000
   -1.1831   17.2192   35.0527 C   0  0  2  0  0  0  0  0  0  0  0  0
   -1.7011   17.9373   36.1780 O   0  0  0  0  0  0  0  0  0  0  0  0
    0.2203   16.5952   35.4557 C   0  0  2  0  0  0  0  0  0  0  0  0
    0.0990   15.6575   36.5963 N   0  0  0  0  0  0  0  0  0  0  0  0
    1.2075   17.7351   35.8121 C   0  0  1  0  0  0  0  0  0  0  0  0
    2.4803   17.1925   36.1713 O   0  0  0  0  0  0  0  0  0  0  0  0
    1.3227   18.6796   34.6025 C   0  0  2  0  0  0  0  0  0  0  0  0
    2.2336   19.7341   34.9164 O   0  0  0  0  0  0  0  0  0  0  0  0
   -0.1002   19.2543   34.2397 C   0  0  2  0  0  0  0  0  0  0  0  0
   -1.0453   18.1590   33.9352 O   0  0  0  0  0  0  0  0  0  0  0  0
   -0.0374   20.2000   33.0146 C   0  0  2  0  0  0  0  0  0  0  0  0
    0.8135   21.3109   33.3035 O   0  0  0  0  0  0  0  0  0  0  0  0
   -1.4182   20.7265   32.6554 C   0  0  0  0  0  0  0  0  0  0  0  0
   -5.3776   17.3747   38.2954 C   0  0  2  0  0  0  0  0  0  0  0  0
   -6.8058   17.3779   38.6216 N   0  0  0  0  0  0  0  0  0  0  0  0
   -4.9993   18.8201   37.8694 C   0  0  0  0  0  0  0  0  0  0  0  0
   -3.4815   18.8428   37.5424 C   0  0  2  0  0  0  0  0  0  0  0  0
   -3.0762   20.1983   37.1381 N   0  0  0  0  0  0  0  0  0  0  0  0
   -3.1447   17.8480   36.3994 C   0  0  2  0  0  0  0  0  0  0  0  0
   -3.5754   16.4109   36.8316 C   0  0  2  0  0  0  0  0  0  0  0  0
   -3.2743   15.4945   35.7704 O   0  0  0  0  0  0  0  0  0  0  0  0
   -5.0964   16.3538   37.1138 C   0  0  1  0  0  0  0  0  0  0  0  0
   -5.4102   14.9978   37.5171 O   0  0  0  0  0  0  0  0  0  0  0  0
   -6.0688   14.1756   36.5252 C   0  0  2  0  0  0  0  0  0  0  0  0
   -6.8017   13.0323   37.3209 C   0  0  2  0  0  0  0  0  0  0  0  0
   -7.7567   13.5968   38.2056 O   0  0  0  0  0  0  0  0  0  0  0  0
   -5.7298   12.1898   38.1108 C   0  0  1  0  0  0  0  0  0  0  0  0
   -6.3837   11.0956   38.8914 N   0  0  0  0  0  0  0  0  0  0  0  0
   -6.2341   11.3818   40.3344 C   0  0  0  0  0  0  0  0  0  0  0  0
   -4.7176   11.5925   37.0865 C   0  0  2  0  0  0  0  0  0  0  0  0
   -5.4262   10.7433   36.1852 O   0  0  0  0  0  0  0  0  0  0  0  0
   -3.6356   10.7648   37.7753 C   0  0  0  0  0  0  0  0  0  0  0  0
   -4.0533   12.7573   36.2845 C   0  0  0  0  0  0  0  0  0  0  0  0
   -5.0753   13.5828   35.6074 O   0  0  0  0  0  0  0  0  0  0  0  0
  1  3  1  0  0  0  0
  1  2  1  1  0  0  0
  3  5  1  0  0  0  0
  3  4  1  1  0  0  0
  5  6  1  6  0  0  0
  7  8  1  1  0  0  0
  7  5  1  0  0  0  0
  9 10  1  6  0  0  0
  9  7  1  0  0  0  0
 10  1  1  0  0  0  0
 11 13  1  1  0  0  0
 11  9  1  0  0  0  0
 12 11  1  0  0  0  0
 14 15  1  6  0  0  0
 16 14  1  0  0  0  0
 17 18  1  6  0  0  0
 17 16  1  0  0  0  0
 19  2  1  1  0  0  0
 19 20  1  0  0  0  0
 19 17  1  0  0  0  0
 20 21  1  6  0  0  0
 20 22  1  0  0  0  0
 22 23  1  1  0  0  0
 22 14  1  0  0  0  0
 24 23  1  1  0  0  0
 24 25  1  0  0  0  0
 25 27  1  0  0  0  0
 25 26  1  1  0  0  0
 27 28  1  6  0  0  0
 28 29  1  0  0  0  0
 30 31  1  6  0  0  0
 30 32  1  0  0  0  0
 30 27  1  0  0  0  0
 33 30  1  0  0  0  0
 34 33  1  0  0  0  0
 34 24  1  0  0  0  0
M  END
>  <CHROM.1>
-141.90999928,-60.92289654,-172.76222646,139.56570540,-157.82624422,-112.56968870
-3.01802887,16.14006760,36.37469945,-0.81218134,-0.38510423,3.02960459

>  <Name>
lig.pdb

>  <RI>
0

>  <Rbt.Current_Directory>
/home/itssahil/PROJECTS/Mol_Feturizer/New_Systems/rnas/4k32

>  <Rbt.Executable>
rbdock ($Id: //depot/dev/client3/rdock/2013.1/src/exe/rbdock.cxx#4 $)

>  <Rbt.Library>
libRbt.so (2013.1, Build901 2013/11/27)

>  <Rbt.Parameter_File>
/export/apps/rDock/src/rDock_2013.1_src/data/scripts/dock_solv.prm

>  <Rbt.Receptor>
prm/pocket_docking_3.prm

>  <SCORE>
-14.8226

>  <SCORE.INTER>
-12.5007

>  <SCORE.INTER.CONST>
1

>  <SCORE.INTER.POLAR>
0

>  <SCORE.INTER.ROT>
6

>  <SCORE.INTER.SOLV>
23.6872

>  <SCORE.INTER.VDW>
-23.8296

>  <SCORE.INTER.norm>
-0.367669

>  <SCORE.INTRA>
-2.32307

>  <SCORE.INTRA.DIHEDRAL>
-3.88932

>  <SCORE.INTRA.DIHEDRAL.0>
18.0069

>  <SCORE.INTRA.POLAR>
0

>  <SCORE.INTRA.POLAR.0>
0

>  <SCORE.INTRA.REPUL>
0

>  <SCORE.INTRA.REPUL.0>
0

>  <SCORE.INTRA.SOLV>
-1.39811

>  <SCORE.INTRA.SOLV.lig_0>
-70.7393

>  <SCORE.INTRA.VDW>
0.320649

>  <SCORE.INTRA.VDW.0>
-3.23471

>  <SCORE.INTRA.norm>
-0.0683255

>  <SCORE.RESTR>
0.00121555

>  <SCORE.RESTR.CAVITY>
0.00121555

>  <SCORE.RESTR.norm>
3.57513e-05

>  <SCORE.SYSTEM>
0

>  <SCORE.SYSTEM.CONST>
0

>  <SCORE.SYSTEM.DIHEDRAL>
0

>  <SCORE.SYSTEM.SOLV>
0

>  <SCORE.SYSTEM.norm>
0

>  <SCORE.heavy>
34

>  <SCORE.norm>
-0.435959

>  <RMSD>
1.018

$$$$
lig.pdb
 OpenBabel11021811503D
libRbt.so/2013.1/901 2013/11/27
 34 36  0  0  0  0  0  0  0  0999 V2000
   -1.0756   16.4747   35.4754 C   0  0  2  0  0  0  0  0  0  0  0  0
   -1.6546   17.1308   36.6087 O   0  0  0  0  0  0  0  0  0  0  0  0
    0.3280   15.8700   35.9058 C   0  0  2  0  0  0  0  0  0  0  0  0
    0.1895   14.8817   37.0008 N   0  0  0  0  0  0  0  0  0  0  0  0
    1.2701   17.0183   36.3472 C   0  0  1  0  0  0  0  0  0  0  0  0
    2.5427   16.4933   36.7322 O   0  0  0  0  0  0  0  0  0  0  0  0
    1.4049   18.0161   35.1832 C   0  0  2  0  0  0  0  0  0  0  0  0
    2.2747   19.0791   35.5757 O   0  0  0  0  0  0  0  0  0  0  0  0
   -0.0184   18.5695   34.7901 C   0  0  2  0  0  0  0  0  0  0  0  0
   -0.9215   17.4644   34.4041 O   0  0  0  0  0  0  0  0  0  0  0  0
    0.0647   19.5678   33.6088 C   0  0  2  0  0  0  0  0  0  0  0  0
    0.9098   20.6649   33.9604 O   0  0  0  0  0  0  0  0  0  0  0  0
   -1.3101   20.1097   33.2495 C   0  0  0  0  0  0  0  0  0  0  0  0
   -5.5312   17.0358   38.4196 C   0  0  2  0  0  0  0  0  0  0  0  0
   -6.9828   17.1233   38.5967 N   0  0  0  0  0  0  0  0  0  0  0  0
   -5.0650   18.3691   37.7724 C   0  0  0  0  0  0  0  0  0  0  0  0
   -3.5233   18.3053   37.5986 C   0  0  2  0  0  0  0  0  0  0  0  0
   -3.0354   19.5539   36.9920 N   0  0  0  0  0  0  0  0  0  0  0  0
   -3.1148   17.1081   36.6990 C   0  0  2  0  0  0  0  0  0  0  0  0
   -3.6335   15.7850   37.3456 C   0  0  2  0  0  0  0  0  0  0  0  0
   -3.2655   14.6807   36.5079 O   0  0  0  0  0  0  0  0  0  0  0  0
   -5.1753   15.8065   37.4816 C   0  0  1  0  0  0  0  0  0  0  0  0
   -5.5721   14.5558   38.0965 O   0  0  0  0  0  0  0  0  0  0  0  0
   -6.9015   14.0830   37.7756 C   0  0  2  0  0  0  0  0  0  0  0  0
   -7.2654   13.0189   38.8767 C   0  0  2  0  0  0  0  0  0  0  0  0
   -7.2553   13.6284   40.1580 O   0  0  0  0  0  0  0  0  0  0  0  0
   -6.2282   11.8347   38.8071 C   0  0  1  0  0  0  0  0  0  0  0  0
   -6.5299   10.8022   39.8450 N   0  0  0  0  0  0  0  0  0  0  0  0
   -5.8374   11.1680   41.0993 C   0  0  0  0  0  0  0  0  0  0  0  0
   -6.2923   11.2042   37.3827 C   0  0  2  0  0  0  0  0  0  0  0  0
   -7.6096   10.7017   37.1639 O   0  0  0  0  0  0  0  0  0  0  0  0
   -5.3063   10.0490   37.2290 C   0  0  0  0  0  0  0  0  0  0  0  0
   -5.9765   12.3057   36.3205 C   0  0  0  0  0  0  0  0  0  0  0  0
   -6.9120   13.4432   36.4447 O   0  0  0  0  0  0  0  0  0  0  0  0
  1  3  1  0  0  0  0
  1  2  1  1  0  0  0
  3  5  1  0  0  0  0
  3  4  1  1  0  0  0
  5  6  1  6  0  0  0
  7  8  1  1  0  0  0
  7  5  1  0  0  0  0
  9 10  1  6  0  0  0
  9  7  1  0  0  0  0
 10  1  1  0  0  0  0
 11 13  1  1  0  0  0
 11  9  1  0  0  0  0
 12 11  1  0  0  0  0
 14 15  1  6  0  0  0
 16 14  1  0  0  0  0
 17 18  1  6  0  0  0
 17 16  1  0  0  0  0
 19  2  1  1  0  0  0
 19 20  1  0  0  0  0
 19 17  1  0  0  0  0
 20 21  1  6  0  0  0
 20 22  1  0  0  0  0
 22 23  1  1  0  0  0
 22 14  1  0  0  0  0
 24 23  1  1  0  0  0
 24 25  1  0  0  0  0
 25 27  1  0  0  0  0
 25 26  1  1  0  0  0
 27 28  1  1  0  0  0
 28 29  1  0  0  0  0
 30 31  1  6  0  0  0
 30 32  1  0  0  0  0
 30 27  1  0  0  0  0
 33 30  1  0  0  0  0
 34 33  1  0  0  0  0
 34 24  1  0  0  0  0
M  END
>  <CHROM.1>
-147.76787231,-59.00670188,-157.22916804,91.46835682,-162.19466083,-88.04450133
-3.30777828,15.63699698,36.91550383,-0.74599728,-0.29606159,2.95671383

>  <Name>
lig.pdb

>  <RI>
0

>  <Rbt.Current_Directory>
/home/itssahil/PROJECTS/Mol_Feturizer/New_Systems/rnas/4k32

>  <Rbt.Executable>
rbdock ($Id: //depot/dev/client3/rdock/2013.1/src/exe/rbdock.cxx#4 $)

>  <Rbt.Library>
libRbt.so (2013.1, Build901 2013/11/27)

>  <Rbt.Parameter_File>
/export/apps/rDock/src/rDock_2013.1_src/data/scripts/dock_solv.prm

>  <Rbt.Receptor>
prm/pocket_docking_2.prm

>  <SCORE>
-19.144

>  <SCORE.INTER>
-16.6485

>  <SCORE.INTER.CONST>
1

>  <SCORE.INTER.POLAR>
0

>  <SCORE.INTER.ROT>
6

>  <SCORE.INTER.SOLV>
23.5325

>  <SCORE.INTER.VDW>
-26.5432

>  <SCORE.INTER.norm>
-0.489663

>  <SCORE.INTRA>
-2.9334

>  <SCORE.INTRA.DIHEDRAL>
-5.8315

>  <SCORE.INTRA.DIHEDRAL.0>
18.0069

>  <SCORE.INTRA.POLAR>
0

>  <SCORE.INTRA.POLAR.0>
0

>  <SCORE.INTRA.REPUL>
0

>  <SCORE.INTRA.REPUL.0>
0

>  <SCORE.INTRA.SOLV>
-0.0839819

>  <SCORE.INTRA.SOLV.lig_0>
-70.7393

>  <SCORE.INTRA.VDW>
0.0243478

>  <SCORE.INTRA.VDW.0>
-3.23471

>  <SCORE.INTRA.norm>
-0.0862763

>  <SCORE.RESTR>
0.437913

>  <SCORE.RESTR.CAVITY>
0.437913

>  <SCORE.RESTR.norm>
0.0128798

>  <SCORE.SYSTEM>
0

>  <SCORE.SYSTEM.CONST>
0

>  <SCORE.SYSTEM.DIHEDRAL>
0

>  <SCORE.SYSTEM.SOLV>
0

>  <SCORE.SYSTEM.norm>
0

>  <SCORE.heavy>
34

>  <SCORE.norm>
-0.563059

>  <RMSD>
1.020

$$$$
lig.pdb
 OpenBabel11021811503D
libRbt.so/2013.1/901 2013/11/27
 34 36  0  0  0  0  0  0  0  0999 V2000
   -1.1330   16.4289   35.5168 C   0  0  2  0  0  0  0  0  0  0  0  0
   -1.6900   17.0943   36.6558 O   0  0  0  0  0  0  0  0  0  0  0  0
    0.2813   15.8324   35.9233 C   0  0  2  0  0  0  0  0  0  0  0  0
    0.1690   14.8545   37.0305 N   0  0  0  0  0  0  0  0  0  0  0  0
    1.2289   16.9877   36.3335 C   0  0  1  0  0  0  0  0  0  0  0  0
    2.5110   16.4703   36.6965 O   0  0  0  0  0  0  0  0  0  0  0  0
    1.3360   17.9746   35.1573 C   0  0  2  0  0  0  0  0  0  0  0  0
    2.2105   19.0439   35.5210 O   0  0  0  0  0  0  0  0  0  0  0  0
   -0.0970   18.5200   34.7892 C   0  0  2  0  0  0  0  0  0  0  0  0
   -1.0047   17.4086   34.4331 O   0  0  0  0  0  0  0  0  0  0  0  0
   -0.0421   19.5070   33.5967 C   0  0  2  0  0  0  0  0  0  0  0  0
    0.8054   20.6109   33.9205 O   0  0  0  0  0  0  0  0  0  0  0  0
   -1.4261   20.0398   33.2601 C   0  0  0  0  0  0  0  0  0  0  0  0
   -5.5459   17.0621   38.5125 C   0  0  2  0  0  0  0  0  0  0  0  0
   -6.9941   17.1695   38.7059 N   0  0  0  0  0  0  0  0  0  0  0  0
   -5.0704   18.3845   37.8499 C   0  0  0  0  0  0  0  0  0  0  0  0
   -3.5318   18.2999   37.6586 C   0  0  2  0  0  0  0  0  0  0  0  0
   -3.0353   19.5376   37.0370 N   0  0  0  0  0  0  0  0  0  0  0  0
   -3.1492   17.0909   36.7633 C   0  0  2  0  0  0  0  0  0  0  0  0
   -3.6769   15.7793   37.4259 C   0  0  2  0  0  0  0  0  0  0  0  0
   -3.3329   14.6643   36.5922 O   0  0  0  0  0  0  0  0  0  0  0  0
   -5.2167   15.8215   37.5797 C   0  0  1  0  0  0  0  0  0  0  0  0
   -5.6220   14.5805   38.2086 O   0  0  0  0  0  0  0  0  0  0  0  0
   -6.9306   14.0813   37.8452 C   0  0  2  0  0  0  0  0  0  0  0  0
   -7.2878   12.9759   38.9072 C   0  0  2  0  0  0  0  0  0  0  0  0
   -7.3218   13.5477   40.2053 O   0  0  0  0  0  0  0  0  0  0  0  0
   -6.2168   11.8230   38.8264 C   0  0  1  0  0  0  0  0  0  0  0  0
   -6.5114   10.7527   39.8275 N   0  0  0  0  0  0  0  0  0  0  0  0
   -5.8088   11.0710   41.0891 C   0  0  0  0  0  0  0  0  0  0  0  0
   -6.2332   11.2329   37.3835 C   0  0  2  0  0  0  0  0  0  0  0  0
   -7.5310   10.7012   37.1215 O   0  0  0  0  0  0  0  0  0  0  0  0
   -5.2124   10.1099   37.2185 C   0  0  0  0  0  0  0  0  0  0  0  0
   -5.9259   12.3731   36.3605 C   0  0  0  0  0  0  0  0  0  0  0  0
   -6.8951   13.4806   36.4966 O   0  0  0  0  0  0  0  0  0  0  0  0
  1  3  1  0  0  0  0
  1  2  1  1  0  0  0
  3  5  1  0  0  0  0
  3  4  1  1  0  0  0
  5  6  1  6  0  0  0
  7  8  1  1  0  0  0
  7  5  1  0  0  0  0
  9 10  1  6  0  0  0
  9  7  1  0  0  0  0
 10  1  1  0  0  0  0
 11 13  1  1  0  0  0
 11  9  1  0  0  0  0
 12 11  1  0  0  0  0
 14 15  1  6  0  0  0
 16 14  1  0  0  0  0
 17 18  1  6  0  0  0
 17 16  1  0  0  0  0
 19  2  1  1  0  0  0
 19 20  1  0  0  0  0
 19 17  1  0  0  0  0
 20 21  1  6  0  0  0
 20 22  1  0  0  0  0
 22 23  1  1  0  0  0
 22 14  1  0  0  0  0
 24 23  1  1  0  0  0
 24 25  1  0  0  0  0
 25 27  1  0  0  0  0
 25 26  1  1  0  0  0
 27 28  1  1  0  0  0
 28 29  1  0  0  0  0
 30 31  1  6  0  0  0
 30 32  1  0  0  0  0
 30 27  1  0  0  0  0
 33 30  1  0  0  0  0
 34 33  1  0  0  0  0
 34 24  1  0  0  0  0
M  END
>  <CHROM.1>
-148.93124973,-59.09029196,-156.89553730,94.99734127,-165.55340264,-90.43187965
-3.33433596,15.61919346,36.94405994,-0.74476541,-0.31458530,2.96646747

>  <Name>
lig.pdb

>  <RI>
0

>  <Rbt.Current_Directory>
/home/itssahil/PROJECTS/Mol_Feturizer/New_Systems/rnas/4k32

>  <Rbt.Executable>
rbdock ($Id: //depot/dev/client3/rdock/2013.1/src/exe/rbdock.cxx#4 $)

>  <Rbt.Library>
libRbt.so (2013.1, Build901 2013/11/27)

>  <Rbt.Parameter_File>
/export/apps/rDock/src/rDock_2013.1_src/data/scripts/dock_solv.prm

>  <Rbt.Receptor>
prm/pocket_docking_2.prm

>  <SCORE>
-19.0522

>  <SCORE.INTER>
-16.2733

>  <SCORE.INTER.CONST>
1

>  <SCORE.INTER.POLAR>
0

>  <SCORE.INTER.ROT>
6

>  <SCORE.INTER.SOLV>
23.302

>  <SCORE.INTER.VDW>
-26.2162

>  <SCORE.INTER.norm>
-0.478626

>  <SCORE.INTRA>
-3.19472

>  <SCORE.INTRA.DIHEDRAL>
-5.74332

>  <SCORE.INTRA.DIHEDRAL.0>
18.0069

>  <SCORE.INTRA.POLAR>
0

>  <SCORE.INTRA.POLAR.0>
0

>  <SCORE.INTRA.REPUL>
0

>  <SCORE.INTRA.REPUL.0>
0

>  <SCORE.INTRA.SOLV>
-0.237832

>  <SCORE.INTRA.SOLV.lig_0>
-70.7393

>  <SCORE.INTRA.VDW>
-0.204148

>  <SCORE.INTRA.VDW.0>
-3.23471

>  <SCORE.INTRA.norm>
-0.0939625

>  <SCORE.RESTR>
0.41579

>  <SCORE.RESTR.CAVITY>
0.41579

>  <SCORE.RESTR.norm>
0.0122291

>  <SCORE.SYSTEM>
0

>  <SCORE.SYSTEM.CONST>
0

>  <SCORE.SYSTEM.DIHEDRAL>
0

>  <SCORE.SYSTEM.SOLV>
0

>  <SCORE.SYSTEM.norm>
0

>  <SCORE.heavy>
34

>  <SCORE.norm>
-0.560359

>  <RMSD>
1.021

$$$$
lig.pdb
 OpenBabel11021811503D
libRbt.so/2013.1/901 2013/11/27
 34 36  0  0  0  0  0  0  0  0999 V2000
   -1.2898   16.4941   35.6333 C   0  0  2  0  0  0  0  0  0  0  0  0
   -1.8630   17.2171   36.7282 O   0  0  0  0  0  0  0  0  0  0  0  0
    0.0941   15.8760   36.1068 C   0  0  2  0  0  0  0  0  0  0  0  0
   -0.0798   14.9443   37.2456 N   0  0  0  0  0  0  0  0  0  0  0  0
    1.0603   17.0204   36.5039 C   0  0  1  0  0  0  0  0  0  0  0  0
    2.3156   16.4830   36.9269 O   0  0  0  0  0  0  0  0  0  0  0  0
    1.2314   17.9584   35.2958 C   0  0  2  0  0  0  0  0  0  0  0  0
    2.1238   19.0170   35.6472 O   0  0  0  0  0  0  0  0  0  0  0  0
   -0.1737   18.5275   34.8618 C   0  0  2  0  0  0  0  0  0  0  0  0
   -1.1005   17.4280   34.5184 O   0  0  0  0  0  0  0  0  0  0  0  0
   -0.0542   19.4665   33.6357 C   0  0  2  0  0  0  0  0  0  0  0  0
    0.8456   20.5364   33.9310 O   0  0  0  0  0  0  0  0  0  0  0  0
   -1.4049   20.0572   33.2622 C   0  0  0  0  0  0  0  0  0  0  0  0
   -5.6941   17.0279   38.6264 C   0  0  2  0  0  0  0  0  0  0  0  0
   -7.1427   17.0855   38.8377 N   0  0  0  0  0  0  0  0  0  0  0  0
   -5.2685   18.3768   37.9834 C   0  0  0  0  0  0  0  0  0  0  0  0
   -3.7304   18.3447   37.7736 C   0  0  2  0  0  0  0  0  0  0  0  0
   -3.2805   19.6089   37.1698 N   0  0  0  0  0  0  0  0  0  0  0  0
   -3.3200   17.1652   36.8517 C   0  0  2  0  0  0  0  0  0  0  0  0
   -3.7982   15.8255   37.4953 C   0  0  2  0  0  0  0  0  0  0  0  0
   -3.4287   14.7375   36.6372 O   0  0  0  0  0  0  0  0  0  0  0  0
   -5.3366   15.8158   37.6669 C   0  0  1  0  0  0  0  0  0  0  0  0
   -5.6951   14.5512   38.2768 O   0  0  0  0  0  0  0  0  0  0  0  0
   -6.9905   14.0163   37.9171 C   0  0  2  0  0  0  0  0  0  0  0  0
   -7.3207   12.9113   38.9882 C   0  0  2  0  0  0  0  0  0  0  0  0
   -7.3699   13.4931   40.2814 O   0  0  0  0  0  0  0  0  0  0  0  0
   -6.2211   11.7849   38.9178 C   0  0  1  0  0  0  0  0  0  0  0  0
   -6.4895   10.7162   39.9278 N   0  0  0  0  0  0  0  0  0  0  0  0
   -5.7851   11.0559   41.1828 C   0  0  0  0  0  0  0  0  0  0  0  0
   -6.2217   11.1824   37.4800 C   0  0  2  0  0  0  0  0  0  0  0  0
   -7.5056   10.6162   37.2219 O   0  0  0  0  0  0  0  0  0  0  0  0
   -5.1729   10.0840   37.3250 C   0  0  0  0  0  0  0  0  0  0  0  0
   -5.9423   12.3212   36.4474 C   0  0  0  0  0  0  0  0  0  0  0  0
   -6.9391   13.4052   36.5737 O   0  0  0  0  0  0  0  0  0  0  0  0
  1  3  1  0  0  0  0
  1  2  1  1  0  0  0
  3  5  1  0  0  0  0
  3  4  1  1  0  0  0
  5  6  1  6  0  0  0
  7  8  1  1  0  0  0
  7  5  1  0  0  0  0
  9 10  1  6  0  0  0
  9  7  1  0  0  0  0
 10  1  1  0  0  0  0
 11 13  1  1  0  0  0
 11  9  1  0  0  0  0
 12 11  1  0  0  0  0
 14 15  1  6  0  0  0
 16 14  1  0  0  0  0
 17 18  1  6  0  0  0
 17 16  1  0  0  0  0
 19  2  1  1  0  0  0
 19 20  1  0  0  0  0
 19 17  1  0  0  0  0
 20 21  1  6  0  0  0
 20 22  1  0  0  0  0
 22 23  1  1  0  0  0
 22 14  1  0  0  0  0
 24 23  1  1  0  0  0
 24 25  1  0  0  0  0
 25 27  1  0  0  0  0
 25 26  1  1  0  0  0
 27 28  1  1  0  0  0
 28 29  1  0  0  0  0
 30 31  1  6  0  0  0
 30 32  1  0  0  0  0
 30 27  1  0  0  0  0
 33 30  1  0  0  0  0
 34 33  1  0  0  0  0
 34 24  1  0  0  0  0
M  END
>  <CHROM.1>
-144.06886546,-57.30695602,-162.05595757,95.08516047,-163.85691006,-90.98511931
-3.42238351,15.61409968,37.04421086,-0.75539417,-0.31823591,2.96637253

>  <Name>
lig.pdb

>  <RI>
0

>  <Rbt.Current_Directory>
/home/itssahil/PROJECTS/Mol_Feturizer/New_Systems/rnas/4k32

>  <Rbt.Executable>
rbdock ($Id: //depot/dev/client3/rdock/2013.1/src/exe/rbdock.cxx#4 $)

>  <Rbt.Library>
libRbt.so (2013.1, Build901 2013/11/27)

>  <Rbt.Parameter_File>
/export/apps/rDock/src/rDock_2013.1_src/data/scripts/dock_solv.prm

>  <Rbt.Receptor>
prm/pocket_docking_4.prm

>  <SCORE>
-18.8402

>  <SCORE.INTER>
-15.8793

>  <SCORE.INTER.CONST>
1

>  <SCORE.INTER.POLAR>
0

>  <SCORE.INTER.ROT>
6

>  <SCORE.INTER.SOLV>
23.0282

>  <SCORE.INTER.VDW>
-25.8623

>  <SCORE.INTER.norm>
-0.467038

>  <SCORE.INTRA>
-2.98467

>  <SCORE.INTRA.DIHEDRAL>
-5.40876

>  <SCORE.INTRA.DIHEDRAL.0>
18.0069

>  <SCORE.INTRA.POLAR>
0

>  <SCORE.INTRA.POLAR.0>
0

>  <SCORE.INTRA.REPUL>
0

>  <SCORE.INTRA.REPUL.0>
0

>  <SCORE.INTRA.SOLV>
-0.353993

>  <SCORE.INTRA.SOLV.lig_0>
-70.7393

>  <SCORE.INTRA.VDW>
-0.103296

>  <SCORE.INTRA.VDW.0>
-3.23471

>  <SCORE.INTRA.norm>
-0.0877845

>  <SCORE.RESTR>
0.0237536

>  <SCORE.RESTR.CAVITY>
0.0237536

>  <SCORE.RESTR.norm>
0.000698635

>  <SCORE.SYSTEM>
0

>  <SCORE.SYSTEM.CONST>
0

>  <SCORE.SYSTEM.DIHEDRAL>
0

>  <SCORE.SYSTEM.SOLV>
0

>  <SCORE.SYSTEM.norm>
0

>  <SCORE.heavy>
34

>  <SCORE.norm>
-0.554124

>  <RMSD>
1.025

$$$$
lig.pdb
 OpenBabel11021811503D
libRbt.so/2013.1/901 2013/11/27
 34 36  0  0  0  0  0  0  0  0999 V2000
   -1.0184   16.3667   35.5706 C   0  0  2  0  0  0  0  0  0  0  0  0
   -1.6020   17.0210   36.7026 O   0  0  0  0  0  0  0  0  0  0  0  0
    0.4194   15.8336   35.9827 C   0  0  2  0  0  0  0  0  0  0  0  0
    0.3478   14.8640   37.1006 N   0  0  0  0  0  0  0  0  0  0  0  0
    1.3186   17.0314   36.3796 C   0  0  1  0  0  0  0  0  0  0  0  0
    2.6211   16.5713   36.7475 O   0  0  0  0  0  0  0  0  0  0  0  0
    1.3847   18.0089   35.1927 C   0  0  2  0  0  0  0  0  0  0  0  0
    2.2145   19.1173   35.5441 O   0  0  0  0  0  0  0  0  0  0  0  0
   -0.0696   18.4907   34.8195 C   0  0  2  0  0  0  0  0  0  0  0  0
   -0.9307   17.3390   34.4761 O   0  0  0  0  0  0  0  0  0  0  0  0
   -0.0556   19.4660   33.6163 C   0  0  2  0  0  0  0  0  0  0  0  0
    0.7715   20.5921   33.9153 O   0  0  0  0  0  0  0  0  0  0  0  0
   -1.4565   19.9639   33.2961 C   0  0  0  0  0  0  0  0  0  0  0  0
   -5.5053   17.0507   38.4576 C   0  0  2  0  0  0  0  0  0  0  0  0
   -6.9578   17.1661   38.6097 N   0  0  0  0  0  0  0  0  0  0  0  0
   -5.0096   18.3519   37.7684 C   0  0  0  0  0  0  0  0  0  0  0  0
   -3.4667   18.2591   37.6202 C   0  0  2  0  0  0  0  0  0  0  0  0
   -2.9511   19.4768   36.9750 N   0  0  0  0  0  0  0  0  0  0  0  0
   -3.0636   17.0232   36.7718 C   0  0  2  0  0  0  0  0  0  0  0  0
   -3.6116   15.7329   37.4593 C   0  0  2  0  0  0  0  0  0  0  0  0
   -3.2485   14.5928   36.6688 O   0  0  0  0  0  0  0  0  0  0  0  0
   -5.1547   15.7821   37.5714 C   0  0  1  0  0  0  0  0  0  0  0  0
   -5.5793   14.5612   38.2263 O   0  0  0  0  0  0  0  0  0  0  0  0
   -6.8992   14.0799   37.8801 C   0  0  2  0  0  0  0  0  0  0  0  0
   -7.2721   13.0046   38.9674 C   0  0  2  0  0  0  0  0  0  0  0  0
   -7.2882   13.6047   40.2530 O   0  0  0  0  0  0  0  0  0  0  0  0
   -6.2241   11.8297   38.9063 C   0  0  1  0  0  0  0  0  0  0  0  0
   -6.5340   10.7871   39.9316 N   0  0  0  0  0  0  0  0  0  0  0  0
   -5.7884   11.0974   41.1703 C   0  0  0  0  0  0  0  0  0  0  0  0
   -6.2595   11.2092   37.4765 C   0  0  2  0  0  0  0  0  0  0  0  0
   -7.5687   10.6974   37.2324 O   0  0  0  0  0  0  0  0  0  0  0  0
   -5.2615   10.0633   37.3307 C   0  0  0  0  0  0  0  0  0  0  0  0
   -5.9356   12.3210   36.4277 C   0  0  0  0  0  0  0  0  0  0  0  0
   -6.8825   13.4498   36.5447 O   0  0  0  0  0  0  0  0  0  0  0  0
  1  3  1  0  0  0  0
  1  2  1  1  0  0  0
  3  5  1  0  0  0  0
  3  4  1  1  0  0  0
  5  6  1  6  0  0  0
  7  8  1  1  0  0  0
  7  5  1  0  0  0  0
  9 10  1  6  0  0  0
  9  7  1  0  0  0  0
 10  1  1  0  0  0  0
 11 13  1  1  0  0  0
 11  9  1  0  0  0  0
 12 11  1  0  0  0  0
 14 15  1  6  0  0  0
 16 14  1  0  0  0  0
 17 18  1  6  0  0  0
 17 16  1  0  0  0  0
 19  2  1  1  0  0  0
 19 20  1  0  0  0  0
 19 17  1  0  0  0  0
 20 21  1  6  0  0  0
 20 22  1  0  0  0  0
 22 23  1  1  0  0  0
 22 14  1  0  0  0  0
 24 23  1  1  0  0  0
 24 25  1  0  0  0  0
 25 27  1  0  0  0  0
 25 26  1  1  0  0  0
 27 28  1  1  0  0  0
 28 29  1  0  0  0  0
 30 31  1  6  0  0  0
 30 32  1  0  0  0  0
 30 27  1  0  0  0  0
 33 30  1  0  0  0  0
 34 33  1  0  0  0  0
 34 24  1  0  0  0  0
M  END
>  <CHROM.1>
-152.23831685,-57.71109182,-154.48266463,92.82734715,-165.40445086,-92.03129743
-3.29426590,15.60466214,36.97846158,-0.75013803,-0.28581736,2.93358814

>  <Name>
lig.pdb

>  <RI>
0

>  <Rbt.Current_Directory>
/home/itssahil/PROJECTS/Mol_Feturizer/New_Systems/rnas/4k32

>  <Rbt.Executable>
rbdock ($Id: //depot/dev/client3/rdock/2013.1/src/exe/rbdock.cxx#4 $)

>  <Rbt.Library>
libRbt.so (2013.1, Build901 2013/11/27)

>  <Rbt.Parameter_File>
/export/apps/rDock/src/rDock_2013.1_src/data/scripts/dock_solv.prm

>  <Rbt.Receptor>
prm/pocket_docking_4.prm

>  <SCORE>
-19.4825

>  <SCORE.INTER>
-16.1307

>  <SCORE.INTER.CONST>
1

>  <SCORE.INTER.POLAR>
0

>  <SCORE.INTER.ROT>
6

>  <SCORE.INTER.SOLV>
23.3331

>  <SCORE.INTER.VDW>
-26.1315

>  <SCORE.INTER.norm>
-0.474432

>  <SCORE.INTRA>
-3.46631

>  <SCORE.INTRA.DIHEDRAL>
-6.23824

>  <SCORE.INTRA.DIHEDRAL.0>
18.0069

>  <SCORE.INTRA.POLAR>
0

>  <SCORE.INTRA.POLAR.0>
0

>  <SCORE.INTRA.REPUL>
0

>  <SCORE.INTRA.REPUL.0>
0

>  <SCORE.INTRA.SOLV>
-0.0614175

>  <SCORE.INTRA.SOLV.lig_0>
-70.7393

>  <SCORE.INTRA.VDW>
-0.316477

>  <SCORE.INTRA.VDW.0>
-3.23471

>  <SCORE.INTRA.norm>
-0.10195

>  <SCORE.RESTR>
0.114486

>  <SCORE.RESTR.CAVITY>
0.114486

>  <SCORE.RESTR.norm>
0.00336725

>  <SCORE.SYSTEM>
0

>  <SCORE.SYSTEM.CONST>
0

>  <SCORE.SYSTEM.DIHEDRAL>
0

>  <SCORE.SYSTEM.SOLV>
0

>  <SCORE.SYSTEM.norm>
0

>  <SCORE.heavy>
34

>  <SCORE.norm>
-0.573015

>  <RMSD>
1.042

$$$$
lig.pdb
 OpenBabel11021811503D
libRbt.so/2013.1/901 2013/11/27
 34 36  0  0  0  0  0  0  0  0999 V2000
   -0.9856   16.3938   35.5640 C   0  0  2  0  0  0  0  0  0  0  0  0
   -1.5639   17.0464   36.6998 O   0  0  0  0  0  0  0  0  0  0  0  0
    0.4420   15.8347   35.9768 C   0  0  2  0  0  0  0  0  0  0  0  0
    0.3508   14.8558   37.0851 N   0  0  0  0  0  0  0  0  0  0  0  0
    1.3579   17.0146   36.3887 C   0  0  1  0  0  0  0  0  0  0  0  0
    2.6516   16.5310   36.7575 O   0  0  0  0  0  0  0  0  0  0  0  0
    1.4440   18.0021   35.2114 C   0  0  2  0  0  0  0  0  0  0  0  0
    2.2893   19.0942   35.5766 O   0  0  0  0  0  0  0  0  0  0  0  0
   -0.0011   18.5098   34.8369 C   0  0  2  0  0  0  0  0  0  0  0  0
   -0.8784   17.3748   34.4792 O   0  0  0  0  0  0  0  0  0  0  0  0
    0.0329   19.4961   33.6431 C   0  0  2  0  0  0  0  0  0  0  0  0
    0.8824   20.6024   33.9530 O   0  0  0  0  0  0  0  0  0  0  0  0
   -1.3575   20.0251   33.3274 C   0  0  0  0  0  0  0  0  0  0  0  0
   -5.4549   17.0184   38.4819 C   0  0  2  0  0  0  0  0  0  0  0  0
   -6.9065   17.1261   38.6471 N   0  0  0  0  0  0  0  0  0  0  0  0
   -4.9668   18.3392   37.8254 C   0  0  0  0  0  0  0  0  0  0  0  0
   -3.4248   18.2542   37.6640 C   0  0  2  0  0  0  0  0  0  0  0  0
   -2.9164   19.4904   37.0491 N   0  0  0  0  0  0  0  0  0  0  0  0
   -3.0249   17.0431   36.7791 C   0  0  2  0  0  0  0  0  0  0  0  0
   -3.5653   15.7330   37.4345 C   0  0  2  0  0  0  0  0  0  0  0  0
   -3.2052   14.6160   36.6104 O   0  0  0  0  0  0  0  0  0  0  0  0
   -5.1077   15.7755   37.5586 C   0  0  1  0  0  0  0  0  0  0  0  0
   -5.5251   14.5360   38.1825 O   0  0  0  0  0  0  0  0  0  0  0  0
   -6.8607   14.0810   37.8619 C   0  0  2  0  0  0  0  0  0  0  0  0
   -7.2333   13.0121   38.9555 C   0  0  2  0  0  0  0  0  0  0  0  0
   -7.2125   13.6110   40.2416 O   0  0  0  0  0  0  0  0  0  0  0  0
   -6.2098   11.8169   38.8731 C   0  0  1  0  0  0  0  0  0  0  0  0
   -6.5200   10.7795   39.9035 N   0  0  0  0  0  0  0  0  0  0  0  0
   -5.8220   11.1287   41.1595 C   0  0  0  0  0  0  0  0  0  0  0  0
   -6.2854   11.1988   37.4438 C   0  0  2  0  0  0  0  0  0  0  0  0
   -7.6089   10.7129   37.2250 O   0  0  0  0  0  0  0  0  0  0  0  0
   -5.3130   10.0337   37.2778 C   0  0  0  0  0  0  0  0  0  0  0  0
   -5.9602   12.3051   36.3896 C   0  0  0  0  0  0  0  0  0  0  0  0
   -6.8824   13.4522   36.5259 O   0  0  0  0  0  0  0  0  0  0  0  0
  1  3  1  0  0  0  0
  1  2  1  1  0  0  0
  3  5  1  0  0  0  0
  3  4  1  1  0  0  0
  5  6  1  6  0  0  0
  7  8  1  1  0  0  0
  7  5  1  0  0  0  0
  9 10  1  6  0  0  0
  9  7  1  0  0  0  0
 10  1  1  0  0  0  0
 11 13  1  1  0  0  0
 11  9  1  0  0  0  0
 12 11  1  0  0  0  0
 14 15  1  6  0  0  0
 16 14  1  0  0  0  0
 17 18  1  6  0  0  0
 17 16  1  0  0  0  0
 19  2  1  1  0  0  0
 19 20  1  0  0  0  0
 19 17  1  0  0  0  0
 20 21  1  6  0  0  0
 20 22  1  0  0  0  0
 22 23  1  1  0  0  0
 22 14  1  0  0  0  0
 24 23  1  1  0  0  0
 24 25  1  0  0  0  0
 25 27  1  0  0  0  0
 25 26  1  1  0  0  0
 27 28  1  1  0  0  0
 28 29  1  0  0  0  0
 30 31  1  6  0  0  0
 30 32  1  0  0  0  0
 30 27  1  0  0  0  0
 33 30  1  0  0  0  0
 34 33  1  0  0  0  0
 34 24  1  0  0  0  0
M  END
>  <CHROM.1>
-150.85383214,-57.36412290,-156.08406546,91.13702389,-163.20304334,-87.92583912
-3.25951654,15.60600404,36.97811125,-0.74290805,-0.29238223,2.95048715

>  <Name>
lig.pdb

>  <RI>
0

>  <Rbt.Current_Directory>
/home/itssahil/PROJECTS/Mol_Feturizer/New_Systems/rnas/4k32

>  <Rbt.Executable>
rbdock ($Id: //depot/dev/client3/rdock/2013.1/src/exe/rbdock.cxx#4 $)

>  <Rbt.Library>
libRbt.so (2013.1, Build901 2013/11/27)

>  <Rbt.Parameter_File>
/export/apps/rDock/src/rDock_2013.1_src/data/scripts/dock_solv.prm

>  <Rbt.Receptor>
prm/pocket_docking_5.prm

>  <SCORE>
-19.5982

>  <SCORE.INTER>
-16.3504

>  <SCORE.INTER.CONST>
1

>  <SCORE.INTER.POLAR>
0

>  <SCORE.INTER.ROT>
6

>  <SCORE.INTER.SOLV>
23.4244

>  <SCORE.INTER.VDW>
-26.3084

>  <SCORE.INTER.norm>
-0.480893

>  <SCORE.INTRA>
-3.24782

>  <SCORE.INTRA.DIHEDRAL>
-6.39946

>  <SCORE.INTRA.DIHEDRAL.0>
18.0069

>  <SCORE.INTRA.POLAR>
0

>  <SCORE.INTRA.POLAR.0>
0

>  <SCORE.INTRA.REPUL>
0

>  <SCORE.INTRA.REPUL.0>
0

>  <SCORE.INTRA.SOLV>
-0.0543028

>  <SCORE.INTRA.SOLV.lig_0>
-70.7393

>  <SCORE.INTRA.VDW>
-0.0209318

>  <SCORE.INTRA.VDW.0>
-3.23471

>  <SCORE.INTRA.norm>
-0.095524

>  <SCORE.RESTR>
0

>  <SCORE.RESTR.CAVITY>
0

>  <SCORE.RESTR.norm>
0

>  <SCORE.SYSTEM>
0

>  <SCORE.SYSTEM.CONST>
0

>  <SCORE.SYSTEM.DIHEDRAL>
0

>  <SCORE.SYSTEM.SOLV>
0

>  <SCORE.SYSTEM.norm>
0

>  <SCORE.heavy>
34

>  <SCORE.norm>
-0.576417

>  <RMSD>
1.053

$$$$
lig.pdb
 OpenBabel11021811503D
libRbt.so/2013.1/901 2013/11/27
 34 36  0  0  0  0  0  0  0  0999 V2000
   -1.1200   16.4193   35.5369 C   0  0  2  0  0  0  0  0  0  0  0  0
   -1.6915   17.0965   36.6617 O   0  0  0  0  0  0  0  0  0  0  0  0
    0.2804   15.8112   35.9731 C   0  0  2  0  0  0  0  0  0  0  0  0
    0.1376   14.8404   37.0831 N   0  0  0  0  0  0  0  0  0  0  0  0
    1.2316   16.9593   36.3950 C   0  0  1  0  0  0  0  0  0  0  0  0
    2.5015   16.4311   36.7849 O   0  0  0  0  0  0  0  0  0  0  0  0
    1.3707   17.9386   35.2158 C   0  0  2  0  0  0  0  0  0  0  0  0
    2.2489   19.0011   35.5902 O   0  0  0  0  0  0  0  0  0  0  0  0
   -0.0496   18.4961   34.8178 C   0  0  2  0  0  0  0  0  0  0  0  0
   -0.9615   17.3918   34.4506 O   0  0  0  0  0  0  0  0  0  0  0  0
    0.0375   19.4760   33.6214 C   0  0  2  0  0  0  0  0  0  0  0  0
    0.8980   20.5679   33.9515 O   0  0  0  0  0  0  0  0  0  0  0  0
   -1.3330   20.0291   33.2630 C   0  0  0  0  0  0  0  0  0  0  0  0
   -5.5648   17.0719   38.4821 C   0  0  2  0  0  0  0  0  0  0  0  0
   -7.0154   17.1736   38.6599 N   0  0  0  0  0  0  0  0  0  0  0  0
   -5.0909   18.3859   37.8018 C   0  0  0  0  0  0  0  0  0  0  0  0
   -3.5500   18.3074   37.6265 C   0  0  2  0  0  0  0  0  0  0  0  0
   -3.0549   19.5375   36.9889 N   0  0  0  0  0  0  0  0  0  0  0  0
   -3.1517   17.0859   36.7554 C   0  0  2  0  0  0  0  0  0  0  0  0
   -3.6779   15.7824   37.4348 C   0  0  2  0  0  0  0  0  0  0  0  0
   -3.3193   14.6557   36.6234 O   0  0  0  0  0  0  0  0  0  0  0  0
   -5.2193   15.8178   37.5734 C   0  0  1  0  0  0  0  0  0  0  0  0
   -5.6232   14.5851   38.2192 O   0  0  0  0  0  0  0  0  0  0  0  0
   -6.9429   14.0949   37.8847 C   0  0  2  0  0  0  0  0  0  0  0  0
   -7.2814   12.9871   38.9504 C   0  0  2  0  0  0  0  0  0  0  0  0
   -7.2816   13.5538   40.2512 O   0  0  0  0  0  0  0  0  0  0  0  0
   -6.2193   11.8285   38.8398 C   0  0  1  0  0  0  0  0  0  0  0  0
   -6.4965   10.7558   39.8432 N   0  0  0  0  0  0  0  0  0  0  0  0
   -5.7984   11.0878   41.1038 C   0  0  0  0  0  0  0  0  0  0  0  0
   -6.2731   11.2445   37.3953 C   0  0  2  0  0  0  0  0  0  0  0  0
   -7.5798   10.7213   37.1619 O   0  0  0  0  0  0  0  0  0  0  0  0
   -5.2630   10.1164   37.2018 C   0  0  0  0  0  0  0  0  0  0  0  0
   -5.9833   12.3871   36.3699 C   0  0  0  0  0  0  0  0  0  0  0  0
   -6.9427   13.4996   36.5333 O   0  0  0  0  0  0  0  0  0  0  0  0
  1  3  1  0  0  0  0
  1  2  1  1  0  0  0
  3  5  1  0  0  0  0
  3  4  1  1  0  0  0
  5  6  1  6  0  0  0
  7  8  1  1  0  0  0
  7  5  1  0  0  0  0
  9 10  1  6  0  0  0
  9  7  1  0  0  0  0
 10  1  1  0  0  0  0
 11 13  1  1  0  0  0
 11  9  1  0  0  0  0
 12 11  1  0  0  0  0
 14 15  1  6  0  0  0
 16 14  1  0  0  0  0
 17 18  1  6  0  0  0
 17 16  1  0  0  0  0
 19  2  1  1  0  0  0
 19 20  1  0  0  0  0
 19 17  1  0  0  0  0
 20 21  1  6  0  0  0
 20 22  1  0  0  0  0
 22 23  1  1  0  0  0
 22 14  1  0  0  0  0
 24 23  1  1  0  0  0
 24 25  1  0  0  0  0
 25 27  1  0  0  0  0
 25 26  1  1  0  0  0
 27 28  1  1  0  0  0
 28 29  1  0  0  0  0
 30 31  1  6  0  0  0
 30 32  1  0  0  0  0
 30 27  1  0  0  0  0
 33 30  1  0  0  0  0
 34 33  1  0  0  0  0
 34 24  1  0  0  0  0
M  END
>  <CHROM.1>
-147.79222233,-58.64151111,-156.69066987,93.06688408,-166.27565234,-88.59028515
-3.33028005,15.61394772,36.96229873,-0.74282748,-0.29959806,2.95340805

>  <Name>
lig.pdb

>  <RI>
0

>  <Rbt.Current_Directory>
/home/itssahil/PROJECTS/Mol_Feturizer/New_Systems/rnas/4k32

>  <Rbt.Executable>
rbdock ($Id: //depot/dev/client3/rdock/2013.1/src/exe/rbdock.cxx#4 $)

>  <Rbt.Library>
libRbt.so (2013.1, Build901 2013/11/27)

>  <Rbt.Parameter_File>
/export/apps/rDock/src/rDock_2013.1_src/data/scripts/dock_solv.prm

>  <Rbt.Receptor>
prm/pocket_docking_2.prm

>  <SCORE>
-19.0019

>  <SCORE.INTER>
-16.277

>  <SCORE.INTER.CONST>
1

>  <SCORE.INTER.POLAR>
0

>  <SCORE.INTER.ROT>
6

>  <SCORE.INTER.SOLV>
23.3165

>  <SCORE.INTER.VDW>
-26.2235

>  <SCORE.INTER.norm>
-0.478736

>  <SCORE.INTRA>
-3.14628

>  <SCORE.INTRA.DIHEDRAL>
-5.98895

>  <SCORE.INTRA.DIHEDRAL.0>
18.0069

>  <SCORE.INTRA.POLAR>
0

>  <SCORE.INTRA.POLAR.0>
0

>  <SCORE.INTRA.REPUL>
0

>  <SCORE.INTRA.REPUL.0>
0

>  <SCORE.INTRA.SOLV>
-0.1694

>  <SCORE.INTRA.SOLV.lig_0>
-70.7393

>  <SCORE.INTRA.VDW>
-0.0671066

>  <SCORE.INTRA.VDW.0>
-3.23471

>  <SCORE.INTRA.norm>
-0.0925376

>  <SCORE.RESTR>
0.421372

>  <SCORE.RESTR.CAVITY>
0.421372

>  <SCORE.RESTR.norm>
0.0123933

>  <SCORE.SYSTEM>
0

>  <SCORE.SYSTEM.CONST>
0

>  <SCORE.SYSTEM.DIHEDRAL>
0

>  <SCORE.SYSTEM.SOLV>
0

>  <SCORE.SYSTEM.norm>
0

>  <SCORE.heavy>
34

>  <SCORE.norm>
-0.55888

>  <RMSD>
1.061

$$$$
lig.pdb
 OpenBabel11021811503D
libRbt.so/2013.1/901 2013/11/27
 34 36  0  0  0  0  0  0  0  0999 V2000
   -0.9878   16.2597   35.6812 C   0  0  2  0  0  0  0  0  0  0  0  0
   -1.5758   16.9181   36.8085 O   0  0  0  0  0  0  0  0  0  0  0  0
    0.4631   15.7603   36.0895 C   0  0  2  0  0  0  0  0  0  0  0  0
    0.4185   14.8049   37.2210 N   0  0  0  0  0  0  0  0  0  0  0  0
    1.3416   16.9806   36.4632 C   0  0  1  0  0  0  0  0  0  0  0  0
    2.6555   16.5509   36.8274 O   0  0  0  0  0  0  0  0  0  0  0  0
    1.3799   17.9428   35.2625 C   0  0  2  0  0  0  0  0  0  0  0  0
    2.1905   19.0717   35.5925 O   0  0  0  0  0  0  0  0  0  0  0  0
   -0.0862   18.3911   34.8939 C   0  0  2  0  0  0  0  0  0  0  0  0
   -0.9273   17.2183   34.5728 O   0  0  0  0  0  0  0  0  0  0  0  0
   -0.1001   19.3498   33.6774 C   0  0  2  0  0  0  0  0  0  0  0  0
    0.7670   20.4582   33.9245 O   0  0  0  0  0  0  0  0  0  0  0  0
   -1.5007   19.8791   33.4108 C   0  0  0  0  0  0  0  0  0  0  0  0
   -5.4970   17.0177   38.5206 C   0  0  2  0  0  0  0  0  0  0  0  0
   -6.9496   17.1518   38.6553 N   0  0  0  0  0  0  0  0  0  0  0  0
   -4.9790   18.3029   37.8179 C   0  0  0  0  0  0  0  0  0  0  0  0
   -3.4358   18.1905   37.6877 C   0  0  2  0  0  0  0  0  0  0  0  0
   -2.8994   19.3927   37.0304 N   0  0  0  0  0  0  0  0  0  0  0  0
   -3.0379   16.9378   36.8619 C   0  0  2  0  0  0  0  0  0  0  0  0
   -3.6080   15.6640   37.5621 C   0  0  2  0  0  0  0  0  0  0  0  0
   -3.2496   14.5084   36.7923 O   0  0  0  0  0  0  0  0  0  0  0  0
   -5.1516   15.7324   37.6568 C   0  0  1  0  0  0  0  0  0  0  0  0
   -5.5971   14.5261   38.3248 O   0  0  0  0  0  0  0  0  0  0  0  0
   -6.9098   14.0425   37.9553 C   0  0  2  0  0  0  0  0  0  0  0  0
   -7.2826   12.9373   39.0121 C   0  0  2  0  0  0  0  0  0  0  0  0
   -7.3148   13.5049   40.3122 O   0  0  0  0  0  0  0  0  0  0  0  0
   -6.2239   11.7731   38.9309 C   0  0  1  0  0  0  0  0  0  0  0  0
   -6.5335   10.7026   39.9271 N   0  0  0  0  0  0  0  0  0  0  0  0
   -5.8708   11.0337   41.2069 C   0  0  0  0  0  0  0  0  0  0  0  0
   -6.2419   11.1883   37.4858 C   0  0  2  0  0  0  0  0  0  0  0  0
   -7.5445   10.6717   37.2176 O   0  0  0  0  0  0  0  0  0  0  0  0
   -5.2328   10.0548   37.3202 C   0  0  0  0  0  0  0  0  0  0  0  0
   -5.9187   12.3287   36.4679 C   0  0  0  0  0  0  0  0  0  0  0  0
   -6.8763   13.4462   36.6048 O   0  0  0  0  0  0  0  0  0  0  0  0
  1  3  1  0  0  0  0
  1  2  1  1  0  0  0
  3  5  1  0  0  0  0
  3  4  1  1  0  0  0
  5  6  1  6  0  0  0
  7  8  1  1  0  0  0
  7  5  1  0  0  0  0
  9 10  1  6  0  0  0
  9  7  1  0  0  0  0
 10  1  1  0  0  0  0
 11 13  1  1  0  0  0
 11  9  1  0  0  0  0
 12 11  1  0  0  0  0
 14 15  1  6  0  0  0
 16 14  1  0  0  0  0
 17 18  1  6  0  0  0
 17 16  1  0  0  0  0
 19  2  1  1  0  0  0
 19 20  1  0  0  0  0
 19 17  1  0  0  0  0
 20 21  1  6  0  0  0
 20 22  1  0  0  0  0
 22 23  1  1  0  0  0
 22 14  1  0  0  0  0
 24 23  1  1  0  0  0
 24 25  1  0  0  0  0
 25 27  1  0  0  0  0
 25 26  1  1  0  0  0
 27 28  1  1  0  0  0
 28 29  1  0  0  0  0
 30 31  1  6  0  0  0
 30 32  1  0  0  0  0
 30 27  1  0  0  0  0
 33 30  1  0  0  0  0
 34 33  1  0  0  0  0
 34 24  1  0  0  0  0
M  END
>  <CHROM.1>
-154.53098267,-54.43160715,-153.49007511,93.80251341,-168.22175769,-88.44575551
-3.28880063,15.54241590,37.04255439,-0.74494551,-0.28222922,2.93474921

>  <Name>
lig.pdb

>  <RI>
0

>  <Rbt.Current_Directory>
/home/itssahil/PROJECTS/Mol_Feturizer/New_Systems/rnas/4k32

>  <Rbt.Executable>
rbdock ($Id: //depot/dev/client3/rdock/2013.1/src/exe/rbdock.cxx#4 $)

>  <Rbt.Library>
libRbt.so (2013.1, Build901 2013/11/27)

>  <Rbt.Parameter_File>
/export/apps/rDock/src/rDock_2013.1_src/data/scripts/dock_solv.prm

>  <Rbt.Receptor>
prm/pocket_docking_4.prm

>  <SCORE>
-19.4588

>  <SCORE.INTER>
-15.9664

>  <SCORE.INTER.CONST>
1

>  <SCORE.INTER.POLAR>
0

>  <SCORE.INTER.ROT>
6

>  <SCORE.INTER.SOLV>
23.0801

>  <SCORE.INTER.VDW>
-25.9376

>  <SCORE.INTER.norm>
-0.4696

>  <SCORE.INTRA>
-3.58293

>  <SCORE.INTRA.DIHEDRAL>
-6.65293

>  <SCORE.INTRA.DIHEDRAL.0>
18.0069

>  <SCORE.INTRA.POLAR>
0

>  <SCORE.INTRA.POLAR.0>
0

>  <SCORE.INTRA.REPUL>
0

>  <SCORE.INTRA.REPUL.0>
0

>  <SCORE.INTRA.SOLV>
-0.0639165

>  <SCORE.INTRA.SOLV.lig_0>
-70.7393

>  <SCORE.INTRA.VDW>
-0.224503

>  <SCORE.INTRA.VDW.0>
-3.23471

>  <SCORE.INTRA.norm>
-0.10538

>  <SCORE.RESTR>
0.0904875

>  <SCORE.RESTR.CAVITY>
0.0904875

>  <SCORE.RESTR.norm>
0.0026614

>  <SCORE.SYSTEM>
0

>  <SCORE.SYSTEM.CONST>
0

>  <SCORE.SYSTEM.DIHEDRAL>
0

>  <SCORE.SYSTEM.SOLV>
0

>  <SCORE.SYSTEM.norm>
0

>  <SCORE.heavy>
34

>  <SCORE.norm>
-0.572318

>  <RMSD>
1.091

$$$$
lig.pdb
 OpenBabel11021811503D
libRbt.so/2013.1/901 2013/11/27
 34 36  0  0  0  0  0  0  0  0999 V2000
   -0.9798   16.2403   35.7082 C   0  0  2  0  0  0  0  0  0  0  0  0
   -1.5650   16.8912   36.8414 O   0  0  0  0  0  0  0  0  0  0  0  0
    0.4736   15.7415   36.1084 C   0  0  2  0  0  0  0  0  0  0  0  0
    0.4351   14.7798   37.2347 N   0  0  0  0  0  0  0  0  0  0  0  0
    1.3511   16.9615   36.4857 C   0  0  1  0  0  0  0  0  0  0  0  0
    2.6671   16.5324   36.8427 O   0  0  0  0  0  0  0  0  0  0  0  0
    1.3831   17.9305   35.2904 C   0  0  2  0  0  0  0  0  0  0  0  0
    2.1926   19.0592   35.6237 O   0  0  0  0  0  0  0  0  0  0  0  0
   -0.0853   18.3779   34.9296 C   0  0  2  0  0  0  0  0  0  0  0  0
   -0.9252   17.2052   34.6051 O   0  0  0  0  0  0  0  0  0  0  0  0
   -0.1056   19.3434   33.7186 C   0  0  2  0  0  0  0  0  0  0  0  0
    0.7881   20.4333   33.9533 O   0  0  0  0  0  0  0  0  0  0  0  0
   -1.5007   19.9013   33.4838 C   0  0  0  0  0  0  0  0  0  0  0  0
   -5.4896   17.0460   38.5413 C   0  0  2  0  0  0  0  0  0  0  0  0
   -6.9413   17.1947   38.6704 N   0  0  0  0  0  0  0  0  0  0  0  0
   -4.9582   18.3182   37.8250 C   0  0  0  0  0  0  0  0  0  0  0  0
   -3.4158   18.1904   37.7004 C   0  0  2  0  0  0  0  0  0  0  0  0
   -2.8669   19.3799   37.0306 N   0  0  0  0  0  0  0  0  0  0  0  0
   -3.0269   16.9246   36.8905 C   0  0  2  0  0  0  0  0  0  0  0  0
   -3.6103   15.6643   37.6041 C   0  0  2  0  0  0  0  0  0  0  0  0
   -3.2602   14.4965   36.8488 O   0  0  0  0  0  0  0  0  0  0  0  0
   -5.1534   15.7476   37.6936 C   0  0  1  0  0  0  0  0  0  0  0  0
   -5.6116   14.5533   38.3745 O   0  0  0  0  0  0  0  0  0  0  0  0
   -6.9294   14.0796   38.0103 C   0  0  2  0  0  0  0  0  0  0  0  0
   -7.2944   12.9572   39.0516 C   0  0  2  0  0  0  0  0  0  0  0  0
   -7.3115   13.5022   40.3615 O   0  0  0  0  0  0  0  0  0  0  0  0
   -6.2399   11.7918   38.9391 C   0  0  1  0  0  0  0  0  0  0  0  0
   -6.5423   10.7049   39.9197 N   0  0  0  0  0  0  0  0  0  0  0  0
   -5.8831   11.0228   41.2047 C   0  0  0  0  0  0  0  0  0  0  0  0
   -6.2745   11.2323   37.4843 C   0  0  2  0  0  0  0  0  0  0  0  0
   -7.5813   10.7239   37.2208 O   0  0  0  0  0  0  0  0  0  0  0  0
   -5.2704   10.0992   37.2886 C   0  0  0  0  0  0  0  0  0  0  0  0
   -5.9586   12.3893   36.4831 C   0  0  0  0  0  0  0  0  0  0  0  0
   -6.9116   13.5069   36.6493 O   0  0  0  0  0  0  0  0  0  0  0  0
  1  3  1  0  0  0  0
  1  2  1  1  0  0  0
  3  5  1  0  0  0  0
  3  4  1  1  0  0  0
  5  6  1  6  0  0  0
  7  8  1  1  0  0  0
  7  5  1  0  0  0  0
  9 10  1  6  0  0  0
  9  7  1  0  0  0  0
 10  1  1  0  0  0  0
 11 13  1  1  0  0  0
 11  9  1  0  0  0  0
 12 11  1  0  0  0  0
 14 15  1  6  0  0  0
 16 14  1  0  0  0  0
 17 18  1  6  0  0  0
 17 16  1  0  0  0  0
 19  2  1  1  0  0  0
 19 20  1  0  0  0  0
 19 17  1  0  0  0  0
 20 21  1  6  0  0  0
 20 22  1  0  0  0  0
 22 23  1  1  0  0  0
 22 14  1  0  0  0  0
 24 23  1  1  0  0  0
 24 25  1  0  0  0  0
 25 27  1  0  0  0  0
 25 26  1  1  0  0  0
 27 28  1  1  0  0  0
 28 29  1  0  0  0  0
 30 31  1  6  0  0  0
 30 32  1  0  0  0  0
 30 27  1  0  0  0  0
 33 30  1  0  0  0  0
 34 33  1  0  0  0  0
 34 24  1  0  0  0  0
M  END
>  <CHROM.1>
-155.38587496,-52.85611860,-152.14377846,93.60400358,-169.99078558,-87.55134966
-3.29147212,15.54909332,37.06760711,-0.73956799,-0.28019466,2.93480191

>  <Name>
lig.pdb

>  <RI>
0

>  <Rbt.Current_Directory>
/home/itssahil/PROJECTS/Mol_Feturizer/New_Systems/rnas/4k32

>  <Rbt.Executable>
rbdock ($Id: //depot/dev/client3/rdock/2013.1/src/exe/rbdock.cxx#4 $)

>  <Rbt.Library>
libRbt.so (2013.1, Build901 2013/11/27)

>  <Rbt.Parameter_File>
/export/apps/rDock/src/rDock_2013.1_src/data/scripts/dock_solv.prm

>  <Rbt.Receptor>
prm/pocket_docking_4.prm

>  <SCORE>
-19.3897

>  <SCORE.INTER>
-15.9218

>  <SCORE.INTER.CONST>
1

>  <SCORE.INTER.POLAR>
0

>  <SCORE.INTER.ROT>
6

>  <SCORE.INTER.SOLV>
22.9736

>  <SCORE.INTER.VDW>
-25.8724

>  <SCORE.INTER.norm>
-0.468289

>  <SCORE.INTRA>
-3.56051

>  <SCORE.INTRA.DIHEDRAL>
-6.72715

>  <SCORE.INTRA.DIHEDRAL.0>
18.0069

>  <SCORE.INTRA.POLAR>
0

>  <SCORE.INTRA.POLAR.0>
0

>  <SCORE.INTRA.REPUL>
0

>  <SCORE.INTRA.REPUL.0>
0

>  <SCORE.INTRA.SOLV>
0.00777505

>  <SCORE.INTRA.SOLV.lig_0>
-70.7393

>  <SCORE.INTRA.VDW>
-0.20082

>  <SCORE.INTRA.VDW.0>
-3.23471

>  <SCORE.INTRA.norm>
-0.104721

>  <SCORE.RESTR>
0.0925912

>  <SCORE.RESTR.CAVITY>
0.0925912

>  <SCORE.RESTR.norm>
0.00272327

>  <SCORE.SYSTEM>
0

>  <SCORE.SYSTEM.CONST>
0

>  <SCORE.SYSTEM.DIHEDRAL>
0

>  <SCORE.SYSTEM.SOLV>
0

>  <SCORE.SYSTEM.norm>
0

>  <SCORE.heavy>
34

>  <SCORE.norm>
-0.570286

>  <RMSD>
1.120

$$$$
lig.pdb
 OpenBabel11021811503D
libRbt.so/2013.1/901 2013/11/27
 34 36  0  0  0  0  0  0  0  0999 V2000
   -1.3570   16.6900   35.2992 C   0  0  2  0  0  0  0  0  0  0  0  0
   -1.8521   17.0459   36.5947 O   0  0  0  0  0  0  0  0  0  0  0  0
    0.1932   16.3693   35.4227 C   0  0  2  0  0  0  0  0  0  0  0  0
    0.4504   15.2426   36.3498 N   0  0  0  0  0  0  0  0  0  0  0  0
    0.9439   17.6347   35.9086 C   0  0  1  0  0  0  0  0  0  0  0  0
    2.3437   17.3671   36.0193 O   0  0  0  0  0  0  0  0  0  0  0  0
    0.6693   18.7786   34.9162 C   0  0  2  0  0  0  0  0  0  0  0  0
    1.3592   19.9515   35.3506 O   0  0  0  0  0  0  0  0  0  0  0  0
   -0.8829   19.0404   34.8236 C   0  0  2  0  0  0  0  0  0  0  0  0
   -1.5954   17.8185   34.3933 O   0  0  0  0  0  0  0  0  0  0  0  0
   -1.2106   20.1753   33.8216 C   0  0  2  0  0  0  0  0  0  0  0  0
   -2.5824   20.5537   33.9503 O   0  0  0  0  0  0  0  0  0  0  0  0
   -0.9616   19.7320   32.3884 C   0  0  0  0  0  0  0  0  0  0  0  0
   -5.5206   16.3079   38.6717 C   0  0  2  0  0  0  0  0  0  0  0  0
   -6.9501   16.2545   38.9876 N   0  0  0  0  0  0  0  0  0  0  0  0
   -5.1893   17.7751   38.2827 C   0  0  0  0  0  0  0  0  0  0  0  0
   -3.6712   17.8574   37.9673 C   0  0  2  0  0  0  0  0  0  0  0  0
   -3.3100   19.2351   37.5981 N   0  0  0  0  0  0  0  0  0  0  0  0
   -3.2931   16.9021   36.8035 C   0  0  2  0  0  0  0  0  0  0  0  0
   -3.6771   15.4412   37.1986 C   0  0  2  0  0  0  0  0  0  0  0  0
   -3.3380   14.5613   36.1182 O   0  0  0  0  0  0  0  0  0  0  0  0
   -5.1970   15.3256   37.4683 C   0  0  1  0  0  0  0  0  0  0  0  0
   -5.4667   13.9504   37.8372 O   0  0  0  0  0  0  0  0  0  0  0  0
   -6.7411   13.4154   37.4090 C   0  0  2  0  0  0  0  0  0  0  0  0
   -6.7804   11.9239   37.9103 C   0  0  2  0  0  0  0  0  0  0  0  0
   -6.6817   11.8883   39.3253 O   0  0  0  0  0  0  0  0  0  0  0  0
   -5.5963   11.1276   37.2419 C   0  0  1  0  0  0  0  0  0  0  0  0
   -5.5885    9.7043   37.6984 N   0  0  0  0  0  0  0  0  0  0  0  0
   -4.1870    9.2505   37.8263 C   0  0  0  0  0  0  0  0  0  0  0  0
   -5.7650   11.1978   35.6936 C   0  0  2  0  0  0  0  0  0  0  0  0
   -7.0086   10.5938   35.3412 O   0  0  0  0  0  0  0  0  0  0  0  0
   -4.6473   10.4540   34.9671 C   0  0  0  0  0  0  0  0  0  0  0  0
   -5.7729   12.6950   35.2468 C   0  0  0  0  0  0  0  0  0  0  0  0
   -6.8426   13.4466   35.9361 O   0  0  0  0  0  0  0  0  0  0  0  0
  1  3  1  0  0  0  0
  1  2  1  1  0  0  0
  3  5  1  0  0  0  0
  3  4  1  1  0  0  0
  5  6  1  6  0  0  0
  7  8  1  1  0  0  0
  7  5  1  0  0  0  0
  9 10  1  6  0  0  0
  9  7  1  0  0  0  0
 10  1  1  0  0  0  0
 11 13  1  6  0  0  0
 11  9  1  0  0  0  0
 12 11  1  0  0  0  0
 14 15  1  6  0  0  0
 16 14  1  0  0  0  0
 17 18  1  6  0  0  0
 17 16  1  0  0  0  0
 19  2  1  1  0  0  0
 19 20  1  0  0  0  0
 19 17  1  0  0  0  0
 20 21  1  6  0  0  0
 20 22  1  0  0  0  0
 22 23  1  1  0  0  0
 22 14  1  0  0  0  0
 24 23  1  6  0  0  0
 24 25  1  0  0  0  0
 25 27  1  0  0  0  0
 25 26  1  1  0  0  0
 27 28  1  1  0  0  0
 28 29  1  0  0  0  0
 30 31  1  6  0  0  0
 30 32  1  0  0  0  0
 30 27  1  0  0  0  0
 33 30  1  0  0  0  0
 34 33  1  0  0  0  0
 34 24  1  0  0  0  0
M  END
>  <CHROM.1>
-158.35968328,-169.10987331,-156.70435070,98.01974982,179.26530729,-144.01374011
-3.39421150,15.45382177,36.35478438,-0.83752818,-0.44583887,-3.05692835

>  <Name>
lig.pdb

>  <RI>
0

>  <Rbt.Current_Directory>
/home/itssahil/PROJECTS/Mol_Feturizer/New_Systems/rnas/4k32

>  <Rbt.Executable>
rbdock ($Id: //depot/dev/client3/rdock/2013.1/src/exe/rbdock.cxx#4 $)

>  <Rbt.Library>
libRbt.so (2013.1, Build901 2013/11/27)

>  <Rbt.Parameter_File>
/export/apps/rDock/src/rDock_2013.1_src/data/scripts/dock_solv.prm

>  <Rbt.Receptor>
prm/pocket_docking_2.prm

>  <SCORE>
-13.239

>  <SCORE.INTER>
-10.2364

>  <SCORE.INTER.CONST>
1

>  <SCORE.INTER.POLAR>
0

>  <SCORE.INTER.ROT>
6

>  <SCORE.INTER.SOLV>
22.8432

>  <SCORE.INTER.VDW>
-22.0387

>  <SCORE.INTER.norm>
-0.301071

>  <SCORE.INTRA>
-3.28013

>  <SCORE.INTRA.DIHEDRAL>
-7.27757

>  <SCORE.INTRA.DIHEDRAL.0>
18.0069

>  <SCORE.INTRA.POLAR>
0

>  <SCORE.INTRA.POLAR.0>
0

>  <SCORE.INTRA.REPUL>
0

>  <SCORE.INTRA.REPUL.0>
0

>  <SCORE.INTRA.SOLV>
-1.24901

>  <SCORE.INTRA.SOLV.lig_0>
-70.7393

>  <SCORE.INTRA.VDW>
0.983164

>  <SCORE.INTRA.VDW.0>
-3.23471

>  <SCORE.INTRA.norm>
-0.0964743

>  <SCORE.RESTR>
0.277529

>  <SCORE.RESTR.CAVITY>
0.277529

>  <SCORE.RESTR.norm>
0.00816262

>  <SCORE.SYSTEM>
0

>  <SCORE.SYSTEM.CONST>
0

>  <SCORE.SYSTEM.DIHEDRAL>
0

>  <SCORE.SYSTEM.SOLV>
0

>  <SCORE.SYSTEM.norm>
0

>  <SCORE.heavy>
34

>  <SCORE.norm>
-0.389383

>  <RMSD>
1.265

$$$$
lig.pdb
 OpenBabel11021811503D
libRbt.so/2013.1/901 2013/11/27
 34 36  0  0  0  0  0  0  0  0999 V2000
   -1.3713   16.5916   35.2777 C   0  0  2  0  0  0  0  0  0  0  0  0
   -1.8957   17.1214   36.5002 O   0  0  0  0  0  0  0  0  0  0  0  0
    0.1985   16.4145   35.4374 C   0  0  2  0  0  0  0  0  0  0  0  0
    0.5384   15.4823   36.5376 N   0  0  0  0  0  0  0  0  0  0  0  0
    0.8490   17.7967   35.6968 C   0  0  1  0  0  0  0  0  0  0  0  0
    2.2649   17.6583   35.8365 O   0  0  0  0  0  0  0  0  0  0  0  0
    0.4905   18.7336   34.5296 C   0  0  2  0  0  0  0  0  0  0  0  0
    1.0877   20.0116   34.7542 O   0  0  0  0  0  0  0  0  0  0  0  0
   -1.0768   18.8579   34.4101 C   0  0  2  0  0  0  0  0  0  0  0  0
   -1.6927   17.5307   34.1979 O   0  0  0  0  0  0  0  0  0  0  0  0
   -1.4875   19.7803   33.2355 C   0  0  2  0  0  0  0  0  0  0  0  0
   -0.7325   19.4449   32.0696 O   0  0  0  0  0  0  0  0  0  0  0  0
   -1.2380   21.2423   33.5715 C   0  0  0  0  0  0  0  0  0  0  0  0
   -5.5630   16.3884   38.5811 C   0  0  2  0  0  0  0  0  0  0  0  0
   -6.9926   16.3324   38.8963 N   0  0  0  0  0  0  0  0  0  0  0  0
   -5.2371   17.8533   38.1787 C   0  0  0  0  0  0  0  0  0  0  0  0
   -3.7190   17.9385   37.8637 C   0  0  2  0  0  0  0  0  0  0  0  0
   -3.3629   19.3141   37.4820 N   0  0  0  0  0  0  0  0  0  0  0  0
   -3.3363   16.9740   36.7092 C   0  0  2  0  0  0  0  0  0  0  0  0
   -3.7149   15.5153   37.1175 C   0  0  2  0  0  0  0  0  0  0  0  0
   -3.3715   14.6267   36.0457 O   0  0  0  0  0  0  0  0  0  0  0  0
   -5.2346   15.3963   37.3871 C   0  0  1  0  0  0  0  0  0  0  0  0
   -5.4992   14.0236   37.7686 O   0  0  0  0  0  0  0  0  0  0  0  0
   -6.7676   13.4770   37.3374 C   0  0  2  0  0  0  0  0  0  0  0  0
   -6.8053   11.9929   37.8603 C   0  0  2  0  0  0  0  0  0  0  0  0
   -6.7188   11.9786   39.2765 O   0  0  0  0  0  0  0  0  0  0  0  0
   -5.6122   11.1917   37.2142 C   0  0  1  0  0  0  0  0  0  0  0  0
   -5.6027    9.7754   37.6918 N   0  0  0  0  0  0  0  0  0  0  0  0
   -4.2006    9.3259   37.8285 C   0  0  0  0  0  0  0  0  0  0  0  0
   -5.7677   11.2383   35.6636 C   0  0  2  0  0  0  0  0  0  0  0  0
   -7.0056   10.6239   35.3094 O   0  0  0  0  0  0  0  0  0  0  0  0
   -4.6406   10.4884   34.9581 C   0  0  0  0  0  0  0  0  0  0  0  0
   -5.7776   12.7286   35.1945 C   0  0  0  0  0  0  0  0  0  0  0  0
   -6.8564   13.4859   35.8633 O   0  0  0  0  0  0  0  0  0  0  0  0
  1  3  1  0  0  0  0
  1  2  1  1  0  0  0
  3  5  1  0  0  0  0
  3  4  1  1  0  0  0
  5  6  1  6  0  0  0
  7  8  1  1  0  0  0
  7  5  1  0  0  0  0
  9 10  1  6  0  0  0
  9  7  1  0  0  0  0
 10  1  1  0  0  0  0
 11 13  1  1  0  0  0
 11  9  1  0  0  0  0
 12 11  1  0  0  0  0
 14 15  1  6  0  0  0
 16 14  1  0  0  0  0
 17 18  1  6  0  0  0
 17 16  1  0  0  0  0
 19  2  1  1  0  0  0
 19 20  1  0  0  0  0
 19 17  1  0  0  0  0
 20 21  1  6  0  0  0
 20 22  1  0  0  0  0
 22 23  1  1  0  0  0
 22 14  1  0  0  0  0
 24 23  1  6  0  0  0
 24 25  1  0  0  0  0
 25 27  1  0  0  0  0
 25 26  1  1  0  0  0
 27 28  1  1  0  0  0
 28 29  1  0  0  0  0
 30 31  1  6  0  0  0
 30 32  1  0  0  0  0
 30 27  1  0  0  0  0
 33 30  1  0  0  0  0
 34 33  1  0  0  0  0
 34 24  1  0  0  0  0
M  END
>  <CHROM.1>
-161.77020188,46.10206074,-164.74937277,98.38734083,179.54909561,-144.45100800
-3.39177348,15.50138754,36.21859560,-0.79491974,-0.52769468,-3.00953946

>  <Name>
lig.pdb

>  <RI>
0

>  <Rbt.Current_Directory>
/home/itssahil/PROJECTS/Mol_Feturizer/New_Systems/rnas/4k32

>  <Rbt.Executable>
rbdock ($Id: //depot/dev/client3/rdock/2013.1/src/exe/rbdock.cxx#4 $)

>  <Rbt.Library>
libRbt.so (2013.1, Build901 2013/11/27)

>  <Rbt.Parameter_File>
/export/apps/rDock/src/rDock_2013.1_src/data/scripts/dock_solv.prm

>  <Rbt.Receptor>
prm/pocket_docking_2.prm

>  <SCORE>
-14.093

>  <SCORE.INTER>
-10.4698

>  <SCORE.INTER.CONST>
1

>  <SCORE.INTER.POLAR>
0

>  <SCORE.INTER.ROT>
6

>  <SCORE.INTER.SOLV>
23.1904

>  <SCORE.INTER.VDW>
-22.31

>  <SCORE.INTER.norm>
-0.307934

>  <SCORE.INTRA>
-3.9165

>  <SCORE.INTRA.DIHEDRAL>
-8.83446

>  <SCORE.INTRA.DIHEDRAL.0>
18.0069

>  <SCORE.INTRA.POLAR>
0

>  <SCORE.INTRA.POLAR.0>
0

>  <SCORE.INTRA.REPUL>
0

>  <SCORE.INTRA.REPUL.0>
0

>  <SCORE.INTRA.SOLV>
-1.58956

>  <SCORE.INTRA.SOLV.lig_0>
-70.7393

>  <SCORE.INTRA.VDW>
1.29551

>  <SCORE.INTRA.VDW.0>
-3.23471

>  <SCORE.INTRA.norm>
-0.115191

>  <SCORE.RESTR>
0.293303

>  <SCORE.RESTR.CAVITY>
0.293303

>  <SCORE.RESTR.norm>
0.00862656

>  <SCORE.SYSTEM>
0

>  <SCORE.SYSTEM.CONST>
0

>  <SCORE.SYSTEM.DIHEDRAL>
0

>  <SCORE.SYSTEM.SOLV>
0

>  <SCORE.SYSTEM.norm>
0

>  <SCORE.heavy>
34

>  <SCORE.norm>
-0.414499

>  <RMSD>
1.305

$$$$
lig.pdb
 OpenBabel11021811503D
libRbt.so/2013.1/901 2013/11/27
 34 36  0  0  0  0  0  0  0  0999 V2000
   -1.3615   16.5630   35.2920 C   0  0  2  0  0  0  0  0  0  0  0  0
   -1.8881   17.0811   36.5186 O   0  0  0  0  0  0  0  0  0  0  0  0
    0.2073   16.3797   35.4547 C   0  0  2  0  0  0  0  0  0  0  0  0
    0.5413   15.4348   36.5458 N   0  0  0  0  0  0  0  0  0  0  0  0
    0.8609   17.7572   35.7308 C   0  0  1  0  0  0  0  0  0  0  0  0
    2.2760   17.6133   35.8733 O   0  0  0  0  0  0  0  0  0  0  0  0
    0.5086   18.7076   34.5726 C   0  0  2  0  0  0  0  0  0  0  0  0
    1.1086   19.9815   34.8128 O   0  0  0  0  0  0  0  0  0  0  0  0
   -1.0580   18.8376   34.4497 C   0  0  2  0  0  0  0  0  0  0  0  0
   -1.6769   17.5144   34.2215 O   0  0  0  0  0  0  0  0  0  0  0  0
   -1.4625   19.7737   33.2838 C   0  0  2  0  0  0  0  0  0  0  0  0
   -0.6844   19.4679   32.1251 O   0  0  0  0  0  0  0  0  0  0  0  0
   -1.2386   21.2332   33.6478 C   0  0  0  0  0  0  0  0  0  0  0  0
   -5.5701   16.3805   38.5846 C   0  0  2  0  0  0  0  0  0  0  0  0
   -7.0018   16.3308   38.8912 N   0  0  0  0  0  0  0  0  0  0  0  0
   -5.2391   17.8396   38.1659 C   0  0  0  0  0  0  0  0  0  0  0  0
   -3.7188   17.9184   37.8598 C   0  0  2  0  0  0  0  0  0  0  0  0
   -3.3579   19.2885   37.4631 N   0  0  0  0  0  0  0  0  0  0  0  0
   -3.3303   16.9387   36.7200 C   0  0  2  0  0  0  0  0  0  0  0  0
   -3.7141   15.4860   37.1442 C   0  0  2  0  0  0  0  0  0  0  0  0
   -3.3652   14.5833   36.0859 O   0  0  0  0  0  0  0  0  0  0  0  0
   -5.2357   15.3728   37.4054 C   0  0  1  0  0  0  0  0  0  0  0  0
   -5.5051   14.0055   37.8025 O   0  0  0  0  0  0  0  0  0  0  0  0
   -6.7717   13.4555   37.3699 C   0  0  2  0  0  0  0  0  0  0  0  0
   -6.7958   11.9641   37.8724 C   0  0  2  0  0  0  0  0  0  0  0  0
   -6.7022   11.9309   39.2878 O   0  0  0  0  0  0  0  0  0  0  0  0
   -5.6002   11.1808   37.2093 C   0  0  1  0  0  0  0  0  0  0  0  0
   -5.5779    9.7581   37.6672 N   0  0  0  0  0  0  0  0  0  0  0  0
   -4.1742    9.3476   37.8854 C   0  0  0  0  0  0  0  0  0  0  0  0
   -5.7637   11.2477   35.6603 C   0  0  2  0  0  0  0  0  0  0  0  0
   -6.9990   10.6292   35.3037 O   0  0  0  0  0  0  0  0  0  0  0  0
   -4.6348   10.5160   34.9389 C   0  0  0  0  0  0  0  0  0  0  0  0
   -5.7869   12.7442   35.2120 C   0  0  0  0  0  0  0  0  0  0  0  0
   -6.8679   13.4842   35.8966 O   0  0  0  0  0  0  0  0  0  0  0  0
  1  3  1  0  0  0  0
  1  2  1  1  0  0  0
  3  5  1  0  0  0  0
  3  4  1  1  0  0  0
  5  6  1  6  0  0  0
  7  8  1  1  0  0  0
  7  5  1  0  0  0  0
  9 10  1  6  0  0  0
  9  7  1  0  0  0  0
 10  1  1  0  0  0  0
 11 13  1  1  0  0  0
 11  9  1  0  0  0  0
 12 11  1  0  0  0  0
 14 15  1  6  0  0  0
 16 14  1  0  0  0  0
 17 18  1  6  0  0  0
 17 16  1  0  0  0  0
 19  2  1  1  0  0  0
 19 20  1  0  0  0  0
 19 17  1  0  0  0  0
 20 21  1  6  0  0  0
 20 22  1  0  0  0  0
 22 23  1  1  0  0  0
 22 14  1  0  0  0  0
 24 23  1  6  0  0  0
 24 25  1  0  0  0  0
 25 27  1  0  0  0  0
 25 26  1  1  0  0  0
 27 28  1  1  0  0  0
 28 29  1  0  0  0  0
 30 31  1  6  0  0  0
 30 32  1  0  0  0  0
 30 27  1  0  0  0  0
 33 30  1  0  0  0  0
 34 33  1  0  0  0  0
 34 24  1  0  0  0  0
M  END
>  <CHROM.1>
-161.92795052,44.85234768,-163.33259863,98.38701546,177.81551541,-140.37412619
-3.38358002,15.48420095,36.23898404,-0.79908637,-0.51447609,-3.01963167

>  <Name>
lig.pdb

>  <RI>
0

>  <Rbt.Current_Directory>
/home/itssahil/PROJECTS/Mol_Feturizer/New_Systems/rnas/4k32

>  <Rbt.Executable>
rbdock ($Id: //depot/dev/client3/rdock/2013.1/src/exe/rbdock.cxx#4 $)

>  <Rbt.Library>
libRbt.so (2013.1, Build901 2013/11/27)

>  <Rbt.Parameter_File>
/export/apps/rDock/src/rDock_2013.1_src/data/scripts/dock_solv.prm

>  <Rbt.Receptor>
prm/pocket_docking_2.prm

>  <SCORE>
-14.1845

>  <SCORE.INTER>
-10.3201

>  <SCORE.INTER.CONST>
1

>  <SCORE.INTER.POLAR>
0

>  <SCORE.INTER.ROT>
6

>  <SCORE.INTER.SOLV>
22.9099

>  <SCORE.INTER.VDW>
-22.1167

>  <SCORE.INTER.norm>
-0.303534

>  <SCORE.INTRA>
-4.18643

>  <SCORE.INTRA.DIHEDRAL>
-8.40049

>  <SCORE.INTRA.DIHEDRAL.0>
18.0069

>  <SCORE.INTRA.POLAR>
0

>  <SCORE.INTRA.POLAR.0>
0

>  <SCORE.INTRA.REPUL>
0

>  <SCORE.INTRA.REPUL.0>
0

>  <SCORE.INTRA.SOLV>
-1.50078

>  <SCORE.INTRA.SOLV.lig_0>
-70.7393

>  <SCORE.INTRA.VDW>
0.764205

>  <SCORE.INTRA.VDW.0>
-3.23471

>  <SCORE.INTRA.norm>
-0.12313

>  <SCORE.RESTR>
0.322119

>  <SCORE.RESTR.CAVITY>
0.322119

>  <SCORE.RESTR.norm>
0.00947409

>  <SCORE.SYSTEM>
0

>  <SCORE.SYSTEM.CONST>
0

>  <SCORE.SYSTEM.DIHEDRAL>
0

>  <SCORE.SYSTEM.SOLV>
0

>  <SCORE.SYSTEM.norm>
0

>  <SCORE.heavy>
34

>  <SCORE.norm>
-0.41719

>  <RMSD>
1.309

$$$$
lig.pdb
 OpenBabel11021811503D
libRbt.so/2013.1/901 2013/11/27
 34 36  0  0  0  0  0  0  0  0999 V2000
   -1.3393   16.5575   35.2779 C   0  0  2  0  0  0  0  0  0  0  0  0
   -1.8772   17.0790   36.4981 O   0  0  0  0  0  0  0  0  0  0  0  0
    0.2316   16.3993   35.4467 C   0  0  2  0  0  0  0  0  0  0  0  0
    0.5765   15.4696   36.5474 N   0  0  0  0  0  0  0  0  0  0  0  0
    0.8637   17.7890   35.7118 C   0  0  1  0  0  0  0  0  0  0  0  0
    2.2803   17.6676   35.8597 O   0  0  0  0  0  0  0  0  0  0  0  0
    0.5006   18.7233   34.5440 C   0  0  2  0  0  0  0  0  0  0  0  0
    1.0808   20.0082   34.7740 O   0  0  0  0  0  0  0  0  0  0  0  0
   -1.0674   18.8286   34.4155 C   0  0  2  0  0  0  0  0  0  0  0  0
   -1.6658   17.4942   34.1977 O   0  0  0  0  0  0  0  0  0  0  0  0
   -1.4825   19.7477   33.2398 C   0  0  2  0  0  0  0  0  0  0  0  0
   -0.6856   19.4538   32.0908 O   0  0  0  0  0  0  0  0  0  0  0  0
   -1.2973   21.2143   33.5969 C   0  0  0  0  0  0  0  0  0  0  0  0
   -5.5546   16.3462   38.5612 C   0  0  2  0  0  0  0  0  0  0  0  0
   -6.9864   16.2781   38.8640 N   0  0  0  0  0  0  0  0  0  0  0  0
   -5.2448   17.8052   38.1261 C   0  0  0  0  0  0  0  0  0  0  0  0
   -3.7249   17.9038   37.8237 C   0  0  2  0  0  0  0  0  0  0  0  0
   -3.3839   19.2745   37.4117 N   0  0  0  0  0  0  0  0  0  0  0  0
   -3.3177   16.9167   36.6969 C   0  0  2  0  0  0  0  0  0  0  0  0
   -3.6804   15.4634   37.1373 C   0  0  2  0  0  0  0  0  0  0  0  0
   -3.3142   14.5536   36.0909 O   0  0  0  0  0  0  0  0  0  0  0  0
   -5.2009   15.3298   37.3952 C   0  0  1  0  0  0  0  0  0  0  0  0
   -5.4506   13.9634   37.8077 O   0  0  0  0  0  0  0  0  0  0  0  0
   -6.7285   13.4058   37.4210 C   0  0  2  0  0  0  0  0  0  0  0  0
   -6.7331   11.9200   37.9404 C   0  0  2  0  0  0  0  0  0  0  0  0
   -6.5952   11.9026   39.3525 O   0  0  0  0  0  0  0  0  0  0  0  0
   -5.5567   11.1321   37.2489 C   0  0  1  0  0  0  0  0  0  0  0  0
   -5.5164    9.7146   37.7215 N   0  0  0  0  0  0  0  0  0  0  0  0
   -4.1049    9.2924   37.8483 C   0  0  0  0  0  0  0  0  0  0  0  0
   -5.7687   11.1815   35.7052 C   0  0  2  0  0  0  0  0  0  0  0  0
   -7.0128   10.5562   35.3942 O   0  0  0  0  0  0  0  0  0  0  0  0
   -4.6609   10.4444   34.9569 C   0  0  0  0  0  0  0  0  0  0  0  0
   -5.8098   12.6729   35.2414 C   0  0  0  0  0  0  0  0  0  0  0  0
   -6.8708   13.4179   35.9512 O   0  0  0  0  0  0  0  0  0  0  0  0
  1  3  1  0  0  0  0
  1  2  1  1  0  0  0
  3  5  1  0  0  0  0
  3  4  1  1  0  0  0
  5  6  1  6  0  0  0
  7  8  1  1  0  0  0
  7  5  1  0  0  0  0
  9 10  1  6  0  0  0
  9  7  1  0  0  0  0
 10  1  1  0  0  0  0
 11 13  1  1  0  0  0
 11  9  1  0  0  0  0
 12 11  1  0  0  0  0
 14 15  1  6  0  0  0
 16 14  1  0  0  0  0
 17 18  1  6  0  0  0
 17 16  1  0  0  0  0
 19  2  1  1  0  0  0
 19 20  1  0  0  0  0
 19 17  1  0  0  0  0
 20 21  1  6  0  0  0
 20 22  1  0  0  0  0
 22 23  1  1  0  0  0
 22 14  1  0  0  0  0
 24 23  1  6  0  0  0
 24 25  1  0  0  0  0
 25 27  1  0  0  0  0
 25 26  1  1  0  0  0
 27 28  1  1  0  0  0
 28 29  1  0  0  0  0
 30 31  1  6  0  0  0
 30 32  1  0  0  0  0
 30 27  1  0  0  0  0
 33 30  1  0  0  0  0
 34 33  1  0  0  0  0
 34 24  1  0  0  0  0
M  END
>  <CHROM.1>
-161.92461822,44.17119088,-163.17632476,96.13526054,178.21586236,-142.61950449
-3.36935270,15.45952468,36.23752419,-0.81133266,-0.51168941,-3.03567191

>  <Name>
lig.pdb

>  <RI>
0

>  <Rbt.Current_Directory>
/home/itssahil/PROJECTS/Mol_Feturizer/New_Systems/rnas/4k32

>  <Rbt.Executable>
rbdock ($Id: //depot/dev/client3/rdock/2013.1/src/exe/rbdock.cxx#4 $)

>  <Rbt.Library>
libRbt.so (2013.1, Build901 2013/11/27)

>  <Rbt.Parameter_File>
/export/apps/rDock/src/rDock_2013.1_src/data/scripts/dock_solv.prm

>  <Rbt.Receptor>
prm/pocket_docking_2.prm

>  <SCORE>
-14.2253

>  <SCORE.INTER>
-10.3614

>  <SCORE.INTER.CONST>
1

>  <SCORE.INTER.POLAR>
0

>  <SCORE.INTER.ROT>
6

>  <SCORE.INTER.SOLV>
22.9756

>  <SCORE.INTER.VDW>
-22.1661

>  <SCORE.INTER.norm>
-0.304746

>  <SCORE.INTRA>
-4.17494

>  <SCORE.INTRA.DIHEDRAL>
-8.76839

>  <SCORE.INTRA.DIHEDRAL.0>
18.0069

>  <SCORE.INTRA.POLAR>
0

>  <SCORE.INTRA.POLAR.0>
0

>  <SCORE.INTRA.REPUL>
0

>  <SCORE.INTRA.REPUL.0>
0

>  <SCORE.INTRA.SOLV>
-1.4504

>  <SCORE.INTRA.SOLV.lig_0>
-70.7393

>  <SCORE.INTRA.VDW>
0.934458

>  <SCORE.INTRA.VDW.0>
-3.23471

>  <SCORE.INTRA.norm>
-0.122792

>  <SCORE.RESTR>
0.310946

>  <SCORE.RESTR.CAVITY>
0.310946

>  <SCORE.RESTR.norm>
0.00914546

>  <SCORE.SYSTEM>
0

>  <SCORE.SYSTEM.CONST>
0

>  <SCORE.SYSTEM.DIHEDRAL>
0

>  <SCORE.SYSTEM.SOLV>
0

>  <SCORE.SYSTEM.norm>
0

>  <SCORE.heavy>
34

>  <SCORE.norm>
-0.418392

>  <RMSD>
1.310

$$$$
lig.pdb
 OpenBabel11021811503D
libRbt.so/2013.1/901 2013/11/27
 34 36  0  0  0  0  0  0  0  0999 V2000
   -1.1321   17.3000   35.4719 C   0  0  2  0  0  0  0  0  0  0  0  0
   -1.6915   17.9682   36.6080 O   0  0  0  0  0  0  0  0  0  0  0  0
    0.4476   17.2727   35.6305 C   0  0  2  0  0  0  0  0  0  0  0  0
    0.8658   16.5495   36.8540 N   0  0  0  0  0  0  0  0  0  0  0  0
    0.9869   18.7249   35.6652 C   0  0  1  0  0  0  0  0  0  0  0  0
    2.4099   18.7207   35.8007 O   0  0  0  0  0  0  0  0  0  0  0  0
    0.5494   19.4410   34.3750 C   0  0  2  0  0  0  0  0  0  0  0  0
    1.0436   20.7811   34.3923 O   0  0  0  0  0  0  0  0  0  0  0  0
   -1.0234   19.4226   34.2643 C   0  0  2  0  0  0  0  0  0  0  0  0
   -1.5324   18.0345   34.2672 O   0  0  0  0  0  0  0  0  0  0  0  0
   -1.5118   20.1191   32.9699 C   0  0  2  0  0  0  0  0  0  0  0  0
   -0.7321   19.6757   31.8577 O   0  0  0  0  0  0  0  0  0  0  0  0
   -1.3868   21.6308   33.0785 C   0  0  0  0  0  0  0  0  0  0  0  0
   -5.1911   17.1144   38.9189 C   0  0  2  0  0  0  0  0  0  0  0  0
   -6.5956   16.9470   39.3004 N   0  0  0  0  0  0  0  0  0  0  0  0
   -5.0410   18.5444   38.3304 C   0  0  0  0  0  0  0  0  0  0  0  0
   -3.5518   18.7502   37.9418 C   0  0  2  0  0  0  0  0  0  0  0  0
   -3.3613   20.0979   37.3832 N   0  0  0  0  0  0  0  0  0  0  0  0
   -3.1001   17.6962   36.8955 C   0  0  2  0  0  0  0  0  0  0  0  0
   -3.3030   16.2675   37.4915 C   0  0  2  0  0  0  0  0  0  0  0  0
   -2.8962   15.2944   36.5197 O   0  0  0  0  0  0  0  0  0  0  0  0
   -4.7915   16.0226   37.8391 C   0  0  1  0  0  0  0  0  0  0  0  0
   -4.8914   14.6874   38.3933 O   0  0  0  0  0  0  0  0  0  0  0  0
   -6.2271   14.2271   38.7061 C   0  0  2  0  0  0  0  0  0  0  0  0
   -6.0703   12.7504   39.2277 C   0  0  2  0  0  0  0  0  0  0  0  0
   -5.2585   12.7339   40.3914 O   0  0  0  0  0  0  0  0  0  0  0  0
   -5.4374   11.8683   38.0858 C   0  0  1  0  0  0  0  0  0  0  0  0
   -5.2602   10.4558   38.5416 N   0  0  0  0  0  0  0  0  0  0  0  0
   -3.8530   10.0563   38.3259 C   0  0  0  0  0  0  0  0  0  0  0  0
   -6.3762   11.9214   36.8422 C   0  0  2  0  0  0  0  0  0  0  0  0
   -7.6496   11.3916   37.2075 O   0  0  0  0  0  0  0  0  0  0  0  0
   -5.8276   11.0948   35.6820 C   0  0  0  0  0  0  0  0  0  0  0  0
   -6.5450   13.4077   36.3911 C   0  0  0  0  0  0  0  0  0  0  0  0
   -7.0714   14.2383   37.4946 O   0  0  0  0  0  0  0  0  0  0  0  0
  1  3  1  0  0  0  0
  1  2  1  1  0  0  0
  3  5  1  0  0  0  0
  3  4  1  1  0  0  0
  5  6  1  6  0  0  0
  7  8  1  1  0  0  0
  7  5  1  0  0  0  0
  9 10  1  6  0  0  0
  9  7  1  0  0  0  0
 10  1  1  0  0  0  0
 11 13  1  1  0  0  0
 11  9  1  0  0  0  0
 12 11  1  0  0  0  0
 14 15  1  6  0  0  0
 16 14  1  0  0  0  0
 17 18  1  6  0  0  0
 17 16  1  0  0  0  0
 19  2  1  1  0  0  0
 19 20  1  0  0  0  0
 19 17  1  0  0  0  0
 20 21  1  6  0  0  0
 20 22  1  0  0  0  0
 22 23  1  1  0  0  0
 22 14  1  0  0  0  0
 24 23  1  6  0  0  0
 24 25  1  0  0  0  0
 25 27  1  0  0  0  0
 25 26  1  1  0  0  0
 27 28  1  1  0  0  0
 28 29  1  0  0  0  0
 30 31  1  1  0  0  0
 30 32  1  0  0  0  0
 30 27  1  0  0  0  0
 33 30  1  0  0  0  0
 34 33  1  0  0  0  0
 34 24  1  0  0  0  0
M  END
>  <CHROM.1>
-159.17310051,45.72939026,-167.59259473,67.77850310,177.68476234,-126.35159711
-3.24988006,16.20259485,36.65795546,-0.81978994,-0.53010210,3.11612971

>  <Name>
lig.pdb

>  <RI>
0

>  <Rbt.Current_Directory>
/home/itssahil/PROJECTS/Mol_Feturizer/New_Systems/rnas/4k32

>  <Rbt.Executable>
rbdock ($Id: //depot/dev/client3/rdock/2013.1/src/exe/rbdock.cxx#4 $)

>  <Rbt.Library>
libRbt.so (2013.1, Build901 2013/11/27)

>  <Rbt.Parameter_File>
/export/apps/rDock/src/rDock_2013.1_src/data/scripts/dock_solv.prm

>  <Rbt.Receptor>
prm/pocket_docking_5.prm

>  <SCORE>
-15.2311

>  <SCORE.INTER>
-9.22431

>  <SCORE.INTER.CONST>
1

>  <SCORE.INTER.POLAR>
0

>  <SCORE.INTER.ROT>
6

>  <SCORE.INTER.SOLV>
23.0451

>  <SCORE.INTER.VDW>
-21.4312

>  <SCORE.INTER.norm>
-0.271303

>  <SCORE.INTRA>
-6.00682

>  <SCORE.INTRA.DIHEDRAL>
-13.0853

>  <SCORE.INTRA.DIHEDRAL.0>
18.0069

>  <SCORE.INTRA.POLAR>
0

>  <SCORE.INTRA.POLAR.0>
0

>  <SCORE.INTRA.REPUL>
0

>  <SCORE.INTRA.REPUL.0>
0

>  <SCORE.INTRA.SOLV>
-0.827626

>  <SCORE.INTRA.SOLV.lig_0>
-70.7393

>  <SCORE.INTRA.VDW>
0.949637

>  <SCORE.INTRA.VDW.0>
-3.23471

>  <SCORE.INTRA.norm>
-0.176671

>  <SCORE.RESTR>
0

>  <SCORE.RESTR.CAVITY>
0

>  <SCORE.RESTR.norm>
0

>  <SCORE.SYSTEM>
0

>  <SCORE.SYSTEM.CONST>
0

>  <SCORE.SYSTEM.DIHEDRAL>
0

>  <SCORE.SYSTEM.SOLV>
0

>  <SCORE.SYSTEM.norm>
0

>  <SCORE.heavy>
34

>  <SCORE.norm>
-0.447975

>  <RMSD>
1.379

$$$$
lig.pdb
 OpenBabel11021811503D
libRbt.so/2013.1/901 2013/11/27
 34 36  0  0  0  0  0  0  0  0999 V2000
   -0.9852   17.4660   35.4983 C   0  0  2  0  0  0  0  0  0  0  0  0
   -1.6058   18.1587   36.5870 O   0  0  0  0  0  0  0  0  0  0  0  0
    0.5893   17.5250   35.6955 C   0  0  2  0  0  0  0  0  0  0  0  0
    1.0101   16.8825   36.9624 N   0  0  0  0  0  0  0  0  0  0  0  0
    1.0562   19.0023   35.6723 C   0  0  1  0  0  0  0  0  0  0  0  0
    2.4738   19.0754   35.8417 O   0  0  0  0  0  0  0  0  0  0  0  0
    0.6183   19.6337   34.3388 C   0  0  2  0  0  0  0  0  0  0  0  0
    1.0462   20.9960   34.3026 O   0  0  0  0  0  0  0  0  0  0  0  0
   -0.9483   19.5317   34.1918 C   0  0  2  0  0  0  0  0  0  0  0  0
   -1.3891   18.1216   34.2502 O   0  0  0  0  0  0  0  0  0  0  0  0
   -1.4360   20.1409   32.8538 C   0  0  2  0  0  0  0  0  0  0  0  0
   -0.6205   19.6672   31.7803 O   0  0  0  0  0  0  0  0  0  0  0  0
   -1.3657   21.6597   32.8833 C   0  0  0  0  0  0  0  0  0  0  0  0
   -5.2100   17.2790   38.7207 C   0  0  2  0  0  0  0  0  0  0  0  0
   -6.6310   17.1116   39.0351 N   0  0  0  0  0  0  0  0  0  0  0  0
   -5.0273   18.7192   38.1674 C   0  0  0  0  0  0  0  0  0  0  0  0
   -3.5212   18.9246   37.8505 C   0  0  2  0  0  0  0  0  0  0  0  0
   -3.2997   20.2818   37.3272 N   0  0  0  0  0  0  0  0  0  0  0  0
   -3.0272   17.8886   36.8053 C   0  0  2  0  0  0  0  0  0  0  0  0
   -3.2630   16.4497   37.3637 C   0  0  2  0  0  0  0  0  0  0  0  0
   -2.8169   15.4934   36.3927 O   0  0  0  0  0  0  0  0  0  0  0  0
   -4.7667   16.2060   37.6391 C   0  0  1  0  0  0  0  0  0  0  0  0
   -4.8975   14.8609   38.1622 O   0  0  0  0  0  0  0  0  0  0  0  0
   -6.2402   14.4350   38.4929 C   0  0  2  0  0  0  0  0  0  0  0  0
   -6.0977   13.0161   39.1590 C   0  0  2  0  0  0  0  0  0  0  0  0
   -5.3081   13.1123   40.3340 O   0  0  0  0  0  0  0  0  0  0  0  0
   -5.4460   12.0260   38.1209 C   0  0  1  0  0  0  0  0  0  0  0  0
   -5.2817   10.6646   38.7157 N   0  0  0  0  0  0  0  0  0  0  0  0
   -3.8852   10.2208   38.5170 C   0  0  0  0  0  0  0  0  0  0  0  0
   -6.3609   11.9584   36.8603 C   0  0  2  0  0  0  0  0  0  0  0  0
   -7.6426   11.4684   37.2512 O   0  0  0  0  0  0  0  0  0  0  0  0
   -5.7929   11.0219   35.7970 C   0  0  0  0  0  0  0  0  0  0  0  0
   -6.5167   13.3938   36.2632 C   0  0  0  0  0  0  0  0  0  0  0  0
   -7.0613   14.3288   37.2701 O   0  0  0  0  0  0  0  0  0  0  0  0
  1  3  1  0  0  0  0
  1  2  1  1  0  0  0
  3  5  1  0  0  0  0
  3  4  1  1  0  0  0
  5  6  1  6  0  0  0
  7  8  1  1  0  0  0
  7  5  1  0  0  0  0
  9 10  1  6  0  0  0
  9  7  1  0  0  0  0
 10  1  1  0  0  0  0
 11 13  1  1  0  0  0
 11  9  1  0  0  0  0
 12 11  1  0  0  0  0
 14 15  1  6  0  0  0
 16 14  1  0  0  0  0
 17 18  1  6  0  0  0
 17 16  1  0  0  0  0
 19  2  1  1  0  0  0
 19 20  1  0  0  0  0
 19 17  1  0  0  0  0
 20 21  1  6  0  0  0
 20 22  1  0  0  0  0
 22 23  1  1  0  0  0
 22 14  1  0  0  0  0
 24 23  1  6  0  0  0
 24 25  1  0  0  0  0
 25 27  1  0  0  0  0
 25 26  1  1  0  0  0
 27 28  1  1  0  0  0
 28 29  1  0  0  0  0
 30 31  1  1  0  0  0
 30 32  1  0  0  0  0
 30 27  1  0  0  0  0
 33 30  1  0  0  0  0
 34 33  1  0  0  0  0
 34 24  1  0  0  0  0
M  END
>  <CHROM.1>
-162.59385271,46.67497344,-170.12585036,63.64380626,-174.71372852,-128.67416962
-3.21017037,16.36447918,36.59802448,-0.83187678,-0.48861633,3.08350970

>  <Name>
lig.pdb

>  <RI>
0

>  <Rbt.Current_Directory>
/home/itssahil/PROJECTS/Mol_Feturizer/New_Systems/rnas/4k32

>  <Rbt.Executable>
rbdock ($Id: //depot/dev/client3/rdock/2013.1/src/exe/rbdock.cxx#4 $)

>  <Rbt.Library>
libRbt.so (2013.1, Build901 2013/11/27)

>  <Rbt.Parameter_File>
/export/apps/rDock/src/rDock_2013.1_src/data/scripts/dock_solv.prm

>  <Rbt.Receptor>
prm/pocket_docking_3.prm

>  <SCORE>
-15.7531

>  <SCORE.INTER>
-9.53017

>  <SCORE.INTER.CONST>
1

>  <SCORE.INTER.POLAR>
0

>  <SCORE.INTER.ROT>
6

>  <SCORE.INTER.SOLV>
24.287

>  <SCORE.INTER.VDW>
-22.0491

>  <SCORE.INTER.norm>
-0.280299

>  <SCORE.INTRA>
-6.22296

>  <SCORE.INTRA.DIHEDRAL>
-14.1203

>  <SCORE.INTRA.DIHEDRAL.0>
18.0069

>  <SCORE.INTRA.POLAR>
0

>  <SCORE.INTRA.POLAR.0>
0

>  <SCORE.INTRA.REPUL>
0

>  <SCORE.INTRA.REPUL.0>
0

>  <SCORE.INTRA.SOLV>
-1.03424

>  <SCORE.INTRA.SOLV.lig_0>
-70.7393

>  <SCORE.INTRA.VDW>
1.3543

>  <SCORE.INTRA.VDW.0>
-3.23471

>  <SCORE.INTRA.norm>
-0.183028

>  <SCORE.RESTR>
0

>  <SCORE.RESTR.CAVITY>
0

>  <SCORE.RESTR.norm>
0

>  <SCORE.SYSTEM>
0

>  <SCORE.SYSTEM.CONST>
0

>  <SCORE.SYSTEM.DIHEDRAL>
0

>  <SCORE.SYSTEM.SOLV>
0

>  <SCORE.SYSTEM.norm>
0

>  <SCORE.heavy>
34

>  <SCORE.norm>
-0.463327

>  <RMSD>
1.388

$$$$
lig.pdb
 OpenBabel11021811503D
libRbt.so/2013.1/901 2013/11/27
 34 36  0  0  0  0  0  0  0  0999 V2000
   -1.4899   16.6405   35.2307 C   0  0  2  0  0  0  0  0  0  0  0  0
   -2.0301   17.2555   36.4055 O   0  0  0  0  0  0  0  0  0  0  0  0
   -0.1398   15.9028   35.6236 C   0  0  2  0  0  0  0  0  0  0  0  0
   -0.3631   14.8520   36.6437 N   0  0  0  0  0  0  0  0  0  0  0  0
    0.8806   16.9427   36.1513 C   0  0  1  0  0  0  0  0  0  0  0  0
    2.1065   16.2974   36.5040 O   0  0  0  0  0  0  0  0  0  0  0  0
    1.1016   18.0082   35.0630 C   0  0  2  0  0  0  0  0  0  0  0  0
    2.0440   18.9721   35.5355 O   0  0  0  0  0  0  0  0  0  0  0  0
   -0.2723   18.6936   34.7037 C   0  0  2  0  0  0  0  0  0  0  0  0
   -1.2512   17.6899   34.2344 O   0  0  0  0  0  0  0  0  0  0  0  0
   -0.1027   19.7648   33.5978 C   0  0  2  0  0  0  0  0  0  0  0  0
    0.7834   20.7907   34.0492 O   0  0  0  0  0  0  0  0  0  0  0  0
   -1.4371   20.3994   33.2381 C   0  0  0  0  0  0  0  0  0  0  0  0
   -5.6446   16.4108   38.5359 C   0  0  2  0  0  0  0  0  0  0  0  0
   -7.0670   16.3181   38.8739 N   0  0  0  0  0  0  0  0  0  0  0  0
   -5.3585   17.8881   38.1491 C   0  0  0  0  0  0  0  0  0  0  0  0
   -3.8482   18.0121   37.8104 C   0  0  2  0  0  0  0  0  0  0  0  0
   -3.5295   19.4006   37.4424 N   0  0  0  0  0  0  0  0  0  0  0  0
   -3.4634   17.0726   36.6361 C   0  0  2  0  0  0  0  0  0  0  0  0
   -3.8022   15.6002   37.0299 C   0  0  2  0  0  0  0  0  0  0  0  0
   -3.4570   14.7345   35.9399 O   0  0  0  0  0  0  0  0  0  0  0  0
   -5.3141   15.4430   37.3228 C   0  0  1  0  0  0  0  0  0  0  0  0
   -5.5414   14.0595   37.6891 O   0  0  0  0  0  0  0  0  0  0  0  0
   -6.8034   13.4896   37.2690 C   0  0  2  0  0  0  0  0  0  0  0  0
   -6.8310   12.0215   37.8358 C   0  0  2  0  0  0  0  0  0  0  0  0
   -6.7506   12.0501   39.2522 O   0  0  0  0  0  0  0  0  0  0  0  0
   -5.6285   11.2116   37.2187 C   0  0  1  0  0  0  0  0  0  0  0  0
   -5.6092    9.8102   37.7384 N   0  0  0  0  0  0  0  0  0  0  0  0
   -4.2041    9.3834   37.9120 C   0  0  0  0  0  0  0  0  0  0  0  0
   -5.7775   11.2107   35.6668 C   0  0  2  0  0  0  0  0  0  0  0  0
   -7.0088   10.5756   35.3260 O   0  0  0  0  0  0  0  0  0  0  0  0
   -4.6412   10.4497   34.9885 C   0  0  0  0  0  0  0  0  0  0  0  0
   -5.7978   12.6862   35.1535 C   0  0  0  0  0  0  0  0  0  0  0  0
   -6.8858   13.4539   35.7950 O   0  0  0  0  0  0  0  0  0  0  0  0
  1  3  1  0  0  0  0
  1  2  1  1  0  0  0
  3  5  1  0  0  0  0
  3  4  1  1  0  0  0
  5  6  1  6  0  0  0
  7  8  1  1  0  0  0
  7  5  1  0  0  0  0
  9 10  1  6  0  0  0
  9  7  1  0  0  0  0
 10  1  1  0  0  0  0
 11 13  1  1  0  0  0
 11  9  1  0  0  0  0
 12 11  1  0  0  0  0
 14 15  1  6  0  0  0
 16 14  1  0  0  0  0
 17 18  1  6  0  0  0
 17 16  1  0  0  0  0
 19  2  1  1  0  0  0
 19 20  1  0  0  0  0
 19 17  1  0  0  0  0
 20 21  1  6  0  0  0
 20 22  1  0  0  0  0
 22 23  1  1  0  0  0
 22 14  1  0  0  0  0
 24 23  1  6  0  0  0
 24 25  1  0  0  0  0
 25 27  1  0  0  0  0
 25 26  1  1  0  0  0
 27 28  1  1  0  0  0
 28 29  1  0  0  0  0
 30 31  1  6  0  0  0
 30 32  1  0  0  0  0
 30 27  1  0  0  0  0
 33 30  1  0  0  0  0
 34 33  1  0  0  0  0
 34 24  1  0  0  0  0
M  END
>  <CHROM.1>
-134.43708248,-60.93916786,-170.69821976,98.48958221,-177.60144471,-143.67272752
-3.30707549,15.38956981,36.35222903,-0.79108808,-0.39127024,-3.06496294

>  <Name>
lig.pdb

>  <RI>
0

>  <Rbt.Current_Directory>
/home/itssahil/PROJECTS/Mol_Feturizer/New_Systems/rnas/4k32

>  <Rbt.Executable>
rbdock ($Id: //depot/dev/client3/rdock/2013.1/src/exe/rbdock.cxx#4 $)

>  <Rbt.Library>
libRbt.so (2013.1, Build901 2013/11/27)

>  <Rbt.Parameter_File>
/export/apps/rDock/src/rDock_2013.1_src/data/scripts/dock_solv.prm

>  <Rbt.Receptor>
prm/pocket_docking_2.prm

>  <SCORE>
-12.3763

>  <SCORE.INTER>
-10.3832

>  <SCORE.INTER.CONST>
1

>  <SCORE.INTER.POLAR>
0

>  <SCORE.INTER.ROT>
6

>  <SCORE.INTER.SOLV>
21.5805

>  <SCORE.INTER.VDW>
-21.7156

>  <SCORE.INTER.norm>
-0.305387

>  <SCORE.INTRA>
-2.27687

>  <SCORE.INTRA.DIHEDRAL>
-5.39909

>  <SCORE.INTRA.DIHEDRAL.0>
18.0069

>  <SCORE.INTRA.POLAR>
0

>  <SCORE.INTRA.POLAR.0>
0

>  <SCORE.INTRA.REPUL>
0

>  <SCORE.INTRA.REPUL.0>
0

>  <SCORE.INTRA.SOLV>
-1.01972

>  <SCORE.INTRA.SOLV.lig_0>
-70.7393

>  <SCORE.INTRA.VDW>
0.932534

>  <SCORE.INTRA.VDW.0>
-3.23471

>  <SCORE.INTRA.norm>
-0.0669668

>  <SCORE.RESTR>
0.283726

>  <SCORE.RESTR.CAVITY>
0.283726

>  <SCORE.RESTR.norm>
0.00834488

>  <SCORE.SYSTEM>
0

>  <SCORE.SYSTEM.CONST>
0

>  <SCORE.SYSTEM.DIHEDRAL>
0

>  <SCORE.SYSTEM.SOLV>
0

>  <SCORE.SYSTEM.norm>
0

>  <SCORE.heavy>
34

>  <SCORE.norm>
-0.364009

>  <RMSD>
1.414

$$$$
lig.pdb
 OpenBabel11021811503D
libRbt.so/2013.1/901 2013/11/27
 34 36  0  0  0  0  0  0  0  0999 V2000
   -1.5089   16.6380   35.2463 C   0  0  2  0  0  0  0  0  0  0  0  0
   -2.0482   17.2979   36.3969 O   0  0  0  0  0  0  0  0  0  0  0  0
   -0.1880   15.8702   35.6787 C   0  0  2  0  0  0  0  0  0  0  0  0
   -0.4587   14.8521   36.7204 N   0  0  0  0  0  0  0  0  0  0  0  0
    0.8552   16.8917   36.1974 C   0  0  1  0  0  0  0  0  0  0  0  0
    2.0554   16.2189   36.5853 O   0  0  0  0  0  0  0  0  0  0  0  0
    1.1252   17.9228   35.0872 C   0  0  2  0  0  0  0  0  0  0  0  0
    2.0891   18.8694   35.5511 O   0  0  0  0  0  0  0  0  0  0  0  0
   -0.2215   18.6400   34.6891 C   0  0  2  0  0  0  0  0  0  0  0  0
   -1.2232   17.6548   34.2287 O   0  0  0  0  0  0  0  0  0  0  0  0
   -0.0025   19.6778   33.5604 C   0  0  2  0  0  0  0  0  0  0  0  0
    0.8917   20.6985   34.0079 O   0  0  0  0  0  0  0  0  0  0  0  0
   -1.3145   20.3278   33.1493 C   0  0  0  0  0  0  0  0  0  0  0  0
   -5.6091   16.3992   38.5944 C   0  0  2  0  0  0  0  0  0  0  0  0
   -7.0233   16.2873   38.9599 N   0  0  0  0  0  0  0  0  0  0  0  0
   -5.3490   17.8815   38.2086 C   0  0  0  0  0  0  0  0  0  0  0  0
   -3.8474   18.0258   37.8407 C   0  0  2  0  0  0  0  0  0  0  0  0
   -3.5533   19.4197   37.4727 N   0  0  0  0  0  0  0  0  0  0  0  0
   -3.4742   17.0961   36.6549 C   0  0  2  0  0  0  0  0  0  0  0  0
   -3.7869   15.6180   37.0488 C   0  0  2  0  0  0  0  0  0  0  0  0
   -3.4526   14.7612   35.9485 O   0  0  0  0  0  0  0  0  0  0  0  0
   -5.2907   15.4406   37.3707 C   0  0  1  0  0  0  0  0  0  0  0  0
   -5.4935   14.0529   37.7353 O   0  0  0  0  0  0  0  0  0  0  0  0
   -6.7643   13.4748   37.3551 C   0  0  2  0  0  0  0  0  0  0  0  0
   -6.7574   12.0009   37.9075 C   0  0  2  0  0  0  0  0  0  0  0  0
   -6.6262   12.0163   39.3202 O   0  0  0  0  0  0  0  0  0  0  0  0
   -5.5704   11.2090   37.2393 C   0  0  1  0  0  0  0  0  0  0  0  0
   -5.5191    9.8028   37.7435 N   0  0  0  0  0  0  0  0  0  0  0  0
   -4.1043    9.3997   37.8941 C   0  0  0  0  0  0  0  0  0  0  0  0
   -5.7753   11.2220   35.6938 C   0  0  2  0  0  0  0  0  0  0  0  0
   -7.0120   10.5782   35.3910 O   0  0  0  0  0  0  0  0  0  0  0  0
   -4.6570   10.4790   34.9673 C   0  0  0  0  0  0  0  0  0  0  0  0
   -5.8281   12.7023   35.1967 C   0  0  0  0  0  0  0  0  0  0  0  0
   -6.8995   13.4528   35.8848 O   0  0  0  0  0  0  0  0  0  0  0  0
  1  3  1  0  0  0  0
  1  2  1  1  0  0  0
  3  5  1  0  0  0  0
  3  4  1  1  0  0  0
  5  6  1  6  0  0  0
  7  8  1  1  0  0  0
  7  5  1  0  0  0  0
  9 10  1  6  0  0  0
  9  7  1  0  0  0  0
 10  1  1  0  0  0  0
 11 13  1  1  0  0  0
 11  9  1  0  0  0  0
 12 11  1  0  0  0  0
 14 15  1  6  0  0  0
 16 14  1  0  0  0  0
 17 18  1  6  0  0  0
 17 16  1  0  0  0  0
 19  2  1  1  0  0  0
 19 20  1  0  0  0  0
 19 17  1  0  0  0  0
 20 21  1  6  0  0  0
 20 22  1  0  0  0  0
 22 23  1  1  0  0  0
 22 14  1  0  0  0  0
 24 23  1  6  0  0  0
 24 25  1  0  0  0  0
 25 27  1  0  0  0  0
 25 26  1  1  0  0  0
 27 28  1  1  0  0  0
 28 29  1  0  0  0  0
 30 31  1  6  0  0  0
 30 32  1  0  0  0  0
 30 27  1  0  0  0  0
 33 30  1  0  0  0  0
 34 33  1  0  0  0  0
 34 24  1  0  0  0  0
M  END
>  <CHROM.1>
-130.78997769,-61.80336012,-173.79835514,97.60643620,-177.82931776,-142.28029372
-3.28324250,15.37122401,36.38009109,-0.78287491,-0.40534903,-3.05755358

>  <Name>
lig.pdb

>  <RI>
0

>  <Rbt.Current_Directory>
/home/itssahil/PROJECTS/Mol_Feturizer/New_Systems/rnas/4k32

>  <Rbt.Executable>
rbdock ($Id: //depot/dev/client3/rdock/2013.1/src/exe/rbdock.cxx#4 $)

>  <Rbt.Library>
libRbt.so (2013.1, Build901 2013/11/27)

>  <Rbt.Parameter_File>
/export/apps/rDock/src/rDock_2013.1_src/data/scripts/dock_solv.prm

>  <Rbt.Receptor>
prm/pocket_docking_2.prm

>  <SCORE>
-12.5143

>  <SCORE.INTER>
-10.5967

>  <SCORE.INTER.CONST>
1

>  <SCORE.INTER.POLAR>
0

>  <SCORE.INTER.ROT>
6

>  <SCORE.INTER.SOLV>
21.0977

>  <SCORE.INTER.VDW>
-21.697

>  <SCORE.INTER.norm>
-0.311668

>  <SCORE.INTRA>
-2.23132

>  <SCORE.INTRA.DIHEDRAL>
-5.31508

>  <SCORE.INTRA.DIHEDRAL.0>
18.0069

>  <SCORE.INTRA.POLAR>
0

>  <SCORE.INTRA.POLAR.0>
0

>  <SCORE.INTRA.REPUL>
0

>  <SCORE.INTRA.REPUL.0>
0

>  <SCORE.INTRA.SOLV>
-0.941834

>  <SCORE.INTRA.SOLV.lig_0>
-70.7393

>  <SCORE.INTRA.VDW>
0.897134

>  <SCORE.INTRA.VDW.0>
-3.23471

>  <SCORE.INTRA.norm>
-0.0656272

>  <SCORE.RESTR>
0.313701

>  <SCORE.RESTR.CAVITY>
0.313701

>  <SCORE.RESTR.norm>
0.0092265

>  <SCORE.SYSTEM>
0

>  <SCORE.SYSTEM.CONST>
0

>  <SCORE.SYSTEM.DIHEDRAL>
0

>  <SCORE.SYSTEM.SOLV>
0

>  <SCORE.SYSTEM.norm>
0

>  <SCORE.heavy>
34

>  <SCORE.norm>
-0.368068

>  <RMSD>
1.447

$$$$
lig.pdb
 OpenBabel11021811503D
libRbt.so/2013.1/901 2013/11/27
 34 36  0  0  0  0  0  0  0  0999 V2000
   -1.4600   17.0863   35.4489 C   0  0  2  0  0  0  0  0  0  0  0  0
   -1.8288   17.5222   36.7620 O   0  0  0  0  0  0  0  0  0  0  0  0
    0.0675   16.6534   35.4721 C   0  0  2  0  0  0  0  0  0  0  0  0
    0.3109   15.5426   36.4217 N   0  0  0  0  0  0  0  0  0  0  0  0
    0.9430   17.8741   35.8521 C   0  0  1  0  0  0  0  0  0  0  0  0
    2.3240   17.5052   35.8714 O   0  0  0  0  0  0  0  0  0  0  0  0
    0.6787   19.0013   34.8381 C   0  0  2  0  0  0  0  0  0  0  0  0
    1.4831   20.1326   35.1748 O   0  0  0  0  0  0  0  0  0  0  0  0
   -0.8528   19.3766   34.8481 C   0  0  2  0  0  0  0  0  0  0  0  0
   -1.6829   18.1983   34.5191 O   0  0  0  0  0  0  0  0  0  0  0  0
   -1.1712   20.4985   33.8287 C   0  0  2  0  0  0  0  0  0  0  0  0
   -2.5002   20.9798   34.0379 O   0  0  0  0  0  0  0  0  0  0  0  0
   -1.0580   19.9910   32.3996 C   0  0  0  0  0  0  0  0  0  0  0  0
   -4.9401   16.3068   39.4376 C   0  0  2  0  0  0  0  0  0  0  0  0
   -6.2711   16.0452   39.9910 N   0  0  0  0  0  0  0  0  0  0  0  0
   -4.9152   17.7914   38.9801 C   0  0  0  0  0  0  0  0  0  0  0  0
   -3.5024   18.0952   38.4118 C   0  0  2  0  0  0  0  0  0  0  0  0
   -3.4309   19.4968   37.9699 N   0  0  0  0  0  0  0  0  0  0  0  0
   -3.1743   17.1654   37.2129 C   0  0  2  0  0  0  0  0  0  0  0  0
   -3.2505   15.6792   37.6852 C   0  0  2  0  0  0  0  0  0  0  0  0
   -2.9584   14.8209   36.5741 O   0  0  0  0  0  0  0  0  0  0  0  0
   -4.6672   15.3403   38.2092 C   0  0  1  0  0  0  0  0  0  0  0  0
   -4.6501   13.9554   38.6354 O   0  0  0  0  0  0  0  0  0  0  0  0
   -5.9262   13.3931   39.0213 C   0  0  2  0  0  0  0  0  0  0  0  0
   -5.6863   11.8485   39.2055 C   0  0  2  0  0  0  0  0  0  0  0  0
   -4.7229   11.6285   40.2237 O   0  0  0  0  0  0  0  0  0  0  0  0
   -5.2075   11.2375   37.8343 C   0  0  1  0  0  0  0  0  0  0  0  0
   -4.9569    9.7697   37.9651 N   0  0  0  0  0  0  0  0  0  0  0  0
   -3.5036    9.5205   37.8530 C   0  0  0  0  0  0  0  0  0  0  0  0
   -6.3078   11.5047   36.7627 C   0  0  2  0  0  0  0  0  0  0  0  0
   -7.5145   10.8662   37.1772 O   0  0  0  0  0  0  0  0  0  0  0  0
   -5.9155   10.9486   35.3962 C   0  0  0  0  0  0  0  0  0  0  0  0
   -6.5502   13.0442   36.6505 C   0  0  0  0  0  0  0  0  0  0  0  0
   -6.9282   13.6164   37.9598 O   0  0  0  0  0  0  0  0  0  0  0  0
  1  3  1  0  0  0  0
  1  2  1  1  0  0  0
  3  5  1  0  0  0  0
  3  4  1  1  0  0  0
  5  6  1  6  0  0  0
  7  8  1  1  0  0  0
  7  5  1  0  0  0  0
  9 10  1  6  0  0  0
  9  7  1  0  0  0  0
 10  1  1  0  0  0  0
 11 13  1  6  0  0  0
 11  9  1  0  0  0  0
 12 11  1  0  0  0  0
 14 15  1  6  0  0  0
 16 14  1  0  0  0  0
 17 18  1  6  0  0  0
 17 16  1  0  0  0  0
 19  2  1  1  0  0  0
 19 20  1  0  0  0  0
 19 17  1  0  0  0  0
 20 21  1  6  0  0  0
 20 22  1  0  0  0  0
 22 23  1  1  0  0  0
 22 14  1  0  0  0  0
 24 23  1  6  0  0  0
 24 25  1  0  0  0  0
 25 27  1  0  0  0  0
 25 26  1  1  0  0  0
 27 28  1  1  0  0  0
 28 29  1  0  0  0  0
 30 31  1  1  0  0  0
 30 32  1  0  0  0  0
 30 27  1  0  0  0  0
 33 30  1  0  0  0  0
 34 33  1  0  0  0  0
 34 24  1  0  0  0  0
M  END
>  <CHROM.1>
-142.35425803,-169.35731654,-162.36549724,70.64405542,170.85966536,-110.85620676
-3.21722055,15.65291531,36.88085136,-0.85726690,-0.54677256,-3.12035318

>  <Name>
lig.pdb

>  <RI>
0

>  <Rbt.Current_Directory>
/home/itssahil/PROJECTS/Mol_Feturizer/New_Systems/rnas/4k32

>  <Rbt.Executable>
rbdock ($Id: //depot/dev/client3/rdock/2013.1/src/exe/rbdock.cxx#4 $)

>  <Rbt.Library>
libRbt.so (2013.1, Build901 2013/11/27)

>  <Rbt.Parameter_File>
/export/apps/rDock/src/rDock_2013.1_src/data/scripts/dock_solv.prm

>  <Rbt.Receptor>
prm/pocket_docking_5.prm

>  <SCORE>
-13.9754

>  <SCORE.INTER>
-9.88208

>  <SCORE.INTER.CONST>
1

>  <SCORE.INTER.POLAR>
0

>  <SCORE.INTER.ROT>
6

>  <SCORE.INTER.SOLV>
20.0152

>  <SCORE.INTER.VDW>
-20.8598

>  <SCORE.INTER.norm>
-0.29065

>  <SCORE.INTRA>
-4.09334

>  <SCORE.INTRA.DIHEDRAL>
-9.01326

>  <SCORE.INTRA.DIHEDRAL.0>
18.0069

>  <SCORE.INTRA.POLAR>
0

>  <SCORE.INTRA.POLAR.0>
0

>  <SCORE.INTRA.REPUL>
0

>  <SCORE.INTRA.REPUL.0>
0

>  <SCORE.INTRA.SOLV>
-0.392002

>  <SCORE.INTRA.SOLV.lig_0>
-70.7393

>  <SCORE.INTRA.VDW>
0.609296

>  <SCORE.INTRA.VDW.0>
-3.23471

>  <SCORE.INTRA.norm>
-0.120392

>  <SCORE.RESTR>
0

>  <SCORE.RESTR.CAVITY>
0

>  <SCORE.RESTR.norm>
0

>  <SCORE.SYSTEM>
0

>  <SCORE.SYSTEM.CONST>
0

>  <SCORE.SYSTEM.DIHEDRAL>
0

>  <SCORE.SYSTEM.SOLV>
0

>  <SCORE.SYSTEM.norm>
0

>  <SCORE.heavy>
34

>  <SCORE.norm>
-0.411042

>  <RMSD>
1.495

$$$$
lig.pdb
 OpenBabel11021811503D
libRbt.so/2013.1/901 2013/11/27
 34 36  0  0  0  0  0  0  0  0999 V2000
   -1.2098   16.6318   35.2062 C   0  0  2  0  0  0  0  0  0  0  0  0
   -1.8323   17.2377   36.3444 O   0  0  0  0  0  0  0  0  0  0  0  0
    0.1662   15.9878   35.6675 C   0  0  2  0  0  0  0  0  0  0  0  0
   -0.0324   14.9477   36.7036 N   0  0  0  0  0  0  0  0  0  0  0  0
    1.0998   17.1000   36.2083 C   0  0  1  0  0  0  0  0  0  0  0  0
    2.3479   16.5397   36.6225 O   0  0  0  0  0  0  0  0  0  0  0  0
    1.2980   18.1532   35.1036 C   0  0  2  0  0  0  0  0  0  0  0  0
    2.1606   19.1836   35.5880 O   0  0  0  0  0  0  0  0  0  0  0  0
   -0.0999   18.7443   34.6761 C   0  0  2  0  0  0  0  0  0  0  0  0
   -0.9967   17.6721   34.1945 O   0  0  0  0  0  0  0  0  0  0  0  0
    0.0473   19.7996   33.5518 C   0  0  2  0  0  0  0  0  0  0  0  0
    0.8790   20.8716   33.9998 O   0  0  0  0  0  0  0  0  0  0  0  0
   -1.3049   20.3688   33.1518 C   0  0  0  0  0  0  0  0  0  0  0  0
   -5.4820   16.2213   38.3352 C   0  0  2  0  0  0  0  0  0  0  0  0
   -6.9103   16.0563   38.6161 N   0  0  0  0  0  0  0  0  0  0  0  0
   -5.2583   17.7083   37.9442 C   0  0  0  0  0  0  0  0  0  0  0  0
   -3.7440   17.9092   37.6658 C   0  0  2  0  0  0  0  0  0  0  0  0
   -3.4839   19.3093   37.2959 N   0  0  0  0  0  0  0  0  0  0  0  0
   -3.2622   16.9811   36.5186 C   0  0  2  0  0  0  0  0  0  0  0  0
   -3.5390   15.4963   36.9143 C   0  0  2  0  0  0  0  0  0  0  0  0
   -3.1041   14.6406   35.8489 O   0  0  0  0  0  0  0  0  0  0  0  0
   -5.0513   15.2617   37.1472 C   0  0  1  0  0  0  0  0  0  0  0  0
   -5.2204   13.8714   37.5191 O   0  0  0  0  0  0  0  0  0  0  0  0
   -6.5239   13.2984   37.2619 C   0  0  2  0  0  0  0  0  0  0  0  0
   -6.4398   11.7954   37.7214 C   0  0  2  0  0  0  0  0  0  0  0  0
   -6.1380   11.7310   39.1064 O   0  0  0  0  0  0  0  0  0  0  0  0
   -5.3372   11.0602   36.8690 C   0  0  1  0  0  0  0  0  0  0  0  0
   -5.2152    9.6281   37.2795 N   0  0  0  0  0  0  0  0  0  0  0  0
   -3.8180    9.3639   37.6853 C   0  0  0  0  0  0  0  0  0  0  0  0
   -5.7284   11.1595   35.3632 C   0  0  2  0  0  0  0  0  0  0  0  0
   -6.9882   10.5169   35.1746 O   0  0  0  0  0  0  0  0  0  0  0  0
   -4.7016   10.4754   34.4642 C   0  0  0  0  0  0  0  0  0  0  0  0
   -5.8516   12.6651   34.9643 C   0  0  0  0  0  0  0  0  0  0  0  0
   -6.8366   13.3595   35.8200 O   0  0  0  0  0  0  0  0  0  0  0  0
  1  3  1  0  0  0  0
  1  2  1  1  0  0  0
  3  5  1  0  0  0  0
  3  4  1  1  0  0  0
  5  6  1  6  0  0  0
  7  8  1  1  0  0  0
  7  5  1  0  0  0  0
  9 10  1  6  0  0  0
  9  7  1  0  0  0  0
 10  1  1  0  0  0  0
 11 13  1  1  0  0  0
 11  9  1  0  0  0  0
 12 11  1  0  0  0  0
 14 15  1  6  0  0  0
 16 14  1  0  0  0  0
 17 18  1  6  0  0  0
 17 16  1  0  0  0  0
 19  2  1  1  0  0  0
 19 20  1  0  0  0  0
 19 17  1  0  0  0  0
 20 21  1  6  0  0  0
 20 22  1  0  0  0  0
 22 23  1  1  0  0  0
 22 14  1  0  0  0  0
 24 23  1  6  0  0  0
 24 25  1  0  0  0  0
 25 27  1  0  0  0  0
 25 26  1  1  0  0  0
 27 28  1  1  0  0  0
 28 29  1  0  0  0  0
 30 31  1  6  0  0  0
 30 32  1  0  0  0  0
 30 27  1  0  0  0  0
 33 30  1  0  0  0  0
 34 33  1  0  0  0  0
 34 24  1  0  0  0  0
M  END
>  <CHROM.1>
-134.95089030,-59.46307172,-171.25211777,88.05127791,178.91861338,-122.95177864
-3.10022167,15.33968186,36.23514711,-0.82007231,-0.34282554,-3.08062317

>  <Name>
lig.pdb

>  <RI>
0

>  <Rbt.Current_Directory>
/home/itssahil/PROJECTS/Mol_Feturizer/New_Systems/rnas/4k32

>  <Rbt.Executable>
rbdock ($Id: //depot/dev/client3/rdock/2013.1/src/exe/rbdock.cxx#4 $)

>  <Rbt.Library>
libRbt.so (2013.1, Build901 2013/11/27)

>  <Rbt.Parameter_File>
/export/apps/rDock/src/rDock_2013.1_src/data/scripts/dock_solv.prm

>  <Rbt.Receptor>
prm/pocket_docking_3.prm

>  <SCORE>
-14.976

>  <SCORE.INTER>
-11.0345

>  <SCORE.INTER.CONST>
1

>  <SCORE.INTER.POLAR>
0

>  <SCORE.INTER.ROT>
6

>  <SCORE.INTER.SOLV>
20.7905

>  <SCORE.INTER.VDW>
-21.8865

>  <SCORE.INTER.norm>
-0.324544

>  <SCORE.INTRA>
-3.94761

>  <SCORE.INTRA.DIHEDRAL>
-7.02712

>  <SCORE.INTRA.DIHEDRAL.0>
18.0069

>  <SCORE.INTRA.POLAR>
0

>  <SCORE.INTRA.POLAR.0>
0

>  <SCORE.INTRA.REPUL>
0

>  <SCORE.INTRA.REPUL.0>
0

>  <SCORE.INTRA.SOLV>
-0.804473

>  <SCORE.INTRA.SOLV.lig_0>
-70.7393

>  <SCORE.INTRA.VDW>
-0.0318179

>  <SCORE.INTRA.VDW.0>
-3.23471

>  <SCORE.INTRA.norm>
-0.116106

>  <SCORE.RESTR>
0.00611901

>  <SCORE.RESTR.CAVITY>
0.00611901

>  <SCORE.RESTR.norm>
0.000179971

>  <SCORE.SYSTEM>
0

>  <SCORE.SYSTEM.CONST>
0

>  <SCORE.SYSTEM.DIHEDRAL>
0

>  <SCORE.SYSTEM.SOLV>
0

>  <SCORE.SYSTEM.norm>
0

>  <SCORE.heavy>
34

>  <SCORE.norm>
-0.44047

>  <RMSD>
1.571

$$$$
lig.pdb
 OpenBabel11021811503D
libRbt.so/2013.1/901 2013/11/27
 34 36  0  0  0  0  0  0  0  0999 V2000
   -1.2441   16.4505   35.2423 C   0  0  2  0  0  0  0  0  0  0  0  0
   -1.8096   16.9435   36.4619 O   0  0  0  0  0  0  0  0  0  0  0  0
    0.3284   16.3317   35.4277 C   0  0  2  0  0  0  0  0  0  0  0  0
    0.6850   15.3988   36.5219 N   0  0  0  0  0  0  0  0  0  0  0  0
    0.9204   17.7344   35.7159 C   0  0  1  0  0  0  0  0  0  0  0  0
    2.3380   17.6486   35.8790 O   0  0  0  0  0  0  0  0  0  0  0  0
    0.5462   18.6722   34.5543 C   0  0  2  0  0  0  0  0  0  0  0  0
    1.0895   19.9691   34.8055 O   0  0  0  0  0  0  0  0  0  0  0  0
   -1.0225   18.7377   34.4086 C   0  0  2  0  0  0  0  0  0  0  0  0
   -1.5829   17.3907   34.1689 O   0  0  0  0  0  0  0  0  0  0  0  0
   -1.4482   19.6591   33.2385 C   0  0  2  0  0  0  0  0  0  0  0  0
   -0.6575   19.3717   32.0836 O   0  0  0  0  0  0  0  0  0  0  0  0
   -1.2660   21.1252   33.5992 C   0  0  0  0  0  0  0  0  0  0  0  0
   -5.4856   16.0068   38.4434 C   0  0  2  0  0  0  0  0  0  0  0  0
   -6.9175   15.8955   38.7318 N   0  0  0  0  0  0  0  0  0  0  0  0
   -5.1957   17.4982   38.1186 C   0  0  0  0  0  0  0  0  0  0  0  0
   -3.6761   17.6412   37.8334 C   0  0  2  0  0  0  0  0  0  0  0  0
   -3.3538   19.0434   37.5254 N   0  0  0  0  0  0  0  0  0  0  0  0
   -3.2484   16.7459   36.6396 C   0  0  2  0  0  0  0  0  0  0  0  0
   -3.5912   15.2589   36.9697 C   0  0  2  0  0  0  0  0  0  0  0  0
   -3.2062   14.4341   35.8615 O   0  0  0  0  0  0  0  0  0  0  0  0
   -5.1108   15.0843   37.2080 C   0  0  1  0  0  0  0  0  0  0  0  0
   -5.3417   13.6876   37.5174 O   0  0  0  0  0  0  0  0  0  0  0  0
   -6.6304   13.1553   37.1306 C   0  0  2  0  0  0  0  0  0  0  0  0
   -6.6036   11.6272   37.5069 C   0  0  2  0  0  0  0  0  0  0  0  0
   -6.4086   11.4783   38.9044 O   0  0  0  0  0  0  0  0  0  0  0  0
   -5.4506   10.9207   36.6979 C   0  0  1  0  0  0  0  0  0  0  0  0
   -5.3814    9.4655   37.0323 N   0  0  0  0  0  0  0  0  0  0  0  0
   -4.0109    9.1431   37.4846 C   0  0  0  0  0  0  0  0  0  0  0  0
   -5.7252   11.1130   35.1754 C   0  0  2  0  0  0  0  0  0  0  0  0
   -6.9765   10.5065   34.8561 O   0  0  0  0  0  0  0  0  0  0  0  0
   -4.6435   10.4617   34.3174 C   0  0  0  0  0  0  0  0  0  0  0  0
   -5.7954   12.6410   34.8568 C   0  0  0  0  0  0  0  0  0  0  0  0
   -6.8320   13.3044   35.6753 O   0  0  0  0  0  0  0  0  0  0  0  0
  1  3  1  0  0  0  0
  1  2  1  1  0  0  0
  3  5  1  0  0  0  0
  3  4  1  1  0  0  0
  5  6  1  6  0  0  0
  7  8  1  1  0  0  0
  7  5  1  0  0  0  0
  9 10  1  6  0  0  0
  9  7  1  0  0  0  0
 10  1  1  0  0  0  0
 11 13  1  1  0  0  0
 11  9  1  0  0  0  0
 12 11  1  0  0  0  0
 14 15  1  6  0  0  0
 16 14  1  0  0  0  0
 17 18  1  6  0  0  0
 17 16  1  0  0  0  0
 19  2  1  1  0  0  0
 19 20  1  0  0  0  0
 19 17  1  0  0  0  0
 20 21  1  6  0  0  0
 20 22  1  0  0  0  0
 22 23  1  1  0  0  0
 22 14  1  0  0  0  0
 24 23  1  6  0  0  0
 24 25  1  0  0  0  0
 25 27  1  0  0  0  0
 25 26  1  1  0  0  0
 27 28  1  6  0  0  0
 28 29  1  0  0  0  0
 30 31  1  6  0  0  0
 30 32  1  0  0  0  0
 30 27  1  0  0  0  0
 33 30  1  0  0  0  0
 34 33  1  0  0  0  0
 34 24  1  0  0  0  0
M  END
>  <CHROM.1>
-162.15708610,45.89414245,-166.71136537,93.76163382,177.30506882,-124.72687771
-3.29921433,15.30335830,36.05129636,-0.79706925,-0.53350554,-2.94727328

>  <Name>
lig.pdb

>  <RI>
0

>  <Rbt.Current_Directory>
/home/itssahil/PROJECTS/Mol_Feturizer/New_Systems/rnas/4k32

>  <Rbt.Executable>
rbdock ($Id: //depot/dev/client3/rdock/2013.1/src/exe/rbdock.cxx#4 $)

>  <Rbt.Library>
libRbt.so (2013.1, Build901 2013/11/27)

>  <Rbt.Parameter_File>
/export/apps/rDock/src/rDock_2013.1_src/data/scripts/dock_solv.prm

>  <Rbt.Receptor>
prm/pocket_docking_4.prm

>  <SCORE>
-15.8302

>  <SCORE.INTER>
-10.5534

>  <SCORE.INTER.CONST>
1

>  <SCORE.INTER.POLAR>
0

>  <SCORE.INTER.ROT>
6

>  <SCORE.INTER.SOLV>
22.4872

>  <SCORE.INTER.VDW>
-22.1313

>  <SCORE.INTER.norm>
-0.310393

>  <SCORE.INTRA>
-5.27683

>  <SCORE.INTRA.DIHEDRAL>
-9.49531

>  <SCORE.INTRA.DIHEDRAL.0>
18.0069

>  <SCORE.INTRA.POLAR>
0

>  <SCORE.INTRA.POLAR.0>
0

>  <SCORE.INTRA.REPUL>
0

>  <SCORE.INTRA.REPUL.0>
0

>  <SCORE.INTRA.SOLV>
-1.54063

>  <SCORE.INTRA.SOLV.lig_0>
-70.7393

>  <SCORE.INTRA.VDW>
0.24114

>  <SCORE.INTRA.VDW.0>
-3.23471

>  <SCORE.INTRA.norm>
-0.155201

>  <SCORE.RESTR>
0

>  <SCORE.RESTR.CAVITY>
0

>  <SCORE.RESTR.norm>
0

>  <SCORE.SYSTEM>
0

>  <SCORE.SYSTEM.CONST>
0

>  <SCORE.SYSTEM.DIHEDRAL>
0

>  <SCORE.SYSTEM.SOLV>
0

>  <SCORE.SYSTEM.norm>
0

>  <SCORE.heavy>
34

>  <SCORE.norm>
-0.465594

>  <RMSD>
1.571

$$$$
lig.pdb
 OpenBabel11021811503D
libRbt.so/2013.1/901 2013/11/27
 34 36  0  0  0  0  0  0  0  0999 V2000
   -1.1658   16.3481   35.3281 C   0  0  2  0  0  0  0  0  0  0  0  0
   -1.7473   16.8536   36.5350 O   0  0  0  0  0  0  0  0  0  0  0  0
    0.4084   16.2711   35.5210 C   0  0  2  0  0  0  0  0  0  0  0  0
    0.7833   15.3708   36.6362 N   0  0  0  0  0  0  0  0  0  0  0  0
    0.9657   17.6934   35.7805 C   0  0  1  0  0  0  0  0  0  0  0  0
    2.3843   17.6452   35.9499 O   0  0  0  0  0  0  0  0  0  0  0  0
    0.5734   18.5967   34.5978 C   0  0  2  0  0  0  0  0  0  0  0  0
    1.0847   19.9114   34.8226 O   0  0  0  0  0  0  0  0  0  0  0  0
   -0.9959   18.6214   34.4458 C   0  0  2  0  0  0  0  0  0  0  0  0
   -1.5230   17.2565   34.2336 O   0  0  0  0  0  0  0  0  0  0  0  0
   -1.4392   19.5069   33.2547 C   0  0  2  0  0  0  0  0  0  0  0  0
   -0.6140   19.2397   32.1192 O   0  0  0  0  0  0  0  0  0  0  0  0
   -1.3297   20.9844   33.5976 C   0  0  0  0  0  0  0  0  0  0  0  0
   -5.4800   15.9987   38.4461 C   0  0  2  0  0  0  0  0  0  0  0  0
   -6.9195   15.9140   38.7047 N   0  0  0  0  0  0  0  0  0  0  0  0
   -5.1584   17.4816   38.1123 C   0  0  0  0  0  0  0  0  0  0  0  0
   -3.6308   17.5965   37.8585 C   0  0  2  0  0  0  0  0  0  0  0  0
   -3.2787   18.9898   37.5431 N   0  0  0  0  0  0  0  0  0  0  0  0
   -3.1927   16.6816   36.6835 C   0  0  2  0  0  0  0  0  0  0  0  0
   -3.5672   15.2040   37.0215 C   0  0  2  0  0  0  0  0  0  0  0  0
   -3.1724   14.3612   35.9304 O   0  0  0  0  0  0  0  0  0  0  0  0
   -5.0942   15.0570   37.2287 C   0  0  1  0  0  0  0  0  0  0  0  0
   -5.3550   13.6677   37.5474 O   0  0  0  0  0  0  0  0  0  0  0  0
   -6.6446   13.1531   37.1401 C   0  0  2  0  0  0  0  0  0  0  0  0
   -6.6421   11.6232   37.5102 C   0  0  2  0  0  0  0  0  0  0  0  0
   -6.4689   11.4662   38.9097 O   0  0  0  0  0  0  0  0  0  0  0  0
   -5.4867   10.9057   36.7147 C   0  0  1  0  0  0  0  0  0  0  0  0
   -5.4403    9.4484   37.0438 N   0  0  0  0  0  0  0  0  0  0  0  0
   -4.0918    9.1150   37.5509 C   0  0  0  0  0  0  0  0  0  0  0  0
   -5.7372   11.1076   35.1892 C   0  0  2  0  0  0  0  0  0  0  0  0
   -6.9913   10.5181   34.8497 O   0  0  0  0  0  0  0  0  0  0  0  0
   -4.6516   10.4464   34.3439 C   0  0  0  0  0  0  0  0  0  0  0  0
   -5.7839   12.6377   34.8762 C   0  0  0  0  0  0  0  0  0  0  0  0
   -6.8237   13.3106   35.6828 O   0  0  0  0  0  0  0  0  0  0  0  0
  1  3  1  0  0  0  0
  1  2  1  1  0  0  0
  3  5  1  0  0  0  0
  3  4  1  1  0  0  0
  5  6  1  6  0  0  0
  7  8  1  1  0  0  0
  7  5  1  0  0  0  0
  9 10  1  6  0  0  0
  9  7  1  0  0  0  0
 10  1  1  0  0  0  0
 11 13  1  1  0  0  0
 11  9  1  0  0  0  0
 12 11  1  0  0  0  0
 14 15  1  6  0  0  0
 16 14  1  0  0  0  0
 17 18  1  6  0  0  0
 17 16  1  0  0  0  0
 19  2  1  1  0  0  0
 19 20  1  0  0  0  0
 19 17  1  0  0  0  0
 20 21  1  6  0  0  0
 20 22  1  0  0  0  0
 22 23  1  1  0  0  0
 22 14  1  0  0  0  0
 24 23  1  6  0  0  0
 24 25  1  0  0  0  0
 25 27  1  0  0  0  0
 25 26  1  1  0  0  0
 27 28  1  6  0  0  0
 28 29  1  0  0  0  0
 30 31  1  6  0  0  0
 30 32  1  0  0  0  0
 30 27  1  0  0  0  0
 33 30  1  0  0  0  0
 34 33  1  0  0  0  0
 34 24  1  0  0  0  0
M  END
>  <CHROM.1>
-164.96089317,44.33165909,-166.21911396,93.67177612,176.38036264,-123.11640028
-3.28550553,15.25721301,36.08421873,-0.78826123,-0.52113544,-2.94631831

>  <Name>
lig.pdb

>  <RI>
0

>  <Rbt.Current_Directory>
/home/itssahil/PROJECTS/Mol_Feturizer/New_Systems/rnas/4k32

>  <Rbt.Executable>
rbdock ($Id: //depot/dev/client3/rdock/2013.1/src/exe/rbdock.cxx#4 $)

>  <Rbt.Library>
libRbt.so (2013.1, Build901 2013/11/27)

>  <Rbt.Parameter_File>
/export/apps/rDock/src/rDock_2013.1_src/data/scripts/dock_solv.prm

>  <Rbt.Receptor>
prm/pocket_docking_3.prm

>  <SCORE>
-15.8029

>  <SCORE.INTER>
-10.2624

>  <SCORE.INTER.CONST>
1

>  <SCORE.INTER.POLAR>
0

>  <SCORE.INTER.ROT>
6

>  <SCORE.INTER.SOLV>
22.6388

>  <SCORE.INTER.VDW>
-21.9879

>  <SCORE.INTER.norm>
-0.301834

>  <SCORE.INTRA>
-5.54053

>  <SCORE.INTRA.DIHEDRAL>
-9.65963

>  <SCORE.INTRA.DIHEDRAL.0>
18.0069

>  <SCORE.INTRA.POLAR>
0

>  <SCORE.INTRA.POLAR.0>
0

>  <SCORE.INTRA.REPUL>
0

>  <SCORE.INTRA.REPUL.0>
0

>  <SCORE.INTRA.SOLV>
-1.59514

>  <SCORE.INTRA.SOLV.lig_0>
-70.7393

>  <SCORE.INTRA.VDW>
0.086857

>  <SCORE.INTRA.VDW.0>
-3.23471

>  <SCORE.INTRA.norm>
-0.162957

>  <SCORE.RESTR>
0

>  <SCORE.RESTR.CAVITY>
0

>  <SCORE.RESTR.norm>
0

>  <SCORE.SYSTEM>
0

>  <SCORE.SYSTEM.CONST>
0

>  <SCORE.SYSTEM.DIHEDRAL>
0

>  <SCORE.SYSTEM.SOLV>
0

>  <SCORE.SYSTEM.norm>
0

>  <SCORE.heavy>
34

>  <SCORE.norm>
-0.464791

>  <RMSD>
1.581

$$$$
lig.pdb
 OpenBabel11021811503D
libRbt.so/2013.1/901 2013/11/27
 34 36  0  0  0  0  0  0  0  0999 V2000
   -1.1570   16.3294   35.2848 C   0  0  2  0  0  0  0  0  0  0  0  0
   -1.7422   16.8032   36.5027 O   0  0  0  0  0  0  0  0  0  0  0  0
    0.4173   16.2548   35.4778 C   0  0  2  0  0  0  0  0  0  0  0  0
    0.7949   15.3295   36.5715 N   0  0  0  0  0  0  0  0  0  0  0  0
    0.9680   17.6729   35.7723 C   0  0  1  0  0  0  0  0  0  0  0  0
    2.3866   17.6269   35.9423 O   0  0  0  0  0  0  0  0  0  0  0  0
    0.5731   18.6027   34.6112 C   0  0  2  0  0  0  0  0  0  0  0  0
    1.0782   19.9139   34.8682 O   0  0  0  0  0  0  0  0  0  0  0  0
   -0.9961   18.6241   34.4577 C   0  0  2  0  0  0  0  0  0  0  0  0
   -1.5169   17.2624   34.2120 O   0  0  0  0  0  0  0  0  0  0  0  0
   -1.4420   19.5361   33.2878 C   0  0  2  0  0  0  0  0  0  0  0  0
   -0.5869   19.3316   32.1615 O   0  0  0  0  0  0  0  0  0  0  0  0
   -1.3833   21.0037   33.6818 C   0  0  0  0  0  0  0  0  0  0  0  0
   -5.4885   15.9310   38.3791 C   0  0  2  0  0  0  0  0  0  0  0  0
   -6.9297   15.8461   38.6276 N   0  0  0  0  0  0  0  0  0  0  0  0
   -5.1618   17.4175   38.0669 C   0  0  0  0  0  0  0  0  0  0  0  0
   -3.6325   17.5325   37.8242 C   0  0  2  0  0  0  0  0  0  0  0  0
   -3.2755   18.9291   37.5294 N   0  0  0  0  0  0  0  0  0  0  0  0
   -3.1888   16.6322   36.6400 C   0  0  2  0  0  0  0  0  0  0  0  0
   -3.5685   15.1511   36.9561 C   0  0  2  0  0  0  0  0  0  0  0  0
   -3.1685   14.3220   35.8565 O   0  0  0  0  0  0  0  0  0  0  0  0
   -5.0971   15.0047   37.1518 C   0  0  1  0  0  0  0  0  0  0  0  0
   -5.3627   13.6118   37.4507 O   0  0  0  0  0  0  0  0  0  0  0  0
   -6.6558   13.1088   37.0402 C   0  0  2  0  0  0  0  0  0  0  0  0
   -6.6748   11.5832   37.4267 C   0  0  2  0  0  0  0  0  0  0  0  0
   -6.5128   11.4392   38.8290 O   0  0  0  0  0  0  0  0  0  0  0  0
   -5.5232   10.8428   36.6468 C   0  0  1  0  0  0  0  0  0  0  0  0
   -5.4971    9.3887   36.9920 N   0  0  0  0  0  0  0  0  0  0  0  0
   -4.1324    9.0253   37.4304 C   0  0  0  0  0  0  0  0  0  0  0  0
   -5.7610   11.0313   35.1176 C   0  0  2  0  0  0  0  0  0  0  0  0
   -7.0201   10.4537   34.7760 O   0  0  0  0  0  0  0  0  0  0  0  0
   -4.6781   10.3475   34.2869 C   0  0  0  0  0  0  0  0  0  0  0  0
   -5.7866   12.5583   34.7878 C   0  0  0  0  0  0  0  0  0  0  0  0
   -6.8232   13.2527   35.5801 O   0  0  0  0  0  0  0  0  0  0  0  0
  1  3  1  0  0  0  0
  1  2  1  1  0  0  0
  3  5  1  0  0  0  0
  3  4  1  1  0  0  0
  5  6  1  6  0  0  0
  7  8  1  1  0  0  0
  7  5  1  0  0  0  0
  9 10  1  6  0  0  0
  9  7  1  0  0  0  0
 10  1  1  0  0  0  0
 11 13  1  1  0  0  0
 11  9  1  0  0  0  0
 12 11  1  0  0  0  0
 14 15  1  6  0  0  0
 16 14  1  0  0  0  0
 17 18  1  6  0  0  0
 17 16  1  0  0  0  0
 19  2  1  1  0  0  0
 19 20  1  0  0  0  0
 19 17  1  0  0  0  0
 20 21  1  6  0  0  0
 20 22  1  0  0  0  0
 22 23  1  1  0  0  0
 22 14  1  0  0  0  0
 24 23  1  6  0  0  0
 24 25  1  0  0  0  0
 25 27  1  0  0  0  0
 25 26  1  1  0  0  0
 27 28  1  6  0  0  0
 28 29  1  0  0  0  0
 30 31  1  6  0  0  0
 30 32  1  0  0  0  0
 30 27  1  0  0  0  0
 33 30  1  0  0  0  0
 34 33  1  0  0  0  0
 34 24  1  0  0  0  0
M  END
>  <CHROM.1>
-165.50086499,42.45065128,-165.36190291,93.09283323,178.03728175,-126.67312691
-3.29493042,15.22005333,36.04089305,-0.79880069,-0.50500976,-2.94943540

>  <Name>
lig.pdb

>  <RI>
0

>  <Rbt.Current_Directory>
/home/itssahil/PROJECTS/Mol_Feturizer/New_Systems/rnas/4k32

>  <Rbt.Executable>
rbdock ($Id: //depot/dev/client3/rdock/2013.1/src/exe/rbdock.cxx#4 $)

>  <Rbt.Library>
libRbt.so (2013.1, Build901 2013/11/27)

>  <Rbt.Parameter_File>
/export/apps/rDock/src/rDock_2013.1_src/data/scripts/dock_solv.prm

>  <Rbt.Receptor>
prm/pocket_docking_4.prm

>  <SCORE>
-15.7651

>  <SCORE.INTER>
-10.2128

>  <SCORE.INTER.CONST>
1

>  <SCORE.INTER.POLAR>
0

>  <SCORE.INTER.ROT>
6

>  <SCORE.INTER.SOLV>
22.9698

>  <SCORE.INTER.VDW>
-22.0651

>  <SCORE.INTER.norm>
-0.300376

>  <SCORE.INTRA>
-5.55231

>  <SCORE.INTRA.DIHEDRAL>
-9.60039

>  <SCORE.INTRA.DIHEDRAL.0>
18.0069

>  <SCORE.INTRA.POLAR>
0

>  <SCORE.INTRA.POLAR.0>
0

>  <SCORE.INTRA.REPUL>
0

>  <SCORE.INTRA.REPUL.0>
0

>  <SCORE.INTRA.SOLV>
-1.5718

>  <SCORE.INTRA.SOLV.lig_0>
-70.7393

>  <SCORE.INTRA.VDW>
0.0337878

>  <SCORE.INTRA.VDW.0>
-3.23471

>  <SCORE.INTRA.norm>
-0.163303

>  <SCORE.RESTR>
0

>  <SCORE.RESTR.CAVITY>
0

>  <SCORE.RESTR.norm>
0

>  <SCORE.SYSTEM>
0

>  <SCORE.SYSTEM.CONST>
0

>  <SCORE.SYSTEM.DIHEDRAL>
0

>  <SCORE.SYSTEM.SOLV>
0

>  <SCORE.SYSTEM.norm>
0

>  <SCORE.heavy>
34

>  <SCORE.norm>
-0.46368

>  <RMSD>
1.614

$$$$
lig.pdb
 OpenBabel11021811503D
libRbt.so/2013.1/901 2013/11/27
 34 36  0  0  0  0  0  0  0  0999 V2000
   -1.1596   16.3117   35.3209 C   0  0  2  0  0  0  0  0  0  0  0  0
   -1.7398   16.7966   36.5369 O   0  0  0  0  0  0  0  0  0  0  0  0
    0.4156   16.2404   35.5075 C   0  0  2  0  0  0  0  0  0  0  0  0
    0.7990   15.3261   36.6084 N   0  0  0  0  0  0  0  0  0  0  0  0
    0.9662   17.6617   35.7858 C   0  0  1  0  0  0  0  0  0  0  0  0
    2.3856   17.6187   35.9498 O   0  0  0  0  0  0  0  0  0  0  0  0
    0.5651   18.5799   34.6176 C   0  0  2  0  0  0  0  0  0  0  0  0
    1.0701   19.8940   34.8597 O   0  0  0  0  0  0  0  0  0  0  0  0
   -1.0048   18.5984   34.4711 C   0  0  2  0  0  0  0  0  0  0  0  0
   -1.5253   17.2339   34.2408 O   0  0  0  0  0  0  0  0  0  0  0  0
   -1.4568   19.4986   33.2944 C   0  0  2  0  0  0  0  0  0  0  0  0
   -0.6229   19.2650   32.1579 O   0  0  0  0  0  0  0  0  0  0  0  0
   -1.3715   20.9712   33.6647 C   0  0  0  0  0  0  0  0  0  0  0  0
   -5.4898   15.9657   38.4246 C   0  0  2  0  0  0  0  0  0  0  0  0
   -6.9313   15.8926   38.6753 N   0  0  0  0  0  0  0  0  0  0  0  0
   -5.1534   17.4473   38.0994 C   0  0  0  0  0  0  0  0  0  0  0  0
   -3.6236   17.5499   37.8541 C   0  0  2  0  0  0  0  0  0  0  0  0
   -3.2575   18.9415   37.5471 N   0  0  0  0  0  0  0  0  0  0  0  0
   -3.1874   16.6366   36.6771 C   0  0  2  0  0  0  0  0  0  0  0  0
   -3.5767   15.1608   37.0062 C   0  0  2  0  0  0  0  0  0  0  0  0
   -3.1836   14.3197   35.9133 O   0  0  0  0  0  0  0  0  0  0  0  0
   -5.1060   15.0264   37.2048 C   0  0  1  0  0  0  0  0  0  0  0  0
   -5.3807   13.6380   37.5157 O   0  0  0  0  0  0  0  0  0  0  0  0
   -6.6642   13.1308   37.0808 C   0  0  2  0  0  0  0  0  0  0  0  0
   -6.6711   11.5969   37.4336 C   0  0  2  0  0  0  0  0  0  0  0  0
   -6.5220   11.4238   38.8340 O   0  0  0  0  0  0  0  0  0  0  0  0
   -5.5039   10.8858   36.6497 C   0  0  1  0  0  0  0  0  0  0  0  0
   -5.4660    9.4248   36.9631 N   0  0  0  0  0  0  0  0  0  0  0  0
   -4.0923    9.0579   37.3694 C   0  0  0  0  0  0  0  0  0  0  0  0
   -5.7280   11.1055   35.1226 C   0  0  2  0  0  0  0  0  0  0  0  0
   -6.9773   10.5226   34.7552 O   0  0  0  0  0  0  0  0  0  0  0  0
   -4.6295   10.4513   34.2884 C   0  0  0  0  0  0  0  0  0  0  0  0
   -5.7662   12.6390   34.8261 C   0  0  0  0  0  0  0  0  0  0  0  0
   -6.8182   13.3052   35.6225 O   0  0  0  0  0  0  0  0  0  0  0  0
  1  3  1  0  0  0  0
  1  2  1  1  0  0  0
  3  5  1  0  0  0  0
  3  4  1  1  0  0  0
  5  6  1  6  0  0  0
  7  8  1  1  0  0  0
  7  5  1  0  0  0  0
  9 10  1  6  0  0  0
  9  7  1  0  0  0  0
 10  1  1  0  0  0  0
 11 13  1  1  0  0  0
 11  9  1  0  0  0  0
 12 11  1  0  0  0  0
 14 15  1  6  0  0  0
 16 14  1  0  0  0  0
 17 18  1  6  0  0  0
 17 16  1  0  0  0  0
 19  2  1  1  0  0  0
 19 20  1  0  0  0  0
 19 17  1  0  0  0  0
 20 21  1  6  0  0  0
 20 22  1  0  0  0  0
 22 23  1  1  0  0  0
 22 14  1  0  0  0  0
 24 23  1  6  0  0  0
 24 25  1  0  0  0  0
 25 27  1  0  0  0  0
 25 26  1  1  0  0  0
 27 28  1  6  0  0  0
 28 29  1  0  0  0  0
 30 31  1  6  0  0  0
 30 32  1  0  0  0  0
 30 27  1  0  0  0  0
 33 30  1  0  0  0  0
 34 33  1  0  0  0  0
 34 24  1  0  0  0  0
M  END
>  <CHROM.1>
-166.03887282,43.57929094,-165.20744137,94.60424058,175.76111474,-128.32775842
-3.29099592,15.23199584,36.05966027,-0.79032539,-0.51290140,-2.94051017

>  <Name>
lig.pdb

>  <RI>
0

>  <Rbt.Current_Directory>
/home/itssahil/PROJECTS/Mol_Feturizer/New_Systems/rnas/4k32

>  <Rbt.Executable>
rbdock ($Id: //depot/dev/client3/rdock/2013.1/src/exe/rbdock.cxx#4 $)

>  <Rbt.Library>
libRbt.so (2013.1, Build901 2013/11/27)

>  <Rbt.Parameter_File>
/export/apps/rDock/src/rDock_2013.1_src/data/scripts/dock_solv.prm

>  <Rbt.Receptor>
prm/pocket_docking_4.prm

>  <SCORE>
-15.8873

>  <SCORE.INTER>
-10.4834

>  <SCORE.INTER.CONST>
1

>  <SCORE.INTER.POLAR>
0

>  <SCORE.INTER.ROT>
6

>  <SCORE.INTER.SOLV>
22.5908

>  <SCORE.INTER.VDW>
-22.1192

>  <SCORE.INTER.norm>
-0.308334

>  <SCORE.INTRA>
-5.40396

>  <SCORE.INTRA.DIHEDRAL>
-9.44674

>  <SCORE.INTRA.DIHEDRAL.0>
18.0069

>  <SCORE.INTRA.POLAR>
0

>  <SCORE.INTRA.POLAR.0>
0

>  <SCORE.INTRA.REPUL>
0

>  <SCORE.INTRA.REPUL.0>
0

>  <SCORE.INTRA.SOLV>
-1.58845

>  <SCORE.INTRA.SOLV.lig_0>
-70.7393

>  <SCORE.INTRA.VDW>
0.113632

>  <SCORE.INTRA.VDW.0>
-3.23471

>  <SCORE.INTRA.norm>
-0.15894

>  <SCORE.RESTR>
0

>  <SCORE.RESTR.CAVITY>
0

>  <SCORE.RESTR.norm>
0

>  <SCORE.SYSTEM>
0

>  <SCORE.SYSTEM.CONST>
0

>  <SCORE.SYSTEM.DIHEDRAL>
0

>  <SCORE.SYSTEM.SOLV>
0

>  <SCORE.SYSTEM.norm>
0

>  <SCORE.heavy>
34

>  <SCORE.norm>
-0.467274

>  <RMSD>
1.624

$$$$
lig.pdb
 OpenBabel11021811503D
libRbt.so/2013.1/901 2013/11/27
 34 36  0  0  0  0  0  0  0  0999 V2000
   -1.1215   16.5270   35.2114 C   0  0  2  0  0  0  0  0  0  0  0  0
   -1.7444   17.0923   36.3701 O   0  0  0  0  0  0  0  0  0  0  0  0
    0.2823   15.9208   35.6390 C   0  0  2  0  0  0  0  0  0  0  0  0
    0.1350   14.8569   36.6595 N   0  0  0  0  0  0  0  0  0  0  0  0
    1.1880   17.0536   36.1844 C   0  0  1  0  0  0  0  0  0  0  0  0
    2.4605   16.5276   36.5685 O   0  0  0  0  0  0  0  0  0  0  0  0
    1.3332   18.1317   35.0957 C   0  0  2  0  0  0  0  0  0  0  0  0
    2.1697   19.1814   35.5844 O   0  0  0  0  0  0  0  0  0  0  0  0
   -0.0902   18.6837   34.7013 C   0  0  2  0  0  0  0  0  0  0  0  0
   -0.9593   17.5910   34.2152 O   0  0  0  0  0  0  0  0  0  0  0  0
    0.0038   19.7625   33.5938 C   0  0  2  0  0  0  0  0  0  0  0  0
    0.7560   20.8804   34.0693 O   0  0  0  0  0  0  0  0  0  0  0  0
   -1.3770   20.2471   33.1800 C   0  0  0  0  0  0  0  0  0  0  0  0
   -5.4551   16.1205   38.2683 C   0  0  2  0  0  0  0  0  0  0  0  0
   -6.8921   15.9844   38.5186 N   0  0  0  0  0  0  0  0  0  0  0  0
   -5.1880   17.6101   37.9167 C   0  0  0  0  0  0  0  0  0  0  0  0
   -3.6642   17.7800   37.6713 C   0  0  2  0  0  0  0  0  0  0  0  0
   -3.3632   19.1815   37.3395 N   0  0  0  0  0  0  0  0  0  0  0  0
   -3.1832   16.8671   36.5116 C   0  0  2  0  0  0  0  0  0  0  0  0
   -3.5035   15.3808   36.8670 C   0  0  2  0  0  0  0  0  0  0  0  0
   -3.0692   14.5395   35.7900 O   0  0  0  0  0  0  0  0  0  0  0  0
   -5.0252   15.1783   37.0662 C   0  0  1  0  0  0  0  0  0  0  0  0
   -5.2351   13.7844   37.4019 O   0  0  0  0  0  0  0  0  0  0  0  0
   -6.5416   13.2454   37.0919 C   0  0  2  0  0  0  0  0  0  0  0  0
   -6.5109   11.7373   37.5416 C   0  0  2  0  0  0  0  0  0  0  0  0
   -6.2625   11.6552   38.9362 O   0  0  0  0  0  0  0  0  0  0  0  0
   -5.3955   10.9818   36.7244 C   0  0  1  0  0  0  0  0  0  0  0  0
   -5.3236    9.5441   37.1271 N   0  0  0  0  0  0  0  0  0  0  0  0
   -3.9432    9.2366   37.5591 C   0  0  0  0  0  0  0  0  0  0  0  0
   -5.7280   11.1019   35.2060 C   0  0  2  0  0  0  0  0  0  0  0  0
   -6.9951   10.4918   34.9656 O   0  0  0  0  0  0  0  0  0  0  0  0
   -4.6853   10.3997   34.3400 C   0  0  0  0  0  0  0  0  0  0  0  0
   -5.7998   12.6130   34.8155 C   0  0  0  0  0  0  0  0  0  0  0  0
   -6.7989   13.3249   35.6399 O   0  0  0  0  0  0  0  0  0  0  0  0
  1  3  1  0  0  0  0
  1  2  1  1  0  0  0
  3  5  1  0  0  0  0
  3  4  1  1  0  0  0
  5  6  1  6  0  0  0
  7  8  1  1  0  0  0
  7  5  1  0  0  0  0
  9 10  1  6  0  0  0
  9  7  1  0  0  0  0
 10  1  1  0  0  0  0
 11 13  1  1  0  0  0
 11  9  1  0  0  0  0
 12 11  1  0  0  0  0
 14 15  1  6  0  0  0
 16 14  1  0  0  0  0
 17 18  1  6  0  0  0
 17 16  1  0  0  0  0
 19  2  1  1  0  0  0
 19 20  1  0  0  0  0
 19 17  1  0  0  0  0
 20 21  1  6  0  0  0
 20 22  1  0  0  0  0
 22 23  1  1  0  0  0
 22 14  1  0  0  0  0
 24 23  1  6  0  0  0
 24 25  1  0  0  0  0
 25 27  1  0  0  0  0
 25 26  1  1  0  0  0
 27 28  1  1  0  0  0
 28 29  1  0  0  0  0
 30 31  1  6  0  0  0
 30 32  1  0  0  0  0
 30 27  1  0  0  0  0
 33 30  1  0  0  0  0
 34 33  1  0  0  0  0
 34 24  1  0  0  0  0
M  END
>  <CHROM.1>
-139.25398091,-62.10675784,-169.68407958,88.78944623,179.79269054,-123.95283373
-3.08426894,15.26575216,36.17127317,-0.81539181,-0.33152030,-3.06140800

>  <Name>
lig.pdb

>  <RI>
0

>  <Rbt.Current_Directory>
/home/itssahil/PROJECTS/Mol_Feturizer/New_Systems/rnas/4k32

>  <Rbt.Executable>
rbdock ($Id: //depot/dev/client3/rdock/2013.1/src/exe/rbdock.cxx#4 $)

>  <Rbt.Library>
libRbt.so (2013.1, Build901 2013/11/27)

>  <Rbt.Parameter_File>
/export/apps/rDock/src/rDock_2013.1_src/data/scripts/dock_solv.prm

>  <Rbt.Receptor>
prm/pocket_docking_3.prm

>  <SCORE>
-15.0262

>  <SCORE.INTER>
-10.8535

>  <SCORE.INTER.CONST>
1

>  <SCORE.INTER.POLAR>
0

>  <SCORE.INTER.ROT>
6

>  <SCORE.INTER.SOLV>
21.2812

>  <SCORE.INTER.VDW>
-21.9294

>  <SCORE.INTER.norm>
-0.31922

>  <SCORE.INTRA>
-4.1727

>  <SCORE.INTRA.DIHEDRAL>
-7.3801

>  <SCORE.INTRA.DIHEDRAL.0>
18.0069

>  <SCORE.INTRA.POLAR>
0

>  <SCORE.INTRA.POLAR.0>
0

>  <SCORE.INTRA.REPUL>
0

>  <SCORE.INTRA.REPUL.0>
0

>  <SCORE.INTRA.SOLV>
-0.910431

>  <SCORE.INTRA.SOLV.lig_0>
-70.7393

>  <SCORE.INTRA.VDW>
-0.0274359

>  <SCORE.INTRA.VDW.0>
-3.23471

>  <SCORE.INTRA.norm>
-0.122727

>  <SCORE.RESTR>
0

>  <SCORE.RESTR.CAVITY>
0

>  <SCORE.RESTR.norm>
0

>  <SCORE.SYSTEM>
0

>  <SCORE.SYSTEM.CONST>
0

>  <SCORE.SYSTEM.DIHEDRAL>
0

>  <SCORE.SYSTEM.SOLV>
0

>  <SCORE.SYSTEM.norm>
0

>  <SCORE.heavy>
34

>  <SCORE.norm>
-0.441947

>  <RMSD>
1.637

$$$$
lig.pdb
 OpenBabel11021811503D
libRbt.so/2013.1/901 2013/11/27
 34 36  0  0  0  0  0  0  0  0999 V2000
   -1.2486   16.4935   35.3692 C   0  0  2  0  0  0  0  0  0  0  0  0
   -1.7442   16.7997   36.6772 O   0  0  0  0  0  0  0  0  0  0  0  0
    0.3169   16.2475   35.4683 C   0  0  2  0  0  0  0  0  0  0  0  0
    0.6408   15.1174   36.3700 N   0  0  0  0  0  0  0  0  0  0  0  0
    1.0105   17.5389   35.9703 C   0  0  1  0  0  0  0  0  0  0  0  0
    2.4232   17.3387   36.0594 O   0  0  0  0  0  0  0  0  0  0  0  0
    0.6675   18.6866   35.0039 C   0  0  2  0  0  0  0  0  0  0  0  0
    1.3043   19.8836   35.4533 O   0  0  0  0  0  0  0  0  0  0  0  0
   -0.8967   18.8732   34.9345 C   0  0  2  0  0  0  0  0  0  0  0  0
   -1.5536   17.6260   34.4886 O   0  0  0  0  0  0  0  0  0  0  0  0
   -1.2924   20.0094   33.9590 C   0  0  2  0  0  0  0  0  0  0  0  0
   -2.6809   20.3124   34.1063 O   0  0  0  0  0  0  0  0  0  0  0  0
   -1.0333   19.6090   32.5149 C   0  0  0  0  0  0  0  0  0  0  0  0
   -5.3644   15.7412   38.6995 C   0  0  2  0  0  0  0  0  0  0  0  0
   -6.7869   15.6283   39.0311 N   0  0  0  0  0  0  0  0  0  0  0  0
   -5.0542   17.2516   38.5096 C   0  0  0  0  0  0  0  0  0  0  0  0
   -3.5433   17.3941   38.1809 C   0  0  2  0  0  0  0  0  0  0  0  0
   -3.2020   18.8136   37.9978 N   0  0  0  0  0  0  0  0  0  0  0  0
   -3.1795   16.6119   36.8905 C   0  0  2  0  0  0  0  0  0  0  0  0
   -3.5423   15.1062   37.0882 C   0  0  2  0  0  0  0  0  0  0  0  0
   -3.2165   14.3866   35.8913 O   0  0  0  0  0  0  0  0  0  0  0  0
   -5.0556   14.9369   37.3671 C   0  0  1  0  0  0  0  0  0  0  0  0
   -5.3054   13.5211   37.5487 O   0  0  0  0  0  0  0  0  0  0  0  0
   -6.6019   13.0439   37.1185 C   0  0  2  0  0  0  0  0  0  0  0  0
   -6.6219   11.4992   37.4198 C   0  0  2  0  0  0  0  0  0  0  0  0
   -6.4522   11.2773   38.8110 O   0  0  0  0  0  0  0  0  0  0  0  0
   -5.4762   10.8012   36.5934 C   0  0  1  0  0  0  0  0  0  0  0  0
   -5.4512    9.3301   36.8571 N   0  0  0  0  0  0  0  0  0  0  0  0
   -4.1019    8.9515   37.3289 C   0  0  0  0  0  0  0  0  0  0  0  0
   -5.7224   11.0748   35.0784 C   0  0  2  0  0  0  0  0  0  0  0  0
   -6.9845   10.5192   34.7125 O   0  0  0  0  0  0  0  0  0  0  0  0
   -4.6456   10.4362   34.2047 C   0  0  0  0  0  0  0  0  0  0  0  0
   -5.7467   12.6177   34.8340 C   0  0  0  0  0  0  0  0  0  0  0  0
   -6.7774   13.2689   35.6696 O   0  0  0  0  0  0  0  0  0  0  0  0
  1  3  1  0  0  0  0
  1  2  1  1  0  0  0
  3  5  1  0  0  0  0
  3  4  1  1  0  0  0
  5  6  1  6  0  0  0
  7  8  1  1  0  0  0
  7  5  1  0  0  0  0
  9 10  1  6  0  0  0
  9  7  1  0  0  0  0
 10  1  1  0  0  0  0
 11 13  1  6  0  0  0
 11  9  1  0  0  0  0
 12 11  1  0  0  0  0
 14 15  1  6  0  0  0
 16 14  1  0  0  0  0
 17 18  1  6  0  0  0
 17 16  1  0  0  0  0
 19  2  1  1  0  0  0
 19 20  1  0  0  0  0
 19 17  1  0  0  0  0
 20 21  1  6  0  0  0
 20 22  1  0  0  0  0
 22 23  1  1  0  0  0
 22 14  1  0  0  0  0
 24 23  1  6  0  0  0
 24 25  1  0  0  0  0
 25 27  1  0  0  0  0
 25 26  1  1  0  0  0
 27 28  1  6  0  0  0
 28 29  1  0  0  0  0
 30 31  1  6  0  0  0
 30 32  1  0  0  0  0
 30 27  1  0  0  0  0
 33 30  1  0  0  0  0
 34 33  1  0  0  0  0
 34 24  1  0  0  0  0
M  END
>  <CHROM.1>
-159.79329510,-169.39880138,-163.08554238,95.86894922,-179.97150114,-123.99353934
-3.31341412,15.19273179,36.21845311,-0.81469961,-0.49911062,-2.91461551

>  <Name>
lig.pdb

>  <RI>
0

>  <Rbt.Current_Directory>
/home/itssahil/PROJECTS/Mol_Feturizer/New_Systems/rnas/4k32

>  <Rbt.Executable>
rbdock ($Id: //depot/dev/client3/rdock/2013.1/src/exe/rbdock.cxx#4 $)

>  <Rbt.Library>
libRbt.so (2013.1, Build901 2013/11/27)

>  <Rbt.Parameter_File>
/export/apps/rDock/src/rDock_2013.1_src/data/scripts/dock_solv.prm

>  <Rbt.Receptor>
prm/pocket_docking_4.prm

>  <SCORE>
-15.1367

>  <SCORE.INTER>
-10.1087

>  <SCORE.INTER.CONST>
1

>  <SCORE.INTER.POLAR>
0

>  <SCORE.INTER.ROT>
6

>  <SCORE.INTER.SOLV>
21.7292

>  <SCORE.INTER.VDW>
-21.5822

>  <SCORE.INTER.norm>
-0.297313

>  <SCORE.INTRA>
-5.028

>  <SCORE.INTRA.DIHEDRAL>
-8.55317

>  <SCORE.INTRA.DIHEDRAL.0>
18.0069

>  <SCORE.INTRA.POLAR>
0

>  <SCORE.INTRA.POLAR.0>
0

>  <SCORE.INTRA.REPUL>
0

>  <SCORE.INTRA.REPUL.0>
0

>  <SCORE.INTRA.SOLV>
-1.76077

>  <SCORE.INTRA.SOLV.lig_0>
-70.7393

>  <SCORE.INTRA.VDW>
0.128968

>  <SCORE.INTRA.VDW.0>
-3.23471

>  <SCORE.INTRA.norm>
-0.147882

>  <SCORE.RESTR>
0

>  <SCORE.RESTR.CAVITY>
0

>  <SCORE.RESTR.norm>
0

>  <SCORE.SYSTEM>
0

>  <SCORE.SYSTEM.CONST>
0

>  <SCORE.SYSTEM.DIHEDRAL>
0

>  <SCORE.SYSTEM.SOLV>
0

>  <SCORE.SYSTEM.norm>
0

>  <SCORE.heavy>
34

>  <SCORE.norm>
-0.445196

>  <RMSD>
1.638

$$$$
lig.pdb
 OpenBabel11021811503D
libRbt.so/2013.1/901 2013/11/27
 34 36  0  0  0  0  0  0  0  0999 V2000
   -1.4816   16.7884   35.5699 C   0  0  2  0  0  0  0  0  0  0  0  0
   -1.8613   17.2144   36.8832 O   0  0  0  0  0  0  0  0  0  0  0  0
    0.0501   16.3709   35.5987 C   0  0  2  0  0  0  0  0  0  0  0  0
    0.2999   15.2580   36.5443 N   0  0  0  0  0  0  0  0  0  0  0  0
    0.9113   17.5985   35.9888 C   0  0  1  0  0  0  0  0  0  0  0  0
    2.2958   17.2434   36.0132 O   0  0  0  0  0  0  0  0  0  0  0  0
    0.6406   18.7277   34.9788 C   0  0  2  0  0  0  0  0  0  0  0  0
    1.4319   19.8655   35.3248 O   0  0  0  0  0  0  0  0  0  0  0  0
   -0.8946   19.0876   34.9829 C   0  0  2  0  0  0  0  0  0  0  0  0
   -1.7111   17.9025   34.6442 O   0  0  0  0  0  0  0  0  0  0  0  0
   -1.2193   20.2110   33.9672 C   0  0  2  0  0  0  0  0  0  0  0  0
   -2.5880   20.6003   34.0970 O   0  0  0  0  0  0  0  0  0  0  0  0
   -0.9799   19.7467   32.5390 C   0  0  0  0  0  0  0  0  0  0  0  0
   -4.9793   15.9401   39.5233 C   0  0  2  0  0  0  0  0  0  0  0  0
   -6.3117   15.6669   40.0677 N   0  0  0  0  0  0  0  0  0  0  0  0
   -4.9522   17.4348   39.1003 C   0  0  0  0  0  0  0  0  0  0  0  0
   -3.5380   17.7506   38.5422 C   0  0  2  0  0  0  0  0  0  0  0  0
   -3.4645   19.1619   38.1329 N   0  0  0  0  0  0  0  0  0  0  0  0
   -3.2080   16.8484   37.3229 C   0  0  2  0  0  0  0  0  0  0  0  0
   -3.2864   15.3518   37.7606 C   0  0  2  0  0  0  0  0  0  0  0  0
   -2.9926   14.5191   36.6306 O   0  0  0  0  0  0  0  0  0  0  0  0
   -4.7044   15.0020   38.2735 C   0  0  1  0  0  0  0  0  0  0  0  0
   -4.6894   13.6077   38.6677 O   0  0  0  0  0  0  0  0  0  0  0  0
   -5.9620   13.0454   39.0652 C   0  0  2  0  0  0  0  0  0  0  0  0
   -5.7514   11.4869   39.1285 C   0  0  2  0  0  0  0  0  0  0  0  0
   -4.7536   11.1740   40.0875 O   0  0  0  0  0  0  0  0  0  0  0  0
   -5.3423   10.9669   37.6985 C   0  0  1  0  0  0  0  0  0  0  0  0
   -5.1215    9.4886   37.7136 N   0  0  0  0  0  0  0  0  0  0  0  0
   -3.6796    9.2182   37.5281 C   0  0  0  0  0  0  0  0  0  0  0  0
   -6.4780   11.3336   36.6953 C   0  0  2  0  0  0  0  0  0  0  0  0
   -7.6819   10.6918   37.1129 O   0  0  0  0  0  0  0  0  0  0  0  0
   -6.1538   10.8697   35.2775 C   0  0  0  0  0  0  0  0  0  0  0  0
   -6.6882   12.8817   36.7035 C   0  0  0  0  0  0  0  0  0  0  0  0
   -7.0000   13.3655   38.0648 O   0  0  0  0  0  0  0  0  0  0  0  0
  1  3  1  0  0  0  0
  1  2  1  1  0  0  0
  3  5  1  0  0  0  0
  3  4  1  1  0  0  0
  5  6  1  6  0  0  0
  7  8  1  1  0  0  0
  7  5  1  0  0  0  0
  9 10  1  6  0  0  0
  9  7  1  0  0  0  0
 10  1  1  0  0  0  0
 11 13  1  6  0  0  0
 11  9  1  0  0  0  0
 12 11  1  0  0  0  0
 14 15  1  6  0  0  0
 16 14  1  0  0  0  0
 17 18  1  6  0  0  0
 17 16  1  0  0  0  0
 19  2  1  1  0  0  0
 19 20  1  0  0  0  0
 19 17  1  0  0  0  0
 20 21  1  6  0  0  0
 20 22  1  0  0  0  0
 22 23  1  1  0  0  0
 22 14  1  0  0  0  0
 24 23  1  6  0  0  0
 24 25  1  0  0  0  0
 25 27  1  0  0  0  0
 25 26  1  1  0  0  0
 27 28  1  1  0  0  0
 28 29  1  0  0  0  0
 30 31  1  1  0  0  0
 30 32  1  0  0  0  0
 30 27  1  0  0  0  0
 33 30  1  0  0  0  0
 34 33  1  0  0  0  0
 34 24  1  0  0  0  0
M  END
>  <CHROM.1>
-142.68512213,-174.18120825,-163.41571670,69.37214566,167.66587559,-110.67795006
-3.27971484,15.35849259,36.92697280,-0.83293487,-0.55178146,-3.07573241

>  <Name>
lig.pdb

>  <RI>
0

>  <Rbt.Current_Directory>
/home/itssahil/PROJECTS/Mol_Feturizer/New_Systems/rnas/4k32

>  <Rbt.Executable>
rbdock ($Id: //depot/dev/client3/rdock/2013.1/src/exe/rbdock.cxx#4 $)

>  <Rbt.Library>
libRbt.so (2013.1, Build901 2013/11/27)

>  <Rbt.Parameter_File>
/export/apps/rDock/src/rDock_2013.1_src/data/scripts/dock_solv.prm

>  <Rbt.Receptor>
prm/pocket_docking_5.prm

>  <SCORE>
-14.0022

>  <SCORE.INTER>
-9.92364

>  <SCORE.INTER.CONST>
1

>  <SCORE.INTER.POLAR>
0

>  <SCORE.INTER.ROT>
6

>  <SCORE.INTER.SOLV>
19.4545

>  <SCORE.INTER.VDW>
-20.7006

>  <SCORE.INTER.norm>
-0.291872

>  <SCORE.INTRA>
-4.07854

>  <SCORE.INTRA.DIHEDRAL>
-9.31522

>  <SCORE.INTRA.DIHEDRAL.0>
18.0069

>  <SCORE.INTRA.POLAR>
0

>  <SCORE.INTRA.POLAR.0>
0

>  <SCORE.INTRA.REPUL>
0

>  <SCORE.INTRA.REPUL.0>
0

>  <SCORE.INTRA.SOLV>
-0.285831

>  <SCORE.INTRA.SOLV.lig_0>
-70.7393

>  <SCORE.INTRA.VDW>
0.72198

>  <SCORE.INTRA.VDW.0>
-3.23471

>  <SCORE.INTRA.norm>
-0.119957

>  <SCORE.RESTR>
0

>  <SCORE.RESTR.CAVITY>
0

>  <SCORE.RESTR.norm>
0

>  <SCORE.SYSTEM>
0

>  <SCORE.SYSTEM.CONST>
0

>  <SCORE.SYSTEM.DIHEDRAL>
0

>  <SCORE.SYSTEM.SOLV>
0

>  <SCORE.SYSTEM.norm>
0

>  <SCORE.heavy>
34

>  <SCORE.norm>
-0.411829

>  <RMSD>
1.639

$$$$
lig.pdb
 OpenBabel11021811503D
libRbt.so/2013.1/901 2013/11/27
 34 36  0  0  0  0  0  0  0  0999 V2000
   -1.1924   16.4598   35.3423 C   0  0  2  0  0  0  0  0  0  0  0  0
   -1.6863   16.7425   36.6562 O   0  0  0  0  0  0  0  0  0  0  0  0
    0.3773   16.2374   35.4310 C   0  0  2  0  0  0  0  0  0  0  0  0
    0.7234   15.1019   36.3175 N   0  0  0  0  0  0  0  0  0  0  0  0
    1.0530   17.5335   35.9452 C   0  0  1  0  0  0  0  0  0  0  0  0
    2.4690   17.3547   36.0252 O   0  0  0  0  0  0  0  0  0  0  0  0
    0.6872   18.6871   34.9944 C   0  0  2  0  0  0  0  0  0  0  0  0
    1.3072   19.8886   35.4551 O   0  0  0  0  0  0  0  0  0  0  0  0
   -0.8801   18.8498   34.9346 C   0  0  2  0  0  0  0  0  0  0  0  0
   -1.5194   17.5978   34.4768 O   0  0  0  0  0  0  0  0  0  0  0  0
   -1.2984   19.9912   33.9747 C   0  0  2  0  0  0  0  0  0  0  0  0
   -2.7021   20.2316   34.0910 O   0  0  0  0  0  0  0  0  0  0  0  0
   -0.9846   19.6367   32.5296 C   0  0  0  0  0  0  0  0  0  0  0  0
   -5.3343   15.7601   38.6671 C   0  0  2  0  0  0  0  0  0  0  0  0
   -6.7605   15.6694   38.9892 N   0  0  0  0  0  0  0  0  0  0  0  0
   -5.0047   17.2635   38.4548 C   0  0  0  0  0  0  0  0  0  0  0  0
   -3.4898   17.3827   38.1358 C   0  0  2  0  0  0  0  0  0  0  0  0
   -3.1302   18.7949   37.9320 N   0  0  0  0  0  0  0  0  0  0  0  0
   -3.1253   16.5750   36.8612 C   0  0  2  0  0  0  0  0  0  0  0  0
   -3.5075   15.0772   37.0808 C   0  0  2  0  0  0  0  0  0  0  0  0
   -3.1810   14.3341   35.8985 O   0  0  0  0  0  0  0  0  0  0  0  0
   -5.0247   14.9303   37.3505 C   0  0  1  0  0  0  0  0  0  0  0  0
   -5.2928   13.5208   37.5534 O   0  0  0  0  0  0  0  0  0  0  0  0
   -6.5895   13.0507   37.1161 C   0  0  2  0  0  0  0  0  0  0  0  0
   -6.6171   11.5049   37.4113 C   0  0  2  0  0  0  0  0  0  0  0  0
   -6.4539   11.2769   38.8022 O   0  0  0  0  0  0  0  0  0  0  0  0
   -5.4711   10.8054   36.5866 C   0  0  1  0  0  0  0  0  0  0  0  0
   -5.4533    9.3332   36.8446 N   0  0  0  0  0  0  0  0  0  0  0  0
   -4.0970    8.9408   37.2842 C   0  0  0  0  0  0  0  0  0  0  0  0
   -5.7101   11.0859   35.0718 C   0  0  2  0  0  0  0  0  0  0  0  0
   -6.9731   10.5371   34.6987 O   0  0  0  0  0  0  0  0  0  0  0  0
   -4.6325   10.4464   34.1998 C   0  0  0  0  0  0  0  0  0  0  0  0
   -5.7269   12.6300   34.8334 C   0  0  0  0  0  0  0  0  0  0  0  0
   -6.7582   13.2822   35.6675 O   0  0  0  0  0  0  0  0  0  0  0  0
  1  3  1  0  0  0  0
  1  2  1  1  0  0  0
  3  5  1  0  0  0  0
  3  4  1  1  0  0  0
  5  6  1  6  0  0  0
  7  8  1  1  0  0  0
  7  5  1  0  0  0  0
  9 10  1  6  0  0  0
  9  7  1  0  0  0  0
 10  1  1  0  0  0  0
 11 13  1  6  0  0  0
 11  9  1  0  0  0  0
 12 11  1  0  0  0  0
 14 15  1  6  0  0  0
 16 14  1  0  0  0  0
 17 18  1  6  0  0  0
 17 16  1  0  0  0  0
 19  2  1  1  0  0  0
 19 20  1  0  0  0  0
 19 17  1  0  0  0  0
 20 21  1  6  0  0  0
 20 22  1  0  0  0  0
 22 23  1  1  0  0  0
 22 14  1  0  0  0  0
 24 23  1  6  0  0  0
 24 25  1  0  0  0  0
 25 27  1  0  0  0  0
 25 26  1  1  0  0  0
 27 28  1  6  0  0  0
 28 29  1  0  0  0  0
 30 31  1  6  0  0  0
 30 32  1  0  0  0  0
 30 27  1  0  0  0  0
 33 30  1  0  0  0  0
 34 33  1  0  0  0  0
 34 24  1  0  0  0  0
M  END
>  <CHROM.1>
-161.89435207,-171.86014830,-160.68501475,96.09868561,178.67581996,-125.55221334
-3.28616795,15.18557291,36.20127938,-0.81642474,-0.48572569,-2.92555463

>  <Name>
lig.pdb

>  <RI>
0

>  <Rbt.Current_Directory>
/home/itssahil/PROJECTS/Mol_Feturizer/New_Systems/rnas/4k32

>  <Rbt.Executable>
rbdock ($Id: //depot/dev/client3/rdock/2013.1/src/exe/rbdock.cxx#4 $)

>  <Rbt.Library>
libRbt.so (2013.1, Build901 2013/11/27)

>  <Rbt.Parameter_File>
/export/apps/rDock/src/rDock_2013.1_src/data/scripts/dock_solv.prm

>  <Rbt.Receptor>
prm/pocket_docking_5.prm

>  <SCORE>
-15.2541

>  <SCORE.INTER>
-10.1697

>  <SCORE.INTER.CONST>
1

>  <SCORE.INTER.POLAR>
0

>  <SCORE.INTER.ROT>
6

>  <SCORE.INTER.SOLV>
21.9096

>  <SCORE.INTER.VDW>
-21.683

>  <SCORE.INTER.norm>
-0.299108

>  <SCORE.INTRA>
-5.08443

>  <SCORE.INTRA.DIHEDRAL>
-8.64867

>  <SCORE.INTRA.DIHEDRAL.0>
18.0069

>  <SCORE.INTRA.POLAR>
0

>  <SCORE.INTRA.POLAR.0>
0

>  <SCORE.INTRA.REPUL>
0

>  <SCORE.INTRA.REPUL.0>
0

>  <SCORE.INTRA.SOLV>
-1.6181

>  <SCORE.INTRA.SOLV.lig_0>
-70.7393

>  <SCORE.INTRA.VDW>
0.0489494

>  <SCORE.INTRA.VDW.0>
-3.23471

>  <SCORE.INTRA.norm>
-0.149542

>  <SCORE.RESTR>
0

>  <SCORE.RESTR.CAVITY>
0

>  <SCORE.RESTR.norm>
0

>  <SCORE.SYSTEM>
0

>  <SCORE.SYSTEM.CONST>
0

>  <SCORE.SYSTEM.DIHEDRAL>
0

>  <SCORE.SYSTEM.SOLV>
0

>  <SCORE.SYSTEM.norm>
0

>  <SCORE.heavy>
34

>  <SCORE.norm>
-0.44865

>  <RMSD>
1.649

$$$$
lig.pdb
 OpenBabel11021811503D
libRbt.so/2013.1/901 2013/11/27
 34 36  0  0  0  0  0  0  0  0999 V2000
   -1.1658   16.3116   35.3574 C   0  0  2  0  0  0  0  0  0  0  0  0
   -1.7448   16.8078   36.5693 O   0  0  0  0  0  0  0  0  0  0  0  0
    0.4098   16.2444   35.5422 C   0  0  2  0  0  0  0  0  0  0  0  0
    0.7962   15.3417   36.6516 N   0  0  0  0  0  0  0  0  0  0  0  0
    0.9588   17.6692   35.8054 C   0  0  1  0  0  0  0  0  0  0  0  0
    2.3785   17.6299   35.9677 O   0  0  0  0  0  0  0  0  0  0  0  0
    0.5546   18.5751   34.6287 C   0  0  2  0  0  0  0  0  0  0  0  0
    1.0581   19.8923   34.8568 O   0  0  0  0  0  0  0  0  0  0  0  0
   -1.0155   18.5899   34.4844 C   0  0  2  0  0  0  0  0  0  0  0  0
   -1.5345   17.2224   34.2687 O   0  0  0  0  0  0  0  0  0  0  0  0
   -1.4706   19.4777   33.2995 C   0  0  2  0  0  0  0  0  0  0  0  0
   -0.6208   19.2542   32.1728 O   0  0  0  0  0  0  0  0  0  0  0  0
   -1.4148   20.9528   33.6648 C   0  0  0  0  0  0  0  0  0  0  0  0
   -5.4535   15.8558   38.4812 C   0  0  2  0  0  0  0  0  0  0  0  0
   -6.8899   15.7535   38.7508 N   0  0  0  0  0  0  0  0  0  0  0  0
   -5.1419   17.3529   38.2066 C   0  0  0  0  0  0  0  0  0  0  0  0
   -3.6176   17.4856   37.9422 C   0  0  2  0  0  0  0  0  0  0  0  0
   -3.2747   18.8926   37.6819 N   0  0  0  0  0  0  0  0  0  0  0  0
   -3.1878   16.6228   36.7254 C   0  0  2  0  0  0  0  0  0  0  0  0
   -3.5524   15.1306   37.0049 C   0  0  2  0  0  0  0  0  0  0  0  0
   -3.1654   14.3362   35.8754 O   0  0  0  0  0  0  0  0  0  0  0  0
   -5.0765   14.9678   37.2214 C   0  0  1  0  0  0  0  0  0  0  0  0
   -5.3279   13.5652   37.4842 O   0  0  0  0  0  0  0  0  0  0  0  0
   -6.6247   13.0652   37.0817 C   0  0  2  0  0  0  0  0  0  0  0  0
   -6.6228   11.5265   37.4127 C   0  0  2  0  0  0  0  0  0  0  0  0
   -6.4311   11.3334   38.8053 O   0  0  0  0  0  0  0  0  0  0  0  0
   -5.4809   10.8257   36.5835 C   0  0  1  0  0  0  0  0  0  0  0  0
   -5.4353    9.3603   36.8749 N   0  0  0  0  0  0  0  0  0  0  0  0
   -4.0747    9.0056   37.3329 C   0  0  0  0  0  0  0  0  0  0  0  0
   -5.7513   11.0672   35.0673 C   0  0  2  0  0  0  0  0  0  0  0  0
   -7.0121   10.4906   34.7300 O   0  0  0  0  0  0  0  0  0  0  0  0
   -4.6797   10.4240   34.1907 C   0  0  0  0  0  0  0  0  0  0  0  0
   -5.7968   12.6048   34.7938 C   0  0  0  0  0  0  0  0  0  0  0  0
   -6.8230   13.2604   35.6314 O   0  0  0  0  0  0  0  0  0  0  0  0
  1  3  1  0  0  0  0
  1  2  1  1  0  0  0
  3  5  1  0  0  0  0
  3  4  1  1  0  0  0
  5  6  1  6  0  0  0
  7  8  1  1  0  0  0
  7  5  1  0  0  0  0
  9 10  1  6  0  0  0
  9  7  1  0  0  0  0
 10  1  1  0  0  0  0
 11 13  1  1  0  0  0
 11  9  1  0  0  0  0
 12 11  1  0  0  0  0
 14 15  1  6  0  0  0
 16 14  1  0  0  0  0
 17 18  1  6  0  0  0
 17 16  1  0  0  0  0
 19  2  1  1  0  0  0
 19 20  1  0  0  0  0
 19 17  1  0  0  0  0
 20 21  1  6  0  0  0
 20 22  1  0  0  0  0
 22 23  1  1  0  0  0
 22 14  1  0  0  0  0
 24 23  1  6  0  0  0
 24 25  1  0  0  0  0
 25 27  1  0  0  0  0
 25 26  1  1  0  0  0
 27 28  1  6  0  0  0
 28 29  1  0  0  0  0
 30 31  1  6  0  0  0
 30 32  1  0  0  0  0
 30 27  1  0  0  0  0
 33 30  1  0  0  0  0
 34 33  1  0  0  0  0
 34 24  1  0  0  0  0
M  END
>  <CHROM.1>
-164.83563191,42.37965766,-168.44717537,93.04854884,177.56427056,-124.06850659
-3.28587196,15.19659699,36.06680770,-0.77707604,-0.54457055,-2.89836107

>  <Name>
lig.pdb

>  <RI>
0

>  <Rbt.Current_Directory>
/home/itssahil/PROJECTS/Mol_Feturizer/New_Systems/rnas/4k32

>  <Rbt.Executable>
rbdock ($Id: //depot/dev/client3/rdock/2013.1/src/exe/rbdock.cxx#4 $)

>  <Rbt.Library>
libRbt.so (2013.1, Build901 2013/11/27)

>  <Rbt.Parameter_File>
/export/apps/rDock/src/rDock_2013.1_src/data/scripts/dock_solv.prm

>  <Rbt.Receptor>
prm/pocket_docking_5.prm

>  <SCORE>
-15.7367

>  <SCORE.INTER>
-10.0404

>  <SCORE.INTER.CONST>
1

>  <SCORE.INTER.POLAR>
0

>  <SCORE.INTER.ROT>
6

>  <SCORE.INTER.SOLV>
22.1984

>  <SCORE.INTER.VDW>
-21.6931

>  <SCORE.INTER.norm>
-0.295306

>  <SCORE.INTRA>
-5.69625

>  <SCORE.INTRA.DIHEDRAL>
-9.84742

>  <SCORE.INTRA.DIHEDRAL.0>
18.0069

>  <SCORE.INTRA.POLAR>
0

>  <SCORE.INTRA.POLAR.0>
0

>  <SCORE.INTRA.REPUL>
0

>  <SCORE.INTRA.REPUL.0>
0

>  <SCORE.INTRA.SOLV>
-1.68066

>  <SCORE.INTRA.SOLV.lig_0>
-70.7393

>  <SCORE.INTRA.VDW>
0.0677909

>  <SCORE.INTRA.VDW.0>
-3.23471

>  <SCORE.INTRA.norm>
-0.167537

>  <SCORE.RESTR>
0

>  <SCORE.RESTR.CAVITY>
0

>  <SCORE.RESTR.norm>
0

>  <SCORE.SYSTEM>
0

>  <SCORE.SYSTEM.CONST>
0

>  <SCORE.SYSTEM.DIHEDRAL>
0

>  <SCORE.SYSTEM.SOLV>
0

>  <SCORE.SYSTEM.norm>
0

>  <SCORE.heavy>
34

>  <SCORE.norm>
-0.462843

>  <RMSD>
1.664

$$$$
lig.pdb
 OpenBabel11021811503D
libRbt.so/2013.1/901 2013/11/27
 34 36  0  0  0  0  0  0  0  0999 V2000
   -1.1668   16.3881   35.3673 C   0  0  2  0  0  0  0  0  0  0  0  0
   -1.6998   16.6850   36.6627 O   0  0  0  0  0  0  0  0  0  0  0  0
    0.4002   16.1716   35.5047 C   0  0  2  0  0  0  0  0  0  0  0  0
    0.7233   15.0480   36.4146 N   0  0  0  0  0  0  0  0  0  0  0  0
    1.0569   17.4759   36.0227 C   0  0  1  0  0  0  0  0  0  0  0  0
    2.4705   17.3024   36.1463 O   0  0  0  0  0  0  0  0  0  0  0  0
    0.7160   18.6169   35.0476 C   0  0  2  0  0  0  0  0  0  0  0  0
    1.3190   19.8258   35.5117 O   0  0  0  0  0  0  0  0  0  0  0  0
   -0.8493   18.7739   34.9400 C   0  0  2  0  0  0  0  0  0  0  0  0
   -1.4715   17.5145   34.4789 O   0  0  0  0  0  0  0  0  0  0  0  0
   -1.2424   19.9023   33.9545 C   0  0  2  0  0  0  0  0  0  0  0  0
   -2.6409   20.1744   34.0629 O   0  0  0  0  0  0  0  0  0  0  0  0
   -0.9341   19.5097   32.5180 C   0  0  0  0  0  0  0  0  0  0  0  0
   -5.4072   15.7702   38.5952 C   0  0  2  0  0  0  0  0  0  0  0  0
   -6.8429   15.6837   38.8735 N   0  0  0  0  0  0  0  0  0  0  0  0
   -5.0802   17.2644   38.3227 C   0  0  0  0  0  0  0  0  0  0  0  0
   -3.5561   17.3804   38.0490 C   0  0  2  0  0  0  0  0  0  0  0  0
   -3.1988   18.7841   37.7903 N   0  0  0  0  0  0  0  0  0  0  0  0
   -3.1438   16.5161   36.8273 C   0  0  2  0  0  0  0  0  0  0  0  0
   -3.5238   15.0274   37.1051 C   0  0  2  0  0  0  0  0  0  0  0  0
   -3.1529   14.2317   35.9711 O   0  0  0  0  0  0  0  0  0  0  0  0
   -5.0483   14.8815   37.3307 C   0  0  1  0  0  0  0  0  0  0  0  0
   -5.3141   13.4810   37.5914 O   0  0  0  0  0  0  0  0  0  0  0  0
   -6.6044   12.9878   37.1607 C   0  0  2  0  0  0  0  0  0  0  0  0
   -6.5930   11.4373   37.4314 C   0  0  2  0  0  0  0  0  0  0  0  0
   -6.4090   11.1913   38.8167 O   0  0  0  0  0  0  0  0  0  0  0  0
   -5.4403   10.7778   36.5833 C   0  0  1  0  0  0  0  0  0  0  0  0
   -5.3856    9.3026   36.8175 N   0  0  0  0  0  0  0  0  0  0  0  0
   -4.0309    8.9428   37.2889 C   0  0  0  0  0  0  0  0  0  0  0  0
   -5.7026   11.0765   35.0758 C   0  0  2  0  0  0  0  0  0  0  0  0
   -6.9567   10.5043   34.7077 O   0  0  0  0  0  0  0  0  0  0  0  0
   -4.6204   10.4760   34.1822 C   0  0  0  0  0  0  0  0  0  0  0  0
   -5.7579   12.6233   34.8624 C   0  0  0  0  0  0  0  0  0  0  0  0
   -6.7946   13.2381   35.7178 O   0  0  0  0  0  0  0  0  0  0  0  0
  1  3  1  0  0  0  0
  1  2  1  1  0  0  0
  3  5  1  0  0  0  0
  3  4  1  1  0  0  0
  5  6  1  6  0  0  0
  7  8  1  1  0  0  0
  7  5  1  0  0  0  0
  9 10  1  6  0  0  0
  9  7  1  0  0  0  0
 10  1  1  0  0  0  0
 11 13  1  6  0  0  0
 11  9  1  0  0  0  0
 12 11  1  0  0  0  0
 14 15  1  6  0  0  0
 16 14  1  0  0  0  0
 17 18  1  6  0  0  0
 17 16  1  0  0  0  0
 19  2  1  1  0  0  0
 19 20  1  0  0  0  0
 19 17  1  0  0  0  0
 20 21  1  6  0  0  0
 20 22  1  0  0  0  0
 22 23  1  1  0  0  0
 22 14  1  0  0  0  0
 24 23  1  6  0  0  0
 24 25  1  0  0  0  0
 25 27  1  0  0  0  0
 25 26  1  1  0  0  0
 27 28  1  6  0  0  0
 28 29  1  0  0  0  0
 30 31  1  6  0  0  0
 30 32  1  0  0  0  0
 30 27  1  0  0  0  0
 33 30  1  0  0  0  0
 34 33  1  0  0  0  0
 34 24  1  0  0  0  0
M  END
>  <CHROM.1>
-161.91957873,-169.69153022,-158.61387798,94.76910453,174.88548884,-123.28223646
-3.28254365,15.13954551,36.20590621,-0.83023047,-0.44481324,-2.96349776

>  <Name>
lig.pdb

>  <RI>
0

>  <Rbt.Current_Directory>
/home/itssahil/PROJECTS/Mol_Feturizer/New_Systems/rnas/4k32

>  <Rbt.Executable>
rbdock ($Id: //depot/dev/client3/rdock/2013.1/src/exe/rbdock.cxx#4 $)

>  <Rbt.Library>
libRbt.so (2013.1, Build901 2013/11/27)

>  <Rbt.Parameter_File>
/export/apps/rDock/src/rDock_2013.1_src/data/scripts/dock_solv.prm

>  <Rbt.Receptor>
prm/pocket_docking_3.prm

>  <SCORE>
-15.2499

>  <SCORE.INTER>
-10.3571

>  <SCORE.INTER.CONST>
1

>  <SCORE.INTER.POLAR>
0

>  <SCORE.INTER.ROT>
6

>  <SCORE.INTER.SOLV>
21.7037

>  <SCORE.INTER.VDW>
-21.7393

>  <SCORE.INTER.norm>
-0.304622

>  <SCORE.INTRA>
-4.89276

>  <SCORE.INTRA.DIHEDRAL>
-8.26827

>  <SCORE.INTRA.DIHEDRAL.0>
18.0069

>  <SCORE.INTRA.POLAR>
0

>  <SCORE.INTRA.POLAR.0>
0

>  <SCORE.INTRA.REPUL>
0

>  <SCORE.INTRA.REPUL.0>
0

>  <SCORE.INTRA.SOLV>
-1.35543

>  <SCORE.INTRA.SOLV.lig_0>
-70.7393

>  <SCORE.INTRA.VDW>
-0.0809112

>  <SCORE.INTRA.VDW.0>
-3.23471

>  <SCORE.INTRA.norm>
-0.143905

>  <SCORE.RESTR>
0

>  <SCORE.RESTR.CAVITY>
0

>  <SCORE.RESTR.norm>
0

>  <SCORE.SYSTEM>
0

>  <SCORE.SYSTEM.CONST>
0

>  <SCORE.SYSTEM.DIHEDRAL>
0

>  <SCORE.SYSTEM.SOLV>
0

>  <SCORE.SYSTEM.norm>
0

>  <SCORE.heavy>
34

>  <SCORE.norm>
-0.448527

>  <RMSD>
1.674

$$$$
lig.pdb
 OpenBabel11021811503D
libRbt.so/2013.1/901 2013/11/27
 34 36  0  0  0  0  0  0  0  0999 V2000
   -0.9247   16.1692   35.5476 C   0  0  2  0  0  0  0  0  0  0  0  0
   -1.5870   16.7672   36.6674 O   0  0  0  0  0  0  0  0  0  0  0  0
    0.5008   15.6545   36.0211 C   0  0  2  0  0  0  0  0  0  0  0  0
    0.3913   14.6424   37.0976 N   0  0  0  0  0  0  0  0  0  0  0  0
    1.3460   16.8571   36.5113 C   0  0  1  0  0  0  0  0  0  0  0  0
    2.6370   16.4138   36.9357 O   0  0  0  0  0  0  0  0  0  0  0  0
    1.4536   17.8795   35.3659 C   0  0  2  0  0  0  0  0  0  0  0  0
    2.2343   18.9928   35.8034 O   0  0  0  0  0  0  0  0  0  0  0  0
    0.0108   18.3411   34.9283 C   0  0  2  0  0  0  0  0  0  0  0  0
   -0.8006   17.1834   34.4955 O   0  0  0  0  0  0  0  0  0  0  0  0
    0.0673   19.3607   33.7637 C   0  0  2  0  0  0  0  0  0  0  0  0
    0.8019   20.5176   34.1682 O   0  0  0  0  0  0  0  0  0  0  0  0
   -1.3287   19.7941   33.3443 C   0  0  0  0  0  0  0  0  0  0  0  0
   -5.4398   15.9470   38.3407 C   0  0  2  0  0  0  0  0  0  0  0  0
   -6.8933   15.8762   38.5088 N   0  0  0  0  0  0  0  0  0  0  0  0
   -5.0837   17.4270   38.0296 C   0  0  0  0  0  0  0  0  0  0  0  0
   -3.5423   17.5273   37.8718 C   0  0  2  0  0  0  0  0  0  0  0  0
   -3.1577   18.9174   37.5808 N   0  0  0  0  0  0  0  0  0  0  0  0
   -3.0404   16.6090   36.7252 C   0  0  2  0  0  0  0  0  0  0  0  0
   -3.4495   15.1349   37.0373 C   0  0  2  0  0  0  0  0  0  0  0  0
   -2.9955   14.2891   35.9719 O   0  0  0  0  0  0  0  0  0  0  0  0
   -4.9879   15.0026   37.1485 C   0  0  1  0  0  0  0  0  0  0  0  0
   -5.2814   13.6156   37.4486 O   0  0  0  0  0  0  0  0  0  0  0  0
   -6.5797   13.1350   37.0278 C   0  0  2  0  0  0  0  0  0  0  0  0
   -6.6214   11.6057   37.3980 C   0  0  2  0  0  0  0  0  0  0  0  0
   -6.4671   11.4447   38.7993 O   0  0  0  0  0  0  0  0  0  0  0  0
   -5.4770   10.8577   36.6147 C   0  0  1  0  0  0  0  0  0  0  0  0
   -5.4724    9.3998   36.9444 N   0  0  0  0  0  0  0  0  0  0  0  0
   -4.1124    9.0109   37.3755 C   0  0  0  0  0  0  0  0  0  0  0  0
   -5.7060   11.0657   35.0867 C   0  0  2  0  0  0  0  0  0  0  0  0
   -6.9716   10.5093   34.7340 O   0  0  0  0  0  0  0  0  0  0  0  0
   -4.6294   10.3757   34.2529 C   0  0  0  0  0  0  0  0  0  0  0  0
   -5.7091   12.5963   34.7730 C   0  0  0  0  0  0  0  0  0  0  0  0
   -6.7392   13.2966   35.5686 O   0  0  0  0  0  0  0  0  0  0  0  0
  1  3  1  0  0  0  0
  1  2  1  1  0  0  0
  3  5  1  0  0  0  0
  3  4  1  1  0  0  0
  5  6  1  6  0  0  0
  7  8  1  1  0  0  0
  7  5  1  0  0  0  0
  9 10  1  6  0  0  0
  9  7  1  0  0  0  0
 10  1  1  0  0  0  0
 11 13  1  1  0  0  0
 11  9  1  0  0  0  0
 12 11  1  0  0  0  0
 14 15  1  6  0  0  0
 16 14  1  0  0  0  0
 17 18  1  6  0  0  0
 17 16  1  0  0  0  0
 19  2  1  1  0  0  0
 19 20  1  0  0  0  0
 19 17  1  0  0  0  0
 20 21  1  6  0  0  0
 20 22  1  0  0  0  0
 22 23  1  1  0  0  0
 22 14  1  0  0  0  0
 24 23  1  6  0  0  0
 24 25  1  0  0  0  0
 25 27  1  0  0  0  0
 25 26  1  1  0  0  0
 27 28  1  6  0  0  0
 28 29  1  0  0  0  0
 30 31  1  6  0  0  0
 30 32  1  0  0  0  0
 30 27  1  0  0  0  0
 33 30  1  0  0  0  0
 34 33  1  0  0  0  0
 34 24  1  0  0  0  0
M  END
>  <CHROM.1>
-145.96433144,-60.05731622,-170.73699817,90.27683792,177.18404293,-127.05029113
-3.02729111,15.05998088,36.27340939,-0.78279075,-0.30168535,-3.02119579

>  <Name>
lig.pdb

>  <RI>
0

>  <Rbt.Current_Directory>
/home/itssahil/PROJECTS/Mol_Feturizer/New_Systems/rnas/4k32

>  <Rbt.Executable>
rbdock ($Id: //depot/dev/client3/rdock/2013.1/src/exe/rbdock.cxx#4 $)

>  <Rbt.Library>
libRbt.so (2013.1, Build901 2013/11/27)

>  <Rbt.Parameter_File>
/export/apps/rDock/src/rDock_2013.1_src/data/scripts/dock_solv.prm

>  <Rbt.Receptor>
prm/pocket_docking_6.prm

>  <SCORE>
-15.863

>  <SCORE.INTER>
-11.1703

>  <SCORE.INTER.CONST>
1

>  <SCORE.INTER.POLAR>
0

>  <SCORE.INTER.ROT>
6

>  <SCORE.INTER.SOLV>
20.8841

>  <SCORE.INTER.VDW>
-22.0082

>  <SCORE.INTER.norm>
-0.328538

>  <SCORE.INTRA>
-4.69271

>  <SCORE.INTRA.DIHEDRAL>
-8.36799

>  <SCORE.INTRA.DIHEDRAL.0>
18.0069

>  <SCORE.INTRA.POLAR>
0

>  <SCORE.INTRA.POLAR.0>
0

>  <SCORE.INTRA.REPUL>
0

>  <SCORE.INTRA.REPUL.0>
0

>  <SCORE.INTRA.SOLV>
-1.16682

>  <SCORE.INTRA.SOLV.lig_0>
-70.7393

>  <SCORE.INTRA.VDW>
0.0746955

>  <SCORE.INTRA.VDW.0>
-3.23471

>  <SCORE.INTRA.norm>
-0.138021

>  <SCORE.RESTR>
0

>  <SCORE.RESTR.CAVITY>
0

>  <SCORE.RESTR.norm>
0

>  <SCORE.SYSTEM>
0

>  <SCORE.SYSTEM.CONST>
0

>  <SCORE.SYSTEM.DIHEDRAL>
0

>  <SCORE.SYSTEM.SOLV>
0

>  <SCORE.SYSTEM.norm>
0

>  <SCORE.heavy>
34

>  <SCORE.norm>
-0.466559

>  <RMSD>
1.812

$$$$
lig.pdb
 OpenBabel11021811503D
libRbt.so/2013.1/901 2013/11/27
 34 36  0  0  0  0  0  0  0  0999 V2000
   -0.9363   16.0502   35.6634 C   0  0  2  0  0  0  0  0  0  0  0  0
   -1.5901   16.6325   36.7963 O   0  0  0  0  0  0  0  0  0  0  0  0
    0.5212   15.5967   36.1007 C   0  0  2  0  0  0  0  0  0  0  0  0
    0.4822   14.5917   37.1885 N   0  0  0  0  0  0  0  0  0  0  0  0
    1.3314   16.8364   36.5562 C   0  0  1  0  0  0  0  0  0  0  0  0
    2.6505   16.4485   36.9476 O   0  0  0  0  0  0  0  0  0  0  0  0
    1.3663   17.8510   35.3994 C   0  0  2  0  0  0  0  0  0  0  0  0
    2.1141   18.9985   35.8050 O   0  0  0  0  0  0  0  0  0  0  0  0
   -0.1054   18.2511   34.9990 C   0  0  2  0  0  0  0  0  0  0  0  0
   -0.8820   17.0581   34.5994 O   0  0  0  0  0  0  0  0  0  0  0  0
   -0.1220   19.2607   33.8245 C   0  0  2  0  0  0  0  0  0  0  0  0
    0.6942   20.3890   34.1443 O   0  0  0  0  0  0  0  0  0  0  0  0
   -1.5339   19.7482   33.5387 C   0  0  0  0  0  0  0  0  0  0  0  0
   -5.4558   15.8578   38.4615 C   0  0  2  0  0  0  0  0  0  0  0  0
   -6.9104   15.8052   38.6272 N   0  0  0  0  0  0  0  0  0  0  0  0
   -5.0803   17.3338   38.1545 C   0  0  0  0  0  0  0  0  0  0  0  0
   -3.5375   17.4147   37.9994 C   0  0  2  0  0  0  0  0  0  0  0  0
   -3.1346   18.8004   37.7124 N   0  0  0  0  0  0  0  0  0  0  0  0
   -3.0456   16.4928   36.8515 C   0  0  2  0  0  0  0  0  0  0  0  0
   -3.4740   15.0233   37.1593 C   0  0  2  0  0  0  0  0  0  0  0  0
   -3.0291   14.1743   36.0926 O   0  0  0  0  0  0  0  0  0  0  0  0
   -5.0141   14.9105   37.2678 C   0  0  1  0  0  0  0  0  0  0  0  0
   -5.3259   13.5267   37.5641 O   0  0  0  0  0  0  0  0  0  0  0  0
   -6.6157   13.0540   37.1094 C   0  0  2  0  0  0  0  0  0  0  0  0
   -6.6500   11.5110   37.4178 C   0  0  2  0  0  0  0  0  0  0  0  0
   -6.5102   11.2951   38.8132 O   0  0  0  0  0  0  0  0  0  0  0  0
   -5.4912   10.8030   36.6185 C   0  0  1  0  0  0  0  0  0  0  0  0
   -5.4793    9.3332   36.8898 N   0  0  0  0  0  0  0  0  0  0  0  0
   -4.1325    8.9442   37.3603 C   0  0  0  0  0  0  0  0  0  0  0  0
   -5.7046   11.0703   35.0975 C   0  0  2  0  0  0  0  0  0  0  0  0
   -6.9618   10.5195   34.7083 O   0  0  0  0  0  0  0  0  0  0  0  0
   -4.6134   10.4220   34.2493 C   0  0  0  0  0  0  0  0  0  0  0  0
   -5.7157   12.6122   34.8452 C   0  0  0  0  0  0  0  0  0  0  0  0
   -6.7600   13.2728   35.6562 O   0  0  0  0  0  0  0  0  0  0  0  0
  1  3  1  0  0  0  0
  1  2  1  1  0  0  0
  3  5  1  0  0  0  0
  3  4  1  1  0  0  0
  5  6  1  6  0  0  0
  7  8  1  1  0  0  0
  7  5  1  0  0  0  0
  9 10  1  6  0  0  0
  9  7  1  0  0  0  0
 10  1  1  0  0  0  0
 11 13  1  1  0  0  0
 11  9  1  0  0  0  0
 12 11  1  0  0  0  0
 14 15  1  6  0  0  0
 16 14  1  0  0  0  0
 17 18  1  6  0  0  0
 17 16  1  0  0  0  0
 19  2  1  1  0  0  0
 19 20  1  0  0  0  0
 19 17  1  0  0  0  0
 20 21  1  6  0  0  0
 20 22  1  0  0  0  0
 22 23  1  1  0  0  0
 22 14  1  0  0  0  0
 24 23  1  6  0  0  0
 24 25  1  0  0  0  0
 25 27  1  0  0  0  0
 25 26  1  1  0  0  0
 27 28  1  6  0  0  0
 28 29  1  0  0  0  0
 30 31  1  6  0  0  0
 30 32  1  0  0  0  0
 30 27  1  0  0  0  0
 33 30  1  0  0  0  0
 34 33  1  0  0  0  0
 34 24  1  0  0  0  0
M  END
>  <CHROM.1>
-149.83382837,-53.98943846,-169.61575154,91.81885586,174.41607017,-125.34137291
-3.06019055,14.99183339,36.34117586,-0.77968627,-0.31331315,-3.00432401

>  <Name>
lig.pdb

>  <RI>
0

>  <Rbt.Current_Directory>
/home/itssahil/PROJECTS/Mol_Feturizer/New_Systems/rnas/4k32

>  <Rbt.Executable>
rbdock ($Id: //depot/dev/client3/rdock/2013.1/src/exe/rbdock.cxx#4 $)

>  <Rbt.Library>
libRbt.so (2013.1, Build901 2013/11/27)

>  <Rbt.Parameter_File>
/export/apps/rDock/src/rDock_2013.1_src/data/scripts/dock_solv.prm

>  <Rbt.Receptor>
prm/pocket_docking_4.prm

>  <SCORE>
-15.7222

>  <SCORE.INTER>
-10.9482

>  <SCORE.INTER.CONST>
1

>  <SCORE.INTER.POLAR>
0

>  <SCORE.INTER.ROT>
6

>  <SCORE.INTER.SOLV>
20.132

>  <SCORE.INTER.VDW>
-21.6095

>  <SCORE.INTER.norm>
-0.322007

>  <SCORE.INTRA>
-4.78775

>  <SCORE.INTRA.DIHEDRAL>
-8.43024

>  <SCORE.INTRA.DIHEDRAL.0>
18.0069

>  <SCORE.INTRA.POLAR>
0

>  <SCORE.INTRA.POLAR.0>
0

>  <SCORE.INTRA.REPUL>
0

>  <SCORE.INTRA.REPUL.0>
0

>  <SCORE.INTRA.SOLV>
-1.14125

>  <SCORE.INTRA.SOLV.lig_0>
-70.7393

>  <SCORE.INTRA.VDW>
-0.00200384

>  <SCORE.INTRA.VDW.0>
-3.23471

>  <SCORE.INTRA.norm>
-0.140816

>  <SCORE.RESTR>
0.0137813

>  <SCORE.RESTR.CAVITY>
0.0137813

>  <SCORE.RESTR.norm>
0.000405333

>  <SCORE.SYSTEM>
0

>  <SCORE.SYSTEM.CONST>
0

>  <SCORE.SYSTEM.DIHEDRAL>
0

>  <SCORE.SYSTEM.SOLV>
0

>  <SCORE.SYSTEM.norm>
0

>  <SCORE.heavy>
34

>  <SCORE.norm>
-0.462418

>  <RMSD>
1.843

$$$$
lig.pdb
 OpenBabel11021811503D
libRbt.so/2013.1/901 2013/11/27
 34 36  0  0  0  0  0  0  0  0999 V2000
   -0.8570   16.0322   35.6370 C   0  0  2  0  0  0  0  0  0  0  0  0
   -1.5249   16.6323   36.7524 O   0  0  0  0  0  0  0  0  0  0  0  0
    0.5818   15.5542   36.1087 C   0  0  2  0  0  0  0  0  0  0  0  0
    0.5000   14.5556   37.2001 N   0  0  0  0  0  0  0  0  0  0  0  0
    1.4046   16.7811   36.5762 C   0  0  1  0  0  0  0  0  0  0  0  0
    2.7072   16.3708   36.9987 O   0  0  0  0  0  0  0  0  0  0  0  0
    1.4839   17.7889   35.4158 C   0  0  2  0  0  0  0  0  0  0  0  0
    2.2437   18.9244   35.8324 O   0  0  0  0  0  0  0  0  0  0  0  0
    0.0290   18.2140   34.9809 C   0  0  2  0  0  0  0  0  0  0  0  0
   -0.7606   17.0336   34.5698 O   0  0  0  0  0  0  0  0  0  0  0  0
    0.0572   19.2177   33.8015 C   0  0  2  0  0  0  0  0  0  0  0  0
    0.7894   20.3858   34.1772 O   0  0  0  0  0  0  0  0  0  0  0  0
   -1.3494   19.6344   33.4008 C   0  0  0  0  0  0  0  0  0  0  0  0
   -5.4343   15.9640   38.3605 C   0  0  2  0  0  0  0  0  0  0  0  0
   -6.8927   15.9340   38.4962 N   0  0  0  0  0  0  0  0  0  0  0  0
   -5.0346   17.4232   38.0072 C   0  0  0  0  0  0  0  0  0  0  0  0
   -3.4879   17.4808   37.8829 C   0  0  2  0  0  0  0  0  0  0  0  0
   -3.0623   18.8502   37.5536 N   0  0  0  0  0  0  0  0  0  0  0  0
   -2.9827   16.5112   36.7809 C   0  0  2  0  0  0  0  0  0  0  0  0
   -3.4354   15.0592   37.1335 C   0  0  2  0  0  0  0  0  0  0  0  0
   -2.9781   14.1660   36.1090 O   0  0  0  0  0  0  0  0  0  0  0  0
   -4.9787   14.9678   37.2125 C   0  0  1  0  0  0  0  0  0  0  0  0
   -5.3134   13.5997   37.5530 O   0  0  0  0  0  0  0  0  0  0  0  0
   -6.6030   13.1281   37.0965 C   0  0  2  0  0  0  0  0  0  0  0  0
   -6.6527   11.5920   37.4362 C   0  0  2  0  0  0  0  0  0  0  0  0
   -6.5271   11.4039   38.8370 O   0  0  0  0  0  0  0  0  0  0  0  0
   -5.4926   10.8585   36.6622 C   0  0  1  0  0  0  0  0  0  0  0  0
   -5.4952    9.3945   36.9638 N   0  0  0  0  0  0  0  0  0  0  0  0
   -4.1502    9.0007   37.4357 C   0  0  0  0  0  0  0  0  0  0  0  0
   -5.6903   11.0960   35.1342 C   0  0  2  0  0  0  0  0  0  0  0  0
   -6.9485   10.5473   34.7450 O   0  0  0  0  0  0  0  0  0  0  0  0
   -4.5970   10.4216   34.3094 C   0  0  0  0  0  0  0  0  0  0  0  0
   -5.6866   12.6324   34.8501 C   0  0  0  0  0  0  0  0  0  0  0  0
   -6.7326   13.3180   35.6378 O   0  0  0  0  0  0  0  0  0  0  0  0
  1  3  1  0  0  0  0
  1  2  1  1  0  0  0
  3  5  1  0  0  0  0
  3  4  1  1  0  0  0
  5  6  1  6  0  0  0
  7  8  1  1  0  0  0
  7  5  1  0  0  0  0
  9 10  1  6  0  0  0
  9  7  1  0  0  0  0
 10  1  1  0  0  0  0
 11 13  1  1  0  0  0
 11  9  1  0  0  0  0
 12 11  1  0  0  0  0
 14 15  1  6  0  0  0
 16 14  1  0  0  0  0
 17 18  1  6  0  0  0
 17 16  1  0  0  0  0
 19  2  1  1  0  0  0
 19 20  1  0  0  0  0
 19 17  1  0  0  0  0
 20 21  1  6  0  0  0
 20 22  1  0  0  0  0
 22 23  1  1  0  0  0
 22 14  1  0  0  0  0
 24 23  1  6  0  0  0
 24 25  1  0  0  0  0
 25 27  1  0  0  0  0
 25 26  1  1  0  0  0
 27 28  1  6  0  0  0
 28 29  1  0  0  0  0
 30 31  1  6  0  0  0
 30 32  1  0  0  0  0
 30 27  1  0  0  0  0
 33 30  1  0  0  0  0
 34 33  1  0  0  0  0
 34 24  1  0  0  0  0
M  END
>  <CHROM.1>
-149.39607502,-59.07273410,-167.96219107,91.38581216,173.45889030,-126.15617075
-3.00773943,15.00834073,36.32554378,-0.77331042,-0.28240481,-3.03607197

>  <Name>
lig.pdb

>  <RI>
0

>  <Rbt.Current_Directory>
/home/itssahil/PROJECTS/Mol_Feturizer/New_Systems/rnas/4k32

>  <Rbt.Executable>
rbdock ($Id: //depot/dev/client3/rdock/2013.1/src/exe/rbdock.cxx#4 $)

>  <Rbt.Library>
libRbt.so (2013.1, Build901 2013/11/27)

>  <Rbt.Parameter_File>
/export/apps/rDock/src/rDock_2013.1_src/data/scripts/dock_solv.prm

>  <Rbt.Receptor>
prm/pocket_docking_5.prm

>  <SCORE>
-16.0537

>  <SCORE.INTER>
-11.3006

>  <SCORE.INTER.CONST>
1

>  <SCORE.INTER.POLAR>
0

>  <SCORE.INTER.ROT>
6

>  <SCORE.INTER.SOLV>
20.8236

>  <SCORE.INTER.VDW>
-22.0749

>  <SCORE.INTER.norm>
-0.33237

>  <SCORE.INTRA>
-4.75313

>  <SCORE.INTRA.DIHEDRAL>
-8.34282

>  <SCORE.INTRA.DIHEDRAL.0>
18.0069

>  <SCORE.INTRA.POLAR>
0

>  <SCORE.INTRA.POLAR.0>
0

>  <SCORE.INTRA.REPUL>
0

>  <SCORE.INTRA.REPUL.0>
0

>  <SCORE.INTRA.SOLV>
-1.06582

>  <SCORE.INTRA.SOLV.lig_0>
-70.7393

>  <SCORE.INTRA.VDW>
-0.0488149

>  <SCORE.INTRA.VDW.0>
-3.23471

>  <SCORE.INTRA.norm>
-0.139798

>  <SCORE.RESTR>
0

>  <SCORE.RESTR.CAVITY>
0

>  <SCORE.RESTR.norm>
0

>  <SCORE.SYSTEM>
0

>  <SCORE.SYSTEM.CONST>
0

>  <SCORE.SYSTEM.DIHEDRAL>
0

>  <SCORE.SYSTEM.SOLV>
0

>  <SCORE.SYSTEM.norm>
0

>  <SCORE.heavy>
34

>  <SCORE.norm>
-0.472168

>  <RMSD>
1.843

$$$$
lig.pdb
 OpenBabel11021811503D
libRbt.so/2013.1/901 2013/11/27
 34 36  0  0  0  0  0  0  0  0999 V2000
   -1.4713   17.2978   35.0201 C   0  0  2  0  0  0  0  0  0  0  0  0
   -1.9282   17.6517   36.3302 O   0  0  0  0  0  0  0  0  0  0  0  0
    0.0428   16.8309   35.1234 C   0  0  2  0  0  0  0  0  0  0  0  0
    0.1968   15.6531   36.0089 N   0  0  0  0  0  0  0  0  0  0  0  0
    0.9086   18.0034   35.6493 C   0  0  1  0  0  0  0  0  0  0  0  0
    2.2780   17.6037   35.7425 O   0  0  0  0  0  0  0  0  0  0  0  0
    0.7387   19.2023   34.6993 C   0  0  2  0  0  0  0  0  0  0  0  0
    1.5353   20.2903   35.1707 O   0  0  0  0  0  0  0  0  0  0  0  0
   -0.7827   19.6097   34.6248 C   0  0  2  0  0  0  0  0  0  0  0  0
   -1.6063   18.4750   34.1559 O   0  0  0  0  0  0  0  0  0  0  0  0
   -1.0063   20.8049   33.6652 C   0  0  2  0  0  0  0  0  0  0  0  0
   -2.3490   21.2784   33.7863 O   0  0  0  0  0  0  0  0  0  0  0  0
   -0.7621   20.4020   32.2193 C   0  0  0  0  0  0  0  0  0  0  0  0
   -5.6299   16.9530   38.3613 C   0  0  2  0  0  0  0  0  0  0  0  0
   -7.0551   16.9843   38.6990 N   0  0  0  0  0  0  0  0  0  0  0  0
   -5.1665   18.4252   38.1830 C   0  0  0  0  0  0  0  0  0  0  0  0
   -3.6503   18.4143   37.8481 C   0  0  2  0  0  0  0  0  0  0  0  0
   -3.1653   19.7927   37.6756 N   0  0  0  0  0  0  0  0  0  0  0  0
   -3.3743   17.6107   36.5490 C   0  0  2  0  0  0  0  0  0  0  0  0
   -3.8895   16.1487   36.7354 C   0  0  2  0  0  0  0  0  0  0  0  0
   -3.6444   15.4103   35.5307 O   0  0  0  0  0  0  0  0  0  0  0  0
   -5.4110   16.1335   37.0204 C   0  0  1  0  0  0  0  0  0  0  0  0
   -5.8047   14.7494   37.1908 O   0  0  0  0  0  0  0  0  0  0  0  0
   -5.3999   14.1212   38.4299 C   0  0  2  0  0  0  0  0  0  0  0  0
   -4.3643   13.0033   38.0359 C   0  0  2  0  0  0  0  0  0  0  0  0
   -3.2440   13.5894   37.3920 O   0  0  0  0  0  0  0  0  0  0  0  0
   -5.0730   11.9575   37.0942 C   0  0  1  0  0  0  0  0  0  0  0  0
   -4.1213   10.8797   36.6856 N   0  0  0  0  0  0  0  0  0  0  0  0
   -3.7920   11.0494   35.2541 C   0  0  0  0  0  0  0  0  0  0  0  0
   -6.2863   11.3461   37.8588 C   0  0  2  0  0  0  0  0  0  0  0  0
   -5.8046   10.6881   39.0296 O   0  0  0  0  0  0  0  0  0  0  0  0
   -7.0359   10.3239   37.0081 C   0  0  0  0  0  0  0  0  0  0  0  0
   -7.2604   12.4944   38.2753 C   0  0  0  0  0  0  0  0  0  0  0  0
   -6.5640   13.5057   39.0981 O   0  0  0  0  0  0  0  0  0  0  0  0
  1  3  1  0  0  0  0
  1  2  1  1  0  0  0
  3  5  1  0  0  0  0
  3  4  1  1  0  0  0
  5  6  1  6  0  0  0
  7  8  1  1  0  0  0
  7  5  1  0  0  0  0
  9 10  1  6  0  0  0
  9  7  1  0  0  0  0
 10  1  1  0  0  0  0
 11 13  1  6  0  0  0
 11  9  1  0  0  0  0
 12 11  1  0  0  0  0
 14 15  1  6  0  0  0
 16 14  1  0  0  0  0
 17 18  1  6  0  0  0
 17 16  1  0  0  0  0
 19  2  1  1  0  0  0
 19 20  1  0  0  0  0
 19 17  1  0  0  0  0
 20 21  1  6  0  0  0
 20 22  1  0  0  0  0
 22 23  1  1  0  0  0
 22 14  1  0  0  0  0
 24 23  1  6  0  0  0
 24 25  1  0  0  0  0
 25 27  1  0  0  0  0
 25 26  1  6  0  0  0
 27 28  1  1  0  0  0
 28 29  1  0  0  0  0
 30 31  1  1  0  0  0
 30 32  1  0  0  0  0
 30 27  1  0  0  0  0
 33 30  1  0  0  0  0
 34 33  1  0  0  0  0
 34 24  1  0  0  0  0
M  END
>  <CHROM.1>
-157.27379242,-170.81745315,-163.56768432,-42.63309192,-113.78745954,-108.94984175
-3.21792755,16.07234714,36.45715271,-0.86350724,-0.47363599,3.10102819

>  <Name>
lig.pdb

>  <RI>
0

>  <Rbt.Current_Directory>
/home/itssahil/PROJECTS/Mol_Feturizer/New_Systems/rnas/4k32

>  <Rbt.Executable>
rbdock ($Id: //depot/dev/client3/rdock/2013.1/src/exe/rbdock.cxx#4 $)

>  <Rbt.Library>
libRbt.so (2013.1, Build901 2013/11/27)

>  <Rbt.Parameter_File>
/export/apps/rDock/src/rDock_2013.1_src/data/scripts/dock_solv.prm

>  <Rbt.Receptor>
prm/pocket_docking_3.prm

>  <SCORE>
-12.6083

>  <SCORE.INTER>
-11.5289

>  <SCORE.INTER.CONST>
1

>  <SCORE.INTER.POLAR>
0

>  <SCORE.INTER.ROT>
6

>  <SCORE.INTER.SOLV>
22.3017

>  <SCORE.INTER.VDW>
-22.7199

>  <SCORE.INTER.norm>
-0.339086

>  <SCORE.INTRA>
-1.07932

>  <SCORE.INTRA.DIHEDRAL>
-4.63411

>  <SCORE.INTRA.DIHEDRAL.0>
18.0069

>  <SCORE.INTRA.POLAR>
0

>  <SCORE.INTRA.POLAR.0>
0

>  <SCORE.INTRA.REPUL>
0

>  <SCORE.INTRA.REPUL.0>
0

>  <SCORE.INTRA.SOLV>
-0.592389

>  <SCORE.INTRA.SOLV.lig_0>
-70.7393

>  <SCORE.INTRA.VDW>
1.53393

>  <SCORE.INTRA.VDW.0>
-3.23471

>  <SCORE.INTRA.norm>
-0.0317447

>  <SCORE.RESTR>
0

>  <SCORE.RESTR.CAVITY>
0

>  <SCORE.RESTR.norm>
0

>  <SCORE.SYSTEM>
0

>  <SCORE.SYSTEM.CONST>
0

>  <SCORE.SYSTEM.DIHEDRAL>
0

>  <SCORE.SYSTEM.SOLV>
0

>  <SCORE.SYSTEM.norm>
0

>  <SCORE.heavy>
34

>  <SCORE.norm>
-0.370831

>  <RMSD>
1.848

$$$$
lig.pdb
 OpenBabel11021811503D
libRbt.so/2013.1/901 2013/11/27
 34 36  0  0  0  0  0  0  0  0999 V2000
   -0.8895   16.0882   35.5428 C   0  0  2  0  0  0  0  0  0  0  0  0
   -1.5539   16.6569   36.6765 O   0  0  0  0  0  0  0  0  0  0  0  0
    0.5474   15.5894   35.9986 C   0  0  2  0  0  0  0  0  0  0  0  0
    0.4617   14.5583   37.0590 N   0  0  0  0  0  0  0  0  0  0  0  0
    1.3761   16.7977   36.5029 C   0  0  1  0  0  0  0  0  0  0  0  0
    2.6770   16.3689   36.9117 O   0  0  0  0  0  0  0  0  0  0  0  0
    1.4593   17.8402   35.3738 C   0  0  2  0  0  0  0  0  0  0  0  0
    2.2245   18.9590   35.8244 O   0  0  0  0  0  0  0  0  0  0  0  0
    0.0061   18.2850   34.9531 C   0  0  2  0  0  0  0  0  0  0  0  0
   -0.7890   17.1212   34.5066 O   0  0  0  0  0  0  0  0  0  0  0  0
    0.0381   19.3242   33.8050 C   0  0  2  0  0  0  0  0  0  0  0  0
    0.7738   20.4779   34.2165 O   0  0  0  0  0  0  0  0  0  0  0  0
   -1.3669   19.7573   33.4163 C   0  0  0  0  0  0  0  0  0  0  0  0
   -5.4441   15.9191   38.3009 C   0  0  2  0  0  0  0  0  0  0  0  0
   -6.9010   15.8723   38.4471 N   0  0  0  0  0  0  0  0  0  0  0  0
   -5.0611   17.3888   37.9736 C   0  0  0  0  0  0  0  0  0  0  0  0
   -3.5160   17.4638   37.8386 C   0  0  2  0  0  0  0  0  0  0  0  0
   -3.1061   18.8435   37.5332 N   0  0  0  0  0  0  0  0  0  0  0  0
   -3.0103   16.5211   36.7138 C   0  0  2  0  0  0  0  0  0  0  0  0
   -3.4463   15.0581   37.0410 C   0  0  2  0  0  0  0  0  0  0  0  0
   -2.9886   14.1898   35.9955 O   0  0  0  0  0  0  0  0  0  0  0  0
   -4.9880   14.9503   37.1300 C   0  0  1  0  0  0  0  0  0  0  0  0
   -5.3070   13.5725   37.4458 O   0  0  0  0  0  0  0  0  0  0  0  0
   -6.6054   13.1046   37.0110 C   0  0  2  0  0  0  0  0  0  0  0  0
   -6.6573   11.5706   37.3598 C   0  0  2  0  0  0  0  0  0  0  0  0
   -6.5118   11.3895   38.7595 O   0  0  0  0  0  0  0  0  0  0  0  0
   -5.5123   10.8274   36.5727 C   0  0  1  0  0  0  0  0  0  0  0  0
   -5.5173    9.3651   36.8822 N   0  0  0  0  0  0  0  0  0  0  0  0
   -4.1754    8.9734   37.3644 C   0  0  0  0  0  0  0  0  0  0  0  0
   -5.7315   11.0577   35.0465 C   0  0  2  0  0  0  0  0  0  0  0  0
   -6.9979   10.5130   34.6789 O   0  0  0  0  0  0  0  0  0  0  0  0
   -4.6537   10.3736   34.2093 C   0  0  0  0  0  0  0  0  0  0  0  0
   -5.7247   12.5925   34.7540 C   0  0  0  0  0  0  0  0  0  0  0  0
   -6.7557   13.2873   35.5534 O   0  0  0  0  0  0  0  0  0  0  0  0
  1  3  1  0  0  0  0
  1  2  1  1  0  0  0
  3  5  1  0  0  0  0
  3  4  1  1  0  0  0
  5  6  1  6  0  0  0
  7  8  1  1  0  0  0
  7  5  1  0  0  0  0
  9 10  1  6  0  0  0
  9  7  1  0  0  0  0
 10  1  1  0  0  0  0
 11 13  1  1  0  0  0
 11  9  1  0  0  0  0
 12 11  1  0  0  0  0
 14 15  1  6  0  0  0
 16 14  1  0  0  0  0
 17 18  1  6  0  0  0
 17 16  1  0  0  0  0
 19  2  1  1  0  0  0
 19 20  1  0  0  0  0
 19 17  1  0  0  0  0
 20 21  1  6  0  0  0
 20 22  1  0  0  0  0
 22 23  1  1  0  0  0
 22 14  1  0  0  0  0
 24 23  1  6  0  0  0
 24 25  1  0  0  0  0
 25 27  1  0  0  0  0
 25 26  1  1  0  0  0
 27 28  1  6  0  0  0
 28 29  1  0  0  0  0
 30 31  1  6  0  0  0
 30 32  1  0  0  0  0
 30 27  1  0  0  0  0
 33 30  1  0  0  0  0
 34 33  1  0  0  0  0
 34 24  1  0  0  0  0
M  END
>  <CHROM.1>
-148.36817989,-59.18115716,-167.82070011,90.31433261,175.34296179,-124.93545884
-3.03045415,15.01417474,36.25964603,-0.78150864,-0.28289669,-3.02995715

>  <Name>
lig.pdb

>  <RI>
0

>  <Rbt.Current_Directory>
/home/itssahil/PROJECTS/Mol_Feturizer/New_Systems/rnas/4k32

>  <Rbt.Executable>
rbdock ($Id: //depot/dev/client3/rdock/2013.1/src/exe/rbdock.cxx#4 $)

>  <Rbt.Library>
libRbt.so (2013.1, Build901 2013/11/27)

>  <Rbt.Parameter_File>
/export/apps/rDock/src/rDock_2013.1_src/data/scripts/dock_solv.prm

>  <Rbt.Receptor>
prm/pocket_docking_6.prm

>  <SCORE>
-15.9261

>  <SCORE.INTER>
-11.136

>  <SCORE.INTER.CONST>
1

>  <SCORE.INTER.POLAR>
0

>  <SCORE.INTER.ROT>
6

>  <SCORE.INTER.SOLV>
21.0961

>  <SCORE.INTER.VDW>
-22.056

>  <SCORE.INTER.norm>
-0.327529

>  <SCORE.INTRA>
-4.79767

>  <SCORE.INTRA.DIHEDRAL>
-8.42499

>  <SCORE.INTRA.DIHEDRAL.0>
18.0069

>  <SCORE.INTRA.POLAR>
0

>  <SCORE.INTRA.POLAR.0>
0

>  <SCORE.INTRA.REPUL>
0

>  <SCORE.INTRA.REPUL.0>
0

>  <SCORE.INTRA.SOLV>
-1.02879

>  <SCORE.INTRA.SOLV.lig_0>
-70.7393

>  <SCORE.INTRA.VDW>
-0.0707781

>  <SCORE.INTRA.VDW.0>
-3.23471

>  <SCORE.INTRA.norm>
-0.141108

>  <SCORE.RESTR>
0.00752586

>  <SCORE.RESTR.CAVITY>
0.00752586

>  <SCORE.RESTR.norm>
0.000221349

>  <SCORE.SYSTEM>
0

>  <SCORE.SYSTEM.CONST>
0

>  <SCORE.SYSTEM.DIHEDRAL>
0

>  <SCORE.SYSTEM.SOLV>
0

>  <SCORE.SYSTEM.norm>
0

>  <SCORE.heavy>
34

>  <SCORE.norm>
-0.468415

>  <RMSD>
1.849

$$$$
lig.pdb
 OpenBabel11021811503D
libRbt.so/2013.1/901 2013/11/27
 34 36  0  0  0  0  0  0  0  0999 V2000
   -0.9523   16.0664   35.6704 C   0  0  2  0  0  0  0  0  0  0  0  0
   -1.6059   16.6436   36.8062 O   0  0  0  0  0  0  0  0  0  0  0  0
    0.5038   15.6071   36.1064 C   0  0  2  0  0  0  0  0  0  0  0  0
    0.4615   14.5959   37.1884 N   0  0  0  0  0  0  0  0  0  0  0  0
    1.3164   16.8423   36.5698 C   0  0  1  0  0  0  0  0  0  0  0  0
    2.6341   16.4492   36.9601 O   0  0  0  0  0  0  0  0  0  0  0  0
    1.3545   17.8635   35.4190 C   0  0  2  0  0  0  0  0  0  0  0  0
    2.1046   19.0070   35.8318 O   0  0  0  0  0  0  0  0  0  0  0  0
   -0.1160   18.2692   35.0196 C   0  0  2  0  0  0  0  0  0  0  0  0
   -0.8949   17.0803   34.6124 O   0  0  0  0  0  0  0  0  0  0  0  0
   -0.1292   19.2856   33.8509 C   0  0  2  0  0  0  0  0  0  0  0  0
    0.7258   20.3883   34.1584 O   0  0  0  0  0  0  0  0  0  0  0  0
   -1.5324   19.8149   33.5987 C   0  0  0  0  0  0  0  0  0  0  0  0
   -5.4602   15.8391   38.4834 C   0  0  2  0  0  0  0  0  0  0  0  0
   -6.9139   15.7767   38.6544 N   0  0  0  0  0  0  0  0  0  0  0  0
   -5.0953   17.3185   38.1798 C   0  0  0  0  0  0  0  0  0  0  0  0
   -3.5535   17.4096   38.0191 C   0  0  2  0  0  0  0  0  0  0  0  0
   -3.1606   18.7988   37.7350 N   0  0  0  0  0  0  0  0  0  0  0  0
   -3.0602   16.4945   36.8664 C   0  0  2  0  0  0  0  0  0  0  0  0
   -3.4782   15.0214   37.1711 C   0  0  2  0  0  0  0  0  0  0  0  0
   -3.0320   14.1786   36.1000 O   0  0  0  0  0  0  0  0  0  0  0  0
   -5.0171   14.8984   37.2850 C   0  0  1  0  0  0  0  0  0  0  0  0
   -5.3190   13.5117   37.5780 O   0  0  0  0  0  0  0  0  0  0  0  0
   -6.6211   13.0418   37.1570 C   0  0  2  0  0  0  0  0  0  0  0  0
   -6.6434   11.4951   37.4481 C   0  0  2  0  0  0  0  0  0  0  0  0
   -6.4611   11.2632   38.8360 O   0  0  0  0  0  0  0  0  0  0  0  0
   -5.5082   10.7991   36.6058 C   0  0  1  0  0  0  0  0  0  0  0  0
   -5.4855    9.3261   36.8593 N   0  0  0  0  0  0  0  0  0  0  0  0
   -4.1206    8.9320   37.2696 C   0  0  0  0  0  0  0  0  0  0  0  0
   -5.7680   11.0837   35.0952 C   0  0  2  0  0  0  0  0  0  0  0  0
   -7.0355   10.5349   34.7377 O   0  0  0  0  0  0  0  0  0  0  0  0
   -4.7019   10.4476   34.2068 C   0  0  0  0  0  0  0  0  0  0  0  0
   -5.7894   12.6284   34.8615 C   0  0  0  0  0  0  0  0  0  0  0  0
   -6.8098   13.2773   35.7115 O   0  0  0  0  0  0  0  0  0  0  0  0
  1  3  1  0  0  0  0
  1  2  1  1  0  0  0
  3  5  1  0  0  0  0
  3  4  1  1  0  0  0
  5  6  1  6  0  0  0
  7  8  1  1  0  0  0
  7  5  1  0  0  0  0
  9 10  1  6  0  0  0
  9  7  1  0  0  0  0
 10  1  1  0  0  0  0
 11 13  1  1  0  0  0
 11  9  1  0  0  0  0
 12 11  1  0  0  0  0
 14 15  1  6  0  0  0
 16 14  1  0  0  0  0
 17 18  1  6  0  0  0
 17 16  1  0  0  0  0
 19  2  1  1  0  0  0
 19 20  1  0  0  0  0
 19 17  1  0  0  0  0
 20 21  1  6  0  0  0
 20 22  1  0  0  0  0
 22 23  1  1  0  0  0
 22 14  1  0  0  0  0
 24 23  1  6  0  0  0
 24 25  1  0  0  0  0
 25 27  1  0  0  0  0
 25 26  1  1  0  0  0
 27 28  1  6  0  0  0
 28 29  1  0  0  0  0
 30 31  1  6  0  0  0
 30 32  1  0  0  0  0
 30 27  1  0  0  0  0
 33 30  1  0  0  0  0
 34 33  1  0  0  0  0
 34 24  1  0  0  0  0
M  END
>  <CHROM.1>
-149.20703843,-51.99061887,-169.75565759,90.29397011,174.22900283,-125.96531984
-3.07505163,14.99489447,36.35394895,-0.77891385,-0.31495993,-2.99902449

>  <Name>
lig.pdb

>  <RI>
0

>  <Rbt.Current_Directory>
/home/itssahil/PROJECTS/Mol_Feturizer/New_Systems/rnas/4k32

>  <Rbt.Executable>
rbdock ($Id: //depot/dev/client3/rdock/2013.1/src/exe/rbdock.cxx#4 $)

>  <Rbt.Library>
libRbt.so (2013.1, Build901 2013/11/27)

>  <Rbt.Parameter_File>
/export/apps/rDock/src/rDock_2013.1_src/data/scripts/dock_solv.prm

>  <Rbt.Receptor>
prm/pocket_docking_4.prm

>  <SCORE>
-15.6412

>  <SCORE.INTER>
-10.9175

>  <SCORE.INTER.CONST>
1

>  <SCORE.INTER.POLAR>
0

>  <SCORE.INTER.ROT>
6

>  <SCORE.INTER.SOLV>
19.9698

>  <SCORE.INTER.VDW>
-21.5349

>  <SCORE.INTER.norm>
-0.321102

>  <SCORE.INTRA>
-4.72829

>  <SCORE.INTRA.DIHEDRAL>
-8.50054

>  <SCORE.INTRA.DIHEDRAL.0>
18.0069

>  <SCORE.INTRA.POLAR>
0

>  <SCORE.INTRA.POLAR.0>
0

>  <SCORE.INTRA.REPUL>
0

>  <SCORE.INTRA.REPUL.0>
0

>  <SCORE.INTRA.SOLV>
-1.07784

>  <SCORE.INTRA.SOLV.lig_0>
-70.7393

>  <SCORE.INTRA.VDW>
0.0609042

>  <SCORE.INTRA.VDW.0>
-3.23471

>  <SCORE.INTRA.norm>
-0.139067

>  <SCORE.RESTR>
0.00455591

>  <SCORE.RESTR.CAVITY>
0.00455591

>  <SCORE.RESTR.norm>
0.000133997

>  <SCORE.SYSTEM>
0

>  <SCORE.SYSTEM.CONST>
0

>  <SCORE.SYSTEM.DIHEDRAL>
0

>  <SCORE.SYSTEM.SOLV>
0

>  <SCORE.SYSTEM.norm>
0

>  <SCORE.heavy>
34

>  <SCORE.norm>
-0.460035

>  <RMSD>
1.852

$$$$
lig.pdb
 OpenBabel11021811503D
libRbt.so/2013.1/901 2013/11/27
 34 36  0  0  0  0  0  0  0  0999 V2000
   -1.4965   17.2871   35.0039 C   0  0  2  0  0  0  0  0  0  0  0  0
   -1.9621   17.6421   36.3105 O   0  0  0  0  0  0  0  0  0  0  0  0
    0.0147   16.8134   35.1188 C   0  0  2  0  0  0  0  0  0  0  0  0
    0.1565   15.6343   36.0045 N   0  0  0  0  0  0  0  0  0  0  0  0
    0.8815   17.9817   35.6522 C   0  0  1  0  0  0  0  0  0  0  0  0
    2.2483   17.5760   35.7560 O   0  0  0  0  0  0  0  0  0  0  0  0
    0.7244   19.1820   34.7018 C   0  0  2  0  0  0  0  0  0  0  0  0
    1.5221   20.2661   35.1803 O   0  0  0  0  0  0  0  0  0  0  0  0
   -0.7946   19.5962   34.6156 C   0  0  2  0  0  0  0  0  0  0  0  0
   -1.6195   18.4654   34.1394 O   0  0  0  0  0  0  0  0  0  0  0  0
   -1.0054   20.7930   33.6552 C   0  0  2  0  0  0  0  0  0  0  0  0
   -2.3340   21.2994   33.7969 O   0  0  0  0  0  0  0  0  0  0  0  0
   -0.7954   20.3792   32.2070 C   0  0  0  0  0  0  0  0  0  0  0  0
   -5.6521   16.8579   38.3318 C   0  0  2  0  0  0  0  0  0  0  0  0
   -7.0777   16.8608   38.6689 N   0  0  0  0  0  0  0  0  0  0  0  0
   -5.2141   18.3397   38.1695 C   0  0  0  0  0  0  0  0  0  0  0  0
   -3.6978   18.3586   37.8354 C   0  0  2  0  0  0  0  0  0  0  0  0
   -3.2367   19.7469   37.6779 N   0  0  0  0  0  0  0  0  0  0  0  0
   -3.4074   17.5737   36.5280 C   0  0  2  0  0  0  0  0  0  0  0  0
   -3.8973   16.1011   36.6985 C   0  0  2  0  0  0  0  0  0  0  0  0
   -3.6389   15.3800   35.4862 O   0  0  0  0  0  0  0  0  0  0  0  0
   -5.4184   16.0566   36.9824 C   0  0  1  0  0  0  0  0  0  0  0  0
   -5.7881   14.6641   37.1379 O   0  0  0  0  0  0  0  0  0  0  0  0
   -5.3657   14.0275   38.3667 C   0  0  2  0  0  0  0  0  0  0  0  0
   -4.3348   12.9133   37.9506 C   0  0  2  0  0  0  0  0  0  0  0  0
   -3.2240   13.5050   37.2954 O   0  0  0  0  0  0  0  0  0  0  0  0
   -5.0556   11.8736   37.0114 C   0  0  1  0  0  0  0  0  0  0  0  0
   -4.1088   10.7996   36.5820 N   0  0  0  0  0  0  0  0  0  0  0  0
   -3.8991   10.9021   35.1219 C   0  0  0  0  0  0  0  0  0  0  0  0
   -6.2577   11.2557   37.7883 C   0  0  2  0  0  0  0  0  0  0  0  0
   -5.7593   10.5899   38.9476 O   0  0  0  0  0  0  0  0  0  0  0  0
   -7.0181   10.2389   36.9408 C   0  0  0  0  0  0  0  0  0  0  0  0
   -7.2269   12.4001   38.2264 C   0  0  0  0  0  0  0  0  0  0  0  0
   -6.5200   13.4062   39.0466 O   0  0  0  0  0  0  0  0  0  0  0  0
  1  3  1  0  0  0  0
  1  2  1  1  0  0  0
  3  5  1  0  0  0  0
  3  4  1  1  0  0  0
  5  6  1  6  0  0  0
  7  8  1  1  0  0  0
  7  5  1  0  0  0  0
  9 10  1  6  0  0  0
  9  7  1  0  0  0  0
 10  1  1  0  0  0  0
 11 13  1  6  0  0  0
 11  9  1  0  0  0  0
 12 11  1  0  0  0  0
 14 15  1  6  0  0  0
 16 14  1  0  0  0  0
 17 18  1  6  0  0  0
 17 16  1  0  0  0  0
 19  2  1  1  0  0  0
 19 20  1  0  0  0  0
 19 17  1  0  0  0  0
 20 21  1  6  0  0  0
 20 22  1  0  0  0  0
 22 23  1  1  0  0  0
 22 14  1  0  0  0  0
 24 23  1  6  0  0  0
 24 25  1  0  0  0  0
 25 27  1  0  0  0  0
 25 26  1  6  0  0  0
 27 28  1  1  0  0  0
 28 29  1  0  0  0  0
 30 31  1  1  0  0  0
 30 32  1  0  0  0  0
 30 27  1  0  0  0  0
 33 30  1  0  0  0  0
 34 33  1  0  0  0  0
 34 24  1  0  0  0  0
M  END
>  <CHROM.1>
-155.73540958,-168.98354160,-164.64466244,-43.00920785,-114.84386571,-114.22838869
-3.22692713,16.01617935,36.42127968,-0.87128788,-0.47658899,3.11172116

>  <Name>
lig.pdb

>  <RI>
0

>  <Rbt.Current_Directory>
/home/itssahil/PROJECTS/Mol_Feturizer/New_Systems/rnas/4k32

>  <Rbt.Executable>
rbdock ($Id: //depot/dev/client3/rdock/2013.1/src/exe/rbdock.cxx#4 $)

>  <Rbt.Library>
libRbt.so (2013.1, Build901 2013/11/27)

>  <Rbt.Parameter_File>
/export/apps/rDock/src/rDock_2013.1_src/data/scripts/dock_solv.prm

>  <Rbt.Receptor>
prm/pocket_docking_5.prm

>  <SCORE>
-12.5524

>  <SCORE.INTER>
-11.6007

>  <SCORE.INTER.CONST>
1

>  <SCORE.INTER.POLAR>
0

>  <SCORE.INTER.ROT>
6

>  <SCORE.INTER.SOLV>
22.2757

>  <SCORE.INTER.VDW>
-22.759

>  <SCORE.INTER.norm>
-0.341198

>  <SCORE.INTRA>
-0.951643

>  <SCORE.INTRA.DIHEDRAL>
-4.30451

>  <SCORE.INTRA.DIHEDRAL.0>
18.0069

>  <SCORE.INTRA.POLAR>
0

>  <SCORE.INTRA.POLAR.0>
0

>  <SCORE.INTRA.REPUL>
0.00679866

>  <SCORE.INTRA.REPUL.0>
0

>  <SCORE.INTRA.SOLV>
-0.594413

>  <SCORE.INTRA.SOLV.lig_0>
-70.7393

>  <SCORE.INTRA.VDW>
1.46383

>  <SCORE.INTRA.VDW.0>
-3.23471

>  <SCORE.INTRA.norm>
-0.0279895

>  <SCORE.RESTR>
0

>  <SCORE.RESTR.CAVITY>
0

>  <SCORE.RESTR.norm>
0

>  <SCORE.SYSTEM>
0

>  <SCORE.SYSTEM.CONST>
0

>  <SCORE.SYSTEM.DIHEDRAL>
0

>  <SCORE.SYSTEM.SOLV>
0

>  <SCORE.SYSTEM.norm>
0

>  <SCORE.heavy>
34

>  <SCORE.norm>
-0.369187

>  <RMSD>
1.854

$$$$
lig.pdb
 OpenBabel11021811503D
libRbt.so/2013.1/901 2013/11/27
 34 36  0  0  0  0  0  0  0  0999 V2000
   -1.6778   17.1302   35.1813 C   0  0  2  0  0  0  0  0  0  0  0  0
   -2.1459   17.5346   36.4727 O   0  0  0  0  0  0  0  0  0  0  0  0
   -0.1803   16.6220   35.3245 C   0  0  2  0  0  0  0  0  0  0  0  0
   -0.0768   15.4658   36.2452 N   0  0  0  0  0  0  0  0  0  0  0  0
    0.7112   17.7829   35.8326 C   0  0  1  0  0  0  0  0  0  0  0  0
    2.0662   17.3458   35.9613 O   0  0  0  0  0  0  0  0  0  0  0  0
    0.5935   18.9588   34.8466 C   0  0  2  0  0  0  0  0  0  0  0  0
    1.4143   20.0357   35.3015 O   0  0  0  0  0  0  0  0  0  0  0  0
   -0.9136   19.4086   34.7337 C   0  0  2  0  0  0  0  0  0  0  0  0
   -1.7628   18.2857   34.2822 O   0  0  0  0  0  0  0  0  0  0  0  0
   -1.0850   20.5820   33.7373 C   0  0  2  0  0  0  0  0  0  0  0  0
   -2.4071   21.1143   33.8388 O   0  0  0  0  0  0  0  0  0  0  0  0
   -0.8541   20.1252   32.3053 C   0  0  0  0  0  0  0  0  0  0  0  0
   -5.8208   16.6746   38.4907 C   0  0  2  0  0  0  0  0  0  0  0  0
   -7.2443   16.6621   38.8365 N   0  0  0  0  0  0  0  0  0  0  0  0
   -5.3885   18.1622   38.3728 C   0  0  0  0  0  0  0  0  0  0  0  0
   -3.8744   18.1967   38.0301 C   0  0  2  0  0  0  0  0  0  0  0  0
   -3.4186   19.5909   37.9139 N   0  0  0  0  0  0  0  0  0  0  0  0
   -3.5896   17.4546   36.6967 C   0  0  2  0  0  0  0  0  0  0  0  0
   -4.0739   15.9757   36.8235 C   0  0  2  0  0  0  0  0  0  0  0  0
   -3.8208   15.2942   35.5873 O   0  0  0  0  0  0  0  0  0  0  0  0
   -5.5931   15.9172   37.1151 C   0  0  1  0  0  0  0  0  0  0  0  0
   -5.9574   14.5193   37.2287 O   0  0  0  0  0  0  0  0  0  0  0  0
   -5.4797   13.8315   38.4087 C   0  0  2  0  0  0  0  0  0  0  0  0
   -4.4529   12.7522   37.9006 C   0  0  2  0  0  0  0  0  0  0  0  0
   -3.3757   13.3890   37.2318 O   0  0  0  0  0  0  0  0  0  0  0  0
   -5.1978   11.7480   36.9417 C   0  0  1  0  0  0  0  0  0  0  0  0
   -4.2561   10.7083   36.4256 N   0  0  0  0  0  0  0  0  0  0  0  0
   -3.9754   10.9822   34.9998 C   0  0  0  0  0  0  0  0  0  0  0  0
   -6.3612   11.0781   37.7344 C   0  0  2  0  0  0  0  0  0  0  0  0
   -5.8099   10.3654   38.8406 O   0  0  0  0  0  0  0  0  0  0  0  0
   -7.1424   10.0920   36.8696 C   0  0  0  0  0  0  0  0  0  0  0  0
   -7.3258   12.1875   38.2634 C   0  0  0  0  0  0  0  0  0  0  0  0
   -6.5991   13.1634   39.1025 O   0  0  0  0  0  0  0  0  0  0  0  0
  1  3  1  0  0  0  0
  1  2  1  1  0  0  0
  3  5  1  0  0  0  0
  3  4  1  1  0  0  0
  5  6  1  6  0  0  0
  7  8  1  1  0  0  0
  7  5  1  0  0  0  0
  9 10  1  6  0  0  0
  9  7  1  0  0  0  0
 10  1  1  0  0  0  0
 11 13  1  6  0  0  0
 11  9  1  0  0  0  0
 12 11  1  0  0  0  0
 14 15  1  6  0  0  0
 16 14  1  0  0  0  0
 17 18  1  6  0  0  0
 17 16  1  0  0  0  0
 19  2  1  1  0  0  0
 19 20  1  0  0  0  0
 19 17  1  0  0  0  0
 20 21  1  6  0  0  0
 20 22  1  0  0  0  0
 22 23  1  1  0  0  0
 22 14  1  0  0  0  0
 24 23  1  6  0  0  0
 24 25  1  0  0  0  0
 25 27  1  0  0  0  0
 25 26  1  6  0  0  0
 27 28  1  1  0  0  0
 28 29  1  0  0  0  0
 30 31  1  1  0  0  0
 30 32  1  0  0  0  0
 30 27  1  0  0  0  0
 33 30  1  0  0  0  0
 34 33  1  0  0  0  0
 34 24  1  0  0  0  0
M  END
>  <CHROM.1>
-153.20098423,-169.75380359,-168.99719661,-45.39620819,-113.92840794,-107.36100571
-3.36773614,15.85075273,36.50630119,-0.85493255,-0.49516456,-3.13314314

>  <Name>
lig.pdb

>  <RI>
0

>  <Rbt.Current_Directory>
/home/itssahil/PROJECTS/Mol_Feturizer/New_Systems/rnas/4k32

>  <Rbt.Executable>
rbdock ($Id: //depot/dev/client3/rdock/2013.1/src/exe/rbdock.cxx#4 $)

>  <Rbt.Library>
libRbt.so (2013.1, Build901 2013/11/27)

>  <Rbt.Parameter_File>
/export/apps/rDock/src/rDock_2013.1_src/data/scripts/dock_solv.prm

>  <Rbt.Receptor>
prm/pocket_docking_2.prm

>  <SCORE>
-11.1742

>  <SCORE.INTER>
-10.7613

>  <SCORE.INTER.CONST>
1

>  <SCORE.INTER.POLAR>
0

>  <SCORE.INTER.ROT>
6

>  <SCORE.INTER.SOLV>
21.111

>  <SCORE.INTER.VDW>
-21.8112

>  <SCORE.INTER.norm>
-0.316508

>  <SCORE.INTRA>
-0.918713

>  <SCORE.INTRA.DIHEDRAL>
-4.89506

>  <SCORE.INTRA.DIHEDRAL.0>
18.0069

>  <SCORE.INTRA.POLAR>
0

>  <SCORE.INTRA.POLAR.0>
0

>  <SCORE.INTRA.REPUL>
0

>  <SCORE.INTRA.REPUL.0>
0

>  <SCORE.INTRA.SOLV>
-0.588541

>  <SCORE.INTRA.SOLV.lig_0>
-70.7393

>  <SCORE.INTRA.VDW>
1.82309

>  <SCORE.INTRA.VDW.0>
-3.23471

>  <SCORE.INTRA.norm>
-0.027021

>  <SCORE.RESTR>
0.505822

>  <SCORE.RESTR.CAVITY>
0.505822

>  <SCORE.RESTR.norm>
0.0148771

>  <SCORE.SYSTEM>
0

>  <SCORE.SYSTEM.CONST>
0

>  <SCORE.SYSTEM.DIHEDRAL>
0

>  <SCORE.SYSTEM.SOLV>
0

>  <SCORE.SYSTEM.norm>
0

>  <SCORE.heavy>
34

>  <SCORE.norm>
-0.328652

>  <RMSD>
1.859

$$$$
lig.pdb
 OpenBabel11021811503D
libRbt.so/2013.1/901 2013/11/27
 34 36  0  0  0  0  0  0  0  0999 V2000
   -1.3812   17.0624   35.1015 C   0  0  2  0  0  0  0  0  0  0  0  0
   -1.8806   17.6456   36.3101 O   0  0  0  0  0  0  0  0  0  0  0  0
    0.1887   16.8723   35.2448 C   0  0  2  0  0  0  0  0  0  0  0  0
    0.5344   15.9793   36.3752 N   0  0  0  0  0  0  0  0  0  0  0  0
    0.8592   18.2555   35.4404 C   0  0  1  0  0  0  0  0  0  0  0  0
    2.2753   18.1052   35.5645 O   0  0  0  0  0  0  0  0  0  0  0  0
    0.4939   19.1508   34.2431 C   0  0  2  0  0  0  0  0  0  0  0  0
    1.1093   20.4292   34.4090 O   0  0  0  0  0  0  0  0  0  0  0  0
   -1.0736   19.2896   34.1421 C   0  0  2  0  0  0  0  0  0  0  0  0
   -1.7081   17.9628   33.9910 O   0  0  0  0  0  0  0  0  0  0  0  0
   -1.4913   20.1708   32.9387 C   0  0  2  0  0  0  0  0  0  0  0  0
   -0.7258   19.8118   31.7869 O   0  0  0  0  0  0  0  0  0  0  0  0
   -1.2643   21.6455   33.2323 C   0  0  0  0  0  0  0  0  0  0  0  0
   -5.6104   16.9562   38.2925 C   0  0  2  0  0  0  0  0  0  0  0  0
   -7.0412   16.9833   38.6063 N   0  0  0  0  0  0  0  0  0  0  0  0
   -5.1540   18.4283   38.0962 C   0  0  0  0  0  0  0  0  0  0  0  0
   -3.6325   18.4223   37.7862 C   0  0  2  0  0  0  0  0  0  0  0  0
   -3.1540   19.8008   37.5978 N   0  0  0  0  0  0  0  0  0  0  0  0
   -3.3298   17.5982   36.5060 C   0  0  2  0  0  0  0  0  0  0  0  0
   -3.8382   16.1361   36.7094 C   0  0  2  0  0  0  0  0  0  0  0  0
   -3.5684   15.3788   35.5218 O   0  0  0  0  0  0  0  0  0  0  0  0
   -5.3640   16.1152   36.9697 C   0  0  1  0  0  0  0  0  0  0  0  0
   -5.7511   14.7315   37.1578 O   0  0  0  0  0  0  0  0  0  0  0  0
   -5.3771   14.1326   38.4208 C   0  0  2  0  0  0  0  0  0  0  0  0
   -4.3357   13.0032   38.0783 C   0  0  2  0  0  0  0  0  0  0  0  0
   -3.1991   13.5711   37.4467 O   0  0  0  0  0  0  0  0  0  0  0  0
   -5.0252   11.9365   37.1459 C   0  0  1  0  0  0  0  0  0  0  0  0
   -4.0673   10.8469   36.7858 N   0  0  0  0  0  0  0  0  0  0  0  0
   -3.7049   10.9807   35.3584 C   0  0  0  0  0  0  0  0  0  0  0  0
   -6.2577   11.3465   37.8965 C   0  0  2  0  0  0  0  0  0  0  0  0
   -5.8052   10.7161   39.0938 O   0  0  0  0  0  0  0  0  0  0  0  0
   -6.9901   10.3057   37.0535 C   0  0  0  0  0  0  0  0  0  0  0  0
   -7.2381   12.5067   38.2622 C   0  0  0  0  0  0  0  0  0  0  0  0
   -6.5582   13.5361   39.0764 O   0  0  0  0  0  0  0  0  0  0  0  0
  1  3  1  0  0  0  0
  1  2  1  1  0  0  0
  3  5  1  0  0  0  0
  3  4  1  1  0  0  0
  5  6  1  6  0  0  0
  7  8  1  1  0  0  0
  7  5  1  0  0  0  0
  9 10  1  6  0  0  0
  9  7  1  0  0  0  0
 10  1  1  0  0  0  0
 11 13  1  1  0  0  0
 11  9  1  0  0  0  0
 12 11  1  0  0  0  0
 14 15  1  6  0  0  0
 16 14  1  0  0  0  0
 17 18  1  6  0  0  0
 17 16  1  0  0  0  0
 19  2  1  1  0  0  0
 19 20  1  0  0  0  0
 19 17  1  0  0  0  0
 20 21  1  6  0  0  0
 20 22  1  0  0  0  0
 22 23  1  1  0  0  0
 22 14  1  0  0  0  0
 24 23  1  6  0  0  0
 24 25  1  0  0  0  0
 25 27  1  0  0  0  0
 25 26  1  6  0  0  0
 27 28  1  1  0  0  0
 28 29  1  0  0  0  0
 30 31  1  1  0  0  0
 30 32  1  0  0  0  0
 30 27  1  0  0  0  0
 33 30  1  0  0  0  0
 34 33  1  0  0  0  0
 34 24  1  0  0  0  0
M  END
>  <CHROM.1>
-165.48681415,44.14570669,-173.77755866,-41.89236351,-114.51375960,-108.98661520
-3.18687926,16.04602718,36.34890399,-0.84343701,-0.53079385,3.10149919

>  <Name>
lig.pdb

>  <RI>
0

>  <Rbt.Current_Directory>
/home/itssahil/PROJECTS/Mol_Feturizer/New_Systems/rnas/4k32

>  <Rbt.Executable>
rbdock ($Id: //depot/dev/client3/rdock/2013.1/src/exe/rbdock.cxx#4 $)

>  <Rbt.Library>
libRbt.so (2013.1, Build901 2013/11/27)

>  <Rbt.Parameter_File>
/export/apps/rDock/src/rDock_2013.1_src/data/scripts/dock_solv.prm

>  <Rbt.Receptor>
prm/pocket_docking_3.prm

>  <SCORE>
-13.4625

>  <SCORE.INTER>
-11.5434

>  <SCORE.INTER.CONST>
1

>  <SCORE.INTER.POLAR>
0

>  <SCORE.INTER.ROT>
6

>  <SCORE.INTER.SOLV>
22.4984

>  <SCORE.INTER.VDW>
-22.7951

>  <SCORE.INTER.norm>
-0.339513

>  <SCORE.INTRA>
-1.91907

>  <SCORE.INTRA.DIHEDRAL>
-6.2774

>  <SCORE.INTRA.DIHEDRAL.0>
18.0069

>  <SCORE.INTRA.POLAR>
0

>  <SCORE.INTRA.POLAR.0>
0

>  <SCORE.INTRA.REPUL>
0

>  <SCORE.INTRA.REPUL.0>
0

>  <SCORE.INTRA.SOLV>
-0.902711

>  <SCORE.INTRA.SOLV.lig_0>
-70.7393

>  <SCORE.INTRA.VDW>
1.67098

>  <SCORE.INTRA.VDW.0>
-3.23471

>  <SCORE.INTRA.norm>
-0.0564434

>  <SCORE.RESTR>
0

>  <SCORE.RESTR.CAVITY>
0

>  <SCORE.RESTR.norm>
0

>  <SCORE.SYSTEM>
0

>  <SCORE.SYSTEM.CONST>
0

>  <SCORE.SYSTEM.DIHEDRAL>
0

>  <SCORE.SYSTEM.SOLV>
0

>  <SCORE.SYSTEM.norm>
0

>  <SCORE.heavy>
34

>  <SCORE.norm>
-0.395956

>  <RMSD>
1.897

$$$$
lig.pdb
 OpenBabel11021811503D
libRbt.so/2013.1/901 2013/11/27
 34 36  0  0  0  0  0  0  0  0999 V2000
   -1.3667   17.0143   35.0772 C   0  0  2  0  0  0  0  0  0  0  0  0
   -1.8649   17.6006   36.2847 O   0  0  0  0  0  0  0  0  0  0  0  0
    0.1994   16.8012   35.2292 C   0  0  2  0  0  0  0  0  0  0  0  0
    0.5255   15.8997   36.3587 N   0  0  0  0  0  0  0  0  0  0  0  0
    0.8885   18.1739   35.4335 C   0  0  1  0  0  0  0  0  0  0  0  0
    2.3016   18.0029   35.5656 O   0  0  0  0  0  0  0  0  0  0  0  0
    0.5434   19.0783   34.2370 C   0  0  2  0  0  0  0  0  0  0  0  0
    1.1761   20.3471   34.4108 O   0  0  0  0  0  0  0  0  0  0  0  0
   -1.0213   19.2400   34.1271 C   0  0  2  0  0  0  0  0  0  0  0  0
   -1.6739   17.9229   33.9677 O   0  0  0  0  0  0  0  0  0  0  0  0
   -1.4191   20.1310   32.9242 C   0  0  2  0  0  0  0  0  0  0  0  0
   -0.6409   19.7752   31.7798 O   0  0  0  0  0  0  0  0  0  0  0  0
   -1.1879   21.6026   33.2300 C   0  0  0  0  0  0  0  0  0  0  0  0
   -5.6010   16.9248   38.2600 C   0  0  2  0  0  0  0  0  0  0  0  0
   -7.0319   16.9585   38.5720 N   0  0  0  0  0  0  0  0  0  0  0  0
   -5.1364   18.3951   38.0692 C   0  0  0  0  0  0  0  0  0  0  0  0
   -3.6146   18.3819   37.7611 C   0  0  2  0  0  0  0  0  0  0  0  0
   -3.1285   19.7584   37.5778 N   0  0  0  0  0  0  0  0  0  0  0  0
   -3.3146   17.5604   36.4786 C   0  0  2  0  0  0  0  0  0  0  0  0
   -3.8311   16.1004   36.6765 C   0  0  2  0  0  0  0  0  0  0  0  0
   -3.5638   15.3455   35.4868 O   0  0  0  0  0  0  0  0  0  0  0  0
   -5.3574   16.0868   36.9348 C   0  0  1  0  0  0  0  0  0  0  0  0
   -5.7521   14.7046   37.1179 O   0  0  0  0  0  0  0  0  0  0  0  0
   -5.3758   14.0971   38.3760 C   0  0  2  0  0  0  0  0  0  0  0  0
   -4.3451   12.9612   38.0227 C   0  0  2  0  0  0  0  0  0  0  0  0
   -3.2076   13.5231   37.3874 O   0  0  0  0  0  0  0  0  0  0  0  0
   -5.0481   11.9041   37.0893 C   0  0  1  0  0  0  0  0  0  0  0  0
   -4.1007   10.8088   36.7191 N   0  0  0  0  0  0  0  0  0  0  0  0
   -3.7952   10.9079   35.2756 C   0  0  0  0  0  0  0  0  0  0  0  0
   -6.2809   11.3203   37.8442 C   0  0  2  0  0  0  0  0  0  0  0  0
   -5.8268   10.6810   39.0361 O   0  0  0  0  0  0  0  0  0  0  0  0
   -7.0261   10.2890   37.0006 C   0  0  0  0  0  0  0  0  0  0  0  0
   -7.2502   12.4865   38.2205 C   0  0  0  0  0  0  0  0  0  0  0  0
   -6.5579   13.5068   39.0355 O   0  0  0  0  0  0  0  0  0  0  0  0
  1  3  1  0  0  0  0
  1  2  1  1  0  0  0
  3  5  1  0  0  0  0
  3  4  1  1  0  0  0
  5  6  1  6  0  0  0
  7  8  1  1  0  0  0
  7  5  1  0  0  0  0
  9 10  1  6  0  0  0
  9  7  1  0  0  0  0
 10  1  1  0  0  0  0
 11 13  1  1  0  0  0
 11  9  1  0  0  0  0
 12 11  1  0  0  0  0
 14 15  1  6  0  0  0
 16 14  1  0  0  0  0
 17 18  1  6  0  0  0
 17 16  1  0  0  0  0
 19  2  1  1  0  0  0
 19 20  1  0  0  0  0
 19 17  1  0  0  0  0
 20 21  1  6  0  0  0
 20 22  1  0  0  0  0
 22 23  1  1  0  0  0
 22 14  1  0  0  0  0
 24 23  1  6  0  0  0
 24 25  1  0  0  0  0
 25 27  1  0  0  0  0
 25 26  1  6  0  0  0
 27 28  1  1  0  0  0
 28 29  1  0  0  0  0
 30 31  1  1  0  0  0
 30 32  1  0  0  0  0
 30 27  1  0  0  0  0
 33 30  1  0  0  0  0
 34 33  1  0  0  0  0
 34 24  1  0  0  0  0
M  END
>  <CHROM.1>
-164.83889780,43.47934343,-174.00421414,-42.25685673,-114.61971646,-111.63248151
-3.17554244,16.00112120,36.31732371,-0.83283878,-0.53111039,3.11339130

>  <Name>
lig.pdb

>  <RI>
0

>  <Rbt.Current_Directory>
/home/itssahil/PROJECTS/Mol_Feturizer/New_Systems/rnas/4k32

>  <Rbt.Executable>
rbdock ($Id: //depot/dev/client3/rdock/2013.1/src/exe/rbdock.cxx#4 $)

>  <Rbt.Library>
libRbt.so (2013.1, Build901 2013/11/27)

>  <Rbt.Parameter_File>
/export/apps/rDock/src/rDock_2013.1_src/data/scripts/dock_solv.prm

>  <Rbt.Receptor>
prm/pocket_docking_3.prm

>  <SCORE>
-13.4487

>  <SCORE.INTER>
-11.5705

>  <SCORE.INTER.CONST>
1

>  <SCORE.INTER.POLAR>
0

>  <SCORE.INTER.ROT>
6

>  <SCORE.INTER.SOLV>
22.6676

>  <SCORE.INTER.VDW>
-22.8695

>  <SCORE.INTER.norm>
-0.340308

>  <SCORE.INTRA>
-1.87822

>  <SCORE.INTRA.DIHEDRAL>
-6.14425

>  <SCORE.INTRA.DIHEDRAL.0>
18.0069

>  <SCORE.INTRA.POLAR>
0

>  <SCORE.INTRA.POLAR.0>
0

>  <SCORE.INTRA.REPUL>
0

>  <SCORE.INTRA.REPUL.0>
0

>  <SCORE.INTRA.SOLV>
-0.902099

>  <SCORE.INTRA.SOLV.lig_0>
-70.7393

>  <SCORE.INTRA.VDW>
1.64495

>  <SCORE.INTRA.VDW.0>
-3.23471

>  <SCORE.INTRA.norm>
-0.0552419

>  <SCORE.RESTR>
0

>  <SCORE.RESTR.CAVITY>
0

>  <SCORE.RESTR.norm>
0

>  <SCORE.SYSTEM>
0

>  <SCORE.SYSTEM.CONST>
0

>  <SCORE.SYSTEM.DIHEDRAL>
0

>  <SCORE.SYSTEM.SOLV>
0

>  <SCORE.SYSTEM.norm>
0

>  <SCORE.heavy>
34

>  <SCORE.norm>
-0.39555

>  <RMSD>
1.901

$$$$
lig.pdb
 OpenBabel11021811503D
libRbt.so/2013.1/901 2013/11/27
 34 36  0  0  0  0  0  0  0  0999 V2000
   -0.8367   16.0042   35.6555 C   0  0  2  0  0  0  0  0  0  0  0  0
   -1.5121   16.5899   36.7739 O   0  0  0  0  0  0  0  0  0  0  0  0
    0.6092   15.5448   36.1240 C   0  0  2  0  0  0  0  0  0  0  0  0
    0.5427   14.5407   37.2113 N   0  0  0  0  0  0  0  0  0  0  0  0
    1.4147   16.7814   36.5961 C   0  0  1  0  0  0  0  0  0  0  0  0
    2.7234   16.3882   37.0158 O   0  0  0  0  0  0  0  0  0  0  0  0
    1.4786   17.7951   35.4398 C   0  0  2  0  0  0  0  0  0  0  0  0
    2.2224   18.9397   35.8606 O   0  0  0  0  0  0  0  0  0  0  0  0
    0.0174   18.2012   35.0078 C   0  0  2  0  0  0  0  0  0  0  0  0
   -0.7555   17.0113   34.5924 O   0  0  0  0  0  0  0  0  0  0  0  0
    0.0302   19.2101   33.8327 C   0  0  2  0  0  0  0  0  0  0  0  0
    0.7888   20.3655   34.1947 O   0  0  0  0  0  0  0  0  0  0  0  0
   -1.3799   19.6492   33.4699 C   0  0  0  0  0  0  0  0  0  0  0  0
   -5.4211   15.8657   38.3587 C   0  0  2  0  0  0  0  0  0  0  0  0
   -6.8796   15.8239   38.4902 N   0  0  0  0  0  0  0  0  0  0  0  0
   -5.0297   17.3340   38.0354 C   0  0  0  0  0  0  0  0  0  0  0  0
   -3.4831   17.4037   37.9160 C   0  0  2  0  0  0  0  0  0  0  0  0
   -3.0653   18.7820   37.6148 N   0  0  0  0  0  0  0  0  0  0  0  0
   -2.9693   16.4593   36.7964 C   0  0  2  0  0  0  0  0  0  0  0  0
   -3.4136   14.9977   37.1192 C   0  0  2  0  0  0  0  0  0  0  0  0
   -2.9483   14.1278   36.0784 O   0  0  0  0  0  0  0  0  0  0  0  0
   -4.9565   14.8952   37.1925 C   0  0  1  0  0  0  0  0  0  0  0  0
   -5.2834   13.5185   37.5051 O   0  0  0  0  0  0  0  0  0  0  0  0
   -6.5794   13.0555   37.0581 C   0  0  2  0  0  0  0  0  0  0  0  0
   -6.6191   11.5106   37.3568 C   0  0  2  0  0  0  0  0  0  0  0  0
   -6.4691   11.2850   38.7496 O   0  0  0  0  0  0  0  0  0  0  0  0
   -5.4706   10.8020   36.5435 C   0  0  1  0  0  0  0  0  0  0  0  0
   -5.4641    9.3303   36.8052 N   0  0  0  0  0  0  0  0  0  0  0  0
   -4.1348    8.9424   37.3240 C   0  0  0  0  0  0  0  0  0  0  0  0
   -5.6951   11.0802   35.0260 C   0  0  2  0  0  0  0  0  0  0  0  0
   -6.9583   10.5383   34.6437 O   0  0  0  0  0  0  0  0  0  0  0  0
   -4.6143   10.4317   34.1647 C   0  0  0  0  0  0  0  0  0  0  0  0
   -5.7003   12.6237   34.7837 C   0  0  0  0  0  0  0  0  0  0  0  0
   -6.7345   13.2844   35.6075 O   0  0  0  0  0  0  0  0  0  0  0  0
  1  3  1  0  0  0  0
  1  2  1  1  0  0  0
  3  5  1  0  0  0  0
  3  4  1  1  0  0  0
  5  6  1  6  0  0  0
  7  8  1  1  0  0  0
  7  5  1  0  0  0  0
  9 10  1  6  0  0  0
  9  7  1  0  0  0  0
 10  1  1  0  0  0  0
 11 13  1  1  0  0  0
 11  9  1  0  0  0  0
 12 11  1  0  0  0  0
 14 15  1  6  0  0  0
 16 14  1  0  0  0  0
 17 18  1  6  0  0  0
 17 16  1  0  0  0  0
 19  2  1  1  0  0  0
 19 20  1  0  0  0  0
 19 17  1  0  0  0  0
 20 21  1  6  0  0  0
 20 22  1  0  0  0  0
 22 23  1  1  0  0  0
 22 14  1  0  0  0  0
 24 23  1  6  0  0  0
 24 25  1  0  0  0  0
 25 27  1  0  0  0  0
 25 26  1  1  0  0  0
 27 28  1  6  0  0  0
 28 29  1  0  0  0  0
 30 31  1  6  0  0  0
 30 32  1  0  0  0  0
 30 27  1  0  0  0  0
 33 30  1  0  0  0  0
 34 33  1  0  0  0  0
 34 24  1  0  0  0  0
M  END
>  <CHROM.1>
-149.97554538,-56.89047967,-168.58301030,90.26780791,173.27076530,-122.64806702
-2.99823607,14.96880841,36.30457439,-0.77577373,-0.28229651,-3.01814321

>  <Name>
lig.pdb

>  <RI>
0

>  <Rbt.Current_Directory>
/home/itssahil/PROJECTS/Mol_Feturizer/New_Systems/rnas/4k32

>  <Rbt.Executable>
rbdock ($Id: //depot/dev/client3/rdock/2013.1/src/exe/rbdock.cxx#4 $)

>  <Rbt.Library>
libRbt.so (2013.1, Build901 2013/11/27)

>  <Rbt.Parameter_File>
/export/apps/rDock/src/rDock_2013.1_src/data/scripts/dock_solv.prm

>  <Rbt.Receptor>
prm/pocket_docking_5.prm

>  <SCORE>
-16.0101

>  <SCORE.INTER>
-11.0724

>  <SCORE.INTER.CONST>
1

>  <SCORE.INTER.POLAR>
0

>  <SCORE.INTER.ROT>
6

>  <SCORE.INTER.SOLV>
20.493

>  <SCORE.INTER.VDW>
-21.8126

>  <SCORE.INTER.norm>
-0.32566

>  <SCORE.INTRA>
-4.93764

>  <SCORE.INTRA.DIHEDRAL>
-8.6543

>  <SCORE.INTRA.DIHEDRAL.0>
18.0069

>  <SCORE.INTRA.POLAR>
0

>  <SCORE.INTRA.POLAR.0>
0

>  <SCORE.INTRA.REPUL>
0

>  <SCORE.INTRA.REPUL.0>
0

>  <SCORE.INTRA.SOLV>
-1.06678

>  <SCORE.INTRA.SOLV.lig_0>
-70.7393

>  <SCORE.INTRA.VDW>
-0.0771036

>  <SCORE.INTRA.VDW.0>
-3.23471

>  <SCORE.INTRA.norm>
-0.145225

>  <SCORE.RESTR>
0

>  <SCORE.RESTR.CAVITY>
0

>  <SCORE.RESTR.norm>
0

>  <SCORE.SYSTEM>
0

>  <SCORE.SYSTEM.CONST>
0

>  <SCORE.SYSTEM.DIHEDRAL>
0

>  <SCORE.SYSTEM.SOLV>
0

>  <SCORE.SYSTEM.norm>
0

>  <SCORE.heavy>
34

>  <SCORE.norm>
-0.470885

>  <RMSD>
1.904

$$$$
lig.pdb
 OpenBabel11021811503D
libRbt.so/2013.1/901 2013/11/27
 34 36  0  0  0  0  0  0  0  0999 V2000
   -1.5014   16.8447   35.3176 C   0  0  2  0  0  0  0  0  0  0  0  0
   -2.0375   17.5254   36.4575 O   0  0  0  0  0  0  0  0  0  0  0  0
   -0.1533   16.1248   35.7485 C   0  0  2  0  0  0  0  0  0  0  0  0
   -0.3786   15.1326   36.8254 N   0  0  0  0  0  0  0  0  0  0  0  0
    0.8717   17.1884   36.2167 C   0  0  1  0  0  0  0  0  0  0  0  0
    2.0958   16.5590   36.6026 O   0  0  0  0  0  0  0  0  0  0  0  0
    1.0947   18.1915   35.0710 C   0  0  2  0  0  0  0  0  0  0  0  0
    2.0414   19.1765   35.4882 O   0  0  0  0  0  0  0  0  0  0  0  0
   -0.2773   18.8611   34.6764 C   0  0  2  0  0  0  0  0  0  0  0  0
   -1.2606   17.8367   34.2646 O   0  0  0  0  0  0  0  0  0  0  0  0
   -0.1057   19.8691   33.5129 C   0  0  2  0  0  0  0  0  0  0  0  0
    0.8276   20.8847   33.8858 O   0  0  0  0  0  0  0  0  0  0  0  0
   -1.4285   20.5312   33.1598 C   0  0  0  0  0  0  0  0  0  0  0  0
   -5.7792   16.7215   38.3730 C   0  0  2  0  0  0  0  0  0  0  0  0
   -7.2133   16.7209   38.6722 N   0  0  0  0  0  0  0  0  0  0  0  0
   -5.3380   18.2049   38.2359 C   0  0  0  0  0  0  0  0  0  0  0  0
   -3.8135   18.2274   37.9423 C   0  0  2  0  0  0  0  0  0  0  0  0
   -3.3491   19.6172   37.8098 N   0  0  0  0  0  0  0  0  0  0  0  0
   -3.4880   17.4546   36.6359 C   0  0  2  0  0  0  0  0  0  0  0  0
   -3.9814   15.9803   36.7800 C   0  0  2  0  0  0  0  0  0  0  0  0
   -3.6905   15.2704   35.5683 O   0  0  0  0  0  0  0  0  0  0  0  0
   -5.5094   15.9327   37.0230 C   0  0  1  0  0  0  0  0  0  0  0  0
   -5.8823   14.5387   37.1559 O   0  0  0  0  0  0  0  0  0  0  0  0
   -5.3813   13.8555   38.3289 C   0  0  2  0  0  0  0  0  0  0  0  0
   -4.3963   12.7466   37.8023 C   0  0  2  0  0  0  0  0  0  0  0  0
   -3.3278   13.3499   37.0898 O   0  0  0  0  0  0  0  0  0  0  0  0
   -5.1948   11.7473   36.8822 C   0  0  1  0  0  0  0  0  0  0  0  0
   -4.2941   10.6798   36.3498 N   0  0  0  0  0  0  0  0  0  0  0  0
   -3.9793   10.9801   34.9365 C   0  0  0  0  0  0  0  0  0  0  0  0
   -6.3459   11.1144   37.7217 C   0  0  2  0  0  0  0  0  0  0  0  0
   -5.7744   10.4038   38.8189 O   0  0  0  0  0  0  0  0  0  0  0  0
   -7.1772   10.1353   36.8966 C   0  0  0  0  0  0  0  0  0  0  0  0
   -7.2675   12.2523   38.2668 C   0  0  0  0  0  0  0  0  0  0  0  0
   -6.4918   13.2222   39.0681 O   0  0  0  0  0  0  0  0  0  0  0  0
  1  3  1  0  0  0  0
  1  2  1  1  0  0  0
  3  5  1  0  0  0  0
  3  4  1  1  0  0  0
  5  6  1  6  0  0  0
  7  8  1  1  0  0  0
  7  5  1  0  0  0  0
  9 10  1  6  0  0  0
  9  7  1  0  0  0  0
 10  1  1  0  0  0  0
 11 13  1  1  0  0  0
 11  9  1  0  0  0  0
 12 11  1  0  0  0  0
 14 15  1  6  0  0  0
 16 14  1  0  0  0  0
 17 18  1  6  0  0  0
 17 16  1  0  0  0  0
 19  2  1  1  0  0  0
 19 20  1  0  0  0  0
 19 17  1  0  0  0  0
 20 21  1  6  0  0  0
 20 22  1  0  0  0  0
 22 23  1  1  0  0  0
 22 14  1  0  0  0  0
 24 23  1  6  0  0  0
 24 25  1  0  0  0  0
 25 27  1  0  0  0  0
 25 26  1  6  0  0  0
 27 28  1  1  0  0  0
 28 29  1  0  0  0  0
 30 31  1  1  0  0  0
 30 32  1  0  0  0  0
 30 27  1  0  0  0  0
 33 30  1  0  0  0  0
 34 33  1  0  0  0  0
 34 24  1  0  0  0  0
M  END
>  <CHROM.1>
-139.46195649,-58.54557020,178.56226783,-48.80307298,-114.93958482,-103.49295954
-3.14680346,15.69661981,36.55934727,-0.79067270,-0.43201884,-3.12457902

>  <Name>
lig.pdb

>  <RI>
0

>  <Rbt.Current_Directory>
/home/itssahil/PROJECTS/Mol_Feturizer/New_Systems/rnas/4k32

>  <Rbt.Executable>
rbdock ($Id: //depot/dev/client3/rdock/2013.1/src/exe/rbdock.cxx#4 $)

>  <Rbt.Library>
libRbt.so (2013.1, Build901 2013/11/27)

>  <Rbt.Parameter_File>
/export/apps/rDock/src/rDock_2013.1_src/data/scripts/dock_solv.prm

>  <Rbt.Receptor>
prm/pocket_docking_2.prm

>  <SCORE>
-9.50172

>  <SCORE.INTER>
-10.8412

>  <SCORE.INTER.CONST>
1

>  <SCORE.INTER.POLAR>
0

>  <SCORE.INTER.ROT>
6

>  <SCORE.INTER.SOLV>
19.7208

>  <SCORE.INTER.VDW>
-21.4011

>  <SCORE.INTER.norm>
-0.318859

>  <SCORE.INTRA>
0.737095

>  <SCORE.INTRA.DIHEDRAL>
-3.7854

>  <SCORE.INTRA.DIHEDRAL.0>
18.0069

>  <SCORE.INTRA.POLAR>
0

>  <SCORE.INTRA.POLAR.0>
0

>  <SCORE.INTRA.REPUL>
0.0686866

>  <SCORE.INTRA.REPUL.0>
0

>  <SCORE.INTRA.SOLV>
0.205933

>  <SCORE.INTRA.SOLV.lig_0>
-70.7393

>  <SCORE.INTRA.VDW>
2.18339

>  <SCORE.INTRA.VDW.0>
-3.23471

>  <SCORE.INTRA.norm>
0.0216793

>  <SCORE.RESTR>
0.602405

>  <SCORE.RESTR.CAVITY>
0.602405

>  <SCORE.RESTR.norm>
0.0177178

>  <SCORE.SYSTEM>
0

>  <SCORE.SYSTEM.CONST>
0

>  <SCORE.SYSTEM.DIHEDRAL>
0

>  <SCORE.SYSTEM.SOLV>
0

>  <SCORE.SYSTEM.norm>
0

>  <SCORE.heavy>
34

>  <SCORE.norm>
-0.279462

>  <RMSD>
1.993

$$$$
lig.pdb
 OpenBabel11021811503D
libRbt.so/2013.1/901 2013/11/27
 34 36  0  0  0  0  0  0  0  0999 V2000
   -1.2651   17.8276   34.8406 C   0  0  2  0  0  0  0  0  0  0  0  0
   -1.7540   18.1972   36.1347 O   0  0  0  0  0  0  0  0  0  0  0  0
    0.1624   17.1544   35.0145 C   0  0  2  0  0  0  0  0  0  0  0  0
    0.0986   15.9379   35.8577 N   0  0  0  0  0  0  0  0  0  0  0  0
    1.1424   18.1790   35.6394 C   0  0  1  0  0  0  0  0  0  0  0  0
    2.4365   17.5926   35.7975 O   0  0  0  0  0  0  0  0  0  0  0  0
    1.1975   19.4208   34.7318 C   0  0  2  0  0  0  0  0  0  0  0  0
    2.1012   20.3730   35.2948 O   0  0  0  0  0  0  0  0  0  0  0  0
   -0.2471   20.0352   34.5837 C   0  0  2  0  0  0  0  0  0  0  0  0
   -1.1840   19.0402   34.0196 O   0  0  0  0  0  0  0  0  0  0  0  0
   -0.2450   21.2808   33.6631 C   0  0  2  0  0  0  0  0  0  0  0  0
   -1.5558   21.8474   33.6121 O   0  0  0  0  0  0  0  0  0  0  0  0
    0.1828   20.9188   32.2494 C   0  0  0  0  0  0  0  0  0  0  0  0
   -5.2877   17.0780   38.2740 C   0  0  2  0  0  0  0  0  0  0  0  0
   -6.6977   16.9220   38.6400 N   0  0  0  0  0  0  0  0  0  0  0  0
   -5.0430   18.5907   38.0178 C   0  0  0  0  0  0  0  0  0  0  0  0
   -3.5459   18.7798   37.6516 C   0  0  2  0  0  0  0  0  0  0  0  0
   -3.2663   20.2031   37.4051 N   0  0  0  0  0  0  0  0  0  0  0  0
   -3.1760   17.9610   36.3857 C   0  0  2  0  0  0  0  0  0  0  0  0
   -3.4733   16.4514   36.6508 C   0  0  2  0  0  0  0  0  0  0  0  0
   -3.1420   15.6974   35.4767 O   0  0  0  0  0  0  0  0  0  0  0  0
   -4.9727   16.2333   36.9683 C   0  0  1  0  0  0  0  0  0  0  0  0
   -5.1611   14.8172   37.2112 O   0  0  0  0  0  0  0  0  0  0  0  0
   -4.1852   14.1843   38.0719 C   0  0  2  0  0  0  0  0  0  0  0  0
   -4.4597   12.6371   37.9813 C   0  0  2  0  0  0  0  0  0  0  0  0
   -4.2955   12.1961   36.6427 O   0  0  0  0  0  0  0  0  0  0  0  0
   -5.9199   12.3450   38.4964 C   0  0  1  0  0  0  0  0  0  0  0  0
   -6.2287   10.8846   38.4187 N   0  0  0  0  0  0  0  0  0  0  0  0
   -6.8493   10.5958   37.1079 C   0  0  0  0  0  0  0  0  0  0  0  0
   -6.0338   12.8440   39.9690 C   0  0  2  0  0  0  0  0  0  0  0  0
   -5.0915   12.1303   40.7680 O   0  0  0  0  0  0  0  0  0  0  0  0
   -7.4281   12.6044   40.5426 C   0  0  0  0  0  0  0  0  0  0  0  0
   -5.7031   14.3701   40.0196 C   0  0  0  0  0  0  0  0  0  0  0  0
   -4.3589   14.6381   39.4663 O   0  0  0  0  0  0  0  0  0  0  0  0
  1  3  1  0  0  0  0
  1  2  1  1  0  0  0
  3  5  1  0  0  0  0
  3  4  1  1  0  0  0
  5  6  1  6  0  0  0
  7  8  1  1  0  0  0
  7  5  1  0  0  0  0
  9 10  1  6  0  0  0
  9  7  1  0  0  0  0
 10  1  1  0  0  0  0
 11 13  1  6  0  0  0
 11  9  1  0  0  0  0
 12 11  1  0  0  0  0
 14 15  1  6  0  0  0
 16 14  1  0  0  0  0
 17 18  1  6  0  0  0
 17 16  1  0  0  0  0
 19  2  1  1  0  0  0
 19 20  1  0  0  0  0
 19 17  1  0  0  0  0
 20 21  1  6  0  0  0
 20 22  1  0  0  0  0
 22 23  1  1  0  0  0
 22 14  1  0  0  0  0
 24 23  1  6  0  0  0
 24 25  1  0  0  0  0
 25 27  1  0  0  0  0
 25 26  1  6  0  0  0
 27 28  1  1  0  0  0
 28 29  1  0  0  0  0
 30 31  1  1  0  0  0
 30 32  1  0  0  0  0
 30 27  1  0  0  0  0
 33 30  1  0  0  0  0
 34 33  1  0  0  0  0
 34 24  1  0  0  0  0
M  END
>  <CHROM.1>
-139.45081436,-176.95335608,-164.57298804,-70.55804626,-170.67660986,-91.31384253
-3.01752178,16.46256188,36.79578098,-0.83799221,-0.49413324,2.98436844

>  <Name>
lig.pdb

>  <RI>
0

>  <Rbt.Current_Directory>
/home/itssahil/PROJECTS/Mol_Feturizer/New_Systems/rnas/4k32

>  <Rbt.Executable>
rbdock ($Id: //depot/dev/client3/rdock/2013.1/src/exe/rbdock.cxx#4 $)

>  <Rbt.Library>
libRbt.so (2013.1, Build901 2013/11/27)

>  <Rbt.Parameter_File>
/export/apps/rDock/src/rDock_2013.1_src/data/scripts/dock_solv.prm

>  <Rbt.Receptor>
prm/pocket_docking_4.prm

>  <SCORE>
-13.527

>  <SCORE.INTER>
-10.8635

>  <SCORE.INTER.CONST>
1

>  <SCORE.INTER.POLAR>
0

>  <SCORE.INTER.ROT>
6

>  <SCORE.INTER.SOLV>
22.4822

>  <SCORE.INTER.VDW>
-22.3364

>  <SCORE.INTER.norm>
-0.319515

>  <SCORE.INTRA>
-2.66351

>  <SCORE.INTRA.DIHEDRAL>
-9.71031

>  <SCORE.INTRA.DIHEDRAL.0>
18.0069

>  <SCORE.INTRA.POLAR>
0

>  <SCORE.INTRA.POLAR.0>
0

>  <SCORE.INTRA.REPUL>
0

>  <SCORE.INTRA.REPUL.0>
0

>  <SCORE.INTRA.SOLV>
0.280128

>  <SCORE.INTRA.SOLV.lig_0>
-70.7393

>  <SCORE.INTRA.VDW>
2.05159

>  <SCORE.INTRA.VDW.0>
-3.23471

>  <SCORE.INTRA.norm>
-0.0783384

>  <SCORE.RESTR>
0

>  <SCORE.RESTR.CAVITY>
0

>  <SCORE.RESTR.norm>
0

>  <SCORE.SYSTEM>
0

>  <SCORE.SYSTEM.CONST>
0

>  <SCORE.SYSTEM.DIHEDRAL>
0

>  <SCORE.SYSTEM.SOLV>
0

>  <SCORE.SYSTEM.norm>
0

>  <SCORE.heavy>
34

>  <SCORE.norm>
-0.397853

>  <RMSD>
2.086

$$$$
lig.pdb
 OpenBabel11021811503D
libRbt.so/2013.1/901 2013/11/27
 34 36  0  0  0  0  0  0  0  0999 V2000
   -1.1702   17.2990   34.7915 C   0  0  2  0  0  0  0  0  0  0  0  0
   -1.7720   17.9451   35.9187 O   0  0  0  0  0  0  0  0  0  0  0  0
    0.2035   16.6520   35.2556 C   0  0  2  0  0  0  0  0  0  0  0  0
    0.0048   15.6447   36.3237 N   0  0  0  0  0  0  0  0  0  0  0  0
    1.1564   17.7680   35.7530 C   0  0  1  0  0  0  0  0  0  0  0  0
    2.4027   17.2048   36.1690 O   0  0  0  0  0  0  0  0  0  0  0  0
    1.3540   18.7863   34.6160 C   0  0  2  0  0  0  0  0  0  0  0  0
    2.2343   19.8197   35.0603 O   0  0  0  0  0  0  0  0  0  0  0  0
   -0.0418   19.3817   34.1875 C   0  0  2  0  0  0  0  0  0  0  0  0
   -0.9568   18.3069   33.7476 O   0  0  0  0  0  0  0  0  0  0  0  0
    0.1045   20.4021   33.0314 C   0  0  2  0  0  0  0  0  0  0  0  0
    0.9199   21.4973   33.4525 O   0  0  0  0  0  0  0  0  0  0  0  0
   -1.2501   20.9428   32.6008 C   0  0  0  0  0  0  0  0  0  0  0  0
   -5.2854   16.5499   37.9253 C   0  0  2  0  0  0  0  0  0  0  0  0
   -6.6920   16.3404   38.2769 N   0  0  0  0  0  0  0  0  0  0  0  0
   -5.0525   18.0842   37.8518 C   0  0  0  0  0  0  0  0  0  0  0  0
   -3.5590   18.3274   37.5037 C   0  0  2  0  0  0  0  0  0  0  0  0
   -3.2906   19.7721   37.4289 N   0  0  0  0  0  0  0  0  0  0  0  0
   -3.1909   17.6697   36.1466 C   0  0  2  0  0  0  0  0  0  0  0  0
   -3.4762   16.1370   36.2294 C   0  0  2  0  0  0  0  0  0  0  0  0
   -3.1466   15.5323   34.9714 O   0  0  0  0  0  0  0  0  0  0  0  0
   -4.9721   15.8709   36.5258 C   0  0  1  0  0  0  0  0  0  0  0  0
   -5.1494   14.4345   36.5974 O   0  0  0  0  0  0  0  0  0  0  0  0
   -4.4200   13.7553   37.6463 C   0  0  2  0  0  0  0  0  0  0  0  0
   -3.7472   12.5027   36.9713 C   0  0  2  0  0  0  0  0  0  0  0  0
   -2.8594   12.9253   35.9483 O   0  0  0  0  0  0  0  0  0  0  0  0
   -4.8739   11.5674   36.3896 C   0  0  1  0  0  0  0  0  0  0  0  0
   -4.2787   10.3663   35.7282 N   0  0  0  0  0  0  0  0  0  0  0  0
   -4.3785   10.5289   34.2618 C   0  0  0  0  0  0  0  0  0  0  0  0
   -5.8086   11.1329   37.5593 C   0  0  2  0  0  0  0  0  0  0  0  0
   -5.0359   10.4134   38.5190 O   0  0  0  0  0  0  0  0  0  0  0  0
   -6.9380   10.2267   37.0759 C   0  0  0  0  0  0  0  0  0  0  0  0
   -6.4125   12.4069   38.2325 C   0  0  0  0  0  0  0  0  0  0  0  0
   -5.3437   13.3098   38.7089 O   0  0  0  0  0  0  0  0  0  0  0  0
  1  3  1  0  0  0  0
  1  2  1  1  0  0  0
  3  5  1  0  0  0  0
  3  4  1  1  0  0  0
  5  6  1  6  0  0  0
  7  8  1  1  0  0  0
  7  5  1  0  0  0  0
  9 10  1  6  0  0  0
  9  7  1  0  0  0  0
 10  1  1  0  0  0  0
 11 13  1  1  0  0  0
 11  9  1  0  0  0  0
 12 11  1  0  0  0  0
 14 15  1  6  0  0  0
 16 14  1  0  0  0  0
 17 18  1  6  0  0  0
 17 16  1  0  0  0  0
 19  2  1  1  0  0  0
 19 20  1  0  0  0  0
 19 17  1  0  0  0  0
 20 21  1  6  0  0  0
 20 22  1  0  0  0  0
 22 23  1  1  0  0  0
 22 14  1  0  0  0  0
 24 23  1  6  0  0  0
 24 25  1  0  0  0  0
 25 27  1  0  0  0  0
 25 26  1  6  0  0  0
 27 28  1  1  0  0  0
 28 29  1  0  0  0  0
 30 31  1  1  0  0  0
 30 32  1  0  0  0  0
 30 27  1  0  0  0  0
 33 30  1  0  0  0  0
 34 33  1  0  0  0  0
 34 24  1  0  0  0  0
M  END
>  <CHROM.1>
-132.66376134,-61.26944525,173.02417431,-53.79884641,-133.43099420,-105.34158016
-2.75940126,15.86439590,36.08213257,-0.85610229,-0.48320037,-3.10122739

>  <Name>
lig.pdb

>  <RI>
0

>  <Rbt.Current_Directory>
/home/itssahil/PROJECTS/Mol_Feturizer/New_Systems/rnas/4k32

>  <Rbt.Executable>
rbdock ($Id: //depot/dev/client3/rdock/2013.1/src/exe/rbdock.cxx#4 $)

>  <Rbt.Library>
libRbt.so (2013.1, Build901 2013/11/27)

>  <Rbt.Parameter_File>
/export/apps/rDock/src/rDock_2013.1_src/data/scripts/dock_solv.prm

>  <Rbt.Receptor>
prm/pocket_docking_5.prm

>  <SCORE>
-12.2506

>  <SCORE.INTER>
-11.9049

>  <SCORE.INTER.CONST>
1

>  <SCORE.INTER.POLAR>
0

>  <SCORE.INTER.ROT>
6

>  <SCORE.INTER.SOLV>
20.9338

>  <SCORE.INTER.VDW>
-22.5145

>  <SCORE.INTER.norm>
-0.350143

>  <SCORE.INTRA>
-0.345689

>  <SCORE.INTRA.DIHEDRAL>
-3.70685

>  <SCORE.INTRA.DIHEDRAL.0>
18.0069

>  <SCORE.INTRA.POLAR>
0

>  <SCORE.INTRA.POLAR.0>
0

>  <SCORE.INTRA.REPUL>
0

>  <SCORE.INTRA.REPUL.0>
0

>  <SCORE.INTRA.SOLV>
0.128734

>  <SCORE.INTRA.SOLV.lig_0>
-70.7393

>  <SCORE.INTRA.VDW>
1.44337

>  <SCORE.INTRA.VDW.0>
-3.23471

>  <SCORE.INTRA.norm>
-0.0101673

>  <SCORE.RESTR>
0

>  <SCORE.RESTR.CAVITY>
0

>  <SCORE.RESTR.norm>
0

>  <SCORE.SYSTEM>
0

>  <SCORE.SYSTEM.CONST>
0

>  <SCORE.SYSTEM.DIHEDRAL>
0

>  <SCORE.SYSTEM.SOLV>
0

>  <SCORE.SYSTEM.norm>
0

>  <SCORE.heavy>
34

>  <SCORE.norm>
-0.36031

>  <RMSD>
2.179

$$$$
lig.pdb
 OpenBabel11021811503D
libRbt.so/2013.1/901 2013/11/27
 34 36  0  0  0  0  0  0  0  0999 V2000
   -1.1133   17.5096   34.8295 C   0  0  2  0  0  0  0  0  0  0  0  0
   -1.6679   18.2041   35.9521 O   0  0  0  0  0  0  0  0  0  0  0  0
    0.2616   16.8510   35.2733 C   0  0  2  0  0  0  0  0  0  0  0  0
    0.0770   15.8834   36.3800 N   0  0  0  0  0  0  0  0  0  0  0  0
    1.2503   17.9635   35.7042 C   0  0  1  0  0  0  0  0  0  0  0  0
    2.4979   17.3896   36.1011 O   0  0  0  0  0  0  0  0  0  0  0  0
    1.4319   18.9399   34.5285 C   0  0  2  0  0  0  0  0  0  0  0  0
    2.3448   19.9697   34.9113 O   0  0  0  0  0  0  0  0  0  0  0  0
    0.0350   19.5485   34.1226 C   0  0  2  0  0  0  0  0  0  0  0  0
   -0.9132   18.4782   33.7466 O   0  0  0  0  0  0  0  0  0  0  0  0
    0.1649   20.5273   32.9292 C   0  0  2  0  0  0  0  0  0  0  0  0
    1.0010   21.6272   33.2939 O   0  0  0  0  0  0  0  0  0  0  0  0
   -1.1937   21.0679   32.5114 C   0  0  0  0  0  0  0  0  0  0  0  0
   -5.1665   17.1468   38.1790 C   0  0  2  0  0  0  0  0  0  0  0  0
   -6.5706   16.9947   38.5680 N   0  0  0  0  0  0  0  0  0  0  0  0
   -4.9382   18.6493   37.8561 C   0  0  0  0  0  0  0  0  0  0  0  0
   -3.4472   18.8354   37.4644 C   0  0  2  0  0  0  0  0  0  0  0  0
   -3.1831   20.2493   37.1546 N   0  0  0  0  0  0  0  0  0  0  0  0
   -3.0847   17.9669   36.2299 C   0  0  2  0  0  0  0  0  0  0  0  0
   -3.3655   16.4673   36.5620 C   0  0  2  0  0  0  0  0  0  0  0  0
   -3.0412   15.6671   35.4170 O   0  0  0  0  0  0  0  0  0  0  0  0
   -4.8590   16.2503   36.9064 C   0  0  1  0  0  0  0  0  0  0  0  0
   -5.0320   14.8443   37.2112 O   0  0  0  0  0  0  0  0  0  0  0  0
   -4.0621   14.2656   38.1156 C   0  0  2  0  0  0  0  0  0  0  0  0
   -4.2764   12.7077   38.0491 C   0  0  2  0  0  0  0  0  0  0  0  0
   -4.0526   12.2465   36.7260 O   0  0  0  0  0  0  0  0  0  0  0  0
   -5.7408   12.3715   38.5236 C   0  0  1  0  0  0  0  0  0  0  0  0
   -5.9930   10.8993   38.4670 N   0  0  0  0  0  0  0  0  0  0  0  0
   -6.7627   10.5923   37.2423 C   0  0  0  0  0  0  0  0  0  0  0  0
   -5.9208   12.8952   39.9810 C   0  0  2  0  0  0  0  0  0  0  0  0
   -4.9794   12.2334   40.8244 O   0  0  0  0  0  0  0  0  0  0  0  0
   -7.3233   12.6150   40.5149 C   0  0  0  0  0  0  0  0  0  0  0  0
   -5.6483   14.4333   40.0097 C   0  0  0  0  0  0  0  0  0  0  0  0
   -4.2976   14.7404   39.4939 O   0  0  0  0  0  0  0  0  0  0  0  0
  1  3  1  0  0  0  0
  1  2  1  1  0  0  0
  3  5  1  0  0  0  0
  3  4  1  1  0  0  0
  5  6  1  6  0  0  0
  7  8  1  1  0  0  0
  7  5  1  0  0  0  0
  9 10  1  6  0  0  0
  9  7  1  0  0  0  0
 10  1  1  0  0  0  0
 11 13  1  1  0  0  0
 11  9  1  0  0  0  0
 12 11  1  0  0  0  0
 14 15  1  6  0  0  0
 16 14  1  0  0  0  0
 17 18  1  6  0  0  0
 17 16  1  0  0  0  0
 19  2  1  1  0  0  0
 19 20  1  0  0  0  0
 19 17  1  0  0  0  0
 20 21  1  6  0  0  0
 20 22  1  0  0  0  0
 22 23  1  1  0  0  0
 22 14  1  0  0  0  0
 24 23  1  6  0  0  0
 24 25  1  0  0  0  0
 25 27  1  0  0  0  0
 25 26  1  6  0  0  0
 27 28  1  1  0  0  0
 28 29  1  0  0  0  0
 30 31  1  1  0  0  0
 30 32  1  0  0  0  0
 30 27  1  0  0  0  0
 33 30  1  0  0  0  0
 34 33  1  0  0  0  0
 34 24  1  0  0  0  0
M  END
>  <CHROM.1>
-132.79523944,-61.93014909,-179.24030778,-68.90143452,-168.51695560,-100.65585981
-2.84470648,16.37747488,36.74370484,-0.83029492,-0.45592233,2.92235575

>  <Name>
lig.pdb

>  <RI>
0

>  <Rbt.Current_Directory>
/home/itssahil/PROJECTS/Mol_Feturizer/New_Systems/rnas/4k32

>  <Rbt.Executable>
rbdock ($Id: //depot/dev/client3/rdock/2013.1/src/exe/rbdock.cxx#4 $)

>  <Rbt.Library>
libRbt.so (2013.1, Build901 2013/11/27)

>  <Rbt.Parameter_File>
/export/apps/rDock/src/rDock_2013.1_src/data/scripts/dock_solv.prm

>  <Rbt.Receptor>
prm/pocket_docking_4.prm

>  <SCORE>
-15.2893

>  <SCORE.INTER>
-12.4731

>  <SCORE.INTER.CONST>
1

>  <SCORE.INTER.POLAR>
0

>  <SCORE.INTER.ROT>
6

>  <SCORE.INTER.SOLV>
21.5911

>  <SCORE.INTER.VDW>
-23.1124

>  <SCORE.INTER.norm>
-0.366857

>  <SCORE.INTRA>
-2.81619

>  <SCORE.INTRA.DIHEDRAL>
-9.57666

>  <SCORE.INTRA.DIHEDRAL.0>
18.0069

>  <SCORE.INTRA.POLAR>
0

>  <SCORE.INTRA.POLAR.0>
0

>  <SCORE.INTRA.REPUL>
0

>  <SCORE.INTRA.REPUL.0>
0

>  <SCORE.INTRA.SOLV>
0.323267

>  <SCORE.INTRA.SOLV.lig_0>
-70.7393

>  <SCORE.INTRA.VDW>
1.81051

>  <SCORE.INTRA.VDW.0>
-3.23471

>  <SCORE.INTRA.norm>
-0.082829

>  <SCORE.RESTR>
0

>  <SCORE.RESTR.CAVITY>
0

>  <SCORE.RESTR.norm>
0

>  <SCORE.SYSTEM>
0

>  <SCORE.SYSTEM.CONST>
0

>  <SCORE.SYSTEM.DIHEDRAL>
0

>  <SCORE.SYSTEM.SOLV>
0

>  <SCORE.SYSTEM.norm>
0

>  <SCORE.heavy>
34

>  <SCORE.norm>
-0.449686

>  <RMSD>
2.181

$$$$
lig.pdb
 OpenBabel11021811503D
libRbt.so/2013.1/901 2013/11/27
 34 36  0  0  0  0  0  0  0  0999 V2000
   -1.7673   17.7660   35.4377 C   0  0  2  0  0  0  0  0  0  0  0  0
   -2.1577   17.6069   36.8060 O   0  0  0  0  0  0  0  0  0  0  0  0
   -1.5028   16.3280   34.8185 C   0  0  2  0  0  0  0  0  0  0  0  0
   -2.7144   15.4768   34.8655 N   0  0  0  0  0  0  0  0  0  0  0  0
   -0.3453   15.6416   35.5865 C   0  0  1  0  0  0  0  0  0  0  0  0
   -0.0875   14.3468   35.0382 O   0  0  0  0  0  0  0  0  0  0  0  0
    0.8997   16.5426   35.5039 C   0  0  2  0  0  0  0  0  0  0  0  0
    1.9767   15.9192   36.2053 O   0  0  0  0  0  0  0  0  0  0  0  0
    0.5730   17.9580   36.1172 C   0  0  2  0  0  0  0  0  0  0  0  0
   -0.5553   18.5910   35.4015 O   0  0  0  0  0  0  0  0  0  0  0  0
    1.7941   18.9078   36.0412 C   0  0  2  0  0  0  0  0  0  0  0  0
    1.6511   19.9581   36.9993 O   0  0  0  0  0  0  0  0  0  0  0  0
    1.9239   19.5266   34.6581 C   0  0  0  0  0  0  0  0  0  0  0  0
   -5.7767   17.6220   39.0907 C   0  0  2  0  0  0  0  0  0  0  0  0
   -7.1919   17.7473   39.4480 N   0  0  0  0  0  0  0  0  0  0  0  0
   -5.3636   18.9386   38.3768 C   0  0  0  0  0  0  0  0  0  0  0  0
   -3.8580   18.8349   38.0112 C   0  0  2  0  0  0  0  0  0  0  0  0
   -3.4203   20.0666   37.3357 N   0  0  0  0  0  0  0  0  0  0  0  0
   -3.5951   17.6216   37.0793 C   0  0  2  0  0  0  0  0  0  0  0  0
   -4.0600   16.3164   37.7991 C   0  0  2  0  0  0  0  0  0  0  0  0
   -3.8272   15.1975   36.9328 O   0  0  0  0  0  0  0  0  0  0  0  0
   -5.5715   16.3778   38.1276 C   0  0  1  0  0  0  0  0  0  0  0  0
   -5.9178   15.1417   38.7999 O   0  0  0  0  0  0  0  0  0  0  0  0
   -7.2060   14.5745   38.4642 C   0  0  2  0  0  0  0  0  0  0  0  0
   -7.3741   13.3011   39.3739 C   0  0  2  0  0  0  0  0  0  0  0  0
   -7.3433   13.6783   40.7414 O   0  0  0  0  0  0  0  0  0  0  0  0
   -6.2203   12.2801   39.0442 C   0  0  1  0  0  0  0  0  0  0  0  0
   -6.3346   11.0561   39.8944 N   0  0  0  0  0  0  0  0  0  0  0  0
   -5.4980   11.2316   41.1010 C   0  0  0  0  0  0  0  0  0  0  0  0
   -6.3122   11.9005   37.5349 C   0  0  2  0  0  0  0  0  0  0  0  0
   -7.5781   11.2882   37.2936 O   0  0  0  0  0  0  0  0  0  0  0  0
   -5.2180   10.9160   37.1301 C   0  0  0  0  0  0  0  0  0  0  0  0
   -6.1931   13.1978   36.6724 C   0  0  0  0  0  0  0  0  0  0  0  0
   -7.2373   14.1762   37.0426 O   0  0  0  0  0  0  0  0  0  0  0  0
  1  3  1  0  0  0  0
  1  2  1  1  0  0  0
  3  5  1  0  0  0  0
  3  4  1  1  0  0  0
  5  6  1  6  0  0  0
  7  8  1  1  0  0  0
  7  5  1  0  0  0  0
  9 10  1  6  0  0  0
  9  7  1  0  0  0  0
 10  1  1  0  0  0  0
 11 13  1  6  0  0  0
 11  9  1  0  0  0  0
 12 11  1  0  0  0  0
 14 15  1  6  0  0  0
 16 14  1  0  0  0  0
 17 18  1  6  0  0  0
 17 16  1  0  0  0  0
 19  2  1  1  0  0  0
 19 20  1  0  0  0  0
 19 17  1  0  0  0  0
 20 21  1  6  0  0  0
 20 22  1  0  0  0  0
 22 23  1  1  0  0  0
 22 14  1  0  0  0  0
 24 23  1  1  0  0  0
 24 25  1  0  0  0  0
 25 27  1  0  0  0  0
 25 26  1  1  0  0  0
 27 28  1  1  0  0  0
 28 29  1  0  0  0  0
 30 31  1  6  0  0  0
 30 32  1  0  0  0  0
 30 27  1  0  0  0  0
 33 30  1  0  0  0  0
 34 33  1  0  0  0  0
 34 24  1  0  0  0  0
M  END
>  <CHROM.1>
-97.05379718,-159.00108972,-118.20652125,102.13267253,-176.92065743,-93.34345209
-3.54876007,15.74339222,37.31405458,0.54291109,0.46924452,0.11863371

>  <Name>
lig.pdb

>  <RI>
0

>  <Rbt.Current_Directory>
/home/itssahil/PROJECTS/Mol_Feturizer/New_Systems/rnas/4k32

>  <Rbt.Executable>
rbdock ($Id: //depot/dev/client3/rdock/2013.1/src/exe/rbdock.cxx#4 $)

>  <Rbt.Library>
libRbt.so (2013.1, Build901 2013/11/27)

>  <Rbt.Parameter_File>
/export/apps/rDock/src/rDock_2013.1_src/data/scripts/dock_solv.prm

>  <Rbt.Receptor>
prm/pocket_docking_2.prm

>  <SCORE>
-3.83485

>  <SCORE.INTER>
-8.13168

>  <SCORE.INTER.CONST>
1

>  <SCORE.INTER.POLAR>
0

>  <SCORE.INTER.ROT>
6

>  <SCORE.INTER.SOLV>
27.1566

>  <SCORE.INTER.VDW>
-22.0733

>  <SCORE.INTER.norm>
-0.239167

>  <SCORE.INTRA>
2.88178

>  <SCORE.INTRA.DIHEDRAL>
2.03936

>  <SCORE.INTRA.DIHEDRAL.0>
18.0069

>  <SCORE.INTRA.POLAR>
0

>  <SCORE.INTRA.POLAR.0>
0

>  <SCORE.INTRA.REPUL>
0

>  <SCORE.INTRA.REPUL.0>
0

>  <SCORE.INTRA.SOLV>
0.496795

>  <SCORE.INTRA.SOLV.lig_0>
-70.7393

>  <SCORE.INTRA.VDW>
1.6137

>  <SCORE.INTRA.VDW.0>
-3.23471

>  <SCORE.INTRA.norm>
0.0847583

>  <SCORE.RESTR>
1.41504

>  <SCORE.RESTR.CAVITY>
1.41504

>  <SCORE.RESTR.norm>
0.0416189

>  <SCORE.SYSTEM>
0

>  <SCORE.SYSTEM.CONST>
0

>  <SCORE.SYSTEM.DIHEDRAL>
0

>  <SCORE.SYSTEM.SOLV>
0

>  <SCORE.SYSTEM.norm>
0

>  <SCORE.heavy>
34

>  <SCORE.norm>
-0.11279

>  <RMSD>
2.228

$$$$
lig.pdb
 OpenBabel11021811503D
libRbt.so/2013.1/901 2013/11/27
 34 36  0  0  0  0  0  0  0  0999 V2000
   -0.1967   17.3018   35.1036 C   0  0  2  0  0  0  0  0  0  0  0  0
   -1.0109   17.5862   36.2466 O   0  0  0  0  0  0  0  0  0  0  0  0
    1.2918   17.7554   35.4197 C   0  0  2  0  0  0  0  0  0  0  0  0
    1.8514   17.0340   36.5865 N   0  0  0  0  0  0  0  0  0  0  0  0
    1.3206   19.2827   35.6799 C   0  0  1  0  0  0  0  0  0  0  0  0
    2.6553   19.7114   35.9598 O   0  0  0  0  0  0  0  0  0  0  0  0
    0.7492   20.0010   34.4445 C   0  0  2  0  0  0  0  0  0  0  0  0
    0.7734   21.4113   34.6696 O   0  0  0  0  0  0  0  0  0  0  0  0
   -0.7206   19.4999   34.1709 C   0  0  2  0  0  0  0  0  0  0  0  0
   -0.7441   18.0369   33.9586 O   0  0  0  0  0  0  0  0  0  0  0  0
   -1.3333   20.1843   32.9238 C   0  0  2  0  0  0  0  0  0  0  0  0
   -0.4242   20.0922   31.8253 O   0  0  0  0  0  0  0  0  0  0  0  0
   -1.6254   21.6527   33.1906 C   0  0  0  0  0  0  0  0  0  0  0  0
   -3.9135   14.9632   37.9817 C   0  0  2  0  0  0  0  0  0  0  0  0
   -5.1725   14.2568   38.2310 N   0  0  0  0  0  0  0  0  0  0  0  0
   -4.2367   16.4825   37.9477 C   0  0  0  0  0  0  0  0  0  0  0  0
   -2.9088   17.2508   37.7084 C   0  0  2  0  0  0  0  0  0  0  0  0
   -3.1670   18.6989   37.6741 N   0  0  0  0  0  0  0  0  0  0  0  0
   -2.2505   16.8188   36.3706 C   0  0  2  0  0  0  0  0  0  0  0  0
   -1.9774   15.2820   36.4103 C   0  0  2  0  0  0  0  0  0  0  0  0
   -1.3797   14.8821   35.1696 O   0  0  0  0  0  0  0  0  0  0  0  0
   -3.2963   14.4935   36.5975 C   0  0  1  0  0  0  0  0  0  0  0  0
   -2.9559   13.0854   36.6350 O   0  0  0  0  0  0  0  0  0  0  0  0
   -2.8517   12.4221   35.3533 C   0  0  2  0  0  0  0  0  0  0  0  0
   -4.2985   11.9075   35.0078 C   0  0  2  0  0  0  0  0  0  0  0  0
   -5.1930   13.0057   34.9228 O   0  0  0  0  0  0  0  0  0  0  0  0
   -4.7590   10.8896   36.1189 C   0  0  1  0  0  0  0  0  0  0  0  0
   -6.1359   10.3812   35.8362 N   0  0  0  0  0  0  0  0  0  0  0  0
   -6.9456   10.4814   37.0695 C   0  0  0  0  0  0  0  0  0  0  0  0
   -3.7436    9.7072   36.1577 C   0  0  2  0  0  0  0  0  0  0  0  0
   -3.7446    9.0616   34.8854 O   0  0  0  0  0  0  0  0  0  0  0  0
   -4.1151    8.6754   37.2196 C   0  0  0  0  0  0  0  0  0  0  0  0
   -2.3153   10.2683   36.4512 C   0  0  0  0  0  0  0  0  0  0  0  0
   -1.9255   11.2754   35.4421 O   0  0  0  0  0  0  0  0  0  0  0  0
  1  3  1  0  0  0  0
  1  2  1  1  0  0  0
  3  5  1  0  0  0  0
  3  4  1  1  0  0  0
  5  6  1  6  0  0  0
  7  8  1  1  0  0  0
  7  5  1  0  0  0  0
  9 10  1  6  0  0  0
  9  7  1  0  0  0  0
 10  1  1  0  0  0  0
 11 13  1  1  0  0  0
 11  9  1  0  0  0  0
 12 11  1  0  0  0  0
 14 15  1  6  0  0  0
 16 14  1  0  0  0  0
 17 18  1  6  0  0  0
 17 16  1  0  0  0  0
 19  2  1  1  0  0  0
 19 20  1  0  0  0  0
 19 17  1  0  0  0  0
 20 21  1  6  0  0  0
 20 22  1  0  0  0  0
 22 23  1  1  0  0  0
 22 14  1  0  0  0  0
 24 23  1  1  0  0  0
 24 25  1  0  0  0  0
 25 27  1  0  0  0  0
 25 26  1  1  0  0  0
 27 28  1  6  0  0  0
 28 29  1  0  0  0  0
 30 31  1  6  0  0  0
 30 32  1  0  0  0  0
 30 27  1  0  0  0  0
 33 30  1  0  0  0  0
 34 33  1  0  0  0  0
 34 24  1  0  0  0  0
M  END
>  <CHROM.1>
-157.73380608,49.86492925,177.16032384,158.30641556,-88.26027884,-131.78219170
-2.18212274,15.41045158,35.71552616,-1.06505048,-0.39732798,-3.11068614

>  <Name>
lig.pdb

>  <RI>
0

>  <Rbt.Current_Directory>
/home/itssahil/PROJECTS/Mol_Feturizer/New_Systems/rnas/4k32

>  <Rbt.Executable>
rbdock ($Id: //depot/dev/client3/rdock/2013.1/src/exe/rbdock.cxx#4 $)

>  <Rbt.Library>
libRbt.so (2013.1, Build901 2013/11/27)

>  <Rbt.Parameter_File>
/export/apps/rDock/src/rDock_2013.1_src/data/scripts/dock_solv.prm

>  <Rbt.Receptor>
prm/pocket_docking_6.prm

>  <SCORE>
-9.95086

>  <SCORE.INTER>
-6.79105

>  <SCORE.INTER.CONST>
1

>  <SCORE.INTER.POLAR>
0

>  <SCORE.INTER.ROT>
6

>  <SCORE.INTER.SOLV>
20.6336

>  <SCORE.INTER.VDW>
-19.0052

>  <SCORE.INTER.norm>
-0.199737

>  <SCORE.INTRA>
-3.1598

>  <SCORE.INTRA.DIHEDRAL>
-8.94785

>  <SCORE.INTRA.DIHEDRAL.0>
18.0069

>  <SCORE.INTRA.POLAR>
0

>  <SCORE.INTRA.POLAR.0>
0

>  <SCORE.INTRA.REPUL>
0

>  <SCORE.INTRA.REPUL.0>
0

>  <SCORE.INTRA.SOLV>
-1.12268

>  <SCORE.INTRA.SOLV.lig_0>
-70.7393

>  <SCORE.INTRA.VDW>
1.87546

>  <SCORE.INTRA.VDW.0>
-3.23471

>  <SCORE.INTRA.norm>
-0.0929353

>  <SCORE.RESTR>
0

>  <SCORE.RESTR.CAVITY>
0

>  <SCORE.RESTR.norm>
0

>  <SCORE.SYSTEM>
0

>  <SCORE.SYSTEM.CONST>
0

>  <SCORE.SYSTEM.DIHEDRAL>
0

>  <SCORE.SYSTEM.SOLV>
0

>  <SCORE.SYSTEM.norm>
0

>  <SCORE.heavy>
34

>  <SCORE.norm>
-0.292672

>  <RMSD>
2.554

$$$$
lig.pdb
 OpenBabel11021811503D
libRbt.so/2013.1/901 2013/11/27
 34 36  0  0  0  0  0  0  0  0999 V2000
   -0.9243   16.4054   34.8447 C   0  0  2  0  0  0  0  0  0  0  0  0
   -1.7950   16.8744   35.8802 O   0  0  0  0  0  0  0  0  0  0  0  0
    0.4201   15.8880   35.5126 C   0  0  2  0  0  0  0  0  0  0  0  0
    0.1724   14.7748   36.4583 N   0  0  0  0  0  0  0  0  0  0  0  0
    1.1143   17.0615   36.2488 C   0  0  1  0  0  0  0  0  0  0  0  0
    2.3317   16.6161   36.8514 O   0  0  0  0  0  0  0  0  0  0  0  0
    1.3715   18.1916   35.2362 C   0  0  2  0  0  0  0  0  0  0  0  0
    2.0152   19.2794   35.9015 O   0  0  0  0  0  0  0  0  0  0  0  0
    0.0062   18.6521   34.5958 C   0  0  2  0  0  0  0  0  0  0  0  0
   -0.6665   17.5189   33.9257 O   0  0  0  0  0  0  0  0  0  0  0  0
    0.2166   19.7799   33.5550 C   0  0  2  0  0  0  0  0  0  0  0  0
    0.7959   20.9219   34.1890 O   0  0  0  0  0  0  0  0  0  0  0  0
   -1.1014   20.1939   32.9192 C   0  0  0  0  0  0  0  0  0  0  0  0
   -5.3698   14.9474   37.2308 C   0  0  2  0  0  0  0  0  0  0  0  0
   -6.7688   14.5218   37.3183 N   0  0  0  0  0  0  0  0  0  0  0  0
   -5.3641   16.4995   37.1605 C   0  0  0  0  0  0  0  0  0  0  0  0
   -3.8865   16.9718   37.0916 C   0  0  2  0  0  0  0  0  0  0  0  0
   -3.8324   18.4408   37.0291 N   0  0  0  0  0  0  0  0  0  0  0  0
   -3.1724   16.3821   35.8458 C   0  0  2  0  0  0  0  0  0  0  0  0
   -3.2311   14.8234   35.9154 C   0  0  2  0  0  0  0  0  0  0  0  0
   -2.5812   14.2798   34.7584 O   0  0  0  0  0  0  0  0  0  0  0  0
   -4.6976   14.3282   35.9337 C   0  0  1  0  0  0  0  0  0  0  0  0
   -4.6640   12.8815   36.0098 O   0  0  0  0  0  0  0  0  0  0  0  0
   -5.8730   12.1954   35.6084 C   0  0  2  0  0  0  0  0  0  0  0  0
   -5.5490   10.6570   35.6842 C   0  0  2  0  0  0  0  0  0  0  0  0
   -5.1999   10.3029   37.0131 O   0  0  0  0  0  0  0  0  0  0  0  0
   -4.3739   10.3314   34.6863 C   0  0  1  0  0  0  0  0  0  0  0  0
   -4.0247    8.8787   34.7323 N   0  0  0  0  0  0  0  0  0  0  0  0
   -2.8700    8.6925   35.6370 C   0  0  0  0  0  0  0  0  0  0  0  0
   -4.8204   10.7347   33.2480 C   0  0  2  0  0  0  0  0  0  0  0  0
   -5.9737    9.9719   32.8963 O   0  0  0  0  0  0  0  0  0  0  0  0
   -3.7292   10.4578   32.2170 C   0  0  0  0  0  0  0  0  0  0  0  0
   -5.1815   12.2547   33.2314 C   0  0  0  0  0  0  0  0  0  0  0  0
   -6.2343   12.5586   34.2234 O   0  0  0  0  0  0  0  0  0  0  0  0
  1  3  1  0  0  0  0
  1  2  1  1  0  0  0
  3  5  1  0  0  0  0
  3  4  1  1  0  0  0
  5  6  1  6  0  0  0
  7  8  1  1  0  0  0
  7  5  1  0  0  0  0
  9 10  1  6  0  0  0
  9  7  1  0  0  0  0
 10  1  1  0  0  0  0
 11 13  1  1  0  0  0
 11  9  1  0  0  0  0
 12 11  1  0  0  0  0
 14 15  1  6  0  0  0
 16 14  1  0  0  0  0
 17 18  1  6  0  0  0
 17 16  1  0  0  0  0
 19  2  1  1  0  0  0
 19 20  1  0  0  0  0
 19 17  1  0  0  0  0
 20 21  1  6  0  0  0
 20 22  1  0  0  0  0
 22 23  1  1  0  0  0
 22 14  1  0  0  0  0
 24 23  1  6  0  0  0
 24 25  1  0  0  0  0
 25 27  1  0  0  0  0
 25 26  1  1  0  0  0
 27 28  1  6  0  0  0
 28 29  1  0  0  0  0
 30 31  1  6  0  0  0
 30 32  1  0  0  0  0
 30 27  1  0  0  0  0
 33 30  1  0  0  0  0
 34 33  1  0  0  0  0
 34 24  1  0  0  0  0
M  END
>  <CHROM.1>
-130.90541350,-61.12510369,177.38248385,83.24354102,176.13782211,-96.87474886
-2.72529060,14.80199827,35.26654401,-0.93871611,-0.28297560,-2.90448474

>  <Name>
lig.pdb

>  <RI>
0

>  <Rbt.Current_Directory>
/home/itssahil/PROJECTS/Mol_Feturizer/New_Systems/rnas/4k32

>  <Rbt.Executable>
rbdock ($Id: //depot/dev/client3/rdock/2013.1/src/exe/rbdock.cxx#4 $)

>  <Rbt.Library>
libRbt.so (2013.1, Build901 2013/11/27)

>  <Rbt.Parameter_File>
/export/apps/rDock/src/rDock_2013.1_src/data/scripts/dock_solv.prm

>  <Rbt.Receptor>
prm/pocket_docking_5.prm

>  <SCORE>
-13.5106

>  <SCORE.INTER>
-9.86635

>  <SCORE.INTER.CONST>
1

>  <SCORE.INTER.POLAR>
0

>  <SCORE.INTER.ROT>
6

>  <SCORE.INTER.SOLV>
20.0014

>  <SCORE.INTER.VDW>
-20.8447

>  <SCORE.INTER.norm>
-0.290187

>  <SCORE.INTRA>
-3.6442

>  <SCORE.INTRA.DIHEDRAL>
-8.06867

>  <SCORE.INTRA.DIHEDRAL.0>
18.0069

>  <SCORE.INTRA.POLAR>
0

>  <SCORE.INTRA.POLAR.0>
0

>  <SCORE.INTRA.REPUL>
0

>  <SCORE.INTRA.REPUL.0>
0

>  <SCORE.INTRA.SOLV>
-0.717463

>  <SCORE.INTRA.SOLV.lig_0>
-70.7393

>  <SCORE.INTRA.VDW>
0.748865

>  <SCORE.INTRA.VDW.0>
-3.23471

>  <SCORE.INTRA.norm>
-0.107182

>  <SCORE.RESTR>
0

>  <SCORE.RESTR.CAVITY>
0

>  <SCORE.RESTR.norm>
0

>  <SCORE.SYSTEM>
0

>  <SCORE.SYSTEM.CONST>
0

>  <SCORE.SYSTEM.DIHEDRAL>
0

>  <SCORE.SYSTEM.SOLV>
0

>  <SCORE.SYSTEM.norm>
0

>  <SCORE.heavy>
34

>  <SCORE.norm>
-0.397369

>  <RMSD>
2.854

$$$$
lig.pdb
 OpenBabel11021811503D
libRbt.so/2013.1/901 2013/11/27
 34 36  0  0  0  0  0  0  0  0999 V2000
   -2.3152   18.2664   36.8954 C   0  0  2  0  0  0  0  0  0  0  0  0
   -3.4237   17.9609   36.0421 O   0  0  0  0  0  0  0  0  0  0  0  0
   -1.2055   19.0070   36.0344 C   0  0  2  0  0  0  0  0  0  0  0  0
   -1.7129   20.2713   35.4522 N   0  0  0  0  0  0  0  0  0  0  0  0
   -0.7158   18.0652   34.9056 C   0  0  1  0  0  0  0  0  0  0  0  0
    0.2899   18.7128   34.1229 O   0  0  0  0  0  0  0  0  0  0  0  0
   -0.1812   16.7712   35.5446 C   0  0  2  0  0  0  0  0  0  0  0  0
    0.2775   15.8945   34.5143 O   0  0  0  0  0  0  0  0  0  0  0  0
   -1.3192   16.0902   36.3976 C   0  0  2  0  0  0  0  0  0  0  0  0
   -1.8052   17.0081   37.4498 O   0  0  0  0  0  0  0  0  0  0  0  0
   -0.8222   14.7893   37.0756 C   0  0  2  0  0  0  0  0  0  0  0  0
    0.4709   15.0033   37.6446 O   0  0  0  0  0  0  0  0  0  0  0  0
   -0.7293   13.6485   36.0743 C   0  0  0  0  0  0  0  0  0  0  0  0
   -5.8696   16.1073   39.0251 C   0  0  2  0  0  0  0  0  0  0  0  0
   -7.0446   15.6965   39.7976 N   0  0  0  0  0  0  0  0  0  0  0  0
   -5.9109   17.6563   38.9125 C   0  0  0  0  0  0  0  0  0  0  0  0
   -4.6586   18.1136   38.1165 C   0  0  2  0  0  0  0  0  0  0  0  0
   -4.6531   19.5795   37.9897 N   0  0  0  0  0  0  0  0  0  0  0  0
   -4.6388   17.4795   36.6997 C   0  0  2  0  0  0  0  0  0  0  0  0
   -4.6440   15.9243   36.8378 C   0  0  2  0  0  0  0  0  0  0  0  0
   -4.6374   15.3396   35.5283 O   0  0  0  0  0  0  0  0  0  0  0  0
   -5.9113   15.4424   37.5850 C   0  0  1  0  0  0  0  0  0  0  0  0
   -5.8336   13.9986   37.6802 O   0  0  0  0  0  0  0  0  0  0  0  0
   -7.0343   13.2725   37.3268 C   0  0  2  0  0  0  0  0  0  0  0  0
   -7.3338   12.3079   38.5339 C   0  0  2  0  0  0  0  0  0  0  0  0
   -7.5459   13.0653   39.7149 O   0  0  0  0  0  0  0  0  0  0  0  0
   -6.1223   11.3160   38.7097 C   0  0  1  0  0  0  0  0  0  0  0  0
   -6.3594   10.3850   39.8548 N   0  0  0  0  0  0  0  0  0  0  0  0
   -5.8535   11.0125   41.0945 C   0  0  0  0  0  0  0  0  0  0  0  0
   -5.9460   10.5112   37.3862 C   0  0  2  0  0  0  0  0  0  0  0  0
   -7.1401    9.7707   37.1386 O   0  0  0  0  0  0  0  0  0  0  0  0
   -4.7809    9.5284   37.4711 C   0  0  0  0  0  0  0  0  0  0  0  0
   -5.7033   11.5090   36.2086 C   0  0  0  0  0  0  0  0  0  0  0  0
   -6.8130   12.4793   36.1010 O   0  0  0  0  0  0  0  0  0  0  0  0
  1  3  1  0  0  0  0
  1  2  1  6  0  0  0
  3  5  1  0  0  0  0
  3  4  1  6  0  0  0
  5  6  1  1  0  0  0
  7  8  1  6  0  0  0
  7  5  1  0  0  0  0
  9 10  1  1  0  0  0
  9  7  1  0  0  0  0
 10  1  1  0  0  0  0
 11 13  1  6  0  0  0
 11  9  1  0  0  0  0
 12 11  1  0  0  0  0
 14 15  1  1  0  0  0
 16 14  1  0  0  0  0
 17 18  1  6  0  0  0
 17 16  1  0  0  0  0
 19  2  1  1  0  0  0
 19 20  1  0  0  0  0
 19 17  1  0  0  0  0
 20 21  1  6  0  0  0
 20 22  1  0  0  0  0
 22 23  1  1  0  0  0
 22 14  1  0  0  0  0
 24 23  1  1  0  0  0
 24 25  1  0  0  0  0
 25 27  1  0  0  0  0
 25 26  1  1  0  0  0
 27 28  1  1  0  0  0
 28 29  1  0  0  0  0
 30 31  1  6  0  0  0
 30 32  1  0  0  0  0
 30 27  1  0  0  0  0
 33 30  1  0  0  0  0
 34 33  1  0  0  0  0
 34 24  1  0  0  0  0
M  END
>  <CHROM.1>
-170.02773022,44.20787228,29.21835186,110.73255164,-127.78332318,-88.34433542
-4.02864911,15.02336395,37.21387861,0.81671296,0.47130740,0.02431553

>  <Name>
lig.pdb

>  <RI>
0

>  <Rbt.Current_Directory>
/home/itssahil/PROJECTS/Mol_Feturizer/New_Systems/rnas/4k32

>  <Rbt.Executable>
rbdock ($Id: //depot/dev/client3/rdock/2013.1/src/exe/rbdock.cxx#4 $)

>  <Rbt.Library>
libRbt.so (2013.1, Build901 2013/11/27)

>  <Rbt.Parameter_File>
/export/apps/rDock/src/rDock_2013.1_src/data/scripts/dock_solv.prm

>  <Rbt.Receptor>
prm/pocket_docking_2.prm

>  <SCORE>
2.62254

>  <SCORE.INTER>
-2.44204

>  <SCORE.INTER.CONST>
1

>  <SCORE.INTER.POLAR>
0

>  <SCORE.INTER.ROT>
6

>  <SCORE.INTER.SOLV>
24.996

>  <SCORE.INTER.VDW>
-17.56

>  <SCORE.INTER.norm>
-0.0718246

>  <SCORE.INTRA>
3.80897

>  <SCORE.INTRA.DIHEDRAL>
1.26959

>  <SCORE.INTRA.DIHEDRAL.0>
18.0069

>  <SCORE.INTRA.POLAR>
0

>  <SCORE.INTRA.POLAR.0>
0

>  <SCORE.INTRA.REPUL>
0

>  <SCORE.INTRA.REPUL.0>
0

>  <SCORE.INTRA.SOLV>
1.13606

>  <SCORE.INTRA.SOLV.lig_0>
-70.7393

>  <SCORE.INTRA.VDW>
2.60615

>  <SCORE.INTRA.VDW.0>
-3.23471

>  <SCORE.INTRA.norm>
0.112028

>  <SCORE.RESTR>
1.25561

>  <SCORE.RESTR.CAVITY>
1.25561

>  <SCORE.RESTR.norm>
0.0369296

>  <SCORE.SYSTEM>
0

>  <SCORE.SYSTEM.CONST>
0

>  <SCORE.SYSTEM.DIHEDRAL>
0

>  <SCORE.SYSTEM.SOLV>
0

>  <SCORE.SYSTEM.norm>
0

>  <SCORE.heavy>
34

>  <SCORE.norm>
0.0771335

>  <RMSD>
2.934

$$$$
lig.pdb
 OpenBabel11021811503D
libRbt.so/2013.1/901 2013/11/27
 34 36  0  0  0  0  0  0  0  0999 V2000
   -2.9799   18.3782   37.1878 C   0  0  2  0  0  0  0  0  0  0  0  0
   -4.1470   18.2593   36.3668 O   0  0  0  0  0  0  0  0  0  0  0  0
   -1.9041   19.2505   36.4112 C   0  0  2  0  0  0  0  0  0  0  0  0
   -2.4095   20.6108   36.1130 N   0  0  0  0  0  0  0  0  0  0  0  0
   -1.5120   18.5327   35.0951 C   0  0  1  0  0  0  0  0  0  0  0  0
   -0.5379   19.3006   34.3846 O   0  0  0  0  0  0  0  0  0  0  0  0
   -0.9768   17.1320   35.4417 C   0  0  2  0  0  0  0  0  0  0  0  0
   -0.6077   16.4600   34.2364 O   0  0  0  0  0  0  0  0  0  0  0  0
   -2.0796   16.3202   36.2236 C   0  0  2  0  0  0  0  0  0  0  0  0
   -2.4734   17.0290   37.4599 O   0  0  0  0  0  0  0  0  0  0  0  0
   -1.5798   14.9059   36.6095 C   0  0  2  0  0  0  0  0  0  0  0  0
   -0.9005   14.3132   35.5009 O   0  0  0  0  0  0  0  0  0  0  0  0
   -2.7372   14.0037   37.0084 C   0  0  0  0  0  0  0  0  0  0  0  0
   -6.3596   15.8799   39.1524 C   0  0  2  0  0  0  0  0  0  0  0  0
   -7.4786   15.2624   39.8684 N   0  0  0  0  0  0  0  0  0  0  0  0
   -6.6008   17.4147   39.1568 C   0  0  0  0  0  0  0  0  0  0  0  0
   -5.4110   18.0900   38.4223 C   0  0  2  0  0  0  0  0  0  0  0  0
   -5.5949   19.5498   38.4071 N   0  0  0  0  0  0  0  0  0  0  0  0
   -5.2955   17.5757   36.9623 C   0  0  2  0  0  0  0  0  0  0  0  0
   -5.0999   16.0268   36.9819 C   0  0  2  0  0  0  0  0  0  0  0  0
   -5.0048   15.5513   35.6323 O   0  0  0  0  0  0  0  0  0  0  0  0
   -6.3008   15.3291   37.6655 C   0  0  1  0  0  0  0  0  0  0  0  0
   -6.0371   13.9043   37.6525 O   0  0  0  0  0  0  0  0  0  0  0  0
   -7.1471   13.0556   37.2769 C   0  0  2  0  0  0  0  0  0  0  0  0
   -7.3828   12.0807   38.4900 C   0  0  2  0  0  0  0  0  0  0  0  0
   -7.7051   12.8274   39.6527 O   0  0  0  0  0  0  0  0  0  0  0  0
   -6.0827   11.2194   38.7150 C   0  0  1  0  0  0  0  0  0  0  0  0
   -6.2580   10.2836   39.8672 N   0  0  0  0  0  0  0  0  0  0  0  0
   -5.8524   10.9739   41.1104 C   0  0  0  0  0  0  0  0  0  0  0  0
   -5.7870   10.4202   37.4095 C   0  0  2  0  0  0  0  0  0  0  0  0
   -6.8922    9.5591   37.1401 O   0  0  0  0  0  0  0  0  0  0  0  0
   -4.5314    9.5621   37.5422 C   0  0  0  0  0  0  0  0  0  0  0  0
   -5.6121   11.4226   36.2239 C   0  0  0  0  0  0  0  0  0  0  0  0
   -6.8107   12.2736   36.0702 O   0  0  0  0  0  0  0  0  0  0  0  0
  1  3  1  0  0  0  0
  1  2  1  6  0  0  0
  3  5  1  0  0  0  0
  3  4  1  6  0  0  0
  5  6  1  1  0  0  0
  7  8  1  6  0  0  0
  7  5  1  0  0  0  0
  9 10  1  1  0  0  0
  9  7  1  0  0  0  0
 10  1  1  0  0  0  0
 11 13  1  6  0  0  0
 11  9  1  0  0  0  0
 12 11  1  0  0  0  0
 14 15  1  1  0  0  0
 16 14  1  0  0  0  0
 17 18  1  6  0  0  0
 17 16  1  0  0  0  0
 19  2  1  1  0  0  0
 19 20  1  0  0  0  0
 19 17  1  0  0  0  0
 20 21  1  6  0  0  0
 20 22  1  0  0  0  0
 22 23  1  1  0  0  0
 22 14  1  0  0  0  0
 24 23  1  1  0  0  0
 24 25  1  0  0  0  0
 25 27  1  0  0  0  0
 25 26  1  1  0  0  0
 27 28  1  1  0  0  0
 28 29  1  0  0  0  0
 30 31  1  6  0  0  0
 30 32  1  0  0  0  0
 30 27  1  0  0  0  0
 33 30  1  0  0  0  0
 34 33  1  0  0  0  0
 34 24  1  0  0  0  0
M  END
>  <CHROM.1>
-175.22286269,-44.09103422,42.38399851,108.17490937,-121.63841184,-88.44781693
-4.51547822,15.04623376,37.25201310,0.91612474,0.60391665,0.07263312

>  <Name>
lig.pdb

>  <RI>
0

>  <Rbt.Current_Directory>
/home/itssahil/PROJECTS/Mol_Feturizer/New_Systems/rnas/4k32

>  <Rbt.Executable>
rbdock ($Id: //depot/dev/client3/rdock/2013.1/src/exe/rbdock.cxx#4 $)

>  <Rbt.Library>
libRbt.so (2013.1, Build901 2013/11/27)

>  <Rbt.Parameter_File>
/export/apps/rDock/src/rDock_2013.1_src/data/scripts/dock_solv.prm

>  <Rbt.Receptor>
prm/pocket_docking_2.prm

>  <SCORE>
2.57208

>  <SCORE.INTER>
-0.737219

>  <SCORE.INTER.CONST>
1

>  <SCORE.INTER.POLAR>
0

>  <SCORE.INTER.ROT>
6

>  <SCORE.INTER.SOLV>
27.6716

>  <SCORE.INTER.VDW>
-17.3153

>  <SCORE.INTER.norm>
-0.0216829

>  <SCORE.INTRA>
2.04271

>  <SCORE.INTRA.DIHEDRAL>
-1.3305

>  <SCORE.INTRA.DIHEDRAL.0>
18.0069

>  <SCORE.INTRA.POLAR>
0

>  <SCORE.INTRA.POLAR.0>
0

>  <SCORE.INTRA.REPUL>
0

>  <SCORE.INTRA.REPUL.0>
0

>  <SCORE.INTRA.SOLV>
1.307

>  <SCORE.INTRA.SOLV.lig_0>
-70.7393

>  <SCORE.INTRA.VDW>
2.05446

>  <SCORE.INTRA.VDW.0>
-3.23471

>  <SCORE.INTRA.norm>
0.0600797

>  <SCORE.RESTR>
1.26659

>  <SCORE.RESTR.CAVITY>
1.26659

>  <SCORE.RESTR.norm>
0.0372526

>  <SCORE.SYSTEM>
0

>  <SCORE.SYSTEM.CONST>
0

>  <SCORE.SYSTEM.DIHEDRAL>
0

>  <SCORE.SYSTEM.SOLV>
0

>  <SCORE.SYSTEM.norm>
0

>  <SCORE.heavy>
34

>  <SCORE.norm>
0.0756493

>  <RMSD>
3.048

$$$$
lig.pdb
 OpenBabel11021811503D
libRbt.so/2013.1/901 2013/11/27
 34 36  0  0  0  0  0  0  0  0999 V2000
   -0.8777   16.4484   34.7414 C   0  0  2  0  0  0  0  0  0  0  0  0
   -1.7738   16.8662   35.7771 O   0  0  0  0  0  0  0  0  0  0  0  0
    0.4684   15.9413   35.4138 C   0  0  2  0  0  0  0  0  0  0  0  0
    0.2325   14.7948   36.3219 N   0  0  0  0  0  0  0  0  0  0  0  0
    1.1248   17.1073   36.1952 C   0  0  1  0  0  0  0  0  0  0  0  0
    2.3432   16.6713   36.8025 O   0  0  0  0  0  0  0  0  0  0  0  0
    1.3708   18.2729   35.2208 C   0  0  2  0  0  0  0  0  0  0  0  0
    1.9797   19.3543   35.9280 O   0  0  0  0  0  0  0  0  0  0  0  0
    0.0047   18.7219   34.5738 C   0  0  2  0  0  0  0  0  0  0  0  0
   -0.6322   17.5946   33.8600 O   0  0  0  0  0  0  0  0  0  0  0  0
    0.2042   19.8850   33.5706 C   0  0  2  0  0  0  0  0  0  0  0  0
    0.7323   21.0255   34.2503 O   0  0  0  0  0  0  0  0  0  0  0  0
   -1.1106   20.2766   32.9144 C   0  0  0  0  0  0  0  0  0  0  0  0
   -5.2523   14.7088   37.0270 C   0  0  2  0  0  0  0  0  0  0  0  0
   -6.6323   14.2224   37.0990 N   0  0  0  0  0  0  0  0  0  0  0  0
   -5.3084   16.2610   37.0648 C   0  0  0  0  0  0  0  0  0  0  0  0
   -3.8516   16.7957   37.0138 C   0  0  2  0  0  0  0  0  0  0  0  0
   -3.8560   18.2665   37.0532 N   0  0  0  0  0  0  0  0  0  0  0  0
   -3.1312   16.3227   35.7227 C   0  0  2  0  0  0  0  0  0  0  0  0
   -3.1277   14.7618   35.6842 C   0  0  2  0  0  0  0  0  0  0  0  0
   -2.4721   14.3261   34.4855 O   0  0  0  0  0  0  0  0  0  0  0  0
   -4.5733   14.2082   35.6830 C   0  0  1  0  0  0  0  0  0  0  0  0
   -4.4819   12.7622   35.6580 O   0  0  0  0  0  0  0  0  0  0  0  0
   -5.7232   12.0503   35.4430 C   0  0  2  0  0  0  0  0  0  0  0  0
   -5.3473   10.5230   35.3848 C   0  0  2  0  0  0  0  0  0  0  0  0
   -4.7573   10.1247   36.6122 O   0  0  0  0  0  0  0  0  0  0  0  0
   -4.3599   10.2841   34.1804 C   0  0  1  0  0  0  0  0  0  0  0  0
   -3.9671    8.8445   34.0926 N   0  0  0  0  0  0  0  0  0  0  0  0
   -2.5999    8.6878   34.6339 C   0  0  0  0  0  0  0  0  0  0  0  0
   -5.0666   10.7327   32.8651 C   0  0  2  0  0  0  0  0  0  0  0  0
   -6.2420    9.9441   32.6855 O   0  0  0  0  0  0  0  0  0  0  0  0
   -4.1690   10.5408   31.6453 C   0  0  0  0  0  0  0  0  0  0  0  0
   -5.4679   12.2378   32.9871 C   0  0  0  0  0  0  0  0  0  0  0  0
   -6.3353   12.4597   34.1631 O   0  0  0  0  0  0  0  0  0  0  0  0
  1  3  1  0  0  0  0
  1  2  1  1  0  0  0
  3  5  1  0  0  0  0
  3  4  1  1  0  0  0
  5  6  1  6  0  0  0
  7  8  1  1  0  0  0
  7  5  1  0  0  0  0
  9 10  1  6  0  0  0
  9  7  1  0  0  0  0
 10  1  1  0  0  0  0
 11 13  1  1  0  0  0
 11  9  1  0  0  0  0
 12 11  1  0  0  0  0
 14 15  1  6  0  0  0
 16 14  1  0  0  0  0
 17 18  1  6  0  0  0
 17 16  1  0  0  0  0
 19  2  1  1  0  0  0
 19 20  1  0  0  0  0
 19 17  1  0  0  0  0
 20 21  1  6  0  0  0
 20 22  1  0  0  0  0
 22 23  1  1  0  0  0
 22 14  1  0  0  0  0
 24 23  1  6  0  0  0
 24 25  1  0  0  0  0
 25 27  1  0  0  0  0
 25 26  1  1  0  0  0
 27 28  1  6  0  0  0
 28 29  1  0  0  0  0
 30 31  1  6  0  0  0
 30 32  1  0  0  0  0
 30 27  1  0  0  0  0
 33 30  1  0  0  0  0
 34 33  1  0  0  0  0
 34 24  1  0  0  0  0
M  END
>  <CHROM.1>
-129.68778727,-61.84824477,174.16331653,73.19240841,177.16383897,-103.11018608
-2.70234522,14.76714641,35.06521189,-0.94737998,-0.28095712,-2.85303753

>  <Name>
lig.pdb

>  <RI>
0

>  <Rbt.Current_Directory>
/home/itssahil/PROJECTS/Mol_Feturizer/New_Systems/rnas/4k32

>  <Rbt.Executable>
rbdock ($Id: //depot/dev/client3/rdock/2013.1/src/exe/rbdock.cxx#4 $)

>  <Rbt.Library>
libRbt.so (2013.1, Build901 2013/11/27)

>  <Rbt.Parameter_File>
/export/apps/rDock/src/rDock_2013.1_src/data/scripts/dock_solv.prm

>  <Rbt.Receptor>
prm/pocket_docking_7.prm

>  <SCORE>
-13.6127

>  <SCORE.INTER>
-9.9252

>  <SCORE.INTER.CONST>
1

>  <SCORE.INTER.POLAR>
0

>  <SCORE.INTER.ROT>
6

>  <SCORE.INTER.SOLV>
20.608

>  <SCORE.INTER.VDW>
-21.0861

>  <SCORE.INTER.norm>
-0.291918

>  <SCORE.INTRA>
-3.68752

>  <SCORE.INTRA.DIHEDRAL>
-9.18226

>  <SCORE.INTRA.DIHEDRAL.0>
18.0069

>  <SCORE.INTRA.POLAR>
0

>  <SCORE.INTRA.POLAR.0>
0

>  <SCORE.INTRA.REPUL>
0

>  <SCORE.INTRA.REPUL.0>
0

>  <SCORE.INTRA.SOLV>
-0.521149

>  <SCORE.INTRA.SOLV.lig_0>
-70.7393

>  <SCORE.INTRA.VDW>
1.16418

>  <SCORE.INTRA.VDW.0>
-3.23471

>  <SCORE.INTRA.norm>
-0.108457

>  <SCORE.RESTR>
0

>  <SCORE.RESTR.CAVITY>
0

>  <SCORE.RESTR.norm>
0

>  <SCORE.SYSTEM>
0

>  <SCORE.SYSTEM.CONST>
0

>  <SCORE.SYSTEM.DIHEDRAL>
0

>  <SCORE.SYSTEM.SOLV>
0

>  <SCORE.SYSTEM.norm>
0

>  <SCORE.heavy>
34

>  <SCORE.norm>
-0.400374

>  <RMSD>
3.133

$$$$
lig.pdb
 OpenBabel11021811503D
libRbt.so/2013.1/901 2013/11/27
 34 36  0  0  0  0  0  0  0  0999 V2000
   -0.9022   16.3674   34.7356 C   0  0  2  0  0  0  0  0  0  0  0  0
   -1.8258   16.7806   35.7487 O   0  0  0  0  0  0  0  0  0  0  0  0
    0.4382   15.8897   35.4401 C   0  0  2  0  0  0  0  0  0  0  0  0
    0.2030   14.7485   36.3552 N   0  0  0  0  0  0  0  0  0  0  0  0
    1.0594   17.0742   36.2224 C   0  0  1  0  0  0  0  0  0  0  0  0
    2.2723   16.6647   36.8585 O   0  0  0  0  0  0  0  0  0  0  0  0
    1.3058   18.2340   35.2410 C   0  0  2  0  0  0  0  0  0  0  0  0
    1.8823   19.3324   35.9491 O   0  0  0  0  0  0  0  0  0  0  0  0
   -0.0542   18.6535   34.5621 C   0  0  2  0  0  0  0  0  0  0  0  0
   -0.6578   17.5086   33.8475 O   0  0  0  0  0  0  0  0  0  0  0  0
    0.1464   19.8097   33.5511 C   0  0  2  0  0  0  0  0  0  0  0  0
    0.6635   20.9584   34.2254 O   0  0  0  0  0  0  0  0  0  0  0  0
   -1.1657   20.1889   32.8823 C   0  0  0  0  0  0  0  0  0  0  0  0
   -5.3486   14.6476   36.9136 C   0  0  2  0  0  0  0  0  0  0  0  0
   -6.7307   14.1630   36.9454 N   0  0  0  0  0  0  0  0  0  0  0  0
   -5.4046   16.2002   36.9206 C   0  0  0  0  0  0  0  0  0  0  0  0
   -3.9464   16.7336   36.9116 C   0  0  2  0  0  0  0  0  0  0  0  0
   -3.9509   18.2049   36.9235 N   0  0  0  0  0  0  0  0  0  0  0  0
   -3.1809   16.2364   35.6561 C   0  0  2  0  0  0  0  0  0  0  0  0
   -3.1774   14.6752   35.6467 C   0  0  2  0  0  0  0  0  0  0  0  0
   -2.4799   14.2170   34.4804 O   0  0  0  0  0  0  0  0  0  0  0  0
   -4.6226   14.1220   35.6042 C   0  0  1  0  0  0  0  0  0  0  0  0
   -4.5317   12.6758   35.6093 O   0  0  0  0  0  0  0  0  0  0  0  0
   -5.7705   11.9600   35.3929 C   0  0  2  0  0  0  0  0  0  0  0  0
   -5.3965   10.4312   35.3813 C   0  0  2  0  0  0  0  0  0  0  0  0
   -4.8274   10.0648   36.6284 O   0  0  0  0  0  0  0  0  0  0  0  0
   -4.3898   10.1591   34.2001 C   0  0  1  0  0  0  0  0  0  0  0  0
   -3.9981    8.7172   34.1570 N   0  0  0  0  0  0  0  0  0  0  0  0
   -2.7555    8.5354   34.9378 C   0  0  0  0  0  0  0  0  0  0  0  0
   -5.0739   10.5736   32.8619 C   0  0  2  0  0  0  0  0  0  0  0  0
   -6.2476    9.7821   32.6839 O   0  0  0  0  0  0  0  0  0  0  0  0
   -4.1567   10.3483   31.6626 C   0  0  0  0  0  0  0  0  0  0  0  0
   -5.4745   12.0819   32.9374 C   0  0  0  0  0  0  0  0  0  0  0  0
   -6.3608   12.3361   34.0926 O   0  0  0  0  0  0  0  0  0  0  0  0
  1  3  1  0  0  0  0
  1  2  1  1  0  0  0
  3  5  1  0  0  0  0
  3  4  1  1  0  0  0
  5  6  1  6  0  0  0
  7  8  1  1  0  0  0
  7  5  1  0  0  0  0
  9 10  1  6  0  0  0
  9  7  1  0  0  0  0
 10  1  1  0  0  0  0
 11 13  1  1  0  0  0
 11  9  1  0  0  0  0
 12 11  1  0  0  0  0
 14 15  1  6  0  0  0
 16 14  1  0  0  0  0
 17 18  1  6  0  0  0
 17 16  1  0  0  0  0
 19  2  1  1  0  0  0
 19 20  1  0  0  0  0
 19 17  1  0  0  0  0
 20 21  1  6  0  0  0
 20 22  1  0  0  0  0
 22 23  1  1  0  0  0
 22 14  1  0  0  0  0
 24 23  1  6  0  0  0
 24 25  1  0  0  0  0
 25 27  1  0  0  0  0
 25 26  1  1  0  0  0
 27 28  1  6  0  0  0
 28 29  1  0  0  0  0
 30 31  1  6  0  0  0
 30 32  1  0  0  0  0
 30 27  1  0  0  0  0
 33 30  1  0  0  0  0
 34 33  1  0  0  0  0
 34 24  1  0  0  0  0
M  END
>  <CHROM.1>
-130.96581849,-60.85720744,175.55653791,71.87633885,177.59738955,-93.06091337
-2.75538088,14.68022265,35.04920427,-0.96343047,-0.22853618,-2.89601009

>  <Name>
lig.pdb

>  <RI>
0

>  <Rbt.Current_Directory>
/home/itssahil/PROJECTS/Mol_Feturizer/New_Systems/rnas/4k32

>  <Rbt.Executable>
rbdock ($Id: //depot/dev/client3/rdock/2013.1/src/exe/rbdock.cxx#4 $)

>  <Rbt.Library>
libRbt.so (2013.1, Build901 2013/11/27)

>  <Rbt.Parameter_File>
/export/apps/rDock/src/rDock_2013.1_src/data/scripts/dock_solv.prm

>  <Rbt.Receptor>
prm/pocket_docking_8.prm

>  <SCORE>
-13.3714

>  <SCORE.INTER>
-9.53686

>  <SCORE.INTER.CONST>
1

>  <SCORE.INTER.POLAR>
0

>  <SCORE.INTER.ROT>
6

>  <SCORE.INTER.SOLV>
21.46

>  <SCORE.INTER.VDW>
-21.1112

>  <SCORE.INTER.norm>
-0.280496

>  <SCORE.INTRA>
-3.83451

>  <SCORE.INTRA.DIHEDRAL>
-9.82933

>  <SCORE.INTRA.DIHEDRAL.0>
18.0069

>  <SCORE.INTRA.POLAR>
0

>  <SCORE.INTRA.POLAR.0>
0

>  <SCORE.INTRA.REPUL>
0

>  <SCORE.INTRA.REPUL.0>
0

>  <SCORE.INTRA.SOLV>
-0.477592

>  <SCORE.INTRA.SOLV.lig_0>
-70.7393

>  <SCORE.INTRA.VDW>
1.31895

>  <SCORE.INTRA.VDW.0>
-3.23471

>  <SCORE.INTRA.norm>
-0.11278

>  <SCORE.RESTR>
0

>  <SCORE.RESTR.CAVITY>
0

>  <SCORE.RESTR.norm>
0

>  <SCORE.SYSTEM>
0

>  <SCORE.SYSTEM.CONST>
0

>  <SCORE.SYSTEM.DIHEDRAL>
0

>  <SCORE.SYSTEM.SOLV>
0

>  <SCORE.SYSTEM.norm>
0

>  <SCORE.heavy>
34

>  <SCORE.norm>
-0.393276

>  <RMSD>
3.139

$$$$
lig.pdb
 OpenBabel11021811503D
libRbt.so/2013.1/901 2013/11/27
 34 36  0  0  0  0  0  0  0  0999 V2000
   -2.6805   17.6621   37.2310 C   0  0  2  0  0  0  0  0  0  0  0  0
   -3.7862   17.3306   36.3837 O   0  0  0  0  0  0  0  0  0  0  0  0
   -2.2029   19.1359   36.8829 C   0  0  2  0  0  0  0  0  0  0  0  0
   -3.2788   20.1301   37.1038 N   0  0  0  0  0  0  0  0  0  0  0  0
   -1.7295   19.1891   35.4085 C   0  0  1  0  0  0  0  0  0  0  0  0
   -1.2886   20.5082   35.0781 O   0  0  0  0  0  0  0  0  0  0  0  0
   -0.6029   18.1580   35.2181 C   0  0  2  0  0  0  0  0  0  0  0  0
   -0.1541   18.1993   33.8626 O   0  0  0  0  0  0  0  0  0  0  0  0
   -1.1298   16.7199   35.5930 C   0  0  2  0  0  0  0  0  0  0  0  0
   -1.6121   16.6867   36.9902 O   0  0  0  0  0  0  0  0  0  0  0  0
   -0.0234   15.6479   35.4326 C   0  0  2  0  0  0  0  0  0  0  0  0
   -0.5614   14.3524   35.7044 O   0  0  0  0  0  0  0  0  0  0  0  0
    1.1324   15.9037   36.3873 C   0  0  0  0  0  0  0  0  0  0  0  0
   -6.2093   15.7460   39.5355 C   0  0  2  0  0  0  0  0  0  0  0  0
   -7.3753   15.2734   40.2860 N   0  0  0  0  0  0  0  0  0  0  0  0
   -6.5490   17.1652   39.0024 C   0  0  0  0  0  0  0  0  0  0  0  0
   -5.3143   17.6940   38.2234 C   0  0  2  0  0  0  0  0  0  0  0  0
   -5.5897   19.0425   37.7033 N   0  0  0  0  0  0  0  0  0  0  0  0
   -4.9599   16.7540   37.0400 C   0  0  2  0  0  0  0  0  0  0  0  0
   -4.6677   15.3242   37.5951 C   0  0  2  0  0  0  0  0  0  0  0  0
   -4.3517   14.4540   36.4999 O   0  0  0  0  0  0  0  0  0  0  0  0
   -5.9048   14.7569   38.3327 C   0  0  1  0  0  0  0  0  0  0  0  0
   -5.5488   13.4408   38.8237 O   0  0  0  0  0  0  0  0  0  0  0  0
   -6.6404   12.5041   38.9808 C   0  0  2  0  0  0  0  0  0  0  0  0
   -5.9877   11.0721   39.0082 C   0  0  2  0  0  0  0  0  0  0  0  0
   -5.0913   10.9719   40.1035 O   0  0  0  0  0  0  0  0  0  0  0  0
   -5.2408   10.8233   37.6433 C   0  0  1  0  0  0  0  0  0  0  0  0
   -4.5954    9.4752   37.6286 N   0  0  0  0  0  0  0  0  0  0  0  0
   -3.1292    9.6475   37.5431 C   0  0  0  0  0  0  0  0  0  0  0  0
   -6.2770   10.9393   36.4843 C   0  0  2  0  0  0  0  0  0  0  0  0
   -7.2829    9.9445   36.6689 O   0  0  0  0  0  0  0  0  0  0  0  0
   -5.6287   10.7187   35.1199 C   0  0  0  0  0  0  0  0  0  0  0  0
   -6.9365   12.3550   36.5268 C   0  0  0  0  0  0  0  0  0  0  0  0
   -7.5710   12.6033   37.8385 O   0  0  0  0  0  0  0  0  0  0  0  0
  1  3  1  0  0  0  0
  1  2  1  6  0  0  0
  3  5  1  0  0  0  0
  3  4  1  6  0  0  0
  5  6  1  1  0  0  0
  7  8  1  6  0  0  0
  7  5  1  0  0  0  0
  9 10  1  1  0  0  0
  9  7  1  0  0  0  0
 10  1  1  0  0  0  0
 11 13  1  1  0  0  0
 11  9  1  0  0  0  0
 12 11  1  0  0  0  0
 14 15  1  6  0  0  0
 16 14  1  0  0  0  0
 17 18  1  6  0  0  0
 17 16  1  0  0  0  0
 19  2  1  1  0  0  0
 19 20  1  0  0  0  0
 19 17  1  0  0  0  0
 20 21  1  6  0  0  0
 20 22  1  0  0  0  0
 22 23  1  1  0  0  0
 22 14  1  0  0  0  0
 24 23  1  6  0  0  0
 24 25  1  0  0  0  0
 25 27  1  0  0  0  0
 25 26  1  1  0  0  0
 27 28  1  1  0  0  0
 28 29  1  0  0  0  0
 30 31  1  1  0  0  0
 30 32  1  0  0  0  0
 30 27  1  0  0  0  0
 33 30  1  0  0  0  0
 34 33  1  0  0  0  0
 34 24  1  0  0  0  0
M  END
>  <CHROM.1>
-131.63168398,-176.57960138,50.77044670,91.35653822,160.20836127,-115.92656034
-4.05593435,14.97866397,37.15107950,0.93745793,0.50663521,0.06964340

>  <Name>
lig.pdb

>  <RI>
0

>  <Rbt.Current_Directory>
/home/itssahil/PROJECTS/Mol_Feturizer/New_Systems/rnas/4k32

>  <Rbt.Executable>
rbdock ($Id: //depot/dev/client3/rdock/2013.1/src/exe/rbdock.cxx#4 $)

>  <Rbt.Library>
libRbt.so (2013.1, Build901 2013/11/27)

>  <Rbt.Parameter_File>
/export/apps/rDock/src/rDock_2013.1_src/data/scripts/dock_solv.prm

>  <Rbt.Receptor>
prm/pocket_docking_2.prm

>  <SCORE>
-2.70015

>  <SCORE.INTER>
-4.47682

>  <SCORE.INTER.CONST>
1

>  <SCORE.INTER.POLAR>
0

>  <SCORE.INTER.ROT>
6

>  <SCORE.INTER.SOLV>
24.0663

>  <SCORE.INTER.VDW>
-18.6066

>  <SCORE.INTER.norm>
-0.131671

>  <SCORE.INTRA>
0.156329

>  <SCORE.INTRA.DIHEDRAL>
-4.17484

>  <SCORE.INTRA.DIHEDRAL.0>
18.0069

>  <SCORE.INTRA.POLAR>
0

>  <SCORE.INTRA.POLAR.0>
0

>  <SCORE.INTRA.REPUL>
0

>  <SCORE.INTRA.REPUL.0>
0

>  <SCORE.INTRA.SOLV>
1.87818

>  <SCORE.INTRA.SOLV.lig_0>
-70.7393

>  <SCORE.INTRA.VDW>
1.30466

>  <SCORE.INTRA.VDW.0>
-3.23471

>  <SCORE.INTRA.norm>
0.00459792

>  <SCORE.RESTR>
1.62035

>  <SCORE.RESTR.CAVITY>
1.62035

>  <SCORE.RESTR.norm>
0.0476573

>  <SCORE.SYSTEM>
0

>  <SCORE.SYSTEM.CONST>
0

>  <SCORE.SYSTEM.DIHEDRAL>
0

>  <SCORE.SYSTEM.SOLV>
0

>  <SCORE.SYSTEM.norm>
0

>  <SCORE.heavy>
34

>  <SCORE.norm>
-0.0794161

>  <RMSD>
3.177

$$$$
lig.pdb
 OpenBabel11021811503D
libRbt.so/2013.1/901 2013/11/27
 34 36  0  0  0  0  0  0  0  0999 V2000
   -2.7916   18.0947   37.2749 C   0  0  2  0  0  0  0  0  0  0  0  0
   -3.9094   17.8009   36.4298 O   0  0  0  0  0  0  0  0  0  0  0  0
   -1.9366   19.2482   36.5969 C   0  0  2  0  0  0  0  0  0  0  0  0
   -2.7283   20.4874   36.4171 N   0  0  0  0  0  0  0  0  0  0  0  0
   -1.4052   18.7578   35.2265 C   0  0  1  0  0  0  0  0  0  0  0  0
   -0.6262   19.7816   34.6032 O   0  0  0  0  0  0  0  0  0  0  0  0
   -0.5753   17.4813   35.4511 C   0  0  2  0  0  0  0  0  0  0  0  0
   -0.0756   17.0201   34.1949 O   0  0  0  0  0  0  0  0  0  0  0  0
   -1.4698   16.3802   36.1395 C   0  0  2  0  0  0  0  0  0  0  0  0
   -2.0014   16.8689   37.4297 O   0  0  0  0  0  0  0  0  0  0  0  0
   -0.6712   15.0792   36.4017 C   0  0  2  0  0  0  0  0  0  0  0  0
    0.5520   15.3886   37.0721 O   0  0  0  0  0  0  0  0  0  0  0  0
   -0.3440   14.3635   35.1004 C   0  0  0  0  0  0  0  0  0  0  0  0
   -6.2120   15.8889   39.4890 C   0  0  2  0  0  0  0  0  0  0  0  0
   -7.3505   15.3480   40.2356 N   0  0  0  0  0  0  0  0  0  0  0  0
   -6.5470   17.3665   39.1451 C   0  0  0  0  0  0  0  0  0  0  0  0
   -5.3401   17.9656   38.3734 C   0  0  2  0  0  0  0  0  0  0  0  0
   -5.6117   19.3705   38.0308 N   0  0  0  0  0  0  0  0  0  0  0  0
   -5.0623   17.1680   37.0710 C   0  0  2  0  0  0  0  0  0  0  0  0
   -4.7740   15.6780   37.4379 C   0  0  2  0  0  0  0  0  0  0  0  0
   -4.5289   14.9398   36.2331 O   0  0  0  0  0  0  0  0  0  0  0  0
   -5.9860   15.0457   38.1641 C   0  0  1  0  0  0  0  0  0  0  0  0
   -5.6347   13.6752   38.4776 O   0  0  0  0  0  0  0  0  0  0  0  0
   -6.7370   12.7434   38.5790 C   0  0  2  0  0  0  0  0  0  0  0  0
   -6.0913   11.3197   38.7620 C   0  0  2  0  0  0  0  0  0  0  0  0
   -5.3128   11.2925   39.9480 O   0  0  0  0  0  0  0  0  0  0  0  0
   -5.2076   10.9919   37.4994 C   0  0  1  0  0  0  0  0  0  0  0  0
   -4.5647    9.6493   37.6346 N   0  0  0  0  0  0  0  0  0  0  0  0
   -3.0991    9.8064   37.5161 C   0  0  0  0  0  0  0  0  0  0  0  0
   -6.1186   11.0302   36.2348 C   0  0  2  0  0  0  0  0  0  0  0  0
   -7.1386   10.0427   36.3759 O   0  0  0  0  0  0  0  0  0  0  0  0
   -5.3330   10.7299   34.9607 C   0  0  0  0  0  0  0  0  0  0  0  0
   -6.7784   12.4419   36.1215 C   0  0  0  0  0  0  0  0  0  0  0  0
   -7.5447   12.7666   37.3429 O   0  0  0  0  0  0  0  0  0  0  0  0
  1  3  1  0  0  0  0
  1  2  1  6  0  0  0
  3  5  1  0  0  0  0
  3  4  1  6  0  0  0
  5  6  1  1  0  0  0
  7  8  1  6  0  0  0
  7  5  1  0  0  0  0
  9 10  1  1  0  0  0
  9  7  1  0  0  0  0
 10  1  1  0  0  0  0
 11 13  1  6  0  0  0
 11  9  1  0  0  0  0
 12 11  1  0  0  0  0
 14 15  1  6  0  0  0
 16 14  1  0  0  0  0
 17 18  1  6  0  0  0
 17 16  1  0  0  0  0
 19  2  1  1  0  0  0
 19 20  1  0  0  0  0
 19 17  1  0  0  0  0
 20 21  1  6  0  0  0
 20 22  1  0  0  0  0
 22 23  1  1  0  0  0
 22 14  1  0  0  0  0
 24 23  1  6  0  0  0
 24 25  1  0  0  0  0
 25 27  1  0  0  0  0
 25 26  1  1  0  0  0
 27 28  1  1  0  0  0
 28 29  1  0  0  0  0
 30 31  1  1  0  0  0
 30 32  1  0  0  0  0
 30 27  1  0  0  0  0
 33 30  1  0  0  0  0
 34 33  1  0  0  0  0
 34 24  1  0  0  0  0
M  END
>  <CHROM.1>
-157.47076638,50.47870392,46.68672771,91.27056160,173.84438286,-123.09589761
-4.05822983,15.02727522,37.09402852,0.93901839,0.49478726,0.10627697

>  <Name>
lig.pdb

>  <RI>
0

>  <Rbt.Current_Directory>
/home/itssahil/PROJECTS/Mol_Feturizer/New_Systems/rnas/4k32

>  <Rbt.Executable>
rbdock ($Id: //depot/dev/client3/rdock/2013.1/src/exe/rbdock.cxx#4 $)

>  <Rbt.Library>
libRbt.so (2013.1, Build901 2013/11/27)

>  <Rbt.Parameter_File>
/export/apps/rDock/src/rDock_2013.1_src/data/scripts/dock_solv.prm

>  <Rbt.Receptor>
prm/pocket_docking_2.prm

>  <SCORE>
-3.24254

>  <SCORE.INTER>
-1.61997

>  <SCORE.INTER.CONST>
1

>  <SCORE.INTER.POLAR>
0

>  <SCORE.INTER.ROT>
6

>  <SCORE.INTER.SOLV>
22.8737

>  <SCORE.INTER.VDW>
-16.3046

>  <SCORE.INTER.norm>
-0.0476461

>  <SCORE.INTRA>
-3.23418

>  <SCORE.INTRA.DIHEDRAL>
-9.39248

>  <SCORE.INTRA.DIHEDRAL.0>
18.0069

>  <SCORE.INTRA.POLAR>
0

>  <SCORE.INTRA.POLAR.0>
0

>  <SCORE.INTRA.REPUL>
0

>  <SCORE.INTRA.REPUL.0>
0

>  <SCORE.INTRA.SOLV>
0.364965

>  <SCORE.INTRA.SOLV.lig_0>
-70.7393

>  <SCORE.INTRA.VDW>
1.27958

>  <SCORE.INTRA.VDW.0>
-3.23471

>  <SCORE.INTRA.norm>
-0.0951229

>  <SCORE.RESTR>
1.61161

>  <SCORE.RESTR.CAVITY>
1.61161

>  <SCORE.RESTR.norm>
0.0474003

>  <SCORE.SYSTEM>
0

>  <SCORE.SYSTEM.CONST>
0

>  <SCORE.SYSTEM.DIHEDRAL>
0

>  <SCORE.SYSTEM.SOLV>
0

>  <SCORE.SYSTEM.norm>
0

>  <SCORE.heavy>
34

>  <SCORE.norm>
-0.0953687

>  <RMSD>
3.214

$$$$
lig.pdb
 OpenBabel11021811503D
libRbt.so/2013.1/901 2013/11/27
 34 36  0  0  0  0  0  0  0  0999 V2000
   -3.2587   18.1841   37.2037 C   0  0  2  0  0  0  0  0  0  0  0  0
   -4.5691   18.2160   36.6274 O   0  0  0  0  0  0  0  0  0  0  0  0
   -2.4538   19.4552   36.6960 C   0  0  2  0  0  0  0  0  0  0  0  0
   -3.1126   20.7203   37.0964 N   0  0  0  0  0  0  0  0  0  0  0  0
   -2.3174   19.3962   35.1537 C   0  0  1  0  0  0  0  0  0  0  0  0
   -1.5886   20.5303   34.6781 O   0  0  0  0  0  0  0  0  0  0  0  0
   -1.6157   18.0801   34.7738 C   0  0  2  0  0  0  0  0  0  0  0  0
   -1.4800   18.0145   33.3534 O   0  0  0  0  0  0  0  0  0  0  0  0
   -2.4501   16.8572   35.3166 C   0  0  2  0  0  0  0  0  0  0  0  0
   -2.6056   16.9396   36.7846 O   0  0  0  0  0  0  0  0  0  0  0  0
   -1.7729   15.5074   34.9722 C   0  0  2  0  0  0  0  0  0  0  0  0
   -2.5726   14.4269   35.4566 O   0  0  0  0  0  0  0  0  0  0  0  0
   -0.3918   15.4092   35.6011 C   0  0  0  0  0  0  0  0  0  0  0  0
   -6.4818   16.1222   39.8327 C   0  0  2  0  0  0  0  0  0  0  0  0
   -7.5140   15.4810   40.6510 N   0  0  0  0  0  0  0  0  0  0  0  0
   -6.9803   17.5563   39.5030 C   0  0  0  0  0  0  0  0  0  0  0  0
   -5.8874   18.2617   38.6551 C   0  0  2  0  0  0  0  0  0  0  0  0
   -6.3158   19.6296   38.3232 N   0  0  0  0  0  0  0  0  0  0  0  0
   -5.6131   17.4807   37.3419 C   0  0  2  0  0  0  0  0  0  0  0  0
   -5.1582   16.0301   37.6975 C   0  0  2  0  0  0  0  0  0  0  0  0
   -4.9162   15.3061   36.4835 O   0  0  0  0  0  0  0  0  0  0  0  0
   -6.2558   15.2906   38.5004 C   0  0  1  0  0  0  0  0  0  0  0  0
   -5.7534   13.9644   38.7983 O   0  0  0  0  0  0  0  0  0  0  0  0
   -6.7491   12.9635   39.1152 C   0  0  2  0  0  0  0  0  0  0  0  0
   -5.9542   11.6528   39.4720 C   0  0  2  0  0  0  0  0  0  0  0  0
   -5.1170   11.8870   40.5934 O   0  0  0  0  0  0  0  0  0  0  0  0
   -5.1079   11.2100   38.2188 C   0  0  1  0  0  0  0  0  0  0  0  0
   -4.3263    9.9710   38.5161 N   0  0  0  0  0  0  0  0  0  0  0  0
   -2.9264   10.3469   38.8085 C   0  0  0  0  0  0  0  0  0  0  0  0
   -6.0818   10.9618   37.0270 C   0  0  2  0  0  0  0  0  0  0  0  0
   -6.9881    9.9201   37.3862 O   0  0  0  0  0  0  0  0  0  0  0  0
   -5.3363   10.5353   35.7649 C   0  0  0  0  0  0  0  0  0  0  0  0
   -6.8859   12.2707   36.7418 C   0  0  0  0  0  0  0  0  0  0  0  0
   -7.6174   12.7146   37.9470 O   0  0  0  0  0  0  0  0  0  0  0  0
  1  3  1  0  0  0  0
  1  2  1  6  0  0  0
  3  5  1  0  0  0  0
  3  4  1  6  0  0  0
  5  6  1  1  0  0  0
  7  8  1  6  0  0  0
  7  5  1  0  0  0  0
  9 10  1  1  0  0  0
  9  7  1  0  0  0  0
 10  1  1  0  0  0  0
 11 13  1  1  0  0  0
 11  9  1  0  0  0  0
 12 11  1  0  0  0  0
 14 15  1  1  0  0  0
 16 14  1  0  0  0  0
 17 18  1  6  0  0  0
 17 16  1  0  0  0  0
 19  2  1  1  0  0  0
 19 20  1  0  0  0  0
 19 17  1  0  0  0  0
 20 21  1  6  0  0  0
 20 22  1  0  0  0  0
 22 23  1  1  0  0  0
 22 14  1  0  0  0  0
 24 23  1  6  0  0  0
 24 25  1  0  0  0  0
 25 27  1  0  0  0  0
 25 26  1  1  0  0  0
 27 28  1  1  0  0  0
 28 29  1  0  0  0  0
 30 31  1  1  0  0  0
 30 32  1  0  0  0  0
 30 27  1  0  0  0  0
 33 30  1  0  0  0  0
 34 33  1  0  0  0  0
 34 24  1  0  0  0  0
M  END
>  <CHROM.1>
-156.50759946,-178.82352668,69.88140902,84.80157177,-176.97933510,-100.73302880
-4.51338572,15.29955314,37.30164120,1.04112245,0.70623856,0.02570487

>  <Name>
lig.pdb

>  <RI>
0

>  <Rbt.Current_Directory>
/home/itssahil/PROJECTS/Mol_Feturizer/New_Systems/rnas/4k32

>  <Rbt.Executable>
rbdock ($Id: //depot/dev/client3/rdock/2013.1/src/exe/rbdock.cxx#4 $)

>  <Rbt.Library>
libRbt.so (2013.1, Build901 2013/11/27)

>  <Rbt.Parameter_File>
/export/apps/rDock/src/rDock_2013.1_src/data/scripts/dock_solv.prm

>  <Rbt.Receptor>
prm/pocket_docking_5.prm

>  <SCORE>
-11.5999

>  <SCORE.INTER>
-6.52903

>  <SCORE.INTER.CONST>
1

>  <SCORE.INTER.POLAR>
0

>  <SCORE.INTER.ROT>
6

>  <SCORE.INTER.SOLV>
26.5292

>  <SCORE.INTER.VDW>
-20.7958

>  <SCORE.INTER.norm>
-0.19203

>  <SCORE.INTRA>
-5.07091

>  <SCORE.INTRA.DIHEDRAL>
-11.5021

>  <SCORE.INTRA.DIHEDRAL.0>
18.0069

>  <SCORE.INTRA.POLAR>
0

>  <SCORE.INTRA.POLAR.0>
0

>  <SCORE.INTRA.REPUL>
0

>  <SCORE.INTRA.REPUL.0>
0

>  <SCORE.INTRA.SOLV>
0.186899

>  <SCORE.INTRA.SOLV.lig_0>
-70.7393

>  <SCORE.INTRA.VDW>
0.586706

>  <SCORE.INTRA.VDW.0>
-3.23471

>  <SCORE.INTRA.norm>
-0.149144

>  <SCORE.RESTR>
0

>  <SCORE.RESTR.CAVITY>
0

>  <SCORE.RESTR.norm>
0

>  <SCORE.SYSTEM>
0

>  <SCORE.SYSTEM.CONST>
0

>  <SCORE.SYSTEM.DIHEDRAL>
0

>  <SCORE.SYSTEM.SOLV>
0

>  <SCORE.SYSTEM.norm>
0

>  <SCORE.heavy>
34

>  <SCORE.norm>
-0.341175

>  <RMSD>
3.259

$$$$
lig.pdb
 OpenBabel11021811503D
libRbt.so/2013.1/901 2013/11/27
 34 36  0  0  0  0  0  0  0  0999 V2000
   -3.5406   18.1496   37.3241 C   0  0  2  0  0  0  0  0  0  0  0  0
   -4.8432   18.2086   36.7326 O   0  0  0  0  0  0  0  0  0  0  0  0
   -2.7248   19.4359   36.8757 C   0  0  2  0  0  0  0  0  0  0  0  0
   -3.3844   20.6874   37.3157 N   0  0  0  0  0  0  0  0  0  0  0  0
   -2.5685   19.4353   35.3342 C   0  0  1  0  0  0  0  0  0  0  0  0
   -1.8296   20.5838   34.9117 O   0  0  0  0  0  0  0  0  0  0  0  0
   -1.8664   18.1319   34.9134 C   0  0  2  0  0  0  0  0  0  0  0  0
   -1.7124   18.1200   33.4934 O   0  0  0  0  0  0  0  0  0  0  0  0
   -2.7120   16.8925   35.3983 C   0  0  2  0  0  0  0  0  0  0  0  0
   -2.8863   16.9195   36.8662 O   0  0  0  0  0  0  0  0  0  0  0  0
   -2.0350   15.5542   35.0114 C   0  0  2  0  0  0  0  0  0  0  0  0
   -2.8421   14.4591   35.4484 O   0  0  0  0  0  0  0  0  0  0  0  0
   -0.6602   15.4290   35.6494 C   0  0  0  0  0  0  0  0  0  0  0  0
   -6.8093   15.9267   39.7730 C   0  0  2  0  0  0  0  0  0  0  0  0
   -7.8493   15.2146   40.5196 N   0  0  0  0  0  0  0  0  0  0  0  0
   -7.3546   17.3488   39.4661 C   0  0  0  0  0  0  0  0  0  0  0  0
   -6.2554   18.1286   38.6949 C   0  0  2  0  0  0  0  0  0  0  0  0
   -6.7277   19.4877   38.3871 N   0  0  0  0  0  0  0  0  0  0  0  0
   -5.8860   17.4056   37.3720 C   0  0  2  0  0  0  0  0  0  0  0  0
   -5.3847   15.9642   37.7021 C   0  0  2  0  0  0  0  0  0  0  0  0
   -5.0546   15.2932   36.4784 O   0  0  0  0  0  0  0  0  0  0  0  0
   -6.4849   15.1516   38.4270 C   0  0  1  0  0  0  0  0  0  0  0  0
   -5.9390   13.8386   38.7058 O   0  0  0  0  0  0  0  0  0  0  0  0
   -6.9031   12.7770   38.8991 C   0  0  2  0  0  0  0  0  0  0  0  0
   -6.0853   11.5288   39.3996 C   0  0  2  0  0  0  0  0  0  0  0  0
   -5.4387   11.8359   40.6247 O   0  0  0  0  0  0  0  0  0  0  0  0
   -5.0373   11.1262   38.2939 C   0  0  1  0  0  0  0  0  0  0  0  0
   -4.2287    9.9478   38.7319 N   0  0  0  0  0  0  0  0  0  0  0  0
   -3.0434   10.4296   39.4732 C   0  0  0  0  0  0  0  0  0  0  0  0
   -5.8076   10.7949   36.9797 C   0  0  2  0  0  0  0  0  0  0  0  0
   -6.6870    9.6993   37.2287 O   0  0  0  0  0  0  0  0  0  0  0  0
   -4.8590   10.4016   35.8502 C   0  0  0  0  0  0  0  0  0  0  0  0
   -6.6449   12.0417   36.5487 C   0  0  0  0  0  0  0  0  0  0  0  0
   -7.5725   12.4525   37.6235 O   0  0  0  0  0  0  0  0  0  0  0  0
  1  3  1  0  0  0  0
  1  2  1  6  0  0  0
  3  5  1  0  0  0  0
  3  4  1  6  0  0  0
  5  6  1  1  0  0  0
  7  8  1  6  0  0  0
  7  5  1  0  0  0  0
  9 10  1  1  0  0  0
  9  7  1  0  0  0  0
 10  1  1  0  0  0  0
 11 13  1  1  0  0  0
 11  9  1  0  0  0  0
 12 11  1  0  0  0  0
 14 15  1  6  0  0  0
 16 14  1  0  0  0  0
 17 18  1  6  0  0  0
 17 16  1  0  0  0  0
 19  2  1  1  0  0  0
 19 20  1  0  0  0  0
 19 17  1  0  0  0  0
 20 21  1  6  0  0  0
 20 22  1  0  0  0  0
 22 23  1  1  0  0  0
 22 14  1  0  0  0  0
 24 23  1  6  0  0  0
 24 25  1  0  0  0  0
 25 27  1  0  0  0  0
 25 26  1  1  0  0  0
 27 28  1  1  0  0  0
 28 29  1  0  0  0  0
 30 31  1  1  0  0  0
 30 32  1  0  0  0  0
 30 27  1  0  0  0  0
 33 30  1  0  0  0  0
 34 33  1  0  0  0  0
 34 24  1  0  0  0  0
M  END
>  <CHROM.1>
-159.01852520,-179.04726850,73.48465273,86.73727234,-171.48060303,-88.90443052
-4.67377738,15.22767149,37.34206238,1.11095676,0.69361270,-0.00664620

>  <Name>
lig.pdb

>  <RI>
0

>  <Rbt.Current_Directory>
/home/itssahil/PROJECTS/Mol_Feturizer/New_Systems/rnas/4k32

>  <Rbt.Executable>
rbdock ($Id: //depot/dev/client3/rdock/2013.1/src/exe/rbdock.cxx#4 $)

>  <Rbt.Library>
libRbt.so (2013.1, Build901 2013/11/27)

>  <Rbt.Parameter_File>
/export/apps/rDock/src/rDock_2013.1_src/data/scripts/dock_solv.prm

>  <Rbt.Receptor>
prm/pocket_docking_3.prm

>  <SCORE>
-10.3223

>  <SCORE.INTER>
-6.33214

>  <SCORE.INTER.CONST>
1

>  <SCORE.INTER.POLAR>
0

>  <SCORE.INTER.ROT>
6

>  <SCORE.INTER.SOLV>
27.6689

>  <SCORE.INTER.VDW>
-21.0444

>  <SCORE.INTER.norm>
-0.186239

>  <SCORE.INTRA>
-4.22426

>  <SCORE.INTRA.DIHEDRAL>
-11.2456

>  <SCORE.INTRA.DIHEDRAL.0>
18.0069

>  <SCORE.INTRA.POLAR>
0

>  <SCORE.INTRA.POLAR.0>
0

>  <SCORE.INTRA.REPUL>
0

>  <SCORE.INTRA.REPUL.0>
0

>  <SCORE.INTRA.SOLV>
0.126139

>  <SCORE.INTRA.SOLV.lig_0>
-70.7393

>  <SCORE.INTRA.VDW>
1.33547

>  <SCORE.INTRA.VDW.0>
-3.23471

>  <SCORE.INTRA.norm>
-0.124243

>  <SCORE.RESTR>
0.234066

>  <SCORE.RESTR.CAVITY>
0.234066

>  <SCORE.RESTR.norm>
0.00688428

>  <SCORE.SYSTEM>
0

>  <SCORE.SYSTEM.CONST>
0

>  <SCORE.SYSTEM.DIHEDRAL>
0

>  <SCORE.SYSTEM.SOLV>
0

>  <SCORE.SYSTEM.norm>
0

>  <SCORE.heavy>
34

>  <SCORE.norm>
-0.303598

>  <RMSD>
3.328

$$$$
lig.pdb
 OpenBabel11021811503D
libRbt.so/2013.1/901 2013/11/27
 34 36  0  0  0  0  0  0  0  0999 V2000
   -3.3816   18.2656   37.4150 C   0  0  2  0  0  0  0  0  0  0  0  0
   -4.6523   18.2533   36.7550 O   0  0  0  0  0  0  0  0  0  0  0  0
   -2.4836   19.3985   36.7583 C   0  0  2  0  0  0  0  0  0  0  0  0
   -3.0987   20.7390   36.8981 N   0  0  0  0  0  0  0  0  0  0  0  0
   -2.2595   19.0742   35.2598 C   0  0  1  0  0  0  0  0  0  0  0  0
   -1.4462   20.0807   34.6524 O   0  0  0  0  0  0  0  0  0  0  0  0
   -1.6055   17.6852   35.1516 C   0  0  2  0  0  0  0  0  0  0  0  0
   -1.3896   17.3750   33.7741 O   0  0  0  0  0  0  0  0  0  0  0  0
   -2.5325   16.6068   35.8328 C   0  0  2  0  0  0  0  0  0  0  0  0
   -2.7700   16.9425   37.2530 O   0  0  0  0  0  0  0  0  0  0  0  0
   -1.9068   15.1917   35.7634 C   0  0  2  0  0  0  0  0  0  0  0  0
   -0.5151   15.2615   36.0798 O   0  0  0  0  0  0  0  0  0  0  0  0
   -2.0593   14.5908   34.3747 C   0  0  0  0  0  0  0  0  0  0  0  0
   -6.6887   16.0961   39.8398 C   0  0  2  0  0  0  0  0  0  0  0  0
   -7.7501   15.4308   40.5994 N   0  0  0  0  0  0  0  0  0  0  0  0
   -7.1921   17.5263   39.5007 C   0  0  0  0  0  0  0  0  0  0  0  0
   -6.0695   18.2571   38.7153 C   0  0  2  0  0  0  0  0  0  0  0  0
   -6.5018   19.6221   38.3768 N   0  0  0  0  0  0  0  0  0  0  0  0
   -5.7189   17.4949   37.4093 C   0  0  2  0  0  0  0  0  0  0  0  0
   -5.2601   16.0472   37.7719 C   0  0  2  0  0  0  0  0  0  0  0  0
   -4.9474   15.3404   36.5639 O   0  0  0  0  0  0  0  0  0  0  0  0
   -6.3846   15.2828   38.5118 C   0  0  1  0  0  0  0  0  0  0  0  0
   -5.8773   13.9609   38.8205 O   0  0  0  0  0  0  0  0  0  0  0  0
   -6.8720   12.9434   39.0827 C   0  0  2  0  0  0  0  0  0  0  0  0
   -6.0752   11.6367   39.4505 C   0  0  2  0  0  0  0  0  0  0  0  0
   -5.2855   11.8633   40.6073 O   0  0  0  0  0  0  0  0  0  0  0  0
   -5.1750   11.2238   38.2249 C   0  0  1  0  0  0  0  0  0  0  0  0
   -4.3902    9.9898   38.5338 N   0  0  0  0  0  0  0  0  0  0  0  0
   -2.9829   10.3680   38.7851 C   0  0  0  0  0  0  0  0  0  0  0  0
   -6.0984   10.9828   36.9921 C   0  0  2  0  0  0  0  0  0  0  0  0
   -7.0049    9.9248   37.2995 O   0  0  0  0  0  0  0  0  0  0  0  0
   -5.2988   10.5851   35.7540 C   0  0  0  0  0  0  0  0  0  0  0  0
   -6.9072   12.2863   36.6955 C   0  0  0  0  0  0  0  0  0  0  0  0
   -7.6907   12.7025   37.8776 O   0  0  0  0  0  0  0  0  0  0  0  0
  1  3  1  0  0  0  0
  1  2  1  6  0  0  0
  3  5  1  0  0  0  0
  3  4  1  6  0  0  0
  5  6  1  1  0  0  0
  7  8  1  6  0  0  0
  7  5  1  0  0  0  0
  9 10  1  1  0  0  0
  9  7  1  0  0  0  0
 10  1  1  0  0  0  0
 11 13  1  6  0  0  0
 11  9  1  0  0  0  0
 12 11  1  0  0  0  0
 14 15  1  6  0  0  0
 16 14  1  0  0  0  0
 17 18  1  6  0  0  0
 17 16  1  0  0  0  0
 19  2  1  1  0  0  0
 19 20  1  0  0  0  0
 19 17  1  0  0  0  0
 20 21  1  6  0  0  0
 20 22  1  0  0  0  0
 22 23  1  1  0  0  0
 22 14  1  0  0  0  0
 24 23  1  6  0  0  0
 24 25  1  0  0  0  0
 25 27  1  0  0  0  0
 25 26  1  1  0  0  0
 27 28  1  1  0  0  0
 28 29  1  0  0  0  0
 30 31  1  1  0  0  0
 30 32  1  0  0  0  0
 30 27  1  0  0  0  0
 33 30  1  0  0  0  0
 34 33  1  0  0  0  0
 34 24  1  0  0  0  0
M  END
>  <CHROM.1>
-166.52065629,43.45507471,68.16649578,84.55577471,-177.49744986,-105.03403590
-4.56879309,15.23404345,37.36735245,1.03750882,0.66298185,0.02923848

>  <Name>
lig.pdb

>  <RI>
0

>  <Rbt.Current_Directory>
/home/itssahil/PROJECTS/Mol_Feturizer/New_Systems/rnas/4k32

>  <Rbt.Executable>
rbdock ($Id: //depot/dev/client3/rdock/2013.1/src/exe/rbdock.cxx#4 $)

>  <Rbt.Library>
libRbt.so (2013.1, Build901 2013/11/27)

>  <Rbt.Parameter_File>
/export/apps/rDock/src/rDock_2013.1_src/data/scripts/dock_solv.prm

>  <Rbt.Receptor>
prm/pocket_docking_4.prm

>  <SCORE>
-10.9166

>  <SCORE.INTER>
-5.71755

>  <SCORE.INTER.CONST>
1

>  <SCORE.INTER.POLAR>
0

>  <SCORE.INTER.ROT>
6

>  <SCORE.INTER.SOLV>
25.9329

>  <SCORE.INTER.VDW>
-20.056

>  <SCORE.INTER.norm>
-0.168163

>  <SCORE.INTRA>
-5.19904

>  <SCORE.INTRA.DIHEDRAL>
-12.2176

>  <SCORE.INTRA.DIHEDRAL.0>
18.0069

>  <SCORE.INTRA.POLAR>
0

>  <SCORE.INTRA.POLAR.0>
0

>  <SCORE.INTRA.REPUL>
0

>  <SCORE.INTRA.REPUL.0>
0

>  <SCORE.INTRA.SOLV>
-0.205997

>  <SCORE.INTRA.SOLV.lig_0>
-70.7393

>  <SCORE.INTRA.VDW>
1.01278

>  <SCORE.INTRA.VDW.0>
-3.23471

>  <SCORE.INTRA.norm>
-0.152913

>  <SCORE.RESTR>
0

>  <SCORE.RESTR.CAVITY>
0

>  <SCORE.RESTR.norm>
0

>  <SCORE.SYSTEM>
0

>  <SCORE.SYSTEM.CONST>
0

>  <SCORE.SYSTEM.DIHEDRAL>
0

>  <SCORE.SYSTEM.SOLV>
0

>  <SCORE.SYSTEM.norm>
0

>  <SCORE.heavy>
34

>  <SCORE.norm>
-0.321076

>  <RMSD>
3.328

$$$$
lig.pdb
 OpenBabel11021811503D
libRbt.so/2013.1/901 2013/11/27
 34 36  0  0  0  0  0  0  0  0999 V2000
   -2.8237   18.0222   37.2550 C   0  0  2  0  0  0  0  0  0  0  0  0
   -3.9891   17.7291   36.4765 O   0  0  0  0  0  0  0  0  0  0  0  0
   -1.7833   18.7916   36.3348 C   0  0  2  0  0  0  0  0  0  0  0  0
   -2.3386   20.0658   35.8220 N   0  0  0  0  0  0  0  0  0  0  0  0
   -1.3710   17.8810   35.1508 C   0  0  1  0  0  0  0  0  0  0  0  0
   -0.4281   18.5548   34.3139 O   0  0  0  0  0  0  0  0  0  0  0  0
   -0.7842   16.5760   35.7176 C   0  0  2  0  0  0  0  0  0  0  0  0
   -0.3962   15.7279   34.6357 O   0  0  0  0  0  0  0  0  0  0  0  0
   -1.8538   15.8662   36.6334 C   0  0  2  0  0  0  0  0  0  0  0  0
   -2.2678   16.7548   37.7402 O   0  0  0  0  0  0  0  0  0  0  0  0
   -1.3017   14.5531   37.2417 C   0  0  2  0  0  0  0  0  0  0  0  0
    0.0313   14.7604   37.7125 O   0  0  0  0  0  0  0  0  0  0  0  0
   -1.2842   13.4348   36.2112 C   0  0  0  0  0  0  0  0  0  0  0  0
   -6.1927   16.0230   39.7246 C   0  0  2  0  0  0  0  0  0  0  0  0
   -7.3070   15.5355   40.5413 N   0  0  0  0  0  0  0  0  0  0  0  0
   -6.5344   17.4782   39.3008 C   0  0  0  0  0  0  0  0  0  0  0  0
   -5.3525   18.0218   38.4532 C   0  0  2  0  0  0  0  0  0  0  0  0
   -5.6311   19.4041   38.0332 N   0  0  0  0  0  0  0  0  0  0  0  0
   -5.1216   17.1433   37.1943 C   0  0  2  0  0  0  0  0  0  0  0  0
   -4.8257   15.6775   37.6433 C   0  0  2  0  0  0  0  0  0  0  0  0
   -4.6240   14.8646   36.4793 O   0  0  0  0  0  0  0  0  0  0  0  0
   -6.0145   15.0979   38.4478 C   0  0  1  0  0  0  0  0  0  0  0  0
   -5.6571   13.7478   38.8341 O   0  0  0  0  0  0  0  0  0  0  0  0
   -6.7553   12.8178   38.9851 C   0  0  2  0  0  0  0  0  0  0  0  0
   -6.1031   11.4043   39.2178 C   0  0  2  0  0  0  0  0  0  0  0  0
   -5.3113   11.4268   40.3950 O   0  0  0  0  0  0  0  0  0  0  0  0
   -5.2325   11.0285   37.9594 C   0  0  1  0  0  0  0  0  0  0  0  0
   -4.5839    9.6942   38.1411 N   0  0  0  0  0  0  0  0  0  0  0  0
   -3.1168    9.8601   38.0592 C   0  0  0  0  0  0  0  0  0  0  0  0
   -6.1576   11.0136   36.7046 C   0  0  2  0  0  0  0  0  0  0  0  0
   -7.1729   10.0297   36.8967 O   0  0  0  0  0  0  0  0  0  0  0  0
   -5.3853   10.6646   35.4349 C   0  0  0  0  0  0  0  0  0  0  0  0
   -6.8230   12.4178   36.5423 C   0  0  0  0  0  0  0  0  0  0  0  0
   -7.5767   12.7892   37.7583 O   0  0  0  0  0  0  0  0  0  0  0  0
  1  3  1  0  0  0  0
  1  2  1  6  0  0  0
  3  5  1  0  0  0  0
  3  4  1  6  0  0  0
  5  6  1  1  0  0  0
  7  8  1  6  0  0  0
  7  5  1  0  0  0  0
  9 10  1  1  0  0  0
  9  7  1  0  0  0  0
 10  1  1  0  0  0  0
 11 13  1  6  0  0  0
 11  9  1  0  0  0  0
 12 11  1  0  0  0  0
 14 15  1  1  0  0  0
 16 14  1  0  0  0  0
 17 18  1  6  0  0  0
 17 16  1  0  0  0  0
 19  2  1  1  0  0  0
 19 20  1  0  0  0  0
 19 17  1  0  0  0  0
 20 21  1  6  0  0  0
 20 22  1  0  0  0  0
 22 23  1  1  0  0  0
 22 14  1  0  0  0  0
 24 23  1  6  0  0  0
 24 25  1  0  0  0  0
 25 27  1  0  0  0  0
 25 26  1  1  0  0  0
 27 28  1  1  0  0  0
 28 29  1  0  0  0  0
 30 31  1  1  0  0  0
 30 32  1  0  0  0  0
 30 27  1  0  0  0  0
 33 30  1  0  0  0  0
 34 33  1  0  0  0  0
 34 24  1  0  0  0  0
M  END
>  <CHROM.1>
-173.78344624,43.79787241,48.96390720,93.33527581,172.84277583,-120.63507657
-4.15269118,14.81090483,37.39276040,0.95534223,0.50123883,0.04467648

>  <Name>
lig.pdb

>  <RI>
0

>  <Rbt.Current_Directory>
/home/itssahil/PROJECTS/Mol_Feturizer/New_Systems/rnas/4k32

>  <Rbt.Executable>
rbdock ($Id: //depot/dev/client3/rdock/2013.1/src/exe/rbdock.cxx#4 $)

>  <Rbt.Library>
libRbt.so (2013.1, Build901 2013/11/27)

>  <Rbt.Parameter_File>
/export/apps/rDock/src/rDock_2013.1_src/data/scripts/dock_solv.prm

>  <Rbt.Receptor>
prm/pocket_docking_3.prm

>  <SCORE>
-8.67153

>  <SCORE.INTER>
-3.75962

>  <SCORE.INTER.CONST>
1

>  <SCORE.INTER.POLAR>
0

>  <SCORE.INTER.ROT>
6

>  <SCORE.INTER.SOLV>
20.4748

>  <SCORE.INTER.VDW>
-16.9313

>  <SCORE.INTER.norm>
-0.110577

>  <SCORE.INTRA>
-4.91784

>  <SCORE.INTRA.DIHEDRAL>
-10.6558

>  <SCORE.INTRA.DIHEDRAL.0>
18.0069

>  <SCORE.INTRA.POLAR>
0

>  <SCORE.INTRA.POLAR.0>
0

>  <SCORE.INTRA.REPUL>
0

>  <SCORE.INTRA.REPUL.0>
0

>  <SCORE.INTRA.SOLV>
-0.457838

>  <SCORE.INTRA.SOLV.lig_0>
-70.7393

>  <SCORE.INTRA.VDW>
0.63898

>  <SCORE.INTRA.VDW.0>
-3.23471

>  <SCORE.INTRA.norm>
-0.144642

>  <SCORE.RESTR>
0.00593251

>  <SCORE.RESTR.CAVITY>
0.00593251

>  <SCORE.RESTR.norm>
0.000174486

>  <SCORE.SYSTEM>
0

>  <SCORE.SYSTEM.CONST>
0

>  <SCORE.SYSTEM.DIHEDRAL>
0

>  <SCORE.SYSTEM.SOLV>
0

>  <SCORE.SYSTEM.norm>
0

>  <SCORE.heavy>
34

>  <SCORE.norm>
-0.255045

>  <RMSD>
3.428

$$$$
lig.pdb
 OpenBabel11021811503D
libRbt.so/2013.1/901 2013/11/27
 34 36  0  0  0  0  0  0  0  0999 V2000
   -0.2173   19.4053   34.2086 C   0  0  2  0  0  0  0  0  0  0  0  0
   -0.7821   19.3283   35.5221 O   0  0  0  0  0  0  0  0  0  0  0  0
    1.3612   19.5121   34.3442 C   0  0  2  0  0  0  0  0  0  0  0  0
    1.9356   18.3337   35.0343 N   0  0  0  0  0  0  0  0  0  0  0  0
    1.7256   20.8054   35.1159 C   0  0  1  0  0  0  0  0  0  0  0  0
    3.1447   20.9226   35.2420 O   0  0  0  0  0  0  0  0  0  0  0  0
    1.1289   22.0088   34.3646 C   0  0  2  0  0  0  0  0  0  0  0  0
    1.4608   23.2092   35.0640 O   0  0  0  0  0  0  0  0  0  0  0  0
   -0.4344   21.8399   34.2471 C   0  0  2  0  0  0  0  0  0  0  0  0
   -0.7740   20.5863   33.5406 O   0  0  0  0  0  0  0  0  0  0  0  0
   -1.0795   23.0220   33.4818 C   0  0  2  0  0  0  0  0  0  0  0  0
   -0.6586   24.2596   34.0588 O   0  0  0  0  0  0  0  0  0  0  0  0
   -2.5975   22.9510   33.5391 C   0  0  0  0  0  0  0  0  0  0  0  0
   -3.4745   16.5593   37.3661 C   0  0  2  0  0  0  0  0  0  0  0  0
   -4.6737   15.7648   37.6432 N   0  0  0  0  0  0  0  0  0  0  0  0
   -3.9198   18.0441   37.2609 C   0  0  0  0  0  0  0  0  0  0  0  0
   -2.6570   18.9064   36.9911 C   0  0  2  0  0  0  0  0  0  0  0  0
   -3.0317   20.3256   36.8894 N   0  0  0  0  0  0  0  0  0  0  0  0
   -1.9560   18.4688   35.6770 C   0  0  2  0  0  0  0  0  0  0  0  0
   -1.5593   16.9629   35.7884 C   0  0  2  0  0  0  0  0  0  0  0  0
   -0.9222   16.5568   34.5695 O   0  0  0  0  0  0  0  0  0  0  0  0
   -2.8111   16.0788   36.0071 C   0  0  1  0  0  0  0  0  0  0  0  0
   -2.3577   14.7064   36.1107 O   0  0  0  0  0  0  0  0  0  0  0  0
   -2.0312   14.0488   34.8638 C   0  0  2  0  0  0  0  0  0  0  0  0
   -3.3885   13.4912   34.2944 C   0  0  2  0  0  0  0  0  0  0  0  0
   -4.2910   14.5618   34.0651 O   0  0  0  0  0  0  0  0  0  0  0  0
   -3.9886   12.4577   35.3213 C   0  0  1  0  0  0  0  0  0  0  0  0
   -5.2871   11.9082   34.8251 N   0  0  0  0  0  0  0  0  0  0  0  0
   -6.3549   12.2634   35.7845 C   0  0  0  0  0  0  0  0  0  0  0  0
   -2.9569   11.3066   35.5245 C   0  0  2  0  0  0  0  0  0  0  0  0
   -2.7362   10.6636   34.2702 O   0  0  0  0  0  0  0  0  0  0  0  0
   -3.4610   10.2621   36.5171 C   0  0  0  0  0  0  0  0  0  0  0  0
   -1.6110   11.9103   36.0395 C   0  0  0  0  0  0  0  0  0  0  0  0
   -1.0965   12.9306   35.1020 O   0  0  0  0  0  0  0  0  0  0  0  0
  1  3  1  0  0  0  0
  1  2  1  1  0  0  0
  3  5  1  0  0  0  0
  3  4  1  1  0  0  0
  5  6  1  6  0  0  0
  7  8  1  1  0  0  0
  7  5  1  0  0  0  0
  9 10  1  6  0  0  0
  9  7  1  0  0  0  0
 10  1  1  0  0  0  0
 11 13  1  1  0  0  0
 11  9  1  0  0  0  0
 12 11  1  0  0  0  0
 14 15  1  6  0  0  0
 16 14  1  0  0  0  0
 17 18  1  6  0  0  0
 17 16  1  0  0  0  0
 19  2  1  1  0  0  0
 19 20  1  0  0  0  0
 19 17  1  0  0  0  0
 20 21  1  6  0  0  0
 20 22  1  0  0  0  0
 22 23  1  1  0  0  0
 22 14  1  0  0  0  0
 24 23  1  1  0  0  0
 24 25  1  0  0  0  0
 25 27  1  0  0  0  0
 25 26  1  1  0  0  0
 27 28  1  6  0  0  0
 28 29  1  0  0  0  0
 30 31  1  6  0  0  0
 30 32  1  0  0  0  0
 30 27  1  0  0  0  0
 33 30  1  0  0  0  0
 34 33  1  0  0  0  0
 34 24  1  0  0  0  0
M  END
>  <CHROM.1>
-143.97516211,-51.91872112,-161.17411777,165.71975475,-84.52457155,-118.73681609
-1.76051011,17.19595521,35.23670879,-1.18691472,-0.21375153,3.13002914

>  <Name>
lig.pdb

>  <RI>
0

>  <Rbt.Current_Directory>
/home/itssahil/PROJECTS/Mol_Feturizer/New_Systems/rnas/4k32

>  <Rbt.Executable>
rbdock ($Id: //depot/dev/client3/rdock/2013.1/src/exe/rbdock.cxx#4 $)

>  <Rbt.Library>
libRbt.so (2013.1, Build901 2013/11/27)

>  <Rbt.Parameter_File>
/export/apps/rDock/src/rDock_2013.1_src/data/scripts/dock_solv.prm

>  <Rbt.Receptor>
prm/pocket_docking_5.prm

>  <SCORE>
-6.23239

>  <SCORE.INTER>
-3.28504

>  <SCORE.INTER.CONST>
1

>  <SCORE.INTER.POLAR>
0

>  <SCORE.INTER.ROT>
6

>  <SCORE.INTER.SOLV>
23.3779

>  <SCORE.INTER.VDW>
-17.5827

>  <SCORE.INTER.norm>
-0.0966187

>  <SCORE.INTRA>
-2.94735

>  <SCORE.INTRA.DIHEDRAL>
-6.63877

>  <SCORE.INTRA.DIHEDRAL.0>
18.0069

>  <SCORE.INTRA.POLAR>
0

>  <SCORE.INTRA.POLAR.0>
0

>  <SCORE.INTRA.REPUL>
0

>  <SCORE.INTRA.REPUL.0>
0

>  <SCORE.INTRA.SOLV>
0.0530152

>  <SCORE.INTRA.SOLV.lig_0>
-70.7393

>  <SCORE.INTRA.VDW>
0.345522

>  <SCORE.INTRA.VDW.0>
-3.23471

>  <SCORE.INTRA.norm>
-0.0866869

>  <SCORE.RESTR>
0

>  <SCORE.RESTR.CAVITY>
0

>  <SCORE.RESTR.norm>
0

>  <SCORE.SYSTEM>
0

>  <SCORE.SYSTEM.CONST>
0

>  <SCORE.SYSTEM.DIHEDRAL>
0

>  <SCORE.SYSTEM.SOLV>
0

>  <SCORE.SYSTEM.norm>
0

>  <SCORE.heavy>
34

>  <SCORE.norm>
-0.183306

>  <RMSD>
3.452

$$$$
lig.pdb
 OpenBabel11021811503D
libRbt.so/2013.1/901 2013/11/27
 34 36  0  0  0  0  0  0  0  0999 V2000
   -3.4454   18.1144   37.5474 C   0  0  2  0  0  0  0  0  0  0  0  0
   -4.7323   18.1379   36.9200 O   0  0  0  0  0  0  0  0  0  0  0  0
   -2.5411   19.2389   36.8848 C   0  0  2  0  0  0  0  0  0  0  0  0
   -3.1248   20.5893   37.0601 N   0  0  0  0  0  0  0  0  0  0  0  0
   -2.3617   18.9331   35.3765 C   0  0  1  0  0  0  0  0  0  0  0  0
   -1.5434   19.9321   34.7634 O   0  0  0  0  0  0  0  0  0  0  0  0
   -1.7393   17.5330   35.2311 C   0  0  2  0  0  0  0  0  0  0  0  0
   -1.5647   17.2395   33.8441 O   0  0  0  0  0  0  0  0  0  0  0  0
   -2.6709   16.4633   35.9198 C   0  0  2  0  0  0  0  0  0  0  0  0
   -2.8655   16.7819   37.3503 O   0  0  0  0  0  0  0  0  0  0  0  0
   -2.0763   15.0370   35.8135 C   0  0  2  0  0  0  0  0  0  0  0  0
   -0.6835   15.0681   36.1310 O   0  0  0  0  0  0  0  0  0  0  0  0
   -2.2418   14.4756   34.4099 C   0  0  0  0  0  0  0  0  0  0  0  0
   -6.4935   15.2867   39.5818 C   0  0  2  0  0  0  0  0  0  0  0  0
   -7.4919   14.4919   40.3014 N   0  0  0  0  0  0  0  0  0  0  0  0
   -6.8780   16.7812   39.7614 C   0  0  0  0  0  0  0  0  0  0  0  0
   -5.8162   17.6423   39.0250 C   0  0  2  0  0  0  0  0  0  0  0  0
   -6.1382   19.0702   39.1737 N   0  0  0  0  0  0  0  0  0  0  0  0
   -5.7628   17.2864   37.5150 C   0  0  2  0  0  0  0  0  0  0  0  0
   -5.4204   15.7709   37.3606 C   0  0  2  0  0  0  0  0  0  0  0  0
   -5.3826   15.4408   35.9656 O   0  0  0  0  0  0  0  0  0  0  0  0
   -6.4950   14.8916   38.0451 C   0  0  1  0  0  0  0  0  0  0  0  0
   -6.0992   13.5091   37.8668 O   0  0  0  0  0  0  0  0  0  0  0  0
   -7.0393   12.6643   37.1625 C   0  0  2  0  0  0  0  0  0  0  0  0
   -6.5584   11.1840   37.3966 C   0  0  2  0  0  0  0  0  0  0  0  0
   -6.5723   10.8864   38.7839 O   0  0  0  0  0  0  0  0  0  0  0  0
   -5.1107   11.0151   36.7979 C   0  0  1  0  0  0  0  0  0  0  0  0
   -4.6080    9.6230   37.0072 N   0  0  0  0  0  0  0  0  0  0  0  0
   -3.5023    9.6559   37.9884 C   0  0  0  0  0  0  0  0  0  0  0  0
   -5.1631   11.3478   35.2757 C   0  0  2  0  0  0  0  0  0  0  0  0
   -6.0553   10.4348   34.6385 O   0  0  0  0  0  0  0  0  0  0  0  0
   -3.7914   11.2157   34.6189 C   0  0  0  0  0  0  0  0  0  0  0  0
   -5.6942   12.8051   35.0881 C   0  0  0  0  0  0  0  0  0  0  0  0
   -7.0215   12.9690   35.7176 O   0  0  0  0  0  0  0  0  0  0  0  0
  1  3  1  0  0  0  0
  1  2  1  6  0  0  0
  3  5  1  0  0  0  0
  3  4  1  6  0  0  0
  5  6  1  1  0  0  0
  7  8  1  6  0  0  0
  7  5  1  0  0  0  0
  9 10  1  1  0  0  0
  9  7  1  0  0  0  0
 10  1  1  0  0  0  0
 11 13  1  6  0  0  0
 11  9  1  0  0  0  0
 12 11  1  0  0  0  0
 14 15  1  1  0  0  0
 16 14  1  0  0  0  0
 17 18  1  6  0  0  0
 17 16  1  0  0  0  0
 19  2  1  6  0  0  0
 19 20  1  0  0  0  0
 19 17  1  0  0  0  0
 20 21  1  6  0  0  0
 20 22  1  0  0  0  0
 22 23  1  1  0  0  0
 22 14  1  0  0  0  0
 24 23  1  1  0  0  0
 24 25  1  0  0  0  0
 25 27  1  0  0  0  0
 25 26  1  1  0  0  0
 27 28  1  6  0  0  0
 28 29  1  0  0  0  0
 30 31  1  6  0  0  0
 30 32  1  0  0  0  0
 30 27  1  0  0  0  0
 33 30  1  0  0  0  0
 34 33  1  0  0  0  0
 34 24  1  0  0  0  0
M  END
>  <CHROM.1>
-172.36346736,45.02805988,52.76836015,123.30036820,-166.85869838,-111.03907953
-4.52648975,15.01751383,36.79778359,1.09513627,0.70915984,0.26258829

>  <Name>
lig.pdb

>  <RI>
0

>  <Rbt.Current_Directory>
/home/itssahil/PROJECTS/Mol_Feturizer/New_Systems/rnas/4k32

>  <Rbt.Executable>
rbdock ($Id: //depot/dev/client3/rdock/2013.1/src/exe/rbdock.cxx#4 $)

>  <Rbt.Library>
libRbt.so (2013.1, Build901 2013/11/27)

>  <Rbt.Parameter_File>
/export/apps/rDock/src/rDock_2013.1_src/data/scripts/dock_solv.prm

>  <Rbt.Receptor>
prm/pocket_docking_3.prm

>  <SCORE>
-6.44011

>  <SCORE.INTER>
-3.08459

>  <SCORE.INTER.CONST>
1

>  <SCORE.INTER.POLAR>
0

>  <SCORE.INTER.ROT>
6

>  <SCORE.INTER.SOLV>
23.79

>  <SCORE.INTER.VDW>
-17.5864

>  <SCORE.INTER.norm>
-0.0907231

>  <SCORE.INTRA>
-3.4359

>  <SCORE.INTRA.DIHEDRAL>
-7.6308

>  <SCORE.INTRA.DIHEDRAL.0>
18.0069

>  <SCORE.INTRA.POLAR>
0

>  <SCORE.INTRA.POLAR.0>
0

>  <SCORE.INTRA.REPUL>
0

>  <SCORE.INTRA.REPUL.0>
0

>  <SCORE.INTRA.SOLV>
-0.640999

>  <SCORE.INTRA.SOLV.lig_0>
-70.7393

>  <SCORE.INTRA.VDW>
0.699997

>  <SCORE.INTRA.VDW.0>
-3.23471

>  <SCORE.INTRA.norm>
-0.101056

>  <SCORE.RESTR>
0.0803769

>  <SCORE.RESTR.CAVITY>
0.0803769

>  <SCORE.RESTR.norm>
0.00236403

>  <SCORE.SYSTEM>
0

>  <SCORE.SYSTEM.CONST>
0

>  <SCORE.SYSTEM.DIHEDRAL>
0

>  <SCORE.SYSTEM.SOLV>
0

>  <SCORE.SYSTEM.norm>
0

>  <SCORE.heavy>
34

>  <SCORE.norm>
-0.189415

>  <RMSD>
3.494

$$$$
lig.pdb
 OpenBabel11021811503D
libRbt.so/2013.1/901 2013/11/27
 34 36  0  0  0  0  0  0  0  0999 V2000
   -3.5726   17.9259   37.5706 C   0  0  2  0  0  0  0  0  0  0  0  0
   -4.8450   17.9608   36.9149 O   0  0  0  0  0  0  0  0  0  0  0  0
   -2.7070   19.1540   37.0570 C   0  0  2  0  0  0  0  0  0  0  0  0
   -3.3565   20.4506   37.3601 N   0  0  0  0  0  0  0  0  0  0  0  0
   -2.4802   19.0215   35.5300 C   0  0  1  0  0  0  0  0  0  0  0  0
   -1.6959   20.1159   35.0498 O   0  0  0  0  0  0  0  0  0  0  0  0
   -1.7904   17.6740   35.2523 C   0  0  2  0  0  0  0  0  0  0  0  0
   -1.5718   17.5403   33.8470 O   0  0  0  0  0  0  0  0  0  0  0  0
   -2.6863   16.4962   35.7969 C   0  0  2  0  0  0  0  0  0  0  0  0
   -2.9271   16.6492   37.2476 O   0  0  0  0  0  0  0  0  0  0  0  0
   -2.0239   15.1172   35.5545 C   0  0  2  0  0  0  0  0  0  0  0  0
   -2.8960   14.0763   35.9991 O   0  0  0  0  0  0  0  0  0  0  0  0
   -0.7066   15.0006   36.3054 C   0  0  0  0  0  0  0  0  0  0  0  0
   -6.8944   15.6705   39.8932 C   0  0  2  0  0  0  0  0  0  0  0  0
   -7.9611   14.9812   40.6235 N   0  0  0  0  0  0  0  0  0  0  0  0
   -7.3775   17.1246   39.6361 C   0  0  0  0  0  0  0  0  0  0  0  0
   -6.2488   17.8797   38.8831 C   0  0  2  0  0  0  0  0  0  0  0  0
   -6.6617   19.2676   38.6226 N   0  0  0  0  0  0  0  0  0  0  0  0
   -5.9190   17.1844   37.5350 C   0  0  2  0  0  0  0  0  0  0  0  0
   -5.4807   15.7123   37.8149 C   0  0  2  0  0  0  0  0  0  0  0  0
   -5.1873   15.0676   36.5680 O   0  0  0  0  0  0  0  0  0  0  0  0
   -6.6121   14.9261   38.5207 C   0  0  1  0  0  0  0  0  0  0  0  0
   -6.1237   13.5817   38.7532 O   0  0  0  0  0  0  0  0  0  0  0  0
   -7.1215   12.5338   38.7531 C   0  0  2  0  0  0  0  0  0  0  0  0
   -6.3473   11.1922   39.0326 C   0  0  2  0  0  0  0  0  0  0  0  0
   -5.7050   11.2606   40.2959 O   0  0  0  0  0  0  0  0  0  0  0  0
   -5.3001   10.9554   37.8793 C   0  0  1  0  0  0  0  0  0  0  0  0
   -4.5323    9.6937   38.1094 N   0  0  0  0  0  0  0  0  0  0  0  0
   -3.0976    9.9551   37.8645 C   0  0  0  0  0  0  0  0  0  0  0  0
   -6.0658   10.8826   36.5233 C   0  0  2  0  0  0  0  0  0  0  0  0
   -6.9805    9.7888   36.5727 O   0  0  0  0  0  0  0  0  0  0  0  0
   -5.1172   10.6622   35.3476 C   0  0  0  0  0  0  0  0  0  0  0  0
   -6.8602   12.2113   36.3118 C   0  0  0  0  0  0  0  0  0  0  0  0
   -7.7866   12.4578   37.4368 O   0  0  0  0  0  0  0  0  0  0  0  0
  1  3  1  0  0  0  0
  1  2  1  6  0  0  0
  3  5  1  0  0  0  0
  3  4  1  6  0  0  0
  5  6  1  1  0  0  0
  7  8  1  6  0  0  0
  7  5  1  0  0  0  0
  9 10  1  1  0  0  0
  9  7  1  0  0  0  0
 10  1  1  0  0  0  0
 11 13  1  1  0  0  0
 11  9  1  0  0  0  0
 12 11  1  0  0  0  0
 14 15  1  6  0  0  0
 16 14  1  0  0  0  0
 17 18  1  6  0  0  0
 17 16  1  0  0  0  0
 19  2  1  1  0  0  0
 19 20  1  0  0  0  0
 19 17  1  0  0  0  0
 20 21  1  6  0  0  0
 20 22  1  0  0  0  0
 22 23  1  1  0  0  0
 22 14  1  0  0  0  0
 24 23  1  6  0  0  0
 24 25  1  0  0  0  0
 25 27  1  0  0  0  0
 25 26  1  1  0  0  0
 27 28  1  1  0  0  0
 28 29  1  0  0  0  0
 30 31  1  1  0  0  0
 30 32  1  0  0  0  0
 30 27  1  0  0  0  0
 33 30  1  0  0  0  0
 34 33  1  0  0  0  0
 34 24  1  0  0  0  0
M  END
>  <CHROM.1>
-161.73235568,-177.04188286,67.69608741,94.13365840,-179.63617989,-134.91598379
-4.76180373,14.97243625,37.34008533,1.07648433,0.64648689,0.09623929

>  <Name>
lig.pdb

>  <RI>
0

>  <Rbt.Current_Directory>
/home/itssahil/PROJECTS/Mol_Feturizer/New_Systems/rnas/4k32

>  <Rbt.Executable>
rbdock ($Id: //depot/dev/client3/rdock/2013.1/src/exe/rbdock.cxx#4 $)

>  <Rbt.Library>
libRbt.so (2013.1, Build901 2013/11/27)

>  <Rbt.Parameter_File>
/export/apps/rDock/src/rDock_2013.1_src/data/scripts/dock_solv.prm

>  <Rbt.Receptor>
prm/pocket_docking_2.prm

>  <SCORE>
-5.8165

>  <SCORE.INTER>
-4.24839

>  <SCORE.INTER.CONST>
1

>  <SCORE.INTER.POLAR>
0

>  <SCORE.INTER.ROT>
6

>  <SCORE.INTER.SOLV>
26.1357

>  <SCORE.INTER.VDW>
-19.1442

>  <SCORE.INTER.norm>
-0.124953

>  <SCORE.INTRA>
-4.30411

>  <SCORE.INTRA.DIHEDRAL>
-10.7477

>  <SCORE.INTRA.DIHEDRAL.0>
18.0069

>  <SCORE.INTRA.POLAR>
0

>  <SCORE.INTRA.POLAR.0>
0

>  <SCORE.INTRA.REPUL>
0.0237253

>  <SCORE.INTRA.REPUL.0>
0

>  <SCORE.INTRA.SOLV>
-0.0767639

>  <SCORE.INTRA.SOLV.lig_0>
-70.7393

>  <SCORE.INTRA.VDW>
0.989513

>  <SCORE.INTRA.VDW.0>
-3.23471

>  <SCORE.INTRA.norm>
-0.126591

>  <SCORE.RESTR>
2.736

>  <SCORE.RESTR.CAVITY>
2.736

>  <SCORE.RESTR.norm>
0.0804705

>  <SCORE.SYSTEM>
0

>  <SCORE.SYSTEM.CONST>
0

>  <SCORE.SYSTEM.DIHEDRAL>
0

>  <SCORE.SYSTEM.SOLV>
0

>  <SCORE.SYSTEM.norm>
0

>  <SCORE.heavy>
34

>  <SCORE.norm>
-0.171074

>  <RMSD>
3.520

$$$$
lig.pdb
 OpenBabel11021811503D
libRbt.so/2013.1/901 2013/11/27
 34 36  0  0  0  0  0  0  0  0999 V2000
   -2.9374   18.1433   37.2226 C   0  0  2  0  0  0  0  0  0  0  0  0
   -4.0985   17.7576   36.4788 O   0  0  0  0  0  0  0  0  0  0  0  0
   -1.8509   18.7006   36.2077 C   0  0  2  0  0  0  0  0  0  0  0  0
   -2.3466   19.8824   35.4644 N   0  0  0  0  0  0  0  0  0  0  0  0
   -1.4522   17.5809   35.2137 C   0  0  1  0  0  0  0  0  0  0  0  0
   -0.4683   18.0624   34.2952 O   0  0  0  0  0  0  0  0  0  0  0  0
   -0.9272   16.3773   36.0165 C   0  0  2  0  0  0  0  0  0  0  0  0
   -0.5521   15.3379   35.1112 O   0  0  0  0  0  0  0  0  0  0  0  0
   -2.0404   15.8787   37.0157 C   0  0  2  0  0  0  0  0  0  0  0  0
   -2.4403   16.9632   37.9376 O   0  0  0  0  0  0  0  0  0  0  0  0
   -1.5512   14.6756   37.8598 C   0  0  2  0  0  0  0  0  0  0  0  0
   -2.4006   14.5039   38.9959 O   0  0  0  0  0  0  0  0  0  0  0  0
   -0.1264   14.8890   38.3467 C   0  0  0  0  0  0  0  0  0  0  0  0
   -6.1430   16.0065   39.8060 C   0  0  2  0  0  0  0  0  0  0  0  0
   -7.2171   15.5145   40.6723 N   0  0  0  0  0  0  0  0  0  0  0  0
   -6.4880   17.4748   39.4332 C   0  0  0  0  0  0  0  0  0  0  0  0
   -5.3473   18.0227   38.5335 C   0  0  2  0  0  0  0  0  0  0  0  0
   -5.6301   19.4173   38.1595 N   0  0  0  0  0  0  0  0  0  0  0  0
   -5.1976   17.1698   37.2452 C   0  0  2  0  0  0  0  0  0  0  0  0
   -4.8971   15.6909   37.6455 C   0  0  2  0  0  0  0  0  0  0  0  0
   -4.7705   14.9017   36.4548 O   0  0  0  0  0  0  0  0  0  0  0  0
   -6.0475   15.1080   38.5017 C   0  0  1  0  0  0  0  0  0  0  0  0
   -5.6875   13.7453   38.8384 O   0  0  0  0  0  0  0  0  0  0  0  0
   -6.7850   12.8117   38.9704 C   0  0  2  0  0  0  0  0  0  0  0  0
   -6.1320   11.3923   39.1600 C   0  0  2  0  0  0  0  0  0  0  0  0
   -5.3329   11.3820   40.3324 O   0  0  0  0  0  0  0  0  0  0  0  0
   -5.2692   11.0512   37.8863 C   0  0  1  0  0  0  0  0  0  0  0  0
   -4.6200    9.7122   38.0271 N   0  0  0  0  0  0  0  0  0  0  0  0
   -3.1537    9.8949   38.0837 C   0  0  0  0  0  0  0  0  0  0  0  0
   -6.2021   11.0711   36.6373 C   0  0  2  0  0  0  0  0  0  0  0  0
   -7.2165   10.0825   36.8084 O   0  0  0  0  0  0  0  0  0  0  0  0
   -5.4377   10.7572   35.3537 C   0  0  0  0  0  0  0  0  0  0  0  0
   -6.8680   12.4795   36.5180 C   0  0  0  0  0  0  0  0  0  0  0  0
   -7.6141   12.8172   37.7484 O   0  0  0  0  0  0  0  0  0  0  0  0
  1  3  1  0  0  0  0
  1  2  1  6  0  0  0
  3  5  1  0  0  0  0
  3  4  1  6  0  0  0
  5  6  1  6  0  0  0
  7  8  1  6  0  0  0
  7  5  1  0  0  0  0
  9 10  1  1  0  0  0
  9  7  1  0  0  0  0
 10  1  1  0  0  0  0
 11 13  1  1  0  0  0
 11  9  1  0  0  0  0
 12 11  1  0  0  0  0
 14 15  1  1  0  0  0
 16 14  1  0  0  0  0
 17 18  1  6  0  0  0
 17 16  1  0  0  0  0
 19  2  1  6  0  0  0
 19 20  1  0  0  0  0
 19 17  1  0  0  0  0
 20 21  1  6  0  0  0
 20 22  1  0  0  0  0
 22 23  1  1  0  0  0
 22 14  1  0  0  0  0
 24 23  1  6  0  0  0
 24 25  1  0  0  0  0
 25 27  1  0  0  0  0
 25 26  1  1  0  0  0
 27 28  1  1  0  0  0
 28 29  1  0  0  0  0
 30 31  1  1  0  0  0
 30 32  1  0  0  0  0
 30 27  1  0  0  0  0
 33 30  1  0  0  0  0
 34 33  1  0  0  0  0
 34 24  1  0  0  0  0
M  END
>  <CHROM.1>
177.82869850,163.05956581,42.89859052,96.02320168,173.28900429,-114.74405983
-4.25333376,14.82274489,37.54658340,0.98111434,0.49127480,0.05866429

>  <Name>
lig.pdb

>  <RI>
0

>  <Rbt.Current_Directory>
/home/itssahil/PROJECTS/Mol_Feturizer/New_Systems/rnas/4k32

>  <Rbt.Executable>
rbdock ($Id: //depot/dev/client3/rdock/2013.1/src/exe/rbdock.cxx#4 $)

>  <Rbt.Library>
libRbt.so (2013.1, Build901 2013/11/27)

>  <Rbt.Parameter_File>
/export/apps/rDock/src/rDock_2013.1_src/data/scripts/dock_solv.prm

>  <Rbt.Receptor>
prm/pocket_docking_3.prm

>  <SCORE>
-5.31914

>  <SCORE.INTER>
-3.43604

>  <SCORE.INTER.CONST>
1

>  <SCORE.INTER.POLAR>
0

>  <SCORE.INTER.ROT>
6

>  <SCORE.INTER.SOLV>
19.812

>  <SCORE.INTER.VDW>
-16.4947

>  <SCORE.INTER.norm>
-0.10106

>  <SCORE.INTRA>
-1.89166

>  <SCORE.INTRA.DIHEDRAL>
-9.54643

>  <SCORE.INTRA.DIHEDRAL.0>
18.0069

>  <SCORE.INTRA.POLAR>
0

>  <SCORE.INTRA.POLAR.0>
0

>  <SCORE.INTRA.REPUL>
0.154976

>  <SCORE.INTRA.REPUL.0>
0

>  <SCORE.INTRA.SOLV>
-0.338692

>  <SCORE.INTRA.SOLV.lig_0>
-70.7393

>  <SCORE.INTRA.VDW>
2.27603

>  <SCORE.INTRA.VDW.0>
-3.23471

>  <SCORE.INTRA.norm>
-0.055637

>  <SCORE.RESTR>
0.00856074

>  <SCORE.RESTR.CAVITY>
0.00856074

>  <SCORE.RESTR.norm>
0.000251786

>  <SCORE.SYSTEM>
0

>  <SCORE.SYSTEM.CONST>
0

>  <SCORE.SYSTEM.DIHEDRAL>
0

>  <SCORE.SYSTEM.SOLV>
0

>  <SCORE.SYSTEM.norm>
0

>  <SCORE.heavy>
34

>  <SCORE.norm>
-0.156445

>  <RMSD>
3.536

$$$$
lig.pdb
 OpenBabel11021811503D
libRbt.so/2013.1/901 2013/11/27
 34 36  0  0  0  0  0  0  0  0999 V2000
   -2.7679   18.1937   37.4583 C   0  0  2  0  0  0  0  0  0  0  0  0
   -4.0166   17.8200   36.8658 O   0  0  0  0  0  0  0  0  0  0  0  0
   -1.9193   18.9955   36.3821 C   0  0  2  0  0  0  0  0  0  0  0  0
   -2.6150   20.2255   35.9374 N   0  0  0  0  0  0  0  0  0  0  0  0
   -1.6348   18.0803   35.1646 C   0  0  1  0  0  0  0  0  0  0  0  0
   -0.8648   18.7835   34.1868 O   0  0  0  0  0  0  0  0  0  0  0  0
   -0.8982   16.8225   35.6586 C   0  0  2  0  0  0  0  0  0  0  0  0
   -0.6262   15.9709   34.5445 O   0  0  0  0  0  0  0  0  0  0  0  0
   -1.7797   16.0785   36.7337 C   0  0  2  0  0  0  0  0  0  0  0  0
   -2.0760   16.9697   37.8756 O   0  0  0  0  0  0  0  0  0  0  0  0
   -1.0708   14.8117   37.2740 C   0  0  2  0  0  0  0  0  0  0  0  0
   -1.7028   14.3807   38.4809 O   0  0  0  0  0  0  0  0  0  0  0  0
    0.3966   15.0848   37.5652 C   0  0  0  0  0  0  0  0  0  0  0  0
   -5.2331   15.2396   40.0561 C   0  0  2  0  0  0  0  0  0  0  0  0
   -6.0772   14.4817   40.9830 N   0  0  0  0  0  0  0  0  0  0  0  0
   -5.7219   16.7140   40.0886 C   0  0  0  0  0  0  0  0  0  0  0  0
   -4.8225   17.5396   39.1293 C   0  0  2  0  0  0  0  0  0  0  0  0
   -5.2471   18.9483   39.1324 N   0  0  0  0  0  0  0  0  0  0  0  0
   -4.9011   16.9868   37.6809 C   0  0  2  0  0  0  0  0  0  0  0  0
   -4.4494   15.4923   37.6809 C   0  0  2  0  0  0  0  0  0  0  0  0
   -4.5334   14.9793   36.3443 O   0  0  0  0  0  0  0  0  0  0  0  0
   -5.3656   14.6406   38.5928 C   0  0  1  0  0  0  0  0  0  0  0  0
   -4.8749   13.2779   38.5462 O   0  0  0  0  0  0  0  0  0  0  0  0
   -5.7993   12.2539   38.9828 C   0  0  2  0  0  0  0  0  0  0  0  0
   -5.1619   10.8789   38.5581 C   0  0  2  0  0  0  0  0  0  0  0  0
   -3.9054   10.7126   39.1960 O   0  0  0  0  0  0  0  0  0  0  0  0
   -5.0070   10.8486   36.9903 C   0  0  1  0  0  0  0  0  0  0  0  0
   -4.3943    9.5612   36.5415 N   0  0  0  0  0  0  0  0  0  0  0  0
   -2.9854    9.8070   36.1659 C   0  0  0  0  0  0  0  0  0  0  0  0
   -6.4173   11.0282   36.3505 C   0  0  2  0  0  0  0  0  0  0  0  0
   -7.2510    9.9496   36.7711 O   0  0  0  0  0  0  0  0  0  0  0  0
   -6.3533   11.0188   34.8253 C   0  0  0  0  0  0  0  0  0  0  0  0
   -7.0332   12.3783   36.8394 C   0  0  0  0  0  0  0  0  0  0  0  0
   -7.1056   12.4224   38.3150 O   0  0  0  0  0  0  0  0  0  0  0  0
  1  3  1  0  0  0  0
  1  2  1  6  0  0  0
  3  5  1  0  0  0  0
  3  4  1  6  0  0  0
  5  6  1  6  0  0  0
  7  8  1  6  0  0  0
  7  5  1  0  0  0  0
  9 10  1  1  0  0  0
  9  7  1  0  0  0  0
 10  1  1  0  0  0  0
 11 13  1  1  0  0  0
 11  9  1  0  0  0  0
 12 11  1  0  0  0  0
 14 15  1  1  0  0  0
 16 14  1  0  0  0  0
 17 18  1  6  0  0  0
 17 16  1  0  0  0  0
 19  2  1  6  0  0  0
 19 20  1  0  0  0  0
 19 17  1  0  0  0  0
 20 21  1  6  0  0  0
 20 22  1  0  0  0  0
 22 23  1  1  0  0  0
 22 14  1  0  0  0  0
 24 23  1  6  0  0  0
 24 25  1  0  0  0  0
 25 27  1  0  0  0  0
 25 26  1  1  0  0  0
 27 28  1  1  0  0  0
 28 29  1  0  0  0  0
 30 31  1  1  0  0  0
 30 32  1  0  0  0  0
 30 27  1  0  0  0  0
 33 30  1  0  0  0  0
 34 33  1  0  0  0  0
 34 24  1  0  0  0  0
M  END
>  <CHROM.1>
175.83672515,163.95610715,40.66204347,82.16919509,168.37095249,-104.94749912
-3.93007340,14.71366907,37.38785781,0.95918927,0.65484452,0.26403684

>  <Name>
lig.pdb

>  <RI>
0

>  <Rbt.Current_Directory>
/home/itssahil/PROJECTS/Mol_Feturizer/New_Systems/rnas/4k32

>  <Rbt.Executable>
rbdock ($Id: //depot/dev/client3/rdock/2013.1/src/exe/rbdock.cxx#4 $)

>  <Rbt.Library>
libRbt.so (2013.1, Build901 2013/11/27)

>  <Rbt.Parameter_File>
/export/apps/rDock/src/rDock_2013.1_src/data/scripts/dock_solv.prm

>  <Rbt.Receptor>
prm/pocket_docking_4.prm

>  <SCORE>
-4.20704

>  <SCORE.INTER>
-1.61175

>  <SCORE.INTER.CONST>
1

>  <SCORE.INTER.POLAR>
0

>  <SCORE.INTER.ROT>
6

>  <SCORE.INTER.SOLV>
16.6793

>  <SCORE.INTER.VDW>
-14.2343

>  <SCORE.INTER.norm>
-0.0474044

>  <SCORE.INTRA>
-2.59529

>  <SCORE.INTRA.DIHEDRAL>
-11.4805

>  <SCORE.INTRA.DIHEDRAL.0>
18.0069

>  <SCORE.INTRA.POLAR>
0

>  <SCORE.INTRA.POLAR.0>
0

>  <SCORE.INTRA.REPUL>
0.0581965

>  <SCORE.INTRA.REPUL.0>
0

>  <SCORE.INTRA.SOLV>
0.050678

>  <SCORE.INTRA.SOLV.lig_0>
-70.7393

>  <SCORE.INTRA.VDW>
2.82863

>  <SCORE.INTRA.VDW.0>
-3.23471

>  <SCORE.INTRA.norm>
-0.0763321

>  <SCORE.RESTR>
0

>  <SCORE.RESTR.CAVITY>
0

>  <SCORE.RESTR.norm>
0

>  <SCORE.SYSTEM>
0

>  <SCORE.SYSTEM.CONST>
0

>  <SCORE.SYSTEM.DIHEDRAL>
0

>  <SCORE.SYSTEM.SOLV>
0

>  <SCORE.SYSTEM.norm>
0

>  <SCORE.heavy>
34

>  <SCORE.norm>
-0.123736

>  <RMSD>
3.700

$$$$
lig.pdb
 OpenBabel11021811503D
libRbt.so/2013.1/901 2013/11/27
 34 36  0  0  0  0  0  0  0  0999 V2000
   -1.0122   15.6601   34.8647 C   0  0  2  0  0  0  0  0  0  0  0  0
   -2.1238   15.9984   35.7015 O   0  0  0  0  0  0  0  0  0  0  0  0
    0.2027   15.2277   35.7912 C   0  0  2  0  0  0  0  0  0  0  0  0
   -0.1328   14.0504   36.6256 N   0  0  0  0  0  0  0  0  0  0  0  0
    0.6091   16.4178   36.6963 C   0  0  1  0  0  0  0  0  0  0  0  0
    1.7075   16.0493   37.5338 O   0  0  0  0  0  0  0  0  0  0  0  0
    0.9665   17.6161   35.7991 C   0  0  2  0  0  0  0  0  0  0  0  0
    1.3471   18.7202   36.6215 O   0  0  0  0  0  0  0  0  0  0  0  0
   -0.2691   17.9887   34.8932 C   0  0  2  0  0  0  0  0  0  0  0  0
   -0.6726   16.8371   34.0584 O   0  0  0  0  0  0  0  0  0  0  0  0
    0.0489   19.1820   33.9583 C   0  0  2  0  0  0  0  0  0  0  0  0
    0.3929   20.3293   34.7374 O   0  0  0  0  0  0  0  0  0  0  0  0
   -1.1463   19.5293   33.0843 C   0  0  0  0  0  0  0  0  0  0  0  0
   -5.7194   13.7797   36.3837 C   0  0  2  0  0  0  0  0  0  0  0  0
   -6.6320   12.6727   36.6802 N   0  0  0  0  0  0  0  0  0  0  0  0
   -4.7837   13.3103   35.2356 C   0  0  0  0  0  0  0  0  0  0  0  0
   -3.8234   14.4804   34.8899 C   0  0  2  0  0  0  0  0  0  0  0  0
   -2.9194   14.0814   33.7997 N   0  0  0  0  0  0  0  0  0  0  0  0
   -2.9800   14.8908   36.1268 C   0  0  2  0  0  0  0  0  0  0  0  0
   -3.9420   15.3141   37.2814 C   0  0  2  0  0  0  0  0  0  0  0  0
   -3.1621   15.6820   38.4273 O   0  0  0  0  0  0  0  0  0  0  0  0
   -4.8753   14.1441   37.6769 C   0  0  1  0  0  0  0  0  0  0  0  0
   -5.7379   14.6201   38.7395 O   0  0  0  0  0  0  0  0  0  0  0  0
   -6.6148   13.6356   39.3358 C   0  0  2  0  0  0  0  0  0  0  0  0
   -7.4129   14.3871   40.4652 C   0  0  2  0  0  0  0  0  0  0  0  0
   -8.1718   15.4433   39.8978 O   0  0  0  0  0  0  0  0  0  0  0  0
   -6.3936   14.9359   41.5341 C   0  0  1  0  0  0  0  0  0  0  0  0
   -7.1087   15.6678   42.6237 N   0  0  0  0  0  0  0  0  0  0  0  0
   -6.9319   17.1217   42.4195 C   0  0  0  0  0  0  0  0  0  0  0  0
   -5.5987   13.7311   42.1235 C   0  0  2  0  0  0  0  0  0  0  0  0
   -6.5187   12.8394   42.7513 O   0  0  0  0  0  0  0  0  0  0  0  0
   -4.5786   14.1807   43.1664 C   0  0  0  0  0  0  0  0  0  0  0  0
   -4.8657   12.9846   40.9632 C   0  0  0  0  0  0  0  0  0  0  0  0
   -5.8259   12.5388   39.9318 O   0  0  0  0  0  0  0  0  0  0  0  0
  1  3  1  0  0  0  0
  1  2  1  1  0  0  0
  3  5  1  0  0  0  0
  3  4  1  1  0  0  0
  5  6  1  6  0  0  0
  7  8  1  1  0  0  0
  7  5  1  0  0  0  0
  9 10  1  6  0  0  0
  9  7  1  0  0  0  0
 10  1  1  0  0  0  0
 11 13  1  1  0  0  0
 11  9  1  0  0  0  0
 12 11  1  0  0  0  0
 14 15  1  1  0  0  0
 16 14  1  0  0  0  0
 17 18  1  6  0  0  0
 17 16  1  0  0  0  0
 19  2  1  6  0  0  0
 19 20  1  0  0  0  0
 19 17  1  0  0  0  0
 20 21  1  1  0  0  0
 20 22  1  0  0  0  0
 22 23  1  1  0  0  0
 22 14  1  0  0  0  0
 24 23  1  1  0  0  0
 24 25  1  0  0  0  0
 25 27  1  0  0  0  0
 25 26  1  6  0  0  0
 27 28  1  1  0  0  0
 28 29  1  0  0  0  0
 30 31  1  1  0  0  0
 30 32  1  0  0  0  0
 30 27  1  0  0  0  0
 33 30  1  0  0  0  0
 34 33  1  0  0  0  0
 34 24  1  0  0  0  0
M  END
>  <CHROM.1>
-85.31588093,-60.03838678,-74.18151263,69.09312522,178.88760770,-103.80124441
-3.36104253,15.44617533,37.69567949,0.54102752,-0.65162373,-1.85451990

>  <Name>
lig.pdb

>  <RI>
0

>  <Rbt.Current_Directory>
/home/itssahil/PROJECTS/Mol_Feturizer/New_Systems/rnas/4k32

>  <Rbt.Executable>
rbdock ($Id: //depot/dev/client3/rdock/2013.1/src/exe/rbdock.cxx#4 $)

>  <Rbt.Library>
libRbt.so (2013.1, Build901 2013/11/27)

>  <Rbt.Parameter_File>
/export/apps/rDock/src/rDock_2013.1_src/data/scripts/dock_solv.prm

>  <Rbt.Receptor>
prm/pocket_docking_5.prm

>  <SCORE>
-10.4516

>  <SCORE.INTER>
-6.03659

>  <SCORE.INTER.CONST>
1

>  <SCORE.INTER.POLAR>
0

>  <SCORE.INTER.ROT>
6

>  <SCORE.INTER.SOLV>
13.3811

>  <SCORE.INTER.VDW>
-16.0848

>  <SCORE.INTER.norm>
-0.177547

>  <SCORE.INTRA>
-4.41497

>  <SCORE.INTRA.DIHEDRAL>
-12.8666

>  <SCORE.INTRA.DIHEDRAL.0>
18.0069

>  <SCORE.INTRA.POLAR>
0

>  <SCORE.INTRA.POLAR.0>
0

>  <SCORE.INTRA.REPUL>
0

>  <SCORE.INTRA.REPUL.0>
0

>  <SCORE.INTRA.SOLV>
1.65008

>  <SCORE.INTRA.SOLV.lig_0>
-70.7393

>  <SCORE.INTRA.VDW>
1.19329

>  <SCORE.INTRA.VDW.0>
-3.23471

>  <SCORE.INTRA.norm>
-0.129852

>  <SCORE.RESTR>
0

>  <SCORE.RESTR.CAVITY>
0

>  <SCORE.RESTR.norm>
0

>  <SCORE.SYSTEM>
0

>  <SCORE.SYSTEM.CONST>
0

>  <SCORE.SYSTEM.DIHEDRAL>
0

>  <SCORE.SYSTEM.SOLV>
0

>  <SCORE.SYSTEM.norm>
0

>  <SCORE.heavy>
34

>  <SCORE.norm>
-0.307399

>  <RMSD>
3.703

$$$$
lig.pdb
 OpenBabel11021811503D
libRbt.so/2013.1/901 2013/11/27
 34 36  0  0  0  0  0  0  0  0999 V2000
   -1.0692   15.7507   34.7855 C   0  0  2  0  0  0  0  0  0  0  0  0
   -2.1422   16.0526   35.6842 O   0  0  0  0  0  0  0  0  0  0  0  0
    0.1816   15.2703   35.6373 C   0  0  2  0  0  0  0  0  0  0  0  0
   -0.1245   14.0557   36.4285 N   0  0  0  0  0  0  0  0  0  0  0  0
    0.6330   16.4143   36.5799 C   0  0  1  0  0  0  0  0  0  0  0  0
    1.7640   16.0024   37.3510 O   0  0  0  0  0  0  0  0  0  0  0  0
    0.9584   17.6528   35.7261 C   0  0  2  0  0  0  0  0  0  0  0  0
    1.3799   18.7151   36.5831 O   0  0  0  0  0  0  0  0  0  0  0  0
   -0.3126   18.0727   34.8927 C   0  0  2  0  0  0  0  0  0  0  0  0
   -0.7578   16.9637   34.0222 O   0  0  0  0  0  0  0  0  0  0  0  0
   -0.0281   19.3081   34.0029 C   0  0  2  0  0  0  0  0  0  0  0  0
    0.4349   20.3912   34.8118 O   0  0  0  0  0  0  0  0  0  0  0  0
   -1.2808   19.7543   33.2651 C   0  0  0  0  0  0  0  0  0  0  0  0
   -5.6132   13.7095   36.5668 C   0  0  2  0  0  0  0  0  0  0  0  0
   -6.4678   12.5720   36.9157 N   0  0  0  0  0  0  0  0  0  0  0  0
   -4.7242   13.2681   35.3714 C   0  0  0  0  0  0  0  0  0  0  0  0
   -3.8269   14.4702   34.9705 C   0  0  2  0  0  0  0  0  0  0  0  0
   -2.9690   14.0982   33.8345 N   0  0  0  0  0  0  0  0  0  0  0  0
   -2.9336   14.9171   36.1588 C   0  0  2  0  0  0  0  0  0  0  0  0
   -3.8468   15.3117   37.3622 C   0  0  2  0  0  0  0  0  0  0  0  0
   -3.0203   15.7134   38.4631 O   0  0  0  0  0  0  0  0  0  0  0  0
   -4.7145   14.1109   37.8113 C   0  0  1  0  0  0  0  0  0  0  0  0
   -5.5354   14.5611   38.9173 O   0  0  0  0  0  0  0  0  0  0  0  0
   -6.3712   13.5568   39.5389 C   0  0  2  0  0  0  0  0  0  0  0  0
   -7.2000   14.3031   40.6495 C   0  0  2  0  0  0  0  0  0  0  0  0
   -8.0015   15.3124   40.0560 O   0  0  0  0  0  0  0  0  0  0  0  0
   -6.2045   14.9203   41.7035 C   0  0  1  0  0  0  0  0  0  0  0  0
   -6.9495   15.6495   42.7747 N   0  0  0  0  0  0  0  0  0  0  0  0
   -6.7795   17.1042   42.5704 C   0  0  0  0  0  0  0  0  0  0  0  0
   -5.3609   13.7646   42.3226 C   0  0  2  0  0  0  0  0  0  0  0  0
   -6.2436   12.8520   42.9735 O   0  0  0  0  0  0  0  0  0  0  0  0
   -4.3605   14.2821   43.3531 C   0  0  0  0  0  0  0  0  0  0  0  0
   -4.5973   13.0197   41.1811 C   0  0  0  0  0  0  0  0  0  0  0  0
   -5.5380   12.5088   40.1620 O   0  0  0  0  0  0  0  0  0  0  0  0
  1  3  1  0  0  0  0
  1  2  1  1  0  0  0
  3  5  1  0  0  0  0
  3  4  1  1  0  0  0
  5  6  1  6  0  0  0
  7  8  1  1  0  0  0
  7  5  1  0  0  0  0
  9 10  1  6  0  0  0
  9  7  1  0  0  0  0
 10  1  1  0  0  0  0
 11 13  1  1  0  0  0
 11  9  1  0  0  0  0
 12 11  1  0  0  0  0
 14 15  1  1  0  0  0
 16 14  1  0  0  0  0
 17 18  1  6  0  0  0
 17 16  1  0  0  0  0
 19  2  1  6  0  0  0
 19 20  1  0  0  0  0
 19 17  1  0  0  0  0
 20 21  1  1  0  0  0
 20 22  1  0  0  0  0
 22 23  1  1  0  0  0
 22 14  1  0  0  0  0
 24 23  1  1  0  0  0
 24 25  1  0  0  0  0
 25 27  1  0  0  0  0
 25 26  1  6  0  0  0
 27 28  1  1  0  0  0
 28 29  1  0  0  0  0
 30 31  1  1  0  0  0
 30 32  1  0  0  0  0
 30 27  1  0  0  0  0
 33 30  1  0  0  0  0
 34 33  1  0  0  0  0
 34 24  1  0  0  0  0
M  END
>  <CHROM.1>
-81.59944288,-56.46404275,-73.92942234,67.40385177,-177.41748517,-106.45361033
-3.27015702,15.45700499,37.77271546,0.54630587,-0.69779833,-1.88209175

>  <Name>
lig.pdb

>  <RI>
0

>  <Rbt.Current_Directory>
/home/itssahil/PROJECTS/Mol_Feturizer/New_Systems/rnas/4k32

>  <Rbt.Executable>
rbdock ($Id: //depot/dev/client3/rdock/2013.1/src/exe/rbdock.cxx#4 $)

>  <Rbt.Library>
libRbt.so (2013.1, Build901 2013/11/27)

>  <Rbt.Parameter_File>
/export/apps/rDock/src/rDock_2013.1_src/data/scripts/dock_solv.prm

>  <Rbt.Receptor>
prm/pocket_docking_6.prm

>  <SCORE>
-10.2446

>  <SCORE.INTER>
-5.70233

>  <SCORE.INTER.CONST>
1

>  <SCORE.INTER.POLAR>
0

>  <SCORE.INTER.ROT>
6

>  <SCORE.INTER.SOLV>
12.6511

>  <SCORE.INTER.VDW>
-15.6186

>  <SCORE.INTER.norm>
-0.167716

>  <SCORE.INTRA>
-4.54222

>  <SCORE.INTRA.DIHEDRAL>
-13.5522

>  <SCORE.INTRA.DIHEDRAL.0>
18.0069

>  <SCORE.INTRA.POLAR>
0

>  <SCORE.INTRA.POLAR.0>
0

>  <SCORE.INTRA.REPUL>
0

>  <SCORE.INTRA.REPUL.0>
0

>  <SCORE.INTRA.SOLV>
1.88872

>  <SCORE.INTRA.SOLV.lig_0>
-70.7393

>  <SCORE.INTRA.VDW>
1.2895

>  <SCORE.INTRA.VDW.0>
-3.23471

>  <SCORE.INTRA.norm>
-0.133595

>  <SCORE.RESTR>
0

>  <SCORE.RESTR.CAVITY>
0

>  <SCORE.RESTR.norm>
0

>  <SCORE.SYSTEM>
0

>  <SCORE.SYSTEM.CONST>
0

>  <SCORE.SYSTEM.DIHEDRAL>
0

>  <SCORE.SYSTEM.SOLV>
0

>  <SCORE.SYSTEM.norm>
0

>  <SCORE.heavy>
34

>  <SCORE.norm>
-0.30131

>  <RMSD>
3.741

$$$$
lig.pdb
 OpenBabel11021811503D
libRbt.so/2013.1/901 2013/11/27
 34 36  0  0  0  0  0  0  0  0999 V2000
   -1.3253   17.8894   36.6610 C   0  0  2  0  0  0  0  0  0  0  0  0
   -1.1066   16.7217   35.8618 O   0  0  0  0  0  0  0  0  0  0  0  0
   -2.6385   18.6161   36.1428 C   0  0  2  0  0  0  0  0  0  0  0  0
   -3.8304   17.7428   36.2507 N   0  0  0  0  0  0  0  0  0  0  0  0
   -2.4373   19.0551   34.6705 C   0  0  1  0  0  0  0  0  0  0  0  0
   -3.6081   19.7183   34.1879 O   0  0  0  0  0  0  0  0  0  0  0  0
   -1.2037   19.9724   34.5969 C   0  0  2  0  0  0  0  0  0  0  0  0
   -1.0087   20.3879   33.2442 O   0  0  0  0  0  0  0  0  0  0  0  0
    0.0627   19.2043   35.1378 C   0  0  2  0  0  0  0  0  0  0  0  0
   -0.1510   18.7583   36.5312 O   0  0  0  0  0  0  0  0  0  0  0  0
    1.3292   20.0950   35.0989 C   0  0  2  0  0  0  0  0  0  0  0  0
    1.7960   20.2145   33.7537 O   0  0  0  0  0  0  0  0  0  0  0  0
    2.4433   19.5038   35.9486 C   0  0  0  0  0  0  0  0  0  0  0  0
   -2.9117   12.9055   36.5652 C   0  0  2  0  0  0  0  0  0  0  0  0
   -3.1475   11.5565   37.0855 N   0  0  0  0  0  0  0  0  0  0  0  0
   -1.4696   12.9308   35.9876 C   0  0  0  0  0  0  0  0  0  0  0  0
   -1.2089   14.3478   35.4085 C   0  0  2  0  0  0  0  0  0  0  0  0
    0.1480   14.4164   34.8437 N   0  0  0  0  0  0  0  0  0  0  0  0
   -1.3588   15.4333   36.5079 C   0  0  2  0  0  0  0  0  0  0  0  0
   -2.7996   15.3582   37.1047 C   0  0  2  0  0  0  0  0  0  0  0  0
   -2.9332   16.3539   38.1282 O   0  0  0  0  0  0  0  0  0  0  0  0
   -3.0629   13.9684   37.7335 C   0  0  1  0  0  0  0  0  0  0  0  0
   -4.4164   13.9780   38.2510 O   0  0  0  0  0  0  0  0  0  0  0  0
   -5.0640   12.6888   38.3617 C   0  0  2  0  0  0  0  0  0  0  0  0
   -6.5839   12.9852   38.6438 C   0  0  2  0  0  0  0  0  0  0  0  0
   -7.1387   13.7242   37.5671 O   0  0  0  0  0  0  0  0  0  0  0  0
   -6.7077   13.7816   39.9977 C   0  0  1  0  0  0  0  0  0  0  0  0
   -8.1374   14.0946   40.3015 N   0  0  0  0  0  0  0  0  0  0  0  0
   -8.3626   15.5427   40.1046 C   0  0  0  0  0  0  0  0  0  0  0  0
   -6.0894   12.9171   41.1383 C   0  0  2  0  0  0  0  0  0  0  0  0
   -6.8190   11.6947   41.2324 O   0  0  0  0  0  0  0  0  0  0  0  0
   -6.1623   13.6246   42.4891 C   0  0  0  0  0  0  0  0  0  0  0  0
   -4.5984   12.6036   40.7923 C   0  0  0  0  0  0  0  0  0  0  0  0
   -4.4914   11.9210   39.4857 O   0  0  0  0  0  0  0  0  0  0  0  0
  1  3  1  0  0  0  0
  1  2  1  6  0  0  0
  3  5  1  0  0  0  0
  3  4  1  6  0  0  0
  5  6  1  1  0  0  0
  7  8  1  6  0  0  0
  7  5  1  0  0  0  0
  9 10  1  1  0  0  0
  9  7  1  0  0  0  0
 10  1  1  0  0  0  0
 11 13  1  1  0  0  0
 11  9  1  0  0  0  0
 12 11  1  0  0  0  0
 14 15  1  1  0  0  0
 16 14  1  0  0  0  0
 17 18  1  1  0  0  0
 17 16  1  0  0  0  0
 19  2  1  6  0  0  0
 19 20  1  0  0  0  0
 19 17  1  0  0  0  0
 20 21  1  1  0  0  0
 20 22  1  0  0  0  0
 22 23  1  6  0  0  0
 22 14  1  0  0  0  0
 24 23  1  1  0  0  0
 24 25  1  0  0  0  0
 25 27  1  0  0  0  0
 25 26  1  6  0  0  0
 27 28  1  1  0  0  0
 28 29  1  0  0  0  0
 30 31  1  1  0  0  0
 30 32  1  0  0  0  0
 30 27  1  0  0  0  0
 33 30  1  0  0  0  0
 34 33  1  0  0  0  0
 34 24  1  0  0  0  0
M  END
>  <CHROM.1>
-108.06132001,-75.02600489,173.81254617,38.75511994,-168.31945458,-108.28688900
-3.09248378,15.75424887,37.22925453,0.81809444,0.48866831,-0.27831236

>  <Name>
lig.pdb

>  <RI>
0

>  <Rbt.Current_Directory>
/home/itssahil/PROJECTS/Mol_Feturizer/New_Systems/rnas/4k32

>  <Rbt.Executable>
rbdock ($Id: //depot/dev/client3/rdock/2013.1/src/exe/rbdock.cxx#4 $)

>  <Rbt.Library>
libRbt.so (2013.1, Build901 2013/11/27)

>  <Rbt.Parameter_File>
/export/apps/rDock/src/rDock_2013.1_src/data/scripts/dock_solv.prm

>  <Rbt.Receptor>
prm/pocket_docking_3.prm

>  <SCORE>
13.5414

>  <SCORE.INTER>
10.0701

>  <SCORE.INTER.CONST>
1

>  <SCORE.INTER.POLAR>
0

>  <SCORE.INTER.ROT>
6

>  <SCORE.INTER.SOLV>
20.9362

>  <SCORE.INTER.VDW>
-7.86536

>  <SCORE.INTER.norm>
0.296178

>  <SCORE.INTRA>
2.77057

>  <SCORE.INTRA.DIHEDRAL>
-6.74031

>  <SCORE.INTRA.DIHEDRAL.0>
18.0069

>  <SCORE.INTRA.POLAR>
0

>  <SCORE.INTRA.POLAR.0>
0

>  <SCORE.INTRA.REPUL>
0.00801408

>  <SCORE.INTRA.REPUL.0>
0

>  <SCORE.INTRA.SOLV>
1.9473

>  <SCORE.INTRA.SOLV.lig_0>
-70.7393

>  <SCORE.INTRA.VDW>
5.12701

>  <SCORE.INTRA.VDW.0>
-3.23471

>  <SCORE.INTRA.norm>
0.0814875

>  <SCORE.RESTR>
0.700746

>  <SCORE.RESTR.CAVITY>
0.700746

>  <SCORE.RESTR.norm>
0.0206102

>  <SCORE.SYSTEM>
0

>  <SCORE.SYSTEM.CONST>
0

>  <SCORE.SYSTEM.DIHEDRAL>
0

>  <SCORE.SYSTEM.SOLV>
0

>  <SCORE.SYSTEM.norm>
0

>  <SCORE.heavy>
34

>  <SCORE.norm>
0.398276

>  <RMSD>
4.007

$$$$
lig.pdb
 OpenBabel11021811503D
libRbt.so/2013.1/901 2013/11/27
 34 36  0  0  0  0  0  0  0  0999 V2000
   -0.9589   13.9169   37.6394 C   0  0  2  0  0  0  0  0  0  0  0  0
   -1.1624   15.3015   37.3363 O   0  0  0  0  0  0  0  0  0  0  0  0
    0.5928   13.5992   37.5273 C   0  0  2  0  0  0  0  0  0  0  0  0
    1.3909   14.4102   38.4761 N   0  0  0  0  0  0  0  0  0  0  0  0
    1.0691   13.8632   36.0767 C   0  0  1  0  0  0  0  0  0  0  0  0
    2.4640   13.5756   35.9544 O   0  0  0  0  0  0  0  0  0  0  0  0
    0.2324   12.9946   35.1206 C   0  0  2  0  0  0  0  0  0  0  0  0
    0.6642   13.2256   33.7787 O   0  0  0  0  0  0  0  0  0  0  0  0
   -1.2965   13.3421   35.2875 C   0  0  2  0  0  0  0  0  0  0  0  0
   -1.7345   13.1211   36.6823 O   0  0  0  0  0  0  0  0  0  0  0  0
   -2.1823   12.4791   34.3549 C   0  0  2  0  0  0  0  0  0  0  0  0
   -3.5461   12.8907   34.4651 O   0  0  0  0  0  0  0  0  0  0  0  0
   -2.0892   11.0052   34.7175 C   0  0  0  0  0  0  0  0  0  0  0  0
   -4.6643   17.6028   38.2062 C   0  0  2  0  0  0  0  0  0  0  0  0
   -6.0050   18.1839   38.1001 N   0  0  0  0  0  0  0  0  0  0  0  0
   -3.9410   17.8641   36.8562 C   0  0  0  0  0  0  0  0  0  0  0  0
   -2.5075   17.2760   36.9577 C   0  0  2  0  0  0  0  0  0  0  0  0
   -1.7812   17.5062   35.6989 N   0  0  0  0  0  0  0  0  0  0  0  0
   -2.5518   15.7519   37.2491 C   0  0  2  0  0  0  0  0  0  0  0  0
   -3.3225   15.5111   38.5854 C   0  0  2  0  0  0  0  0  0  0  0  0
   -3.3727   14.1021   38.8478 O   0  0  0  0  0  0  0  0  0  0  0  0
   -4.7722   16.0452   38.4884 C   0  0  1  0  0  0  0  0  0  0  0  0
   -5.4110   15.7945   39.7647 O   0  0  0  0  0  0  0  0  0  0  0  0
   -6.8328   15.5293   39.7230 C   0  0  2  0  0  0  0  0  0  0  0  0
   -7.2495   15.1434   41.1909 C   0  0  2  0  0  0  0  0  0  0  0  0
   -6.9755   16.2235   42.0693 O   0  0  0  0  0  0  0  0  0  0  0  0
   -6.4606   13.8500   41.6240 C   0  0  1  0  0  0  0  0  0  0  0  0
   -6.8184   13.4516   43.0195 N   0  0  0  0  0  0  0  0  0  0  0  0
   -5.7099   13.8268   43.9234 C   0  0  0  0  0  0  0  0  0  0  0  0
   -6.8083   12.7021   40.6280 C   0  0  2  0  0  0  0  0  0  0  0  0
   -8.2115   12.4516   40.6906 O   0  0  0  0  0  0  0  0  0  0  0  0
   -6.0742   11.4092   40.9744 C   0  0  0  0  0  0  0  0  0  0  0  0
   -6.4271   13.1476   39.1799 C   0  0  0  0  0  0  0  0  0  0  0  0
   -7.1187   14.4015   38.8135 O   0  0  0  0  0  0  0  0  0  0  0  0
  1  3  1  0  0  0  0
  1  2  1  6  0  0  0
  3  5  1  0  0  0  0
  3  4  1  1  0  0  0
  5  6  1  1  0  0  0
  7  8  1  6  0  0  0
  7  5  1  0  0  0  0
  9 10  1  1  0  0  0
  9  7  1  0  0  0  0
 10  1  1  0  0  0  0
 11 13  1  1  0  0  0
 11  9  1  0  0  0  0
 12 11  1  0  0  0  0
 14 15  1  6  0  0  0
 16 14  1  0  0  0  0
 17 18  1  6  0  0  0
 17 16  1  0  0  0  0
 19  2  1  1  0  0  0
 19 20  1  0  0  0  0
 19 17  1  0  0  0  0
 20 21  1  6  0  0  0
 20 22  1  0  0  0  0
 22 23  1  1  0  0  0
 22 14  1  0  0  0  0
 24 23  1  1  0  0  0
 24 25  1  0  0  0  0
 25 27  1  0  0  0  0
 25 26  1  1  0  0  0
 27 28  1  1  0  0  0
 28 29  1  0  0  0  0
 30 31  1  1  0  0  0
 30 32  1  0  0  0  0
 30 27  1  0  0  0  0
 33 30  1  0  0  0  0
 34 33  1  0  0  0  0
 34 24  1  0  0  0  0
M  END
>  <CHROM.1>
173.72053077,-175.81216431,178.32704800,95.81124385,174.14055250,-104.40093118
-3.52432912,14.42449436,38.17668414,-0.01796153,-0.69333290,2.99994087

>  <Name>
lig.pdb

>  <RI>
0

>  <Rbt.Current_Directory>
/home/itssahil/PROJECTS/Mol_Feturizer/New_Systems/rnas/4k32

>  <Rbt.Executable>
rbdock ($Id: //depot/dev/client3/rdock/2013.1/src/exe/rbdock.cxx#4 $)

>  <Rbt.Library>
libRbt.so (2013.1, Build901 2013/11/27)

>  <Rbt.Parameter_File>
/export/apps/rDock/src/rDock_2013.1_src/data/scripts/dock_solv.prm

>  <Rbt.Receptor>
prm/pocket_docking_5.prm

>  <SCORE>
-6.83771

>  <SCORE.INTER>
-0.635628

>  <SCORE.INTER.CONST>
1

>  <SCORE.INTER.POLAR>
0

>  <SCORE.INTER.ROT>
6

>  <SCORE.INTER.SOLV>
13.011

>  <SCORE.INTER.VDW>
-12.3608

>  <SCORE.INTER.norm>
-0.0186949

>  <SCORE.INTRA>
-6.20209

>  <SCORE.INTRA.DIHEDRAL>
-11.8665

>  <SCORE.INTRA.DIHEDRAL.0>
18.0069

>  <SCORE.INTRA.POLAR>
0

>  <SCORE.INTRA.POLAR.0>
0

>  <SCORE.INTRA.REPUL>
0

>  <SCORE.INTRA.REPUL.0>
0

>  <SCORE.INTRA.SOLV>
-2.4517

>  <SCORE.INTRA.SOLV.lig_0>
-70.7393

>  <SCORE.INTRA.VDW>
0.957038

>  <SCORE.INTRA.VDW.0>
-3.23471

>  <SCORE.INTRA.norm>
-0.182414

>  <SCORE.RESTR>
0

>  <SCORE.RESTR.CAVITY>
0

>  <SCORE.RESTR.norm>
0

>  <SCORE.SYSTEM>
0

>  <SCORE.SYSTEM.CONST>
0

>  <SCORE.SYSTEM.DIHEDRAL>
0

>  <SCORE.SYSTEM.SOLV>
0

>  <SCORE.SYSTEM.norm>
0

>  <SCORE.heavy>
34

>  <SCORE.norm>
-0.201109

>  <RMSD>
4.554

$$$$
lig.pdb
 OpenBabel11021811503D
libRbt.so/2013.1/901 2013/11/27
 34 36  0  0  0  0  0  0  0  0999 V2000
   -0.8034   12.9894   36.4859 C   0  0  2  0  0  0  0  0  0  0  0  0
   -0.7718   14.4209   36.4905 O   0  0  0  0  0  0  0  0  0  0  0  0
    0.6885   12.4526   36.4004 C   0  0  2  0  0  0  0  0  0  0  0  0
    1.5021   12.9009   37.5545 N   0  0  0  0  0  0  0  0  0  0  0  0
    1.3353   12.9374   35.0784 C   0  0  1  0  0  0  0  0  0  0  0  0
    2.6783   12.4575   34.9801 O   0  0  0  0  0  0  0  0  0  0  0  0
    0.4760   12.4414   33.9018 C   0  0  2  0  0  0  0  0  0  0  0  0
    1.0637   12.8785   32.6755 O   0  0  0  0  0  0  0  0  0  0  0  0
   -0.9944   12.9915   34.0489 C   0  0  2  0  0  0  0  0  0  0  0  0
   -1.5918   12.5537   35.3285 O   0  0  0  0  0  0  0  0  0  0  0  0
   -1.9034   12.5039   32.8934 C   0  0  2  0  0  0  0  0  0  0  0  0
   -1.3628   12.9273   31.6403 O   0  0  0  0  0  0  0  0  0  0  0  0
   -3.3113   13.0628   33.0284 C   0  0  0  0  0  0  0  0  0  0  0  0
   -3.6936   17.1697   37.9815 C   0  0  2  0  0  0  0  0  0  0  0  0
   -4.9145   17.9714   38.0947 N   0  0  0  0  0  0  0  0  0  0  0  0
   -3.0931   17.4412   36.5746 C   0  0  0  0  0  0  0  0  0  0  0  0
   -1.7831   16.6178   36.4444 C   0  0  2  0  0  0  0  0  0  0  0  0
   -1.1748   16.8493   35.1248 N   0  0  0  0  0  0  0  0  0  0  0  0
   -2.0612   15.1006   36.6183 C   0  0  2  0  0  0  0  0  0  0  0  0
   -2.7060   14.8583   38.0194 C   0  0  2  0  0  0  0  0  0  0  0  0
   -2.9730   13.4578   38.1744 O   0  0  0  0  0  0  0  0  0  0  0  0
   -4.0409   15.6309   38.1519 C   0  0  1  0  0  0  0  0  0  0  0  0
   -4.5652   15.3632   39.4759 O   0  0  0  0  0  0  0  0  0  0  0  0
   -5.9896   15.5526   39.6461 C   0  0  2  0  0  0  0  0  0  0  0  0
   -6.2922   15.2591   41.1625 C   0  0  2  0  0  0  0  0  0  0  0  0
   -5.5733   16.1674   41.9820 O   0  0  0  0  0  0  0  0  0  0  0  0
   -5.8924   13.7697   41.4857 C   0  0  1  0  0  0  0  0  0  0  0  0
   -6.1539   13.4488   42.9220 N   0  0  0  0  0  0  0  0  0  0  0  0
   -4.9335   13.7355   43.7063 C   0  0  0  0  0  0  0  0  0  0  0  0
   -6.7185   12.8243   40.5614 C   0  0  2  0  0  0  0  0  0  0  0  0
   -8.1059   13.0180   40.8319 O   0  0  0  0  0  0  0  0  0  0  0  0
   -6.3823   11.3555   40.8069 C   0  0  0  0  0  0  0  0  0  0  0  0
   -6.4278   13.1846   39.0692 C   0  0  0  0  0  0  0  0  0  0  0  0
   -6.7390   14.6039   38.7981 O   0  0  0  0  0  0  0  0  0  0  0  0
  1  3  1  0  0  0  0
  1  2  1  6  0  0  0
  3  5  1  0  0  0  0
  3  4  1  1  0  0  0
  5  6  1  6  0  0  0
  7  8  1  6  0  0  0
  7  5  1  0  0  0  0
  9 10  1  1  0  0  0
  9  7  1  0  0  0  0
 10  1  1  0  0  0  0
 11 13  1  1  0  0  0
 11  9  1  0  0  0  0
 12 11  1  0  0  0  0
 14 15  1  6  0  0  0
 16 14  1  0  0  0  0
 17 18  1  6  0  0  0
 17 16  1  0  0  0  0
 19  2  1  1  0  0  0
 19 20  1  0  0  0  0
 19 17  1  0  0  0  0
 20 21  1  6  0  0  0
 20 22  1  0  0  0  0
 22 23  1  1  0  0  0
 22 14  1  0  0  0  0
 24 23  1  1  0  0  0
 24 25  1  0  0  0  0
 25 27  1  0  0  0  0
 25 26  1  1  0  0  0
 27 28  1  1  0  0  0
 28 29  1  0  0  0  0
 30 31  1  1  0  0  0
 30 32  1  0  0  0  0
 30 27  1  0  0  0  0
 33 30  1  0  0  0  0
 34 33  1  0  0  0  0
 34 24  1  0  0  0  0
M  END
>  <CHROM.1>
-177.69003122,-58.58881931,-174.03531612,86.20715309,-177.74810157,-91.28539230
-3.04032858,14.12107201,37.52568207,-0.23159190,-0.81756160,2.66746991

>  <Name>
lig.pdb

>  <RI>
0

>  <Rbt.Current_Directory>
/home/itssahil/PROJECTS/Mol_Feturizer/New_Systems/rnas/4k32

>  <Rbt.Executable>
rbdock ($Id: //depot/dev/client3/rdock/2013.1/src/exe/rbdock.cxx#4 $)

>  <Rbt.Library>
libRbt.so (2013.1, Build901 2013/11/27)

>  <Rbt.Parameter_File>
/export/apps/rDock/src/rDock_2013.1_src/data/scripts/dock_solv.prm

>  <Rbt.Receptor>
prm/pocket_docking_7.prm

>  <SCORE>
-9.54433

>  <SCORE.INTER>
-1.74446

>  <SCORE.INTER.CONST>
1

>  <SCORE.INTER.POLAR>
0

>  <SCORE.INTER.ROT>
6

>  <SCORE.INTER.SOLV>
13.8128

>  <SCORE.INTER.VDW>
-13.3673

>  <SCORE.INTER.norm>
-0.0513077

>  <SCORE.INTRA>
-7.79987

>  <SCORE.INTRA.DIHEDRAL>
-14.211

>  <SCORE.INTRA.DIHEDRAL.0>
18.0069

>  <SCORE.INTRA.POLAR>
0

>  <SCORE.INTRA.POLAR.0>
0

>  <SCORE.INTRA.REPUL>
0

>  <SCORE.INTRA.REPUL.0>
0

>  <SCORE.INTRA.SOLV>
-2.06887

>  <SCORE.INTRA.SOLV.lig_0>
-70.7393

>  <SCORE.INTRA.VDW>
0.340062

>  <SCORE.INTRA.VDW.0>
-3.23471

>  <SCORE.INTRA.norm>
-0.229408

>  <SCORE.RESTR>
0

>  <SCORE.RESTR.CAVITY>
0

>  <SCORE.RESTR.norm>
0

>  <SCORE.SYSTEM>
0

>  <SCORE.SYSTEM.CONST>
0

>  <SCORE.SYSTEM.DIHEDRAL>
0

>  <SCORE.SYSTEM.SOLV>
0

>  <SCORE.SYSTEM.norm>
0

>  <SCORE.heavy>
34

>  <SCORE.norm>
-0.280716

>  <RMSD>
4.696

$$$$
lig.pdb
 OpenBabel11021811503D
libRbt.so/2013.1/901 2013/11/27
 34 36  0  0  0  0  0  0  0  0999 V2000
   -0.8638   12.9796   36.3217 C   0  0  2  0  0  0  0  0  0  0  0  0
   -0.8202   14.4085   36.4029 O   0  0  0  0  0  0  0  0  0  0  0  0
    0.6255   12.4328   36.2566 C   0  0  2  0  0  0  0  0  0  0  0  0
    1.4043   12.8116   37.4587 N   0  0  0  0  0  0  0  0  0  0  0  0
    1.3197   12.9796   34.9839 C   0  0  1  0  0  0  0  0  0  0  0  0
    2.6611   12.4918   34.9042 O   0  0  0  0  0  0  0  0  0  0  0  0
    0.4956   12.5548   33.7554 C   0  0  2  0  0  0  0  0  0  0  0  0
    1.1271   13.0497   32.5736 O   0  0  0  0  0  0  0  0  0  0  0  0
   -0.9742   13.1115   33.8833 C   0  0  2  0  0  0  0  0  0  0  0  0
   -1.6172   12.6133   35.1179 O   0  0  0  0  0  0  0  0  0  0  0  0
   -1.8486   12.6946   32.6747 C   0  0  2  0  0  0  0  0  0  0  0  0
   -3.1417   13.2928   32.7834 O   0  0  0  0  0  0  0  0  0  0  0  0
   -2.0161   11.1844   32.6124 C   0  0  0  0  0  0  0  0  0  0  0  0
   -3.7417   17.1283   37.9469 C   0  0  2  0  0  0  0  0  0  0  0  0
   -4.9585   17.9347   38.0711 N   0  0  0  0  0  0  0  0  0  0  0  0
   -3.1217   17.4412   36.5571 C   0  0  0  0  0  0  0  0  0  0  0  0
   -1.8158   16.6130   36.4162 C   0  0  2  0  0  0  0  0  0  0  0  0
   -1.1894   16.8830   35.1125 N   0  0  0  0  0  0  0  0  0  0  0  0
   -2.1065   15.0929   36.5369 C   0  0  2  0  0  0  0  0  0  0  0  0
   -2.7705   14.8097   37.9213 C   0  0  2  0  0  0  0  0  0  0  0  0
   -3.0490   13.4069   38.0270 O   0  0  0  0  0  0  0  0  0  0  0  0
   -4.1016   15.5873   38.0624 C   0  0  1  0  0  0  0  0  0  0  0  0
   -4.6444   15.2803   39.3705 O   0  0  0  0  0  0  0  0  0  0  0  0
   -6.0792   15.4069   39.5092 C   0  0  2  0  0  0  0  0  0  0  0  0
   -6.3979   15.1346   41.0263 C   0  0  2  0  0  0  0  0  0  0  0  0
   -5.7382   16.0940   41.8372 O   0  0  0  0  0  0  0  0  0  0  0  0
   -5.9361   13.6733   41.3924 C   0  0  1  0  0  0  0  0  0  0  0  0
   -6.2110   13.3736   42.8308 N   0  0  0  0  0  0  0  0  0  0  0  0
   -5.0346   13.7682   43.6352 C   0  0  0  0  0  0  0  0  0  0  0  0
   -6.6991   12.6693   40.4757 C   0  0  2  0  0  0  0  0  0  0  0  0
   -8.0991   12.8042   40.7154 O   0  0  0  0  0  0  0  0  0  0  0  0
   -6.3003   11.2239   40.7625 C   0  0  0  0  0  0  0  0  0  0  0  0
   -6.3958   13.0084   38.9810 C   0  0  0  0  0  0  0  0  0  0  0  0
   -6.7669   14.4050   38.6703 O   0  0  0  0  0  0  0  0  0  0  0  0
  1  3  1  0  0  0  0
  1  2  1  6  0  0  0
  3  5  1  0  0  0  0
  3  4  1  1  0  0  0
  5  6  1  6  0  0  0
  7  8  1  6  0  0  0
  7  5  1  0  0  0  0
  9 10  1  1  0  0  0
  9  7  1  0  0  0  0
 10  1  1  0  0  0  0
 11 13  1  1  0  0  0
 11  9  1  0  0  0  0
 12 11  1  0  0  0  0
 14 15  1  6  0  0  0
 16 14  1  0  0  0  0
 17 18  1  6  0  0  0
 17 16  1  0  0  0  0
 19  2  1  1  0  0  0
 19 20  1  0  0  0  0
 19 17  1  0  0  0  0
 20 21  1  6  0  0  0
 20 22  1  0  0  0  0
 22 23  1  1  0  0  0
 22 14  1  0  0  0  0
 24 23  1  1  0  0  0
 24 25  1  0  0  0  0
 25 27  1  0  0  0  0
 25 26  1  1  0  0  0
 27 28  1  1  0  0  0
 28 29  1  0  0  0  0
 30 31  1  1  0  0  0
 30 32  1  0  0  0  0
 30 27  1  0  0  0  0
 33 30  1  0  0  0  0
 34 33  1  0  0  0  0
 34 24  1  0  0  0  0
M  END
>  <CHROM.1>
-177.13722458,-176.07246581,-172.71862553,89.33829354,-175.66002358,-89.80715703
-3.09173731,14.04364913,37.45442201,0.04900666,-0.83255433,3.04676872

>  <Name>
lig.pdb

>  <RI>
0

>  <Rbt.Current_Directory>
/home/itssahil/PROJECTS/Mol_Feturizer/New_Systems/rnas/4k32

>  <Rbt.Executable>
rbdock ($Id: //depot/dev/client3/rdock/2013.1/src/exe/rbdock.cxx#4 $)

>  <Rbt.Library>
libRbt.so (2013.1, Build901 2013/11/27)

>  <Rbt.Parameter_File>
/export/apps/rDock/src/rDock_2013.1_src/data/scripts/dock_solv.prm

>  <Rbt.Receptor>
prm/pocket_docking_7.prm

>  <SCORE>
-8.61173

>  <SCORE.INTER>
-1.56655

>  <SCORE.INTER.CONST>
1

>  <SCORE.INTER.POLAR>
0

>  <SCORE.INTER.ROT>
6

>  <SCORE.INTER.SOLV>
13.8657

>  <SCORE.INTER.VDW>
-13.2663

>  <SCORE.INTER.norm>
-0.0460749

>  <SCORE.INTRA>
-7.04518

>  <SCORE.INTRA.DIHEDRAL>
-13.4614

>  <SCORE.INTRA.DIHEDRAL.0>
18.0069

>  <SCORE.INTRA.POLAR>
0

>  <SCORE.INTRA.POLAR.0>
0

>  <SCORE.INTRA.REPUL>
0

>  <SCORE.INTRA.REPUL.0>
0

>  <SCORE.INTRA.SOLV>
-2.29892

>  <SCORE.INTRA.SOLV.lig_0>
-70.7393

>  <SCORE.INTRA.VDW>
0.83497

>  <SCORE.INTRA.VDW.0>
-3.23471

>  <SCORE.INTRA.norm>
-0.207211

>  <SCORE.RESTR>
0

>  <SCORE.RESTR.CAVITY>
0

>  <SCORE.RESTR.norm>
0

>  <SCORE.SYSTEM>
0

>  <SCORE.SYSTEM.CONST>
0

>  <SCORE.SYSTEM.DIHEDRAL>
0

>  <SCORE.SYSTEM.SOLV>
0

>  <SCORE.SYSTEM.norm>
0

>  <SCORE.heavy>
34

>  <SCORE.norm>
-0.253286

>  <RMSD>
4.701

$$$$
lig.pdb
 OpenBabel11021811503D
libRbt.so/2013.1/901 2013/11/27
 34 36  0  0  0  0  0  0  0  0999 V2000
    0.2229   14.5467   35.7247 C   0  0  2  0  0  0  0  0  0  0  0  0
   -0.9803   14.4439   36.4940 O   0  0  0  0  0  0  0  0  0  0  0  0
    1.4423   14.7510   36.7210 C   0  0  2  0  0  0  0  0  0  0  0  0
    1.5815   13.6147   37.6614 N   0  0  0  0  0  0  0  0  0  0  0  0
    1.2464   16.0693   37.5113 C   0  0  1  0  0  0  0  0  0  0  0  0
    2.3393   16.2742   38.4097 O   0  0  0  0  0  0  0  0  0  0  0  0
    1.1222   17.2288   36.5069 C   0  0  2  0  0  0  0  0  0  0  0  0
    0.9448   18.4520   37.2229 O   0  0  0  0  0  0  0  0  0  0  0  0
   -0.0919   16.9635   35.5365 C   0  0  2  0  0  0  0  0  0  0  0  0
    0.0857   15.6868   34.8124 O   0  0  0  0  0  0  0  0  0  0  0  0
   -0.2471   18.0987   34.4941 C   0  0  2  0  0  0  0  0  0  0  0  0
    1.0399   18.6037   34.1331 O   0  0  0  0  0  0  0  0  0  0  0  0
   -1.0800   19.2439   35.0486 C   0  0  0  0  0  0  0  0  0  0  0  0
   -4.4990   12.0242   36.2103 C   0  0  2  0  0  0  0  0  0  0  0  0
   -5.6984   11.3766   35.6735 N   0  0  0  0  0  0  0  0  0  0  0  0
   -4.6441   13.5493   35.9516 C   0  0  0  0  0  0  0  0  0  0  0  0
   -3.3917   14.2570   36.5361 C   0  0  2  0  0  0  0  0  0  0  0  0
   -3.4890   15.7088   36.3181 N   0  0  0  0  0  0  0  0  0  0  0  0
   -2.0932   13.7276   35.8702 C   0  0  2  0  0  0  0  0  0  0  0  0
   -1.9926   12.1871   36.1037 C   0  0  2  0  0  0  0  0  0  0  0  0
   -0.7987   11.6973   35.4783 O   0  0  0  0  0  0  0  0  0  0  0  0
   -3.2080   11.4560   35.4835 C   0  0  1  0  0  0  0  0  0  0  0  0
   -3.0444   10.0415   35.7524 O   0  0  0  0  0  0  0  0  0  0  0  0
   -3.8900    9.1476   34.9912 C   0  0  2  0  0  0  0  0  0  0  0  0
   -3.6567    7.7100   35.5881 C   0  0  2  0  0  0  0  0  0  0  0  0
   -4.0267    7.6910   36.9578 O   0  0  0  0  0  0  0  0  0  0  0  0
   -2.1406    7.3205   35.4079 C   0  0  1  0  0  0  0  0  0  0  0  0
   -1.8701    5.9627   35.9714 N   0  0  0  0  0  0  0  0  0  0  0  0
   -1.3048    6.1122   37.3296 C   0  0  0  0  0  0  0  0  0  0  0  0
   -1.7992    7.3524   33.8871 C   0  0  2  0  0  0  0  0  0  0  0  0
   -2.6222    6.4013   33.2135 O   0  0  0  0  0  0  0  0  0  0  0  0
   -0.3386    6.9932   33.6261 C   0  0  0  0  0  0  0  0  0  0  0  0
   -2.0945    8.7804   33.3259 C   0  0  0  0  0  0  0  0  0  0  0  0
   -3.5020    9.1620   33.5664 O   0  0  0  0  0  0  0  0  0  0  0  0
  1  3  1  0  0  0  0
  1  2  1  1  0  0  0
  3  5  1  0  0  0  0
  3  4  1  1  0  0  0
  5  6  1  1  0  0  0
  7  8  1  1  0  0  0
  7  5  1  0  0  0  0
  9 10  1  6  0  0  0
  9  7  1  0  0  0  0
 10  1  1  0  0  0  0
 11 13  1  1  0  0  0
 11  9  1  0  0  0  0
 12 11  1  0  0  0  0
 14 15  1  6  0  0  0
 16 14  1  0  0  0  0
 17 18  1  6  0  0  0
 17 16  1  0  0  0  0
 19  2  1  1  0  0  0
 19 20  1  0  0  0  0
 19 17  1  0  0  0  0
 20 21  1  6  0  0  0
 20 22  1  0  0  0  0
 22 23  1  1  0  0  0
 22 14  1  0  0  0  0
 24 23  1  1  0  0  0
 24 25  1  0  0  0  0
 25 27  1  0  0  0  0
 25 26  1  1  0  0  0
 27 28  1  6  0  0  0
 28 29  1  0  0  0  0
 30 31  1  6  0  0  0
 30 32  1  0  0  0  0
 30 27  1  0  0  0  0
 33 30  1  0  0  0  0
 34 33  1  0  0  0  0
 34 24  1  0  0  0  0
M  END
>  <CHROM.1>
-155.60644988,34.35883840,-155.61922313,78.31729518,-173.01532645,-97.97436615
-1.51933797,12.43450377,35.68707523,-1.25709636,0.17461163,-3.08888322

>  <Name>
lig.pdb

>  <RI>
0

>  <Rbt.Current_Directory>
/home/itssahil/PROJECTS/Mol_Feturizer/New_Systems/rnas/4k32

>  <Rbt.Executable>
rbdock ($Id: //depot/dev/client3/rdock/2013.1/src/exe/rbdock.cxx#4 $)

>  <Rbt.Library>
libRbt.so (2013.1, Build901 2013/11/27)

>  <Rbt.Parameter_File>
/export/apps/rDock/src/rDock_2013.1_src/data/scripts/dock_solv.prm

>  <Rbt.Receptor>
prm/pocket_docking_8.prm

>  <SCORE>
-7.10266

>  <SCORE.INTER>
-2.69333

>  <SCORE.INTER.CONST>
1

>  <SCORE.INTER.POLAR>
0

>  <SCORE.INTER.ROT>
6

>  <SCORE.INTER.SOLV>
13.1316

>  <SCORE.INTER.VDW>
-13.7728

>  <SCORE.INTER.norm>
-0.0792156

>  <SCORE.INTRA>
-4.40933

>  <SCORE.INTRA.DIHEDRAL>
-8.17792

>  <SCORE.INTRA.DIHEDRAL.0>
18.0069

>  <SCORE.INTRA.POLAR>
0

>  <SCORE.INTRA.POLAR.0>
0

>  <SCORE.INTRA.REPUL>
0

>  <SCORE.INTRA.REPUL.0>
0

>  <SCORE.INTRA.SOLV>
-0.226248

>  <SCORE.INTRA.SOLV.lig_0>
-70.7393

>  <SCORE.INTRA.VDW>
-0.207245

>  <SCORE.INTRA.VDW.0>
-3.23471

>  <SCORE.INTRA.norm>
-0.129686

>  <SCORE.RESTR>
0

>  <SCORE.RESTR.CAVITY>
0

>  <SCORE.RESTR.norm>
0

>  <SCORE.SYSTEM>
0

>  <SCORE.SYSTEM.CONST>
0

>  <SCORE.SYSTEM.DIHEDRAL>
0

>  <SCORE.SYSTEM.SOLV>
0

>  <SCORE.SYSTEM.norm>
0

>  <SCORE.heavy>
34

>  <SCORE.norm>
-0.208902

>  <RMSD>
4.857

$$$$
lig.pdb
 OpenBabel11021811503D
libRbt.so/2013.1/901 2013/11/27
 34 36  0  0  0  0  0  0  0  0999 V2000
   -2.6659   15.6351   36.0271 C   0  0  2  0  0  0  0  0  0  0  0  0
   -1.9673   15.4195   37.2582 O   0  0  0  0  0  0  0  0  0  0  0  0
   -1.8022   16.6130   35.1220 C   0  0  2  0  0  0  0  0  0  0  0  0
   -0.4697   16.0440   34.8127 N   0  0  0  0  0  0  0  0  0  0  0  0
   -1.6403   17.9745   35.8439 C   0  0  1  0  0  0  0  0  0  0  0  0
   -0.8703   18.8716   35.0402 O   0  0  0  0  0  0  0  0  0  0  0  0
   -3.0401   18.5442   36.1348 C   0  0  2  0  0  0  0  0  0  0  0  0
   -2.9053   19.8025   36.7975 O   0  0  0  0  0  0  0  0  0  0  0  0
   -3.8546   17.5258   37.0211 C   0  0  2  0  0  0  0  0  0  0  0  0
   -3.9744   16.2187   36.3406 O   0  0  0  0  0  0  0  0  0  0  0  0
   -5.2798   18.0495   37.3271 C   0  0  2  0  0  0  0  0  0  0  0  0
   -5.1997   19.3154   37.9850 O   0  0  0  0  0  0  0  0  0  0  0  0
   -6.0397   17.0839   38.2231 C   0  0  0  0  0  0  0  0  0  0  0  0
   -2.0603   12.2278   40.1079 C   0  0  2  0  0  0  0  0  0  0  0  0
   -2.5445   11.2781   41.1127 N   0  0  0  0  0  0  0  0  0  0  0  0
   -2.4372   13.6521   40.6009 C   0  0  0  0  0  0  0  0  0  0  0  0
   -1.9101   14.6761   39.5594 C   0  0  2  0  0  0  0  0  0  0  0  0
   -2.2408   16.0437   39.9896 N   0  0  0  0  0  0  0  0  0  0  0  0
   -2.5330   14.4169   38.1613 C   0  0  2  0  0  0  0  0  0  0  0  0
   -2.1798   12.9654   37.7076 C   0  0  2  0  0  0  0  0  0  0  0  0
   -2.7654   12.7231   36.4211 O   0  0  0  0  0  0  0  0  0  0  0  0
   -2.7408   11.9247   38.7069 C   0  0  1  0  0  0  0  0  0  0  0  0
   -2.3623   10.6127   38.2219 O   0  0  0  0  0  0  0  0  0  0  0  0
   -3.0997    9.4950   38.7702 C   0  0  2  0  0  0  0  0  0  0  0  0
   -2.2529    8.2091   38.4432 C   0  0  2  0  0  0  0  0  0  0  0  0
   -0.9762    8.3044   39.0549 O   0  0  0  0  0  0  0  0  0  0  0  0
   -2.1202    8.0673   36.8796 C   0  0  1  0  0  0  0  0  0  0  0  0
   -1.3125    6.8614   36.5219 N   0  0  0  0  0  0  0  0  0  0  0  0
    0.0255    7.2987   36.0690 C   0  0  0  0  0  0  0  0  0  0  0  0
   -3.5509    7.9601   36.2696 C   0  0  2  0  0  0  0  0  0  0  0  0
   -4.1903    6.8019   36.8038 O   0  0  0  0  0  0  0  0  0  0  0  0
   -3.5106    7.8277   34.7493 C   0  0  0  0  0  0  0  0  0  0  0  0
   -4.3714    9.2304   36.6620 C   0  0  0  0  0  0  0  0  0  0  0  0
   -4.4265    9.3912   38.1302 O   0  0  0  0  0  0  0  0  0  0  0  0
  1  3  1  0  0  0  0
  1  2  1  1  0  0  0
  3  5  1  0  0  0  0
  3  4  1  1  0  0  0
  5  6  1  6  0  0  0
  7  8  1  1  0  0  0
  7  5  1  0  0  0  0
  9 10  1  6  0  0  0
  9  7  1  0  0  0  0
 10  1  1  0  0  0  0
 11 13  1  1  0  0  0
 11  9  1  0  0  0  0
 12 11  1  0  0  0  0
 14 15  1  1  0  0  0
 16 14  1  0  0  0  0
 17 18  1  1  0  0  0
 17 16  1  0  0  0  0
 19  2  1  6  0  0  0
 19 20  1  0  0  0  0
 19 17  1  0  0  0  0
 20 21  1  6  0  0  0
 20 22  1  0  0  0  0
 22 23  1  6  0  0  0
 22 14  1  0  0  0  0
 24 23  1  6  0  0  0
 24 25  1  0  0  0  0
 25 27  1  0  0  0  0
 25 26  1  1  0  0  0
 27 28  1  1  0  0  0
 28 29  1  0  0  0  0
 30 31  1  1  0  0  0
 30 32  1  0  0  0  0
 30 27  1  0  0  0  0
 33 30  1  0  0  0  0
 34 33  1  0  0  0  0
 34 24  1  0  0  0  0
M  END
>  <CHROM.1>
-172.99936692,-57.72860200,-162.34346812,81.42935853,-163.54889060,-105.64170010
-2.75428541,13.15448378,37.42248020,-1.75946499,-1.24671724,2.90988516

>  <Name>
lig.pdb

>  <RI>
0

>  <Rbt.Current_Directory>
/home/itssahil/PROJECTS/Mol_Feturizer/New_Systems/rnas/4k32

>  <Rbt.Executable>
rbdock ($Id: //depot/dev/client3/rdock/2013.1/src/exe/rbdock.cxx#4 $)

>  <Rbt.Library>
libRbt.so (2013.1, Build901 2013/11/27)

>  <Rbt.Parameter_File>
/export/apps/rDock/src/rDock_2013.1_src/data/scripts/dock_solv.prm

>  <Rbt.Receptor>
prm/pocket_docking_7.prm

>  <SCORE>
-6.7272

>  <SCORE.INTER>
0.0419103

>  <SCORE.INTER.CONST>
1

>  <SCORE.INTER.POLAR>
0

>  <SCORE.INTER.ROT>
6

>  <SCORE.INTER.SOLV>
15.8522

>  <SCORE.INTER.VDW>
-12.8561

>  <SCORE.INTER.norm>
0.00123266

>  <SCORE.INTRA>
-6.76911

>  <SCORE.INTRA.DIHEDRAL>
-11.9424

>  <SCORE.INTRA.DIHEDRAL.0>
18.0069

>  <SCORE.INTRA.POLAR>
0

>  <SCORE.INTRA.POLAR.0>
0

>  <SCORE.INTRA.REPUL>
0

>  <SCORE.INTRA.REPUL.0>
0

>  <SCORE.INTRA.SOLV>
-1.02445

>  <SCORE.INTRA.SOLV.lig_0>
-70.7393

>  <SCORE.INTRA.VDW>
-0.285703

>  <SCORE.INTRA.VDW.0>
-3.23471

>  <SCORE.INTRA.norm>
-0.199092

>  <SCORE.RESTR>
0

>  <SCORE.RESTR.CAVITY>
0

>  <SCORE.RESTR.norm>
0

>  <SCORE.SYSTEM>
0

>  <SCORE.SYSTEM.CONST>
0

>  <SCORE.SYSTEM.DIHEDRAL>
0

>  <SCORE.SYSTEM.SOLV>
0

>  <SCORE.SYSTEM.norm>
0

>  <SCORE.heavy>
34

>  <SCORE.norm>
-0.197859

>  <RMSD>
4.991

$$$$
lig.pdb
 OpenBabel11021811503D
libRbt.so/2013.1/901 2013/11/27
 34 36  0  0  0  0  0  0  0  0999 V2000
   -1.2422   18.9771   35.8100 C   0  0  2  0  0  0  0  0  0  0  0  0
   -1.1290   17.6082   35.4055 O   0  0  0  0  0  0  0  0  0  0  0  0
   -2.0541   19.7661   34.6967 C   0  0  2  0  0  0  0  0  0  0  0  0
   -3.4175   19.2154   34.5153 N   0  0  0  0  0  0  0  0  0  0  0  0
   -1.2790   19.7089   33.3562 C   0  0  1  0  0  0  0  0  0  0  0  0
   -1.9921   20.4207   32.3421 O   0  0  0  0  0  0  0  0  0  0  0  0
    0.1239   20.3025   33.5758 C   0  0  2  0  0  0  0  0  0  0  0  0
    0.8487   20.2594   32.3456 O   0  0  0  0  0  0  0  0  0  0  0  0
    0.8744   19.4906   34.7000 C   0  0  2  0  0  0  0  0  0  0  0  0
    0.1110   19.5207   35.9658 O   0  0  0  0  0  0  0  0  0  0  0  0
    2.2884   20.0628   34.9686 C   0  0  2  0  0  0  0  0  0  0  0  0
    2.8184   19.4997   36.1701 O   0  0  0  0  0  0  0  0  0  0  0  0
    2.2499   21.5758   35.1173 C   0  0  0  0  0  0  0  0  0  0  0  0
   -1.9707   14.1069   37.7183 C   0  0  2  0  0  0  0  0  0  0  0  0
   -1.8337   13.0201   38.6909 N   0  0  0  0  0  0  0  0  0  0  0  0
   -0.6856   14.1084   36.8452 C   0  0  0  0  0  0  0  0  0  0  0  0
   -0.8226   15.2398   35.7906 C   0  0  2  0  0  0  0  0  0  0  0  0
    0.3738   15.2748   34.9349 N   0  0  0  0  0  0  0  0  0  0  0  0
   -0.9985   16.6208   36.4773 C   0  0  2  0  0  0  0  0  0  0  0  0
   -2.2689   16.5806   37.3840 C   0  0  2  0  0  0  0  0  0  0  0  0
   -2.4239   17.8532   38.0268 O   0  0  0  0  0  0  0  0  0  0  0  0
   -2.1315   15.4918   38.4758 C   0  0  1  0  0  0  0  0  0  0  0  0
   -3.3487   15.5124   39.2618 O   0  0  0  0  0  0  0  0  0  0  0  0
   -3.3221   14.7560   40.4951 C   0  0  2  0  0  0  0  0  0  0  0  0
   -4.7771   14.8373   41.0899 C   0  0  2  0  0  0  0  0  0  0  0  0
   -5.7024   14.2635   40.1800 O   0  0  0  0  0  0  0  0  0  0  0  0
   -5.1296   16.3459   41.3767 C   0  0  1  0  0  0  0  0  0  0  0  0
   -6.5105   16.4723   41.9349 N   0  0  0  0  0  0  0  0  0  0  0  0
   -7.4206   16.9273   40.8619 C   0  0  0  0  0  0  0  0  0  0  0  0
   -4.0851   16.9148   42.3846 C   0  0  2  0  0  0  0  0  0  0  0  0
   -4.1631   16.1652   43.5961 O   0  0  0  0  0  0  0  0  0  0  0  0
   -4.3521   18.3822   42.7103 C   0  0  0  0  0  0  0  0  0  0  0  0
   -2.6535   16.7666   41.7766 C   0  0  0  0  0  0  0  0  0  0  0  0
   -2.3637   15.3557   41.4451 O   0  0  0  0  0  0  0  0  0  0  0  0
  1  3  1  0  0  0  0
  1  2  1  6  0  0  0
  3  5  1  0  0  0  0
  3  4  1  6  0  0  0
  5  6  1  6  0  0  0
  7  8  1  6  0  0  0
  7  5  1  0  0  0  0
  9 10  1  1  0  0  0
  9  7  1  0  0  0  0
 10  1  1  0  0  0  0
 11 13  1  1  0  0  0
 11  9  1  0  0  0  0
 12 11  1  0  0  0  0
 14 15  1  1  0  0  0
 16 14  1  0  0  0  0
 17 18  1  1  0  0  0
 17 16  1  0  0  0  0
 19  2  1  6  0  0  0
 19 20  1  0  0  0  0
 19 17  1  0  0  0  0
 20 21  1  1  0  0  0
 20 22  1  0  0  0  0
 22 23  1  1  0  0  0
 22 14  1  0  0  0  0
 24 23  1  6  0  0  0
 24 25  1  0  0  0  0
 25 27  1  0  0  0  0
 25 26  1  6  0  0  0
 27 28  1  1  0  0  0
 28 29  1  0  0  0  0
 30 31  1  1  0  0  0
 30 32  1  0  0  0  0
 30 27  1  0  0  0  0
 33 30  1  0  0  0  0
 34 33  1  0  0  0  0
 34 24  1  0  0  0  0
M  END
>  <CHROM.1>
-152.51097367,167.56589533,-177.24991905,75.66403932,-175.34843179,-102.08688671
-2.00999938,17.30303663,37.66782290,0.70607934,0.83443827,-0.36287824

>  <Name>
lig.pdb

>  <RI>
0

>  <Rbt.Current_Directory>
/home/itssahil/PROJECTS/Mol_Feturizer/New_Systems/rnas/4k32

>  <Rbt.Executable>
rbdock ($Id: //depot/dev/client3/rdock/2013.1/src/exe/rbdock.cxx#4 $)

>  <Rbt.Library>
libRbt.so (2013.1, Build901 2013/11/27)

>  <Rbt.Parameter_File>
/export/apps/rDock/src/rDock_2013.1_src/data/scripts/dock_solv.prm

>  <Rbt.Receptor>
prm/pocket_docking_6.prm

>  <SCORE>
5.87349

>  <SCORE.INTER>
10.9881

>  <SCORE.INTER.CONST>
1

>  <SCORE.INTER.POLAR>
0

>  <SCORE.INTER.ROT>
6

>  <SCORE.INTER.SOLV>
22.7454

>  <SCORE.INTER.VDW>
-7.85642

>  <SCORE.INTER.norm>
0.323178

>  <SCORE.INTRA>
-5.12303

>  <SCORE.INTRA.DIHEDRAL>
-12.0487

>  <SCORE.INTRA.DIHEDRAL.0>
18.0069

>  <SCORE.INTRA.POLAR>
0

>  <SCORE.INTRA.POLAR.0>
0

>  <SCORE.INTRA.REPUL>
0

>  <SCORE.INTRA.REPUL.0>
0

>  <SCORE.INTRA.SOLV>
-1.54185

>  <SCORE.INTRA.SOLV.lig_0>
-70.7393

>  <SCORE.INTRA.VDW>
1.67225

>  <SCORE.INTRA.VDW.0>
-3.23471

>  <SCORE.INTRA.norm>
-0.150677

>  <SCORE.RESTR>
0.00846666

>  <SCORE.RESTR.CAVITY>
0.00846666

>  <SCORE.RESTR.norm>
0.000249019

>  <SCORE.SYSTEM>
0

>  <SCORE.SYSTEM.CONST>
0

>  <SCORE.SYSTEM.DIHEDRAL>
0

>  <SCORE.SYSTEM.SOLV>
0

>  <SCORE.SYSTEM.norm>
0

>  <SCORE.heavy>
34

>  <SCORE.norm>
0.17275

>  <RMSD>
5.123

$$$$
lig.pdb
 OpenBabel11021811503D
libRbt.so/2013.1/901 2013/11/27
 34 36  0  0  0  0  0  0  0  0999 V2000
   -0.6616   17.5651   37.3750 C   0  0  2  0  0  0  0  0  0  0  0  0
    0.0436   16.3843   36.9767 O   0  0  0  0  0  0  0  0  0  0  0  0
   -2.1356   17.4936   36.7890 C   0  0  2  0  0  0  0  0  0  0  0  0
   -2.8730   16.3126   37.2954 N   0  0  0  0  0  0  0  0  0  0  0  0
   -2.0732   17.4532   35.2413 C   0  0  1  0  0  0  0  0  0  0  0  0
   -3.3928   17.3956   34.6946 O   0  0  0  0  0  0  0  0  0  0  0  0
   -1.3169   18.6999   34.7488 C   0  0  2  0  0  0  0  0  0  0  0  0
   -1.2552   18.6772   33.3219 O   0  0  0  0  0  0  0  0  0  0  0  0
    0.1303   18.7251   35.3743 C   0  0  2  0  0  0  0  0  0  0  0  0
    0.0624   18.7280   36.8512 O   0  0  0  0  0  0  0  0  0  0  0  0
    0.9261   19.9737   34.9195 C   0  0  2  0  0  0  0  0  0  0  0  0
    1.0916   19.9519   33.5004 O   0  0  0  0  0  0  0  0  0  0  0  0
    2.3009   20.0155   35.5681 C   0  0  0  0  0  0  0  0  0  0  0  0
    0.3310   12.6627   39.0704 C   0  0  2  0  0  0  0  0  0  0  0  0
    0.7435   11.6427   40.0378 N   0  0  0  0  0  0  0  0  0  0  0  0
    1.6233   13.2332   38.4235 C   0  0  0  0  0  0  0  0  0  0  0  0
    1.2053   14.3004   37.3760 C   0  0  2  0  0  0  0  0  0  0  0  0
    2.4013   14.8657   36.7318 N   0  0  0  0  0  0  0  0  0  0  0  0
    0.3959   15.4453   38.0421 C   0  0  2  0  0  0  0  0  0  0  0  0
   -0.8725   14.8424   38.7241 C   0  0  2  0  0  0  0  0  0  0  0  0
   -1.6134   15.8994   39.3490 O   0  0  0  0  0  0  0  0  0  0  0  0
   -0.4765   13.8116   39.8090 C   0  0  1  0  0  0  0  0  0  0  0  0
   -1.7032   13.2945   40.3816 O   0  0  0  0  0  0  0  0  0  0  0  0
   -1.5668   12.5639   41.6231 C   0  0  2  0  0  0  0  0  0  0  0  0
   -2.9945   11.9881   41.9513 C   0  0  2  0  0  0  0  0  0  0  0  0
   -3.4141   11.1185   40.9116 O   0  0  0  0  0  0  0  0  0  0  0  0
   -4.0024   13.1866   42.1256 C   0  0  1  0  0  0  0  0  0  0  0  0
   -5.3773   12.6850   42.4292 N   0  0  0  0  0  0  0  0  0  0  0  0
   -6.1268   12.5460   41.1621 C   0  0  0  0  0  0  0  0  0  0  0  0
   -3.4917   14.0980   43.2828 C   0  0  2  0  0  0  0  0  0  0  0  0
   -3.4473   13.3299   44.4843 O   0  0  0  0  0  0  0  0  0  0  0  0
   -4.4127   15.2938   43.5114 C   0  0  0  0  0  0  0  0  0  0  0  0
   -2.0538   14.6039   42.9396 C   0  0  0  0  0  0  0  0  0  0  0  0
   -1.1358   13.4691   42.7073 O   0  0  0  0  0  0  0  0  0  0  0  0
  1  3  1  0  0  0  0
  1  2  1  6  0  0  0
  3  5  1  0  0  0  0
  3  4  1  1  0  0  0
  5  6  1  6  0  0  0
  7  8  1  6  0  0  0
  7  5  1  0  0  0  0
  9 10  1  1  0  0  0
  9  7  1  0  0  0  0
 10  1  1  0  0  0  0
 11 13  1  1  0  0  0
 11  9  1  0  0  0  0
 12 11  1  0  0  0  0
 14 15  1  1  0  0  0
 16 14  1  0  0  0  0
 17 18  1  1  0  0  0
 17 16  1  0  0  0  0
 19  2  1  6  0  0  0
 19 20  1  0  0  0  0
 19 17  1  0  0  0  0
 20 21  1  1  0  0  0
 20 22  1  0  0  0  0
 22 23  1  6  0  0  0
 22 14  1  0  0  0  0
 24 23  1  6  0  0  0
 24 25  1  0  0  0  0
 25 27  1  0  0  0  0
 25 26  1  6  0  0  0
 27 28  1  1  0  0  0
 28 29  1  0  0  0  0
 30 31  1  1  0  0  0
 30 32  1  0  0  0  0
 30 27  1  0  0  0  0
 33 30  1  0  0  0  0
 34 33  1  0  0  0  0
 34 24  1  0  0  0  0
M  END
>  <CHROM.1>
-112.29223687,-61.86103527,-177.20585111,78.25681233,-174.24682178,-92.77835316
-1.34505312,15.38099659,38.74785308,1.21367469,0.32014718,-0.79548161

>  <Name>
lig.pdb

>  <RI>
0

>  <Rbt.Current_Directory>
/home/itssahil/PROJECTS/Mol_Feturizer/New_Systems/rnas/4k32

>  <Rbt.Executable>
rbdock ($Id: //depot/dev/client3/rdock/2013.1/src/exe/rbdock.cxx#4 $)

>  <Rbt.Library>
libRbt.so (2013.1, Build901 2013/11/27)

>  <Rbt.Parameter_File>
/export/apps/rDock/src/rDock_2013.1_src/data/scripts/dock_solv.prm

>  <Rbt.Receptor>
prm/pocket_docking_8.prm

>  <SCORE>
-1.5367

>  <SCORE.INTER>
0.699674

>  <SCORE.INTER.CONST>
1

>  <SCORE.INTER.POLAR>
0

>  <SCORE.INTER.ROT>
6

>  <SCORE.INTER.SOLV>
17.2839

>  <SCORE.INTER.VDW>
-12.8948

>  <SCORE.INTER.norm>
0.0205786

>  <SCORE.INTRA>
-2.23637

>  <SCORE.INTRA.DIHEDRAL>
-8.62893

>  <SCORE.INTRA.DIHEDRAL.0>
18.0069

>  <SCORE.INTRA.POLAR>
0

>  <SCORE.INTRA.POLAR.0>
0

>  <SCORE.INTRA.REPUL>
0

>  <SCORE.INTRA.REPUL.0>
0

>  <SCORE.INTRA.SOLV>
0.613334

>  <SCORE.INTRA.SOLV.lig_0>
-70.7393

>  <SCORE.INTRA.VDW>
1.77143

>  <SCORE.INTRA.VDW.0>
-3.23471

>  <SCORE.INTRA.norm>
-0.0657756

>  <SCORE.RESTR>
0

>  <SCORE.RESTR.CAVITY>
0

>  <SCORE.RESTR.norm>
0

>  <SCORE.SYSTEM>
0

>  <SCORE.SYSTEM.CONST>
0

>  <SCORE.SYSTEM.DIHEDRAL>
0

>  <SCORE.SYSTEM.SOLV>
0

>  <SCORE.SYSTEM.norm>
0

>  <SCORE.heavy>
34

>  <SCORE.norm>
-0.0451969

>  <RMSD>
5.406

$$$$
lig.pdb
 OpenBabel11021811503D
libRbt.so/2013.1/901 2013/11/27
 34 36  0  0  0  0  0  0  0  0999 V2000
   -1.7559   22.0355   34.5221 C   0  0  2  0  0  0  0  0  0  0  0  0
   -2.2544   20.7496   34.1371 O   0  0  0  0  0  0  0  0  0  0  0  0
   -2.1330   23.0821   33.3891 C   0  0  2  0  0  0  0  0  0  0  0  0
   -3.5988   23.1839   33.1992 N   0  0  0  0  0  0  0  0  0  0  0  0
   -1.4559   22.6672   32.0586 C   0  0  1  0  0  0  0  0  0  0  0  0
   -1.7786   23.6027   31.0269 O   0  0  0  0  0  0  0  0  0  0  0  0
    0.0641   22.5872   32.2865 C   0  0  2  0  0  0  0  0  0  0  0  0
    0.7017   22.2089   31.0656 O   0  0  0  0  0  0  0  0  0  0  0  0
    0.3759   21.5472   33.4300 C   0  0  2  0  0  0  0  0  0  0  0  0
   -0.3022   21.9314   34.6864 O   0  0  0  0  0  0  0  0  0  0  0  0
    1.8963   21.4440   33.7074 C   0  0  2  0  0  0  0  0  0  0  0  0
    2.5798   21.0467   32.5172 O   0  0  0  0  0  0  0  0  0  0  0  0
    2.1881   20.4252   34.7981 C   0  0  0  0  0  0  0  0  0  0  0  0
   -2.0759   16.7555   35.6640 C   0  0  2  0  0  0  0  0  0  0  0  0
   -1.5773   15.5344   36.3016 N   0  0  0  0  0  0  0  0  0  0  0  0
   -1.0403   17.1653   34.5808 C   0  0  0  0  0  0  0  0  0  0  0  0
   -1.5636   18.4461   33.8760 C   0  0  2  0  0  0  0  0  0  0  0  0
   -0.6139   18.8688   32.8348 N   0  0  0  0  0  0  0  0  0  0  0  0
   -1.7518   19.6027   34.8941 C   0  0  2  0  0  0  0  0  0  0  0  0
   -2.7604   19.1513   35.9971 C   0  0  2  0  0  0  0  0  0  0  0  0
   -2.9246   20.2164   36.9433 O   0  0  0  0  0  0  0  0  0  0  0  0
   -2.2334   17.9041   36.7474 C   0  0  1  0  0  0  0  0  0  0  0  0
   -3.2266   17.5454   37.7397 O   0  0  0  0  0  0  0  0  0  0  0  0
   -2.7615   16.7255   38.8375 C   0  0  2  0  0  0  0  0  0  0  0  0
   -3.7756   15.5269   38.9489 C   0  0  2  0  0  0  0  0  0  0  0  0
   -3.7744   14.7808   37.7420 O   0  0  0  0  0  0  0  0  0  0  0  0
   -5.2113   16.0977   39.2578 C   0  0  1  0  0  0  0  0  0  0  0  0
   -6.2117   14.9921   39.3625 N   0  0  0  0  0  0  0  0  0  0  0  0
   -6.8099   14.7603   38.0301 C   0  0  0  0  0  0  0  0  0  0  0  0
   -5.1482   16.8979   40.5944 C   0  0  2  0  0  0  0  0  0  0  0  0
   -4.7490   16.0123   41.6393 O   0  0  0  0  0  0  0  0  0  0  0  0
   -6.5044   17.4943   40.9627 C   0  0  0  0  0  0  0  0  0  0  0  0
   -4.0940   18.0428   40.4565 C   0  0  0  0  0  0  0  0  0  0  0  0
   -2.7678   17.4992   40.0953 O   0  0  0  0  0  0  0  0  0  0  0  0
  1  3  1  0  0  0  0
  1  2  1  6  0  0  0
  3  5  1  0  0  0  0
  3  4  1  6  0  0  0
  5  6  1  6  0  0  0
  7  8  1  6  0  0  0
  7  5  1  0  0  0  0
  9 10  1  1  0  0  0
  9  7  1  0  0  0  0
 10  1  1  0  0  0  0
 11 13  1  1  0  0  0
 11  9  1  0  0  0  0
 12 11  1  0  0  0  0
 14 15  1  1  0  0  0
 16 14  1  0  0  0  0
 17 18  1  6  0  0  0
 17 16  1  0  0  0  0
 19  2  1  6  0  0  0
 19 20  1  0  0  0  0
 19 17  1  0  0  0  0
 20 21  1  1  0  0  0
 20 22  1  0  0  0  0
 22 23  1  1  0  0  0
 22 14  1  0  0  0  0
 24 23  1  6  0  0  0
 24 25  1  0  0  0  0
 25 27  1  0  0  0  0
 25 26  1  6  0  0  0
 27 28  1  1  0  0  0
 28 29  1  0  0  0  0
 30 31  1  1  0  0  0
 30 32  1  0  0  0  0
 30 27  1  0  0  0  0
 33 30  1  0  0  0  0
 34 33  1  0  0  0  0
 34 24  1  0  0  0  0
M  END
>  <CHROM.1>
166.61562038,-58.98884145,-141.97316877,84.47854193,-130.14877397,-91.29945937
-2.25974674,19.02234994,35.95637542,1.00867440,0.54617431,-0.55068657

>  <Name>
lig.pdb

>  <RI>
0

>  <Rbt.Current_Directory>
/home/itssahil/PROJECTS/Mol_Feturizer/New_Systems/rnas/4k32

>  <Rbt.Executable>
rbdock ($Id: //depot/dev/client3/rdock/2013.1/src/exe/rbdock.cxx#4 $)

>  <Rbt.Library>
libRbt.so (2013.1, Build901 2013/11/27)

>  <Rbt.Parameter_File>
/export/apps/rDock/src/rDock_2013.1_src/data/scripts/dock_solv.prm

>  <Rbt.Receptor>
prm/pocket_docking_4.prm

>  <SCORE>
-4.04342

>  <SCORE.INTER>
-4.0365

>  <SCORE.INTER.CONST>
1

>  <SCORE.INTER.POLAR>
0

>  <SCORE.INTER.ROT>
6

>  <SCORE.INTER.SOLV>
18.9689

>  <SCORE.INTER.VDW>
-16.614

>  <SCORE.INTER.norm>
-0.11872

>  <SCORE.INTRA>
-0.0178883

>  <SCORE.INTRA.DIHEDRAL>
-2.14543

>  <SCORE.INTRA.DIHEDRAL.0>
18.0069

>  <SCORE.INTRA.POLAR>
0

>  <SCORE.INTRA.POLAR.0>
0

>  <SCORE.INTRA.REPUL>
0

>  <SCORE.INTRA.REPUL.0>
0

>  <SCORE.INTRA.SOLV>
2.79887

>  <SCORE.INTRA.SOLV.lig_0>
-70.7393

>  <SCORE.INTRA.VDW>
-0.344608

>  <SCORE.INTRA.VDW.0>
-3.23471

>  <SCORE.INTRA.norm>
-0.000526127

>  <SCORE.RESTR>
0.0109633

>  <SCORE.RESTR.CAVITY>
0.0109633

>  <SCORE.RESTR.norm>
0.000322449

>  <SCORE.SYSTEM>
0

>  <SCORE.SYSTEM.CONST>
0

>  <SCORE.SYSTEM.DIHEDRAL>
0

>  <SCORE.SYSTEM.SOLV>
0

>  <SCORE.SYSTEM.norm>
0

>  <SCORE.heavy>
34

>  <SCORE.norm>
-0.118924

>  <RMSD>
5.456

$$$$
lig.pdb
 OpenBabel11021811503D
libRbt.so/2013.1/901 2013/11/27
 34 36  0  0  0  0  0  0  0  0999 V2000
   -1.6524   20.2520   35.2347 C   0  0  2  0  0  0  0  0  0  0  0  0
   -2.2868   19.0853   34.6994 O   0  0  0  0  0  0  0  0  0  0  0  0
   -1.9018   21.4631   34.2385 C   0  0  2  0  0  0  0  0  0  0  0  0
   -3.3456   21.7490   34.0695 N   0  0  0  0  0  0  0  0  0  0  0  0
   -1.2633   21.1395   32.8643 C   0  0  1  0  0  0  0  0  0  0  0  0
   -1.4717   22.2227   31.9550 O   0  0  0  0  0  0  0  0  0  0  0  0
    0.2365   20.8646   33.0734 C   0  0  2  0  0  0  0  0  0  0  0  0
    0.8388   20.5683   31.8126 O   0  0  0  0  0  0  0  0  0  0  0  0
    0.4216   19.6660   34.0811 C   0  0  2  0  0  0  0  0  0  0  0  0
   -0.2207   19.9684   35.3781 O   0  0  0  0  0  0  0  0  0  0  0  0
    1.9187   19.3622   34.3366 C   0  0  2  0  0  0  0  0  0  0  0  0
    2.0487   18.4571   35.4345 O   0  0  0  0  0  0  0  0  0  0  0  0
    2.6898   20.6323   34.6606 C   0  0  0  0  0  0  0  0  0  0  0  0
   -1.2844   16.3705   37.8524 C   0  0  2  0  0  0  0  0  0  0  0  0
   -1.3943   15.3149   38.8623 N   0  0  0  0  0  0  0  0  0  0  0  0
   -2.4555   17.3625   38.0937 C   0  0  0  0  0  0  0  0  0  0  0  0
   -2.3421   18.5035   37.0467 C   0  0  2  0  0  0  0  0  0  0  0  0
   -3.4317   19.4728   37.2418 N   0  0  0  0  0  0  0  0  0  0  0  0
   -2.4134   17.9405   35.6018 C   0  0  2  0  0  0  0  0  0  0  0  0
   -1.2557   16.9129   35.3979 C   0  0  2  0  0  0  0  0  0  0  0  0
   -1.3295   16.3850   34.0665 O   0  0  0  0  0  0  0  0  0  0  0  0
   -1.3790   15.7392   36.3997 C   0  0  1  0  0  0  0  0  0  0  0  0
   -0.2679   14.8424   36.1529 O   0  0  0  0  0  0  0  0  0  0  0  0
   -0.4099   13.4974   36.6674 C   0  0  2  0  0  0  0  0  0  0  0  0
    0.9289   12.7495   36.3131 C   0  0  2  0  0  0  0  0  0  0  0  0
    2.0245   13.4018   36.9356 O   0  0  0  0  0  0  0  0  0  0  0  0
    1.1027   12.7246   34.7473 C   0  0  1  0  0  0  0  0  0  0  0  0
    2.3701   12.0307   34.3642 N   0  0  0  0  0  0  0  0  0  0  0  0
    3.5159   12.7976   34.8985 C   0  0  0  0  0  0  0  0  0  0  0  0
   -0.1244   11.9913   34.1251 C   0  0  2  0  0  0  0  0  0  0  0  0
   -0.1608   10.6555   34.6251 O   0  0  0  0  0  0  0  0  0  0  0  0
   -0.0368   11.9314   32.6022 C   0  0  0  0  0  0  0  0  0  0  0  0
   -1.4324   12.7358   34.5445 C   0  0  0  0  0  0  0  0  0  0  0  0
   -1.5464   12.8155   36.0160 O   0  0  0  0  0  0  0  0  0  0  0  0
  1  3  1  0  0  0  0
  1  2  1  6  0  0  0
  3  5  1  0  0  0  0
  3  4  1  6  0  0  0
  5  6  1  6  0  0  0
  7  8  1  6  0  0  0
  7  5  1  0  0  0  0
  9 10  1  1  0  0  0
  9  7  1  0  0  0  0
 10  1  1  0  0  0  0
 11 13  1  1  0  0  0
 11  9  1  0  0  0  0
 12 11  1  0  0  0  0
 14 15  1  1  0  0  0
 16 14  1  0  0  0  0
 17 18  1  1  0  0  0
 17 16  1  0  0  0  0
 19  2  1  6  0  0  0
 19 20  1  0  0  0  0
 19 17  1  0  0  0  0
 20 21  1  6  0  0  0
 20 22  1  0  0  0  0
 22 23  1  6  0  0  0
 22 14  1  0  0  0  0
 24 23  1  6  0  0  0
 24 25  1  0  0  0  0
 25 27  1  0  0  0  0
 25 26  1  1  0  0  0
 27 28  1  1  0  0  0
 28 29  1  0  0  0  0
 30 31  1  1  0  0  0
 30 32  1  0  0  0  0
 30 27  1  0  0  0  0
 33 30  1  0  0  0  0
 34 33  1  0  0  0  0
 34 24  1  0  0  0  0
M  END
>  <CHROM.1>
-167.43608032,168.93874096,22.71554232,82.70646329,-178.26135094,-63.33451594
-0.42087852,16.79792178,35.10502781,1.80182010,0.70448508,-0.29893776

>  <Name>
lig.pdb

>  <RI>
0

>  <Rbt.Current_Directory>
/home/itssahil/PROJECTS/Mol_Feturizer/New_Systems/rnas/4k32

>  <Rbt.Executable>
rbdock ($Id: //depot/dev/client3/rdock/2013.1/src/exe/rbdock.cxx#4 $)

>  <Rbt.Library>
libRbt.so (2013.1, Build901 2013/11/27)

>  <Rbt.Parameter_File>
/export/apps/rDock/src/rDock_2013.1_src/data/scripts/dock_solv.prm

>  <Rbt.Receptor>
prm/blind_docking_100.prm

>  <SCORE>
24.2367

>  <SCORE.INTER>
7.64128

>  <SCORE.INTER.CONST>
1

>  <SCORE.INTER.POLAR>
0

>  <SCORE.INTER.ROT>
6

>  <SCORE.INTER.SOLV>
27.8271

>  <SCORE.INTER.VDW>
-11.7815

>  <SCORE.INTER.norm>
0.224744

>  <SCORE.INTRA>
3.2668

>  <SCORE.INTRA.DIHEDRAL>
-9.57381

>  <SCORE.INTRA.DIHEDRAL.0>
18.0069

>  <SCORE.INTRA.POLAR>
0

>  <SCORE.INTRA.POLAR.0>
0

>  <SCORE.INTRA.REPUL>
0.00858052

>  <SCORE.INTRA.REPUL.0>
0

>  <SCORE.INTRA.SOLV>
0.04288

>  <SCORE.INTRA.SOLV.lig_0>
-70.7393

>  <SCORE.INTRA.VDW>
7.98936

>  <SCORE.INTRA.VDW.0>
-3.23471

>  <SCORE.INTRA.norm>
0.0960823

>  <SCORE.RESTR>
13.3286

>  <SCORE.RESTR.CAVITY>
13.3286

>  <SCORE.RESTR.norm>
0.392017

>  <SCORE.SYSTEM>
0

>  <SCORE.SYSTEM.CONST>
0

>  <SCORE.SYSTEM.DIHEDRAL>
0

>  <SCORE.SYSTEM.SOLV>
0

>  <SCORE.SYSTEM.norm>
0

>  <SCORE.heavy>
34

>  <SCORE.norm>
0.712843

>  <RMSD>
5.573

$$$$
lig.pdb
 OpenBabel11021811503D
libRbt.so/2013.1/901 2013/11/27
 34 36  0  0  0  0  0  0  0  0999 V2000
   -1.3223   20.7933   35.2037 C   0  0  2  0  0  0  0  0  0  0  0  0
   -0.6703   19.6216   35.7061 O   0  0  0  0  0  0  0  0  0  0  0  0
   -2.1254   20.3997   33.8917 C   0  0  2  0  0  0  0  0  0  0  0  0
   -3.1546   19.3696   34.1642 N   0  0  0  0  0  0  0  0  0  0  0  0
   -1.1352   19.8853   32.8166 C   0  0  1  0  0  0  0  0  0  0  0  0
   -1.8399   19.5322   31.6240 O   0  0  0  0  0  0  0  0  0  0  0  0
   -0.0917   20.9837   32.5460 C   0  0  2  0  0  0  0  0  0  0  0  0
    0.8262   20.5235   31.5529 O   0  0  0  0  0  0  0  0  0  0  0  0
    0.6607   21.3432   33.8843 C   0  0  2  0  0  0  0  0  0  0  0  0
   -0.2950   21.7996   34.9159 O   0  0  0  0  0  0  0  0  0  0  0  0
    1.7123   22.4590   33.6648 C   0  0  2  0  0  0  0  0  0  0  0  0
    2.5814   22.5346   34.7964 O   0  0  0  0  0  0  0  0  0  0  0  0
    1.0458   23.8124   33.4732 C   0  0  0  0  0  0  0  0  0  0  0  0
   -2.2760   16.0466   37.4257 C   0  0  2  0  0  0  0  0  0  0  0  0
   -3.1427   14.8902   37.6666 N   0  0  0  0  0  0  0  0  0  0  0  0
   -3.1873   17.3042   37.3830 C   0  0  0  0  0  0  0  0  0  0  0  0
   -2.2830   18.5451   37.1525 C   0  0  2  0  0  0  0  0  0  0  0  0
   -3.1059   19.7641   37.1105 N   0  0  0  0  0  0  0  0  0  0  0  0
   -1.4932   18.4173   35.8222 C   0  0  2  0  0  0  0  0  0  0  0  0
   -0.6207   17.1235   35.8702 C   0  0  2  0  0  0  0  0  0  0  0  0
    0.0997   17.0004   34.6363 O   0  0  0  0  0  0  0  0  0  0  0  0
   -1.5081   15.8677   36.0488 C   0  0  1  0  0  0  0  0  0  0  0  0
   -0.6263   14.7188   36.0947 O   0  0  0  0  0  0  0  0  0  0  0  0
    0.5725   14.8047   35.2890 C   0  0  2  0  0  0  0  0  0  0  0  0
    0.5388   13.5646   34.3203 C   0  0  2  0  0  0  0  0  0  0  0  0
   -0.6143   13.6282   33.4959 O   0  0  0  0  0  0  0  0  0  0  0  0
    0.5462   12.2436   35.1791 C   0  0  1  0  0  0  0  0  0  0  0  0
    0.5046   11.0367   34.2982 N   0  0  0  0  0  0  0  0  0  0  0  0
   -0.5339   10.1122   34.8017 C   0  0  0  0  0  0  0  0  0  0  0  0
    1.8364   12.2298   36.0542 C   0  0  2  0  0  0  0  0  0  0  0  0
    2.9735   12.2483   35.1928 O   0  0  0  0  0  0  0  0  0  0  0  0
    1.9160   10.9800   36.9272 C   0  0  0  0  0  0  0  0  0  0  0  0
    1.8539   13.5024   36.9605 C   0  0  0  0  0  0  0  0  0  0  0  0
    1.7734   14.7327   36.1454 O   0  0  0  0  0  0  0  0  0  0  0  0
  1  3  1  0  0  0  0
  1  2  1  6  0  0  0
  3  5  1  0  0  0  0
  3  4  1  1  0  0  0
  5  6  1  6  0  0  0
  7  8  1  6  0  0  0
  7  5  1  0  0  0  0
  9 10  1  1  0  0  0
  9  7  1  0  0  0  0
 10  1  1  0  0  0  0
 11 13  1  1  0  0  0
 11  9  1  0  0  0  0
 12 11  1  0  0  0  0
 14 15  1  6  0  0  0
 16 14  1  0  0  0  0
 17 18  1  6  0  0  0
 17 16  1  0  0  0  0
 19  2  1  1  0  0  0
 19 20  1  0  0  0  0
 19 17  1  0  0  0  0
 20 21  1  6  0  0  0
 20 22  1  0  0  0  0
 22 23  1  1  0  0  0
 22 14  1  0  0  0  0
 24 23  1  1  0  0  0
 24 25  1  0  0  0  0
 25 27  1  0  0  0  0
 25 26  1  1  0  0  0
 27 28  1  6  0  0  0
 28 29  1  0  0  0  0
 30 31  1  6  0  0  0
 30 32  1  0  0  0  0
 30 27  1  0  0  0  0
 33 30  1  0  0  0  0
 34 33  1  0  0  0  0
 34 24  1  0  0  0  0
M  END
>  <CHROM.1>
-48.36123518,-166.25410306,-81.56358460,-149.19312601,-123.00377731,-131.97147546
-0.27374157,17.11379242,35.03525810,1.68238347,0.55864199,-0.24357280

>  <Name>
lig.pdb

>  <RI>
0

>  <Rbt.Current_Directory>
/home/itssahil/PROJECTS/Mol_Feturizer/New_Systems/rnas/4k32

>  <Rbt.Executable>
rbdock ($Id: //depot/dev/client3/rdock/2013.1/src/exe/rbdock.cxx#4 $)

>  <Rbt.Library>
libRbt.so (2013.1, Build901 2013/11/27)

>  <Rbt.Parameter_File>
/export/apps/rDock/src/rDock_2013.1_src/data/scripts/dock_solv.prm

>  <Rbt.Receptor>
prm/blind_docking_100.prm

>  <SCORE>
40.9331

>  <SCORE.INTER>
14.986

>  <SCORE.INTER.CONST>
1

>  <SCORE.INTER.POLAR>
0

>  <SCORE.INTER.ROT>
6

>  <SCORE.INTER.SOLV>
26.7744

>  <SCORE.INTER.VDW>
-6.53415

>  <SCORE.INTER.norm>
0.440765

>  <SCORE.INTRA>
11.2513

>  <SCORE.INTRA.DIHEDRAL>
-2.61327

>  <SCORE.INTRA.DIHEDRAL.0>
18.0069

>  <SCORE.INTRA.POLAR>
0

>  <SCORE.INTRA.POLAR.0>
0

>  <SCORE.INTRA.REPUL>
0

>  <SCORE.INTRA.REPUL.0>
0

>  <SCORE.INTRA.SOLV>
2.62038

>  <SCORE.INTRA.SOLV.lig_0>
-70.7393

>  <SCORE.INTRA.VDW>
11.2478

>  <SCORE.INTRA.VDW.0>
-3.23471

>  <SCORE.INTRA.norm>
0.330921

>  <SCORE.RESTR>
14.6958

>  <SCORE.RESTR.CAVITY>
14.6958

>  <SCORE.RESTR.norm>
0.432228

>  <SCORE.SYSTEM>
0

>  <SCORE.SYSTEM.CONST>
0

>  <SCORE.SYSTEM.DIHEDRAL>
0

>  <SCORE.SYSTEM.SOLV>
0

>  <SCORE.SYSTEM.norm>
0

>  <SCORE.heavy>
34

>  <SCORE.norm>
1.20391

>  <RMSD>
5.589

$$$$
lig.pdb
 OpenBabel11021811503D
libRbt.so/2013.1/901 2013/11/27
 34 36  0  0  0  0  0  0  0  0999 V2000
   -0.5189   21.6607   33.4168 C   0  0  2  0  0  0  0  0  0  0  0  0
    0.0197   20.3397   33.2935 O   0  0  0  0  0  0  0  0  0  0  0  0
   -0.6931   22.2717   31.9616 C   0  0  2  0  0  0  0  0  0  0  0  0
   -1.6164   21.4633   31.1317 N   0  0  0  0  0  0  0  0  0  0  0  0
    0.6918   22.3645   31.2728 C   0  0  1  0  0  0  0  0  0  0  0  0
    0.5560   22.9196   29.9625 O   0  0  0  0  0  0  0  0  0  0  0  0
    1.6194   23.2229   32.1512 C   0  0  2  0  0  0  0  0  0  0  0  0
    2.8997   23.3198   31.5253 O   0  0  0  0  0  0  0  0  0  0  0  0
    1.7410   22.5773   33.5846 C   0  0  2  0  0  0  0  0  0  0  0  0
    0.4115   22.4601   34.2207 O   0  0  0  0  0  0  0  0  0  0  0  0
    2.6539   23.4171   34.5123 C   0  0  2  0  0  0  0  0  0  0  0  0
    2.7606   22.7841   35.7888 O   0  0  0  0  0  0  0  0  0  0  0  0
    2.0966   24.8182   34.7101 C   0  0  0  0  0  0  0  0  0  0  0  0
    0.5542   16.8930   35.7737 C   0  0  2  0  0  0  0  0  0  0  0  0
    0.7102   16.0473   36.9597 N   0  0  0  0  0  0  0  0  0  0  0  0
    1.6040   18.0335   35.8799 C   0  0  0  0  0  0  0  0  0  0  0  0
    1.4706   18.9282   34.6179 C   0  0  2  0  0  0  0  0  0  0  0  0
    2.4529   20.0222   34.6732 N   0  0  0  0  0  0  0  0  0  0  0  0
    0.0435   19.5296   34.5117 C   0  0  2  0  0  0  0  0  0  0  0  0
   -0.9963   18.3663   34.4527 C   0  0  2  0  0  0  0  0  0  0  0  0
   -2.3150   18.9231   34.3662 O   0  0  0  0  0  0  0  0  0  0  0  0
   -0.9150   17.4904   35.7265 C   0  0  1  0  0  0  0  0  0  0  0  0
   -1.8977   16.4346   35.5880 O   0  0  0  0  0  0  0  0  0  0  0  0
   -3.2840   16.8470   35.6280 C   0  0  2  0  0  0  0  0  0  0  0  0
   -3.5691   17.2806   37.1140 C   0  0  2  0  0  0  0  0  0  0  0  0
   -2.7230   18.3622   37.4711 O   0  0  0  0  0  0  0  0  0  0  0  0
   -3.3348   16.0442   38.0622 C   0  0  1  0  0  0  0  0  0  0  0  0
   -3.5849   16.4136   39.4889 N   0  0  0  0  0  0  0  0  0  0  0  0
   -2.2952   16.7505   40.1291 C   0  0  0  0  0  0  0  0  0  0  0  0
   -4.2951   14.8965   37.6247 C   0  0  2  0  0  0  0  0  0  0  0  0
   -5.6409   15.3520   37.7539 O   0  0  0  0  0  0  0  0  0  0  0  0
   -4.1241   13.6524   38.4926 C   0  0  0  0  0  0  0  0  0  0  0  0
   -4.0133   14.5346   36.1311 C   0  0  0  0  0  0  0  0  0  0  0  0
   -4.1660   15.7204   35.2622 O   0  0  0  0  0  0  0  0  0  0  0  0
  1  3  1  0  0  0  0
  1  2  1  6  0  0  0
  3  5  1  0  0  0  0
  3  4  1  6  0  0  0
  5  6  1  6  0  0  0
  7  8  1  6  0  0  0
  7  5  1  0  0  0  0
  9 10  1  1  0  0  0
  9  7  1  0  0  0  0
 10  1  1  0  0  0  0
 11 13  1  1  0  0  0
 11  9  1  0  0  0  0
 12 11  1  0  0  0  0
 14 15  1  1  0  0  0
 16 14  1  0  0  0  0
 17 18  1  1  0  0  0
 17 16  1  0  0  0  0
 19  2  1  6  0  0  0
 19 20  1  0  0  0  0
 19 17  1  0  0  0  0
 20 21  1  1  0  0  0
 20 22  1  0  0  0  0
 22 23  1  6  0  0  0
 22 14  1  0  0  0  0
 24 23  1  1  0  0  0
 24 25  1  0  0  0  0
 25 27  1  0  0  0  0
 25 26  1  1  0  0  0
 27 28  1  1  0  0  0
 28 29  1  0  0  0  0
 30 31  1  1  0  0  0
 30 32  1  0  0  0  0
 30 27  1  0  0  0  0
 33 30  1  0  0  0  0
 34 33  1  0  0  0  0
 34 24  1  0  0  0  0
M  END
>  <CHROM.1>
-170.12954146,-178.75458870,-131.62070946,175.79843464,-70.33120098,-96.25403969
-0.82634721,19.13792011,35.09589730,0.91417136,-0.60390292,-1.00505576

>  <Name>
lig.pdb

>  <RI>
0

>  <Rbt.Current_Directory>
/home/itssahil/PROJECTS/Mol_Feturizer/New_Systems/rnas/4k32

>  <Rbt.Executable>
rbdock ($Id: //depot/dev/client3/rdock/2013.1/src/exe/rbdock.cxx#4 $)

>  <Rbt.Library>
libRbt.so (2013.1, Build901 2013/11/27)

>  <Rbt.Parameter_File>
/export/apps/rDock/src/rDock_2013.1_src/data/scripts/dock_solv.prm

>  <Rbt.Receptor>
prm/pocket_docking_7.prm

>  <SCORE>
-8.73369

>  <SCORE.INTER>
-6.65947

>  <SCORE.INTER.CONST>
1

>  <SCORE.INTER.POLAR>
0

>  <SCORE.INTER.ROT>
6

>  <SCORE.INTER.SOLV>
18.5224

>  <SCORE.INTER.VDW>
-18.2138

>  <SCORE.INTER.norm>
-0.195867

>  <SCORE.INTRA>
-2.07422

>  <SCORE.INTRA.DIHEDRAL>
-9.51792

>  <SCORE.INTRA.DIHEDRAL.0>
18.0069

>  <SCORE.INTRA.POLAR>
0

>  <SCORE.INTRA.POLAR.0>
0

>  <SCORE.INTRA.REPUL>
0

>  <SCORE.INTRA.REPUL.0>
0

>  <SCORE.INTRA.SOLV>
1.34751

>  <SCORE.INTRA.SOLV.lig_0>
-70.7393

>  <SCORE.INTRA.VDW>
2.01098

>  <SCORE.INTRA.VDW.0>
-3.23471

>  <SCORE.INTRA.norm>
-0.0610066

>  <SCORE.RESTR>
0

>  <SCORE.RESTR.CAVITY>
0

>  <SCORE.RESTR.norm>
0

>  <SCORE.SYSTEM>
0

>  <SCORE.SYSTEM.CONST>
0

>  <SCORE.SYSTEM.DIHEDRAL>
0

>  <SCORE.SYSTEM.SOLV>
0

>  <SCORE.SYSTEM.norm>
0

>  <SCORE.heavy>
34

>  <SCORE.norm>
-0.256873

>  <RMSD>
5.614

$$$$
lig.pdb
 OpenBabel11021811503D
libRbt.so/2013.1/901 2013/11/27
 34 36  0  0  0  0  0  0  0  0999 V2000
   -2.3861   20.7539   35.1904 C   0  0  2  0  0  0  0  0  0  0  0  0
   -2.0700   20.2795   36.5039 O   0  0  0  0  0  0  0  0  0  0  0  0
   -2.5453   19.5017   34.2271 C   0  0  2  0  0  0  0  0  0  0  0  0
   -3.6305   18.5975   34.6740 N   0  0  0  0  0  0  0  0  0  0  0  0
   -1.2049   18.7268   34.1639 C   0  0  1  0  0  0  0  0  0  0  0  0
   -1.3268   17.5984   33.2947 O   0  0  0  0  0  0  0  0  0  0  0  0
   -0.1050   19.6891   33.6813 C   0  0  2  0  0  0  0  0  0  0  0  0
    1.1366   18.9859   33.6148 O   0  0  0  0  0  0  0  0  0  0  0  0
   -0.0043   20.9172   34.6652 C   0  0  2  0  0  0  0  0  0  0  0  0
   -1.2969   21.6301   34.7468 O   0  0  0  0  0  0  0  0  0  0  0  0
    1.0811   21.9243   34.2104 C   0  0  2  0  0  0  0  0  0  0  0  0
    1.0486   23.0819   35.0473 O   0  0  0  0  0  0  0  0  0  0  0  0
    0.8581   22.3597   32.7705 C   0  0  0  0  0  0  0  0  0  0  0  0
   -1.9236   16.5326   38.5667 C   0  0  2  0  0  0  0  0  0  0  0  0
   -2.0436   15.1012   38.8547 N   0  0  0  0  0  0  0  0  0  0  0  0
   -3.2999   17.0107   38.0272 C   0  0  0  0  0  0  0  0  0  0  0  0
   -3.2001   18.5331   37.7386 C   0  0  2  0  0  0  0  0  0  0  0  0
   -4.4871   19.0320   37.2291 N   0  0  0  0  0  0  0  0  0  0  0  0
   -2.0897   18.8290   36.6950 C   0  0  2  0  0  0  0  0  0  0  0  0
   -0.7255   18.2990   37.2387 C   0  0  2  0  0  0  0  0  0  0  0  0
    0.2975   18.5626   36.2689 O   0  0  0  0  0  0  0  0  0  0  0  0
   -0.7873   16.7720   37.4855 C   0  0  1  0  0  0  0  0  0  0  0  0
    0.5060   16.3645   37.9965 O   0  0  0  0  0  0  0  0  0  0  0  0
    1.5905   16.3443   37.0388 C   0  0  2  0  0  0  0  0  0  0  0  0
    1.0183   15.6563   35.7440 C   0  0  2  0  0  0  0  0  0  0  0  0
   -0.0713   16.4116   35.2383 O   0  0  0  0  0  0  0  0  0  0  0  0
    0.5703   14.1881   36.0995 C   0  0  1  0  0  0  0  0  0  0  0  0
    0.0093   13.4979   34.8981 N   0  0  0  0  0  0  0  0  0  0  0  0
   -1.3631   13.9938   34.6587 C   0  0  0  0  0  0  0  0  0  0  0  0
    1.8086   13.4106   36.6406 C   0  0  2  0  0  0  0  0  0  0  0  0
    2.8067   13.3741   35.6217 O   0  0  0  0  0  0  0  0  0  0  0  0
    1.4555   11.9741   37.0180 C   0  0  0  0  0  0  0  0  0  0  0  0
    2.3744   14.1557   37.8918 C   0  0  0  0  0  0  0  0  0  0  0  0
    2.7229   15.5536   37.5615 O   0  0  0  0  0  0  0  0  0  0  0  0
  1  3  1  0  0  0  0
  1  2  1  1  0  0  0
  3  5  1  0  0  0  0
  3  4  1  1  0  0  0
  5  6  1  6  0  0  0
  7  8  1  1  0  0  0
  7  5  1  0  0  0  0
  9 10  1  6  0  0  0
  9  7  1  0  0  0  0
 10  1  1  0  0  0  0
 11 13  1  6  0  0  0
 11  9  1  0  0  0  0
 12 11  1  0  0  0  0
 14 15  1  6  0  0  0
 16 14  1  0  0  0  0
 17 18  1  6  0  0  0
 17 16  1  0  0  0  0
 19  2  1  1  0  0  0
 19 20  1  0  0  0  0
 19 17  1  0  0  0  0
 20 21  1  6  0  0  0
 20 22  1  0  0  0  0
 22 23  1  1  0  0  0
 22 14  1  0  0  0  0
 24 23  1  1  0  0  0
 24 25  1  0  0  0  0
 25 27  1  0  0  0  0
 25 26  1  1  0  0  0
 27 28  1  6  0  0  0
 28 29  1  0  0  0  0
 30 31  1  6  0  0  0
 30 32  1  0  0  0  0
 30 27  1  0  0  0  0
 33 30  1  0  0  0  0
 34 33  1  0  0  0  0
 34 24  1  0  0  0  0
M  END
>  <CHROM.1>
-5.48442686,174.19209030,-117.37031046,171.03804927,-44.64960855,-76.91613481
-0.41071716,17.58878505,35.89744357,1.85940325,0.44225218,-0.41880610

>  <Name>
lig.pdb

>  <RI>
0

>  <Rbt.Current_Directory>
/home/itssahil/PROJECTS/Mol_Feturizer/New_Systems/rnas/4k32

>  <Rbt.Executable>
rbdock ($Id: //depot/dev/client3/rdock/2013.1/src/exe/rbdock.cxx#4 $)

>  <Rbt.Library>
libRbt.so (2013.1, Build901 2013/11/27)

>  <Rbt.Parameter_File>
/export/apps/rDock/src/rDock_2013.1_src/data/scripts/dock_solv.prm

>  <Rbt.Receptor>
prm/blind_docking_100.prm

>  <SCORE>
35.5844

>  <SCORE.INTER>
9.69521

>  <SCORE.INTER.CONST>
1

>  <SCORE.INTER.POLAR>
0

>  <SCORE.INTER.ROT>
6

>  <SCORE.INTER.SOLV>
28.8035

>  <SCORE.INTER.VDW>
-10.7377

>  <SCORE.INTER.norm>
0.285153

>  <SCORE.INTRA>
19.0135

>  <SCORE.INTRA.DIHEDRAL>
-1.90742

>  <SCORE.INTRA.DIHEDRAL.0>
18.0069

>  <SCORE.INTRA.POLAR>
0

>  <SCORE.INTRA.POLAR.0>
0

>  <SCORE.INTRA.REPUL>
0

>  <SCORE.INTRA.REPUL.0>
0

>  <SCORE.INTRA.SOLV>
6.79336

>  <SCORE.INTRA.SOLV.lig_0>
-70.7393

>  <SCORE.INTRA.VDW>
16.5706

>  <SCORE.INTRA.VDW.0>
-3.23471

>  <SCORE.INTRA.norm>
0.559222

>  <SCORE.RESTR>
6.87566

>  <SCORE.RESTR.CAVITY>
6.87566

>  <SCORE.RESTR.norm>
0.202225

>  <SCORE.SYSTEM>
0

>  <SCORE.SYSTEM.CONST>
0

>  <SCORE.SYSTEM.DIHEDRAL>
0

>  <SCORE.SYSTEM.SOLV>
0

>  <SCORE.SYSTEM.norm>
0

>  <SCORE.heavy>
34

>  <SCORE.norm>
1.0466

>  <RMSD>
5.620

$$$$
lig.pdb
 OpenBabel11021811503D
libRbt.so/2013.1/901 2013/11/27
 34 36  0  0  0  0  0  0  0  0999 V2000
   -1.7828   20.3846   35.2809 C   0  0  2  0  0  0  0  0  0  0  0  0
   -2.4798   19.2031   34.8703 O   0  0  0  0  0  0  0  0  0  0  0  0
   -2.0527   21.5264   34.2110 C   0  0  2  0  0  0  0  0  0  0  0  0
   -3.4949   21.8465   34.0991 N   0  0  0  0  0  0  0  0  0  0  0  0
   -1.5023   21.0812   32.8327 C   0  0  1  0  0  0  0  0  0  0  0  0
   -1.7301   22.1006   31.8567 O   0  0  0  0  0  0  0  0  0  0  0  0
   -0.0017   20.7731   32.9807 C   0  0  2  0  0  0  0  0  0  0  0  0
    0.5198   20.3646   31.7151 O   0  0  0  0  0  0  0  0  0  0  0  0
    0.2051   19.6467   34.0646 C   0  0  2  0  0  0  0  0  0  0  0  0
   -0.3541   20.0651   35.3678 O   0  0  0  0  0  0  0  0  0  0  0  0
    1.7048   19.3132   34.2611 C   0  0  2  0  0  0  0  0  0  0  0  0
    1.8622   18.4244   35.3687 O   0  0  0  0  0  0  0  0  0  0  0  0
    2.5171   20.5708   34.5285 C   0  0  0  0  0  0  0  0  0  0  0  0
   -1.6609   16.9966   38.4449 C   0  0  2  0  0  0  0  0  0  0  0  0
   -1.6560   15.9255   39.4442 N   0  0  0  0  0  0  0  0  0  0  0  0
   -3.1457   17.3028   38.1051 C   0  0  0  0  0  0  0  0  0  0  0  0
   -3.1726   18.4542   37.0637 C   0  0  2  0  0  0  0  0  0  0  0  0
   -4.5639   18.7825   36.7154 N   0  0  0  0  0  0  0  0  0  0  0  0
   -2.4052   18.0553   35.7747 C   0  0  2  0  0  0  0  0  0  0  0  0
   -0.9293   17.7081   36.1474 C   0  0  2  0  0  0  0  0  0  0  0  0
   -0.2243   17.3287   34.9576 O   0  0  0  0  0  0  0  0  0  0  0  0
   -0.8774   16.5275   37.1473 C   0  0  1  0  0  0  0  0  0  0  0  0
    0.5178   16.2776   37.4484 O   0  0  0  0  0  0  0  0  0  0  0  0
    1.3247   15.7787   36.3558 C   0  0  2  0  0  0  0  0  0  0  0  0
    0.5380   14.5557   35.7536 C   0  0  2  0  0  0  0  0  0  0  0  0
   -0.7272   14.9847   35.2756 O   0  0  0  0  0  0  0  0  0  0  0  0
    0.3761   13.4525   36.8668 C   0  0  1  0  0  0  0  0  0  0  0  0
   -0.3763   12.2729   36.3408 N   0  0  0  0  0  0  0  0  0  0  0  0
   -1.8238   12.5728   36.3789 C   0  0  0  0  0  0  0  0  0  0  0  0
    1.7957   13.0192   37.3439 C   0  0  2  0  0  0  0  0  0  0  0  0
    2.5064   12.4776   36.2316 O   0  0  0  0  0  0  0  0  0  0  0  0
    1.7266   11.9531   38.4343 C   0  0  0  0  0  0  0  0  0  0  0  0
    2.5585   14.2710   37.8844 C   0  0  0  0  0  0  0  0  0  0  0  0
    2.6396   15.3265   36.8529 O   0  0  0  0  0  0  0  0  0  0  0  0
  1  3  1  0  0  0  0
  1  2  1  6  0  0  0
  3  5  1  0  0  0  0
  3  4  1  6  0  0  0
  5  6  1  6  0  0  0
  7  8  1  6  0  0  0
  7  5  1  0  0  0  0
  9 10  1  1  0  0  0
  9  7  1  0  0  0  0
 10  1  1  0  0  0  0
 11 13  1  1  0  0  0
 11  9  1  0  0  0  0
 12 11  1  0  0  0  0
 14 15  1  1  0  0  0
 16 14  1  0  0  0  0
 17 18  1  6  0  0  0
 17 16  1  0  0  0  0
 19  2  1  6  0  0  0
 19 20  1  0  0  0  0
 19 17  1  0  0  0  0
 20 21  1  6  0  0  0
 20 22  1  0  0  0  0
 22 23  1  1  0  0  0
 22 14  1  0  0  0  0
 24 23  1  1  0  0  0
 24 25  1  0  0  0  0
 25 27  1  0  0  0  0
 25 26  1  1  0  0  0
 27 28  1  6  0  0  0
 28 29  1  0  0  0  0
 30 31  1  6  0  0  0
 30 32  1  0  0  0  0
 30 27  1  0  0  0  0
 33 30  1  0  0  0  0
 34 33  1  0  0  0  0
 34 24  1  0  0  0  0
M  END
>  <CHROM.1>
-176.95827637,172.31984286,66.86747034,177.04691603,-50.48695735,-81.00730038
-0.38144003,17.32565174,35.74989376,1.85392472,0.38274682,-0.54950399

>  <Name>
lig.pdb

>  <RI>
0

>  <Rbt.Current_Directory>
/home/itssahil/PROJECTS/Mol_Feturizer/New_Systems/rnas/4k32

>  <Rbt.Executable>
rbdock ($Id: //depot/dev/client3/rdock/2013.1/src/exe/rbdock.cxx#4 $)

>  <Rbt.Library>
libRbt.so (2013.1, Build901 2013/11/27)

>  <Rbt.Parameter_File>
/export/apps/rDock/src/rDock_2013.1_src/data/scripts/dock_solv.prm

>  <Rbt.Receptor>
prm/blind_docking_100.prm

>  <SCORE>
26.2729

>  <SCORE.INTER>
11.475

>  <SCORE.INTER.CONST>
1

>  <SCORE.INTER.POLAR>
0

>  <SCORE.INTER.ROT>
6

>  <SCORE.INTER.SOLV>
26.5455

>  <SCORE.INTER.VDW>
-8.79851

>  <SCORE.INTER.norm>
0.337499

>  <SCORE.INTRA>
4.84404

>  <SCORE.INTRA.DIHEDRAL>
-16.6491

>  <SCORE.INTRA.DIHEDRAL.0>
18.0069

>  <SCORE.INTRA.POLAR>
0

>  <SCORE.INTRA.POLAR.0>
0

>  <SCORE.INTRA.REPUL>
0

>  <SCORE.INTRA.REPUL.0>
0

>  <SCORE.INTRA.SOLV>
0.693014

>  <SCORE.INTRA.SOLV.lig_0>
-70.7393

>  <SCORE.INTRA.VDW>
12.8221

>  <SCORE.INTRA.VDW.0>
-3.23471

>  <SCORE.INTRA.norm>
0.142472

>  <SCORE.RESTR>
9.95387

>  <SCORE.RESTR.CAVITY>
9.95387

>  <SCORE.RESTR.norm>
0.292761

>  <SCORE.SYSTEM>
0

>  <SCORE.SYSTEM.CONST>
0

>  <SCORE.SYSTEM.DIHEDRAL>
0

>  <SCORE.SYSTEM.SOLV>
0

>  <SCORE.SYSTEM.norm>
0

>  <SCORE.heavy>
34

>  <SCORE.norm>
0.772732

>  <RMSD>
5.626

$$$$
lig.pdb
 OpenBabel11021811503D
libRbt.so/2013.1/901 2013/11/27
 34 36  0  0  0  0  0  0  0  0999 V2000
   -3.4560   16.2735   39.7248 C   0  0  2  0  0  0  0  0  0  0  0  0
   -3.7914   15.4757   40.8655 O   0  0  0  0  0  0  0  0  0  0  0  0
   -2.3752   17.3508   40.1634 C   0  0  2  0  0  0  0  0  0  0  0  0
   -1.1378   16.7141   40.6718 N   0  0  0  0  0  0  0  0  0  0  0  0
   -2.9796   18.2733   41.2518 C   0  0  1  0  0  0  0  0  0  0  0  0
   -2.0223   19.2554   41.6548 O   0  0  0  0  0  0  0  0  0  0  0  0
   -4.2514   18.9301   40.6862 C   0  0  2  0  0  0  0  0  0  0  0  0
   -4.8174   19.7870   41.6790 O   0  0  0  0  0  0  0  0  0  0  0  0
   -5.2784   17.8143   40.2540 C   0  0  2  0  0  0  0  0  0  0  0  0
   -4.6818   16.9174   39.2414 O   0  0  0  0  0  0  0  0  0  0  0  0
   -6.5712   18.4283   39.6617 C   0  0  2  0  0  0  0  0  0  0  0  0
   -6.2351   19.4460   38.7167 O   0  0  0  0  0  0  0  0  0  0  0  0
   -7.4365   19.0435   40.7505 C   0  0  0  0  0  0  0  0  0  0  0  0
   -5.7843   11.6884   40.8996 C   0  0  2  0  0  0  0  0  0  0  0  0
   -6.8428   10.6766   40.8537 N   0  0  0  0  0  0  0  0  0  0  0  0
   -6.1916   12.7325   41.9756 C   0  0  0  0  0  0  0  0  0  0  0  0
   -5.0687   13.8019   42.0565 C   0  0  2  0  0  0  0  0  0  0  0  0
   -5.4105   14.8117   43.0706 N   0  0  0  0  0  0  0  0  0  0  0  0
   -4.8697   14.5031   40.6859 C   0  0  2  0  0  0  0  0  0  0  0  0
   -4.5067   13.4291   39.6124 C   0  0  2  0  0  0  0  0  0  0  0  0
   -4.3343   14.0765   38.3444 O   0  0  0  0  0  0  0  0  0  0  0  0
   -5.6372   12.3801   39.4792 C   0  0  1  0  0  0  0  0  0  0  0  0
   -5.2194   11.4197   38.4778 O   0  0  0  0  0  0  0  0  0  0  0  0
   -6.2771   10.6695   37.8359 C   0  0  2  0  0  0  0  0  0  0  0  0
   -5.5708    9.7074   36.8097 C   0  0  2  0  0  0  0  0  0  0  0  0
   -4.6923    8.8306   37.4972 O   0  0  0  0  0  0  0  0  0  0  0  0
   -4.7890   10.5733   35.7505 C   0  0  1  0  0  0  0  0  0  0  0  0
   -4.0923    9.6983   34.7589 N   0  0  0  0  0  0  0  0  0  0  0  0
   -2.7028    9.4734   35.2122 C   0  0  0  0  0  0  0  0  0  0  0  0
   -5.8065   11.5068   35.0269 C   0  0  2  0  0  0  0  0  0  0  0  0
   -6.7770   10.6984   34.3633 O   0  0  0  0  0  0  0  0  0  0  0  0
   -5.1243   12.3898   33.9851 C   0  0  0  0  0  0  0  0  0  0  0  0
   -6.5204   12.4056   36.0869 C   0  0  0  0  0  0  0  0  0  0  0  0
   -7.1888   11.5805   37.1151 O   0  0  0  0  0  0  0  0  0  0  0  0
  1  3  1  0  0  0  0
  1  2  1  1  0  0  0
  3  5  1  0  0  0  0
  3  4  1  1  0  0  0
  5  6  1  6  0  0  0
  7  8  1  1  0  0  0
  7  5  1  0  0  0  0
  9 10  1  6  0  0  0
  9  7  1  0  0  0  0
 10  1  1  0  0  0  0
 11 13  1  1  0  0  0
 11  9  1  0  0  0  0
 12 11  1  0  0  0  0
 14 15  1  6  0  0  0
 16 14  1  0  0  0  0
 17 18  1  1  0  0  0
 17 16  1  0  0  0  0
 19  2  1  1  0  0  0
 19 20  1  0  0  0  0
 19 17  1  0  0  0  0
 20 21  1  6  0  0  0
 20 22  1  0  0  0  0
 22 23  1  6  0  0  0
 22 14  1  0  0  0  0
 24 23  1  6  0  0  0
 24 25  1  0  0  0  0
 25 27  1  0  0  0  0
 25 26  1  1  0  0  0
 27 28  1  6  0  0  0
 28 29  1  0  0  0  0
 30 31  1  6  0  0  0
 30 32  1  0  0  0  0
 30 27  1  0  0  0  0
 33 30  1  0  0  0  0
 34 33  1  0  0  0  0
 34 24  1  0  0  0  0
M  END
>  <CHROM.1>
174.50978244,46.64063284,-178.42742316,86.35668774,-179.83533928,-93.98905733
-4.95645896,14.16071493,38.95221749,-0.74481366,-1.42147923,-1.78050208

>  <Name>
lig.pdb

>  <RI>
0

>  <Rbt.Current_Directory>
/home/itssahil/PROJECTS/Mol_Feturizer/New_Systems/rnas/4k32

>  <Rbt.Executable>
rbdock ($Id: //depot/dev/client3/rdock/2013.1/src/exe/rbdock.cxx#4 $)

>  <Rbt.Library>
libRbt.so (2013.1, Build901 2013/11/27)

>  <Rbt.Parameter_File>
/export/apps/rDock/src/rDock_2013.1_src/data/scripts/dock_solv.prm

>  <Rbt.Receptor>
prm/pocket_docking_8.prm

>  <SCORE>
-10.4858

>  <SCORE.INTER>
-3.84579

>  <SCORE.INTER.CONST>
1

>  <SCORE.INTER.POLAR>
0

>  <SCORE.INTER.ROT>
6

>  <SCORE.INTER.SOLV>
19.3623

>  <SCORE.INTER.VDW>
-16.618

>  <SCORE.INTER.norm>
-0.113112

>  <SCORE.INTRA>
-6.64004

>  <SCORE.INTRA.DIHEDRAL>
-13.5601

>  <SCORE.INTRA.DIHEDRAL.0>
18.0069

>  <SCORE.INTRA.POLAR>
0

>  <SCORE.INTRA.POLAR.0>
0

>  <SCORE.INTRA.REPUL>
0

>  <SCORE.INTRA.REPUL.0>
0

>  <SCORE.INTRA.SOLV>
-1.91903

>  <SCORE.INTRA.SOLV.lig_0>
-70.7393

>  <SCORE.INTRA.VDW>
1.09952

>  <SCORE.INTRA.VDW.0>
-3.23471

>  <SCORE.INTRA.norm>
-0.195295

>  <SCORE.RESTR>
0

>  <SCORE.RESTR.CAVITY>
0

>  <SCORE.RESTR.norm>
0

>  <SCORE.SYSTEM>
0

>  <SCORE.SYSTEM.CONST>
0

>  <SCORE.SYSTEM.DIHEDRAL>
0

>  <SCORE.SYSTEM.SOLV>
0

>  <SCORE.SYSTEM.norm>
0

>  <SCORE.heavy>
34

>  <SCORE.norm>
-0.308407

>  <RMSD>
5.733

$$$$
lig.pdb
 OpenBabel11021811503D
libRbt.so/2013.1/901 2013/11/27
 34 36  0  0  0  0  0  0  0  0999 V2000
   -2.1135   20.7389   35.2357 C   0  0  2  0  0  0  0  0  0  0  0  0
   -3.0123   19.6843   34.8747 O   0  0  0  0  0  0  0  0  0  0  0  0
   -2.1283   21.8305   34.0827 C   0  0  2  0  0  0  0  0  0  0  0  0
   -3.4784   22.4093   33.8896 N   0  0  0  0  0  0  0  0  0  0  0  0
   -1.6343   21.1904   32.7610 C   0  0  1  0  0  0  0  0  0  0  0  0
   -1.6340   22.1610   31.7115 O   0  0  0  0  0  0  0  0  0  0  0  0
   -0.2257   20.6149   32.9918 C   0  0  2  0  0  0  0  0  0  0  0  0
    0.2438   20.0244   31.7788 O   0  0  0  0  0  0  0  0  0  0  0  0
   -0.2702   19.5514   34.1551 C   0  0  2  0  0  0  0  0  0  0  0  0
   -0.7758   20.1615   35.4033 O   0  0  0  0  0  0  0  0  0  0  0  0
    1.1313   18.9548   34.4359 C   0  0  2  0  0  0  0  0  0  0  0  0
    1.2019   18.4999   35.7886 O   0  0  0  0  0  0  0  0  0  0  0  0
    2.2236   19.9894   34.2139 C   0  0  0  0  0  0  0  0  0  0  0  0
   -2.0521   17.0344   38.0953 C   0  0  2  0  0  0  0  0  0  0  0  0
   -2.1933   16.0578   39.1782 N   0  0  0  0  0  0  0  0  0  0  0  0
   -3.0604   18.1826   38.3762 C   0  0  0  0  0  0  0  0  0  0  0  0
   -2.9086   19.2412   37.2505 C   0  0  2  0  0  0  0  0  0  0  0  0
   -3.8438   20.3538   37.4795 N   0  0  0  0  0  0  0  0  0  0  0  0
   -3.1917   18.6159   35.8582 C   0  0  2  0  0  0  0  0  0  0  0  0
   -2.1976   17.4362   35.6180 C   0  0  2  0  0  0  0  0  0  0  0  0
   -2.4676   16.8520   34.3364 O   0  0  0  0  0  0  0  0  0  0  0  0
   -2.3675   16.3441   36.7018 C   0  0  1  0  0  0  0  0  0  0  0  0
   -1.4072   15.2976   36.4147 O   0  0  0  0  0  0  0  0  0  0  0  0
   -0.1551   15.7266   35.8299 C   0  0  2  0  0  0  0  0  0  0  0  0
    0.5673   14.4190   35.3342 C   0  0  2  0  0  0  0  0  0  0  0  0
   -0.2326   13.7658   34.3611 O   0  0  0  0  0  0  0  0  0  0  0  0
    0.8307   13.4792   36.5712 C   0  0  1  0  0  0  0  0  0  0  0  0
    1.5082   12.2169   36.1448 N   0  0  0  0  0  0  0  0  0  0  0  0
    2.6083   12.5543   35.2160 C   0  0  0  0  0  0  0  0  0  0  0  0
    1.7174   14.2488   37.5969 C   0  0  2  0  0  0  0  0  0  0  0  0
    2.9571   14.5790   36.9727 O   0  0  0  0  0  0  0  0  0  0  0  0
    2.0131   13.4063   38.8352 C   0  0  0  0  0  0  0  0  0  0  0  0
    0.9864   15.5628   38.0212 C   0  0  0  0  0  0  0  0  0  0  0  0
    0.6808   16.4014   36.8431 O   0  0  0  0  0  0  0  0  0  0  0  0
  1  3  1  0  0  0  0
  1  2  1  6  0  0  0
  3  5  1  0  0  0  0
  3  4  1  6  0  0  0
  5  6  1  6  0  0  0
  7  8  1  6  0  0  0
  7  5  1  0  0  0  0
  9 10  1  1  0  0  0
  9  7  1  0  0  0  0
 10  1  1  0  0  0  0
 11 13  1  1  0  0  0
 11  9  1  0  0  0  0
 12 11  1  0  0  0  0
 14 15  1  1  0  0  0
 16 14  1  0  0  0  0
 17 18  1  1  0  0  0
 17 16  1  0  0  0  0
 19  2  1  6  0  0  0
 19 20  1  0  0  0  0
 19 17  1  0  0  0  0
 20 21  1  6  0  0  0
 20 22  1  0  0  0  0
 22 23  1  6  0  0  0
 22 14  1  0  0  0  0
 24 23  1  1  0  0  0
 24 25  1  0  0  0  0
 25 27  1  0  0  0  0
 25 26  1  6  0  0  0
 27 28  1  6  0  0  0
 28 29  1  0  0  0  0
 30 31  1  6  0  0  0
 30 32  1  0  0  0  0
 30 27  1  0  0  0  0
 33 30  1  0  0  0  0
 34 33  1  0  0  0  0
 34 24  1  0  0  0  0
M  END
>  <CHROM.1>
-176.59596553,154.11098892,26.93792815,-82.97270556,-168.10749172,45.49515430
-0.63387453,17.56358082,35.62791886,2.05298995,0.63752548,-0.68726023

>  <Name>
lig.pdb

>  <RI>
0

>  <Rbt.Current_Directory>
/home/itssahil/PROJECTS/Mol_Feturizer/New_Systems/rnas/4k32

>  <Rbt.Executable>
rbdock ($Id: //depot/dev/client3/rdock/2013.1/src/exe/rbdock.cxx#4 $)

>  <Rbt.Library>
libRbt.so (2013.1, Build901 2013/11/27)

>  <Rbt.Parameter_File>
/export/apps/rDock/src/rDock_2013.1_src/data/scripts/dock_solv.prm

>  <Rbt.Receptor>
prm/blind_docking_100.prm

>  <SCORE>
24.2459

>  <SCORE.INTER>
6.8205

>  <SCORE.INTER.CONST>
1

>  <SCORE.INTER.POLAR>
0

>  <SCORE.INTER.ROT>
6

>  <SCORE.INTER.SOLV>
29.7326

>  <SCORE.INTER.VDW>
-12.9639

>  <SCORE.INTER.norm>
0.200603

>  <SCORE.INTRA>
11.0463

>  <SCORE.INTRA.DIHEDRAL>
-8.50627

>  <SCORE.INTRA.DIHEDRAL.0>
18.0069

>  <SCORE.INTRA.POLAR>
0

>  <SCORE.INTRA.POLAR.0>
0

>  <SCORE.INTRA.REPUL>
0.433219

>  <SCORE.INTRA.REPUL.0>
0

>  <SCORE.INTRA.SOLV>
1.27795

>  <SCORE.INTRA.SOLV.lig_0>
-70.7393

>  <SCORE.INTRA.VDW>
12.4944

>  <SCORE.INTRA.VDW.0>
-3.23471

>  <SCORE.INTRA.norm>
0.324892

>  <SCORE.RESTR>
6.37913

>  <SCORE.RESTR.CAVITY>
6.37913

>  <SCORE.RESTR.norm>
0.187621

>  <SCORE.SYSTEM>
0

>  <SCORE.SYSTEM.CONST>
0

>  <SCORE.SYSTEM.DIHEDRAL>
0

>  <SCORE.SYSTEM.SOLV>
0

>  <SCORE.SYSTEM.norm>
0

>  <SCORE.heavy>
34

>  <SCORE.norm>
0.713116

>  <RMSD>
5.774

$$$$
lig.pdb
 OpenBabel11021811503D
libRbt.so/2013.1/901 2013/11/27
 34 36  0  0  0  0  0  0  0  0999 V2000
   -3.6542   17.0788   36.3008 C   0  0  2  0  0  0  0  0  0  0  0  0
   -3.3032   16.7449   37.6482 O   0  0  0  0  0  0  0  0  0  0  0  0
   -3.5484   15.7670   35.4125 C   0  0  2  0  0  0  0  0  0  0  0  0
   -4.4654   14.7047   35.8875 N   0  0  0  0  0  0  0  0  0  0  0  0
   -2.0878   15.2499   35.4294 C   0  0  1  0  0  0  0  0  0  0  0  0
   -1.9712   14.0717   34.6284 O   0  0  0  0  0  0  0  0  0  0  0  0
   -1.1657   16.3698   34.9156 C   0  0  2  0  0  0  0  0  0  0  0  0
    0.1849   15.9048   34.9224 O   0  0  0  0  0  0  0  0  0  0  0  0
   -1.3252   17.6484   35.8245 C   0  0  2  0  0  0  0  0  0  0  0  0
   -2.7283   18.1145   35.8309 O   0  0  0  0  0  0  0  0  0  0  0  0
   -0.4265   18.8112   35.3353 C   0  0  2  0  0  0  0  0  0  0  0  0
   -0.5430   18.9500   33.9180 O   0  0  0  0  0  0  0  0  0  0  0  0
    1.0333   18.5602   35.6801 C   0  0  0  0  0  0  0  0  0  0  0  0
   -4.8202   18.2147   41.3704 C   0  0  2  0  0  0  0  0  0  0  0  0
   -5.1176   19.1094   42.4916 N   0  0  0  0  0  0  0  0  0  0  0  0
   -3.2828   18.2490   41.1489 C   0  0  0  0  0  0  0  0  0  0  0  0
   -2.9445   17.2867   39.9782 C   0  0  2  0  0  0  0  0  0  0  0  0
   -1.4932   17.2830   39.7360 N   0  0  0  0  0  0  0  0  0  0  0  0
   -3.6770   17.7145   38.6782 C   0  0  2  0  0  0  0  0  0  0  0  0
   -5.2165   17.7169   38.9383 C   0  0  2  0  0  0  0  0  0  0  0  0
   -5.8916   18.1232   37.7401 O   0  0  0  0  0  0  0  0  0  0  0  0
   -5.5820   18.7089   40.0691 C   0  0  1  0  0  0  0  0  0  0  0  0
   -7.0176   18.6425   40.2545 O   0  0  0  0  0  0  0  0  0  0  0  0
   -7.5737   17.3203   40.4446 C   0  0  2  0  0  0  0  0  0  0  0  0
   -9.1325   17.4746   40.2900 C   0  0  2  0  0  0  0  0  0  0  0  0
   -9.4426   17.9575   38.9923 O   0  0  0  0  0  0  0  0  0  0  0  0
   -9.6622   18.4596   41.4000 C   0  0  1  0  0  0  0  0  0  0  0  0
  -11.1410   18.6445   41.2847 N   0  0  0  0  0  0  0  0  0  0  0  0
  -11.4110   19.9273   40.6005 C   0  0  0  0  0  0  0  0  0  0  0  0
   -9.2982   17.8718   42.7973 C   0  0  2  0  0  0  0  0  0  0  0  0
   -9.9340   16.6024   42.9393 O   0  0  0  0  0  0  0  0  0  0  0  0
   -9.7714   18.7752   43.9332 C   0  0  0  0  0  0  0  0  0  0  0  0
   -7.7494   17.6868   42.8873 C   0  0  0  0  0  0  0  0  0  0  0  0
   -7.2566   16.8190   41.7970 O   0  0  0  0  0  0  0  0  0  0  0  0
  1  3  1  0  0  0  0
  1  2  1  1  0  0  0
  3  5  1  0  0  0  0
  3  4  1  1  0  0  0
  5  6  1  6  0  0  0
  7  8  1  1  0  0  0
  7  5  1  0  0  0  0
  9 10  1  6  0  0  0
  9  7  1  0  0  0  0
 10  1  1  0  0  0  0
 11 13  1  6  0  0  0
 11  9  1  0  0  0  0
 12 11  1  0  0  0  0
 14 15  1  1  0  0  0
 16 14  1  0  0  0  0
 17 18  1  6  0  0  0
 17 16  1  0  0  0  0
 19  2  1  6  0  0  0
 19 20  1  0  0  0  0
 19 17  1  0  0  0  0
 20 21  1  6  0  0  0
 20 22  1  0  0  0  0
 22 23  1  1  0  0  0
 22 14  1  0  0  0  0
 24 23  1  1  0  0  0
 24 25  1  0  0  0  0
 25 27  1  0  0  0  0
 25 26  1  6  0  0  0
 27 28  1  1  0  0  0
 28 29  1  0  0  0  0
 30 31  1  1  0  0  0
 30 32  1  0  0  0  0
 30 27  1  0  0  0  0
 33 30  1  0  0  0  0
 34 33  1  0  0  0  0
 34 24  1  0  0  0  0
M  END
>  <CHROM.1>
-164.20064926,45.84274445,-168.44988252,-64.26194314,-167.34175520,-100.59925375
-5.04440417,17.54368415,38.78027221,0.67418871,-0.12636157,-1.92346318

>  <Name>
lig.pdb

>  <RI>
0

>  <Rbt.Current_Directory>
/home/itssahil/PROJECTS/Mol_Feturizer/New_Systems/rnas/4k32

>  <Rbt.Executable>
rbdock ($Id: //depot/dev/client3/rdock/2013.1/src/exe/rbdock.cxx#4 $)

>  <Rbt.Library>
libRbt.so (2013.1, Build901 2013/11/27)

>  <Rbt.Parameter_File>
/export/apps/rDock/src/rDock_2013.1_src/data/scripts/dock_solv.prm

>  <Rbt.Receptor>
prm/pocket_docking_7.prm

>  <SCORE>
-8.57064

>  <SCORE.INTER>
-3.26926

>  <SCORE.INTER.CONST>
1

>  <SCORE.INTER.POLAR>
0

>  <SCORE.INTER.ROT>
6

>  <SCORE.INTER.SOLV>
12.749

>  <SCORE.INTER.VDW>
-14.0292

>  <SCORE.INTER.norm>
-0.0961547

>  <SCORE.INTRA>
-5.30138

>  <SCORE.INTRA.DIHEDRAL>
-13.6825

>  <SCORE.INTRA.DIHEDRAL.0>
18.0069

>  <SCORE.INTRA.POLAR>
0

>  <SCORE.INTRA.POLAR.0>
0

>  <SCORE.INTRA.REPUL>
0

>  <SCORE.INTRA.REPUL.0>
0

>  <SCORE.INTRA.SOLV>
-0.186272

>  <SCORE.INTRA.SOLV.lig_0>
-70.7393

>  <SCORE.INTRA.VDW>
1.63299

>  <SCORE.INTRA.VDW.0>
-3.23471

>  <SCORE.INTRA.norm>
-0.155923

>  <SCORE.RESTR>
0

>  <SCORE.RESTR.CAVITY>
0

>  <SCORE.RESTR.norm>
0

>  <SCORE.SYSTEM>
0

>  <SCORE.SYSTEM.CONST>
0

>  <SCORE.SYSTEM.DIHEDRAL>
0

>  <SCORE.SYSTEM.SOLV>
0

>  <SCORE.SYSTEM.norm>
0

>  <SCORE.heavy>
34

>  <SCORE.norm>
-0.252078

>  <RMSD>
5.783

$$$$
lig.pdb
 OpenBabel11021811503D
libRbt.so/2013.1/901 2013/11/27
 34 36  0  0  0  0  0  0  0  0999 V2000
   -3.5723   16.3085   39.7184 C   0  0  2  0  0  0  0  0  0  0  0  0
   -3.8704   15.4988   40.8612 O   0  0  0  0  0  0  0  0  0  0  0  0
   -2.5549   17.4456   40.1580 C   0  0  2  0  0  0  0  0  0  0  0  0
   -1.2876   16.8802   40.6769 N   0  0  0  0  0  0  0  0  0  0  0  0
   -3.2159   18.3386   41.2381 C   0  0  1  0  0  0  0  0  0  0  0  0
   -2.3165   19.3738   41.6418 O   0  0  0  0  0  0  0  0  0  0  0  0
   -4.5183   18.9218   40.6617 C   0  0  2  0  0  0  0  0  0  0  0  0
   -5.1367   19.7511   41.6468 O   0  0  0  0  0  0  0  0  0  0  0  0
   -5.4798   17.7493   40.2291 C   0  0  2  0  0  0  0  0  0  0  0  0
   -4.8286   16.8817   39.2246 O   0  0  0  0  0  0  0  0  0  0  0  0
   -6.8007   18.2885   39.6260 C   0  0  2  0  0  0  0  0  0  0  0  0
   -7.6917   17.2029   39.3631 O   0  0  0  0  0  0  0  0  0  0  0  0
   -6.5468   19.0342   38.3251 C   0  0  0  0  0  0  0  0  0  0  0  0
   -5.7483   11.6532   40.8914 C   0  0  2  0  0  0  0  0  0  0  0  0
   -6.7769   10.6106   40.8556 N   0  0  0  0  0  0  0  0  0  0  0  0
   -6.1633   12.6721   41.9884 C   0  0  0  0  0  0  0  0  0  0  0  0
   -5.0713   13.7738   42.0585 C   0  0  2  0  0  0  0  0  0  0  0  0
   -5.4211   14.7611   43.0918 N   0  0  0  0  0  0  0  0  0  0  0  0
   -4.9228   14.4964   40.6927 C   0  0  2  0  0  0  0  0  0  0  0  0
   -4.5511   13.4463   39.5987 C   0  0  2  0  0  0  0  0  0  0  0  0
   -4.4255   14.1131   38.3353 O   0  0  0  0  0  0  0  0  0  0  0  0
   -5.6525   12.3653   39.4767 C   0  0  1  0  0  0  0  0  0  0  0  0
   -5.2278   11.4295   38.4551 O   0  0  0  0  0  0  0  0  0  0  0  0
   -6.2771   10.6609   37.8211 C   0  0  2  0  0  0  0  0  0  0  0  0
   -5.5605    9.7004   36.8005 C   0  0  2  0  0  0  0  0  0  0  0  0
   -4.6693    8.8402   37.4926 O   0  0  0  0  0  0  0  0  0  0  0  0
   -4.7923   10.5684   35.7332 C   0  0  1  0  0  0  0  0  0  0  0  0
   -4.0864    9.6952   34.7466 N   0  0  0  0  0  0  0  0  0  0  0  0
   -2.6620    9.5934   35.1306 C   0  0  0  0  0  0  0  0  0  0  0  0
   -5.8234   11.4832   35.0049 C   0  0  2  0  0  0  0  0  0  0  0  0
   -6.7847   10.6574   34.3496 O   0  0  0  0  0  0  0  0  0  0  0  0
   -5.1549   12.3672   33.9551 C   0  0  0  0  0  0  0  0  0  0  0  0
   -6.5466   12.3805   36.0599 C   0  0  0  0  0  0  0  0  0  0  0  0
   -7.2021   11.5546   37.0956 O   0  0  0  0  0  0  0  0  0  0  0  0
  1  3  1  0  0  0  0
  1  2  1  1  0  0  0
  3  5  1  0  0  0  0
  3  4  1  1  0  0  0
  5  6  1  6  0  0  0
  7  8  1  1  0  0  0
  7  5  1  0  0  0  0
  9 10  1  6  0  0  0
  9  7  1  0  0  0  0
 10  1  1  0  0  0  0
 11 13  1  6  0  0  0
 11  9  1  0  0  0  0
 12 11  1  0  0  0  0
 14 15  1  6  0  0  0
 16 14  1  0  0  0  0
 17 18  1  1  0  0  0
 17 16  1  0  0  0  0
 19  2  1  1  0  0  0
 19 20  1  0  0  0  0
 19 17  1  0  0  0  0
 20 21  1  6  0  0  0
 20 22  1  0  0  0  0
 22 23  1  6  0  0  0
 22 14  1  0  0  0  0
 24 23  1  6  0  0  0
 24 25  1  0  0  0  0
 25 27  1  0  0  0  0
 25 26  1  1  0  0  0
 27 28  1  6  0  0  0
 28 29  1  0  0  0  0
 30 31  1  6  0  0  0
 30 32  1  0  0  0  0
 30 27  1  0  0  0  0
 33 30  1  0  0  0  0
 34 33  1  0  0  0  0
 34 24  1  0  0  0  0
M  END
>  <CHROM.1>
172.60269882,-174.63862706,-179.16595804,86.70406216,-178.17812442,-99.15724374
-5.04567530,14.08658905,38.88519770,-0.26257565,-1.46058874,-1.28432258

>  <Name>
lig.pdb

>  <RI>
0

>  <Rbt.Current_Directory>
/home/itssahil/PROJECTS/Mol_Feturizer/New_Systems/rnas/4k32

>  <Rbt.Executable>
rbdock ($Id: //depot/dev/client3/rdock/2013.1/src/exe/rbdock.cxx#4 $)

>  <Rbt.Library>
libRbt.so (2013.1, Build901 2013/11/27)

>  <Rbt.Parameter_File>
/export/apps/rDock/src/rDock_2013.1_src/data/scripts/dock_solv.prm

>  <Rbt.Receptor>
prm/pocket_docking_8.prm

>  <SCORE>
-12.1042

>  <SCORE.INTER>
-5.03112

>  <SCORE.INTER.CONST>
1

>  <SCORE.INTER.POLAR>
0

>  <SCORE.INTER.ROT>
6

>  <SCORE.INTER.SOLV>
19.033

>  <SCORE.INTER.VDW>
-17.2984

>  <SCORE.INTER.norm>
-0.147974

>  <SCORE.INTRA>
-7.0731

>  <SCORE.INTRA.DIHEDRAL>
-13.7194

>  <SCORE.INTRA.DIHEDRAL.0>
18.0069

>  <SCORE.INTRA.POLAR>
0

>  <SCORE.INTRA.POLAR.0>
0

>  <SCORE.INTRA.REPUL>
0

>  <SCORE.INTRA.REPUL.0>
0

>  <SCORE.INTRA.SOLV>
-2.31191

>  <SCORE.INTRA.SOLV.lig_0>
-70.7393

>  <SCORE.INTRA.VDW>
0.942539

>  <SCORE.INTRA.VDW.0>
-3.23471

>  <SCORE.INTRA.norm>
-0.208032

>  <SCORE.RESTR>
0

>  <SCORE.RESTR.CAVITY>
0

>  <SCORE.RESTR.norm>
0

>  <SCORE.SYSTEM>
0

>  <SCORE.SYSTEM.CONST>
0

>  <SCORE.SYSTEM.DIHEDRAL>
0

>  <SCORE.SYSTEM.SOLV>
0

>  <SCORE.SYSTEM.norm>
0

>  <SCORE.heavy>
34

>  <SCORE.norm>
-0.356006

>  <RMSD>
5.783

$$$$
lig.pdb
 OpenBabel11021811503D
libRbt.so/2013.1/901 2013/11/27
 34 36  0  0  0  0  0  0  0  0999 V2000
   -3.1044   15.8752   39.0074 C   0  0  2  0  0  0  0  0  0  0  0  0
   -3.9631   14.9445   39.6757 O   0  0  0  0  0  0  0  0  0  0  0  0
   -2.0559   16.4380   40.0586 C   0  0  2  0  0  0  0  0  0  0  0  0
   -1.2207   15.3587   40.6353 N   0  0  0  0  0  0  0  0  0  0  0  0
   -2.8092   17.1836   41.1888 C   0  0  1  0  0  0  0  0  0  0  0  0
   -1.8801   17.7041   42.1425 O   0  0  0  0  0  0  0  0  0  0  0  0
   -3.6521   18.3062   40.5581 C   0  0  2  0  0  0  0  0  0  0  0  0
   -4.3497   19.0049   41.5904 O   0  0  0  0  0  0  0  0  0  0  0  0
   -4.6610   17.6906   39.5142 C   0  0  2  0  0  0  0  0  0  0  0  0
   -3.9362   16.9513   38.4587 O   0  0  0  0  0  0  0  0  0  0  0  0
   -5.5222   18.7869   38.8391 C   0  0  2  0  0  0  0  0  0  0  0  0
   -6.4047   19.3695   39.8001 O   0  0  0  0  0  0  0  0  0  0  0  0
   -6.3532   18.2111   37.7031 C   0  0  0  0  0  0  0  0  0  0  0  0
   -6.0455   11.5856   38.0332 C   0  0  2  0  0  0  0  0  0  0  0  0
   -7.0356   10.7857   37.3078 N   0  0  0  0  0  0  0  0  0  0  0  0
   -6.8264   12.5250   38.9933 C   0  0  0  0  0  0  0  0  0  0  0  0
   -5.7918   13.3652   39.7900 C   0  0  2  0  0  0  0  0  0  0  0  0
   -6.4888   14.2684   40.7191 N   0  0  0  0  0  0  0  0  0  0  0  0
   -4.9033   14.2047   38.8333 C   0  0  2  0  0  0  0  0  0  0  0  0
   -4.1648   13.2435   37.8492 C   0  0  2  0  0  0  0  0  0  0  0  0
   -3.3532   14.0209   36.9585 O   0  0  0  0  0  0  0  0  0  0  0  0
   -5.1794   12.4317   37.0078 C   0  0  1  0  0  0  0  0  0  0  0  0
   -4.4177   11.5618   36.1342 O   0  0  0  0  0  0  0  0  0  0  0  0
   -5.1843   10.7871   35.1825 C   0  0  2  0  0  0  0  0  0  0  0  0
   -4.1408    9.9296   34.3744 C   0  0  2  0  0  0  0  0  0  0  0  0
   -3.4373    9.0695   35.2567 O   0  0  0  0  0  0  0  0  0  0  0  0
   -3.1516   10.9002   33.6245 C   0  0  1  0  0  0  0  0  0  0  0  0
   -2.1336   10.1270   32.8497 N   0  0  0  0  0  0  0  0  0  0  0  0
   -0.8354   10.2061   33.5532 C   0  0  0  0  0  0  0  0  0  0  0  0
   -3.9814   11.8105   32.6689 C   0  0  2  0  0  0  0  0  0  0  0  0
   -4.6542   10.9843   31.7200 O   0  0  0  0  0  0  0  0  0  0  0  0
   -3.0935   12.7911   31.9070 C   0  0  0  0  0  0  0  0  0  0  0  0
   -5.0373   12.6024   33.5048 C   0  0  0  0  0  0  0  0  0  0  0  0
   -5.9124   11.6812   34.2599 O   0  0  0  0  0  0  0  0  0  0  0  0
  1  3  1  0  0  0  0
  1  2  1  1  0  0  0
  3  5  1  0  0  0  0
  3  4  1  1  0  0  0
  5  6  1  1  0  0  0
  7  8  1  1  0  0  0
  7  5  1  0  0  0  0
  9 10  1  6  0  0  0
  9  7  1  0  0  0  0
 10  1  1  0  0  0  0
 11 13  1  6  0  0  0
 11  9  1  0  0  0  0
 12 11  1  0  0  0  0
 14 15  1  6  0  0  0
 16 14  1  0  0  0  0
 17 18  1  1  0  0  0
 17 16  1  0  0  0  0
 19  2  1  1  0  0  0
 19 20  1  0  0  0  0
 19 17  1  0  0  0  0
 20 21  1  6  0  0  0
 20 22  1  0  0  0  0
 22 23  1  6  0  0  0
 22 14  1  0  0  0  0
 24 23  1  1  0  0  0
 24 25  1  0  0  0  0
 25 27  1  0  0  0  0
 25 26  1  1  0  0  0
 27 28  1  6  0  0  0
 28 29  1  0  0  0  0
 30 31  1  6  0  0  0
 30 32  1  0  0  0  0
 30 27  1  0  0  0  0
 33 30  1  0  0  0  0
 34 33  1  0  0  0  0
 34 24  1  0  0  0  0
M  END
>  <CHROM.1>
-173.33777306,-67.56250806,-175.25970300,68.59365815,-179.55014151,-105.92835023
-4.27764510,13.98189285,37.33244134,-1.59986711,-0.43609607,-2.37712112

>  <Name>
lig.pdb

>  <RI>
0

>  <Rbt.Current_Directory>
/home/itssahil/PROJECTS/Mol_Feturizer/New_Systems/rnas/4k32

>  <Rbt.Executable>
rbdock ($Id: //depot/dev/client3/rdock/2013.1/src/exe/rbdock.cxx#4 $)

>  <Rbt.Library>
libRbt.so (2013.1, Build901 2013/11/27)

>  <Rbt.Parameter_File>
/export/apps/rDock/src/rDock_2013.1_src/data/scripts/dock_solv.prm

>  <Rbt.Receptor>
prm/pocket_docking_6.prm

>  <SCORE>
-7.69669

>  <SCORE.INTER>
0.362595

>  <SCORE.INTER.CONST>
1

>  <SCORE.INTER.POLAR>
0

>  <SCORE.INTER.ROT>
6

>  <SCORE.INTER.SOLV>
10.2282

>  <SCORE.INTER.VDW>
-10.7677

>  <SCORE.INTER.norm>
0.0106646

>  <SCORE.INTRA>
-8.05929

>  <SCORE.INTRA.DIHEDRAL>
-16.0122

>  <SCORE.INTRA.DIHEDRAL.0>
18.0069

>  <SCORE.INTRA.POLAR>
0

>  <SCORE.INTRA.POLAR.0>
0

>  <SCORE.INTRA.REPUL>
0

>  <SCORE.INTRA.REPUL.0>
0

>  <SCORE.INTRA.SOLV>
-1.71984

>  <SCORE.INTRA.SOLV.lig_0>
-70.7393

>  <SCORE.INTRA.VDW>
0.806748

>  <SCORE.INTRA.VDW.0>
-3.23471

>  <SCORE.INTRA.norm>
-0.237038

>  <SCORE.RESTR>
0

>  <SCORE.RESTR.CAVITY>
0

>  <SCORE.RESTR.norm>
0

>  <SCORE.SYSTEM>
0

>  <SCORE.SYSTEM.CONST>
0

>  <SCORE.SYSTEM.DIHEDRAL>
0

>  <SCORE.SYSTEM.SOLV>
0

>  <SCORE.SYSTEM.norm>
0

>  <SCORE.heavy>
34

>  <SCORE.norm>
-0.226373

>  <RMSD>
5.867

$$$$
lig.pdb
 OpenBabel11021811503D
libRbt.so/2013.1/901 2013/11/27
 34 36  0  0  0  0  0  0  0  0999 V2000
   -1.8241   20.7199   35.1239 C   0  0  2  0  0  0  0  0  0  0  0  0
   -2.6022   19.5982   34.6919 O   0  0  0  0  0  0  0  0  0  0  0  0
   -1.9387   21.8643   34.0291 C   0  0  2  0  0  0  0  0  0  0  0  0
   -3.3395   22.3085   33.8413 N   0  0  0  0  0  0  0  0  0  0  0  0
   -1.3629   21.3510   32.6853 C   0  0  1  0  0  0  0  0  0  0  0  0
   -1.4511   22.3712   31.6878 O   0  0  0  0  0  0  0  0  0  0  0  0
    0.0953   20.9142   32.9120 C   0  0  2  0  0  0  0  0  0  0  0  0
    0.6401   20.4418   31.6789 O   0  0  0  0  0  0  0  0  0  0  0  0
    0.1477   19.7909   34.0174 C   0  0  2  0  0  0  0  0  0  0  0  0
   -0.4354   20.2771   35.2860 O   0  0  0  0  0  0  0  0  0  0  0  0
    1.6005   19.3296   34.2927 C   0  0  2  0  0  0  0  0  0  0  0  0
    1.6922   18.7771   35.6072 O   0  0  0  0  0  0  0  0  0  0  0  0
    2.5758   20.4916   34.1853 C   0  0  0  0  0  0  0  0  0  0  0  0
   -1.9155   17.0429   38.0557 C   0  0  2  0  0  0  0  0  0  0  0  0
   -2.1488   16.1044   39.1562 N   0  0  0  0  0  0  0  0  0  0  0  0
   -2.9232   18.2130   38.2269 C   0  0  0  0  0  0  0  0  0  0  0  0
   -2.6751   19.2320   37.0819 C   0  0  2  0  0  0  0  0  0  0  0  0
   -3.6067   20.3639   37.2077 N   0  0  0  0  0  0  0  0  0  0  0  0
   -2.8680   18.5652   35.6935 C   0  0  2  0  0  0  0  0  0  0  0  0
   -1.8778   17.3651   35.5629 C   0  0  2  0  0  0  0  0  0  0  0  0
   -2.0648   16.7428   34.2845 O   0  0  0  0  0  0  0  0  0  0  0  0
   -2.1416   16.3115   36.6659 C   0  0  1  0  0  0  0  0  0  0  0  0
   -1.1796   15.2435   36.4818 O   0  0  0  0  0  0  0  0  0  0  0  0
    0.0464   15.6021   35.8022 C   0  0  2  0  0  0  0  0  0  0  0  0
    1.0441   14.4083   36.0401 C   0  0  2  0  0  0  0  0  0  0  0  0
    0.5075   13.2150   35.4910 O   0  0  0  0  0  0  0  0  0  0  0  0
    1.2975   14.2531   37.5875 C   0  0  1  0  0  0  0  0  0  0  0  0
    2.2343   13.1211   37.8618 N   0  0  0  0  0  0  0  0  0  0  0  0
    1.7684   12.3947   39.0626 C   0  0  0  0  0  0  0  0  0  0  0  0
    1.8916   15.5894   38.1277 C   0  0  2  0  0  0  0  0  0  0  0  0
    3.1279   15.8425   37.4621 O   0  0  0  0  0  0  0  0  0  0  0  0
    2.1594   15.5249   39.6292 C   0  0  0  0  0  0  0  0  0  0  0  0
    0.8940   16.7530   37.8243 C   0  0  0  0  0  0  0  0  0  0  0  0
    0.6090   16.8407   36.3767 O   0  0  0  0  0  0  0  0  0  0  0  0
  1  3  1  0  0  0  0
  1  2  1  6  0  0  0
  3  5  1  0  0  0  0
  3  4  1  6  0  0  0
  5  6  1  6  0  0  0
  7  8  1  6  0  0  0
  7  5  1  0  0  0  0
  9 10  1  1  0  0  0
  9  7  1  0  0  0  0
 10  1  1  0  0  0  0
 11 13  1  1  0  0  0
 11  9  1  0  0  0  0
 12 11  1  0  0  0  0
 14 15  1  1  0  0  0
 16 14  1  0  0  0  0
 17 18  1  1  0  0  0
 17 16  1  0  0  0  0
 19  2  1  6  0  0  0
 19 20  1  0  0  0  0
 19 17  1  0  0  0  0
 20 21  1  6  0  0  0
 20 22  1  0  0  0  0
 22 23  1  6  0  0  0
 22 14  1  0  0  0  0
 24 23  1  1  0  0  0
 24 25  1  0  0  0  0
 25 27  1  0  0  0  0
 25 26  1  1  0  0  0
 27 28  1  6  0  0  0
 28 29  1  0  0  0  0
 30 31  1  6  0  0  0
 30 32  1  0  0  0  0
 30 27  1  0  0  0  0
 33 30  1  0  0  0  0
 34 33  1  0  0  0  0
 34 24  1  0  0  0  0
M  END
>  <CHROM.1>
-166.70907377,155.78244369,20.90818093,-91.35564264,166.33858994,-140.27062836
-0.37983354,17.83974625,35.84990574,1.90304453,0.38190215,-0.69120325

>  <Name>
lig.pdb

>  <RI>
0

>  <Rbt.Current_Directory>
/home/itssahil/PROJECTS/Mol_Feturizer/New_Systems/rnas/4k32

>  <Rbt.Executable>
rbdock ($Id: //depot/dev/client3/rdock/2013.1/src/exe/rbdock.cxx#4 $)

>  <Rbt.Library>
libRbt.so (2013.1, Build901 2013/11/27)

>  <Rbt.Parameter_File>
/export/apps/rDock/src/rDock_2013.1_src/data/scripts/dock_solv.prm

>  <Rbt.Receptor>
prm/blind_docking_100.prm

>  <SCORE>
21.3933

>  <SCORE.INTER>
1.35413

>  <SCORE.INTER.CONST>
1

>  <SCORE.INTER.POLAR>
0

>  <SCORE.INTER.ROT>
6

>  <SCORE.INTER.SOLV>
28.6865

>  <SCORE.INTER.VDW>
-16.2594

>  <SCORE.INTER.norm>
0.0398274

>  <SCORE.INTRA>
11.962

>  <SCORE.INTRA.DIHEDRAL>
-4.41636

>  <SCORE.INTRA.DIHEDRAL.0>
18.0069

>  <SCORE.INTRA.POLAR>
0

>  <SCORE.INTRA.POLAR.0>
0

>  <SCORE.INTRA.REPUL>
0.206817

>  <SCORE.INTRA.REPUL.0>
0

>  <SCORE.INTRA.SOLV>
2.00385

>  <SCORE.INTRA.SOLV.lig_0>
-70.7393

>  <SCORE.INTRA.VDW>
12.1341

>  <SCORE.INTRA.VDW.0>
-3.23471

>  <SCORE.INTRA.norm>
0.351823

>  <SCORE.RESTR>
8.07715

>  <SCORE.RESTR.CAVITY>
8.07715

>  <SCORE.RESTR.norm>
0.237563

>  <SCORE.SYSTEM>
0

>  <SCORE.SYSTEM.CONST>
0

>  <SCORE.SYSTEM.DIHEDRAL>
0

>  <SCORE.SYSTEM.SOLV>
0

>  <SCORE.SYSTEM.norm>
0

>  <SCORE.heavy>
34

>  <SCORE.norm>
0.629213

>  <RMSD>
5.905

$$$$
lig.pdb
 OpenBabel11021811503D
libRbt.so/2013.1/901 2013/11/27
 34 36  0  0  0  0  0  0  0  0999 V2000
   -2.0660   22.5519   34.8388 C   0  0  2  0  0  0  0  0  0  0  0  0
   -2.2371   21.3674   34.0526 O   0  0  0  0  0  0  0  0  0  0  0  0
   -2.6271   23.7884   34.0157 C   0  0  2  0  0  0  0  0  0  0  0  0
   -4.0675   23.6349   33.7046 N   0  0  0  0  0  0  0  0  0  0  0  0
   -1.8173   23.9442   32.7039 C   0  0  1  0  0  0  0  0  0  0  0  0
   -2.3041   25.0581   31.9518 O   0  0  0  0  0  0  0  0  0  0  0  0
   -0.3310   24.1178   33.0634 C   0  0  2  0  0  0  0  0  0  0  0  0
    0.4274   24.2665   31.8621 O   0  0  0  0  0  0  0  0  0  0  0  0
    0.1647   22.8707   33.8912 C   0  0  2  0  0  0  0  0  0  0  0  0
   -0.6359   22.7084   35.1236 O   0  0  0  0  0  0  0  0  0  0  0  0
    1.6548   23.0079   34.2913 C   0  0  2  0  0  0  0  0  0  0  0  0
    2.4650   23.0977   33.1178 O   0  0  0  0  0  0  0  0  0  0  0  0
    2.1165   21.8122   35.1098 C   0  0  0  0  0  0  0  0  0  0  0  0
   -1.8759   17.1839   34.8799 C   0  0  2  0  0  0  0  0  0  0  0  0
   -1.3214   15.8957   35.3033 N   0  0  0  0  0  0  0  0  0  0  0  0
   -0.8626   17.8175   33.8871 C   0  0  0  0  0  0  0  0  0  0  0  0
   -1.4447   19.1748   33.4075 C   0  0  2  0  0  0  0  0  0  0  0  0
   -0.5176   19.8101   32.4579 N   0  0  0  0  0  0  0  0  0  0  0  0
   -1.6816   20.1322   34.6063 C   0  0  2  0  0  0  0  0  0  0  0  0
   -2.6660   19.4554   35.6116 C   0  0  2  0  0  0  0  0  0  0  0  0
   -2.8752   20.3359   36.7241 O   0  0  0  0  0  0  0  0  0  0  0  0
   -2.0817   18.1236   36.1418 C   0  0  1  0  0  0  0  0  0  0  0  0
   -3.0552   17.5577   37.0538 O   0  0  0  0  0  0  0  0  0  0  0  0
   -2.9046   17.9164   38.4475 C   0  0  2  0  0  0  0  0  0  0  0  0
   -3.4330   16.6867   39.2757 C   0  0  2  0  0  0  0  0  0  0  0  0
   -2.6586   15.5359   38.9769 O   0  0  0  0  0  0  0  0  0  0  0  0
   -4.9517   16.4503   38.9291 C   0  0  1  0  0  0  0  0  0  0  0  0
   -5.4944   15.2821   39.6875 N   0  0  0  0  0  0  0  0  0  0  0  0
   -5.8225   14.2020   38.7322 C   0  0  0  0  0  0  0  0  0  0  0  0
   -5.7473   17.7428   39.2853 C   0  0  2  0  0  0  0  0  0  0  0  0
   -5.6078   17.9952   40.6826 O   0  0  0  0  0  0  0  0  0  0  0  0
   -7.2339   17.5987   38.9698 C   0  0  0  0  0  0  0  0  0  0  0  0
   -5.1567   18.9455   38.4816 C   0  0  0  0  0  0  0  0  0  0  0  0
   -3.7147   19.1106   38.7611 O   0  0  0  0  0  0  0  0  0  0  0  0
  1  3  1  0  0  0  0
  1  2  1  6  0  0  0
  3  5  1  0  0  0  0
  3  4  1  6  0  0  0
  5  6  1  1  0  0  0
  7  8  1  6  0  0  0
  7  5  1  0  0  0  0
  9 10  1  1  0  0  0
  9  7  1  0  0  0  0
 10  1  1  0  0  0  0
 11 13  1  6  0  0  0
 11  9  1  0  0  0  0
 12 11  1  0  0  0  0
 14 15  1  1  0  0  0
 16 14  1  0  0  0  0
 17 18  1  6  0  0  0
 17 16  1  0  0  0  0
 19  2  1  6  0  0  0
 19 20  1  0  0  0  0
 19 17  1  0  0  0  0
 20 21  1  1  0  0  0
 20 22  1  0  0  0  0
 22 23  1  1  0  0  0
 22 14  1  0  0  0  0
 24 23  1  6  0  0  0
 24 25  1  0  0  0  0
 25 27  1  0  0  0  0
 25 26  1  6  0  0  0
 27 28  1  1  0  0  0
 28 29  1  0  0  0  0
 30 31  1  1  0  0  0
 30 32  1  0  0  0  0
 30 27  1  0  0  0  0
 33 30  1  0  0  0  0
 34 33  1  0  0  0  0
 34 24  1  0  0  0  0
M  END
>  <CHROM.1>
175.42608295,-60.76124572,-156.77773756,152.23938033,-149.00306996,-113.35000859
-2.35812600,19.87387494,35.83694778,1.01176567,0.54778738,-0.39668710

>  <Name>
lig.pdb

>  <RI>
0

>  <Rbt.Current_Directory>
/home/itssahil/PROJECTS/Mol_Feturizer/New_Systems/rnas/4k32

>  <Rbt.Executable>
rbdock ($Id: //depot/dev/client3/rdock/2013.1/src/exe/rbdock.cxx#4 $)

>  <Rbt.Library>
libRbt.so (2013.1, Build901 2013/11/27)

>  <Rbt.Parameter_File>
/export/apps/rDock/src/rDock_2013.1_src/data/scripts/dock_solv.prm

>  <Rbt.Receptor>
prm/pocket_docking_5.prm

>  <SCORE>
-8.24495

>  <SCORE.INTER>
-3.86062

>  <SCORE.INTER.CONST>
1

>  <SCORE.INTER.POLAR>
0

>  <SCORE.INTER.ROT>
6

>  <SCORE.INTER.SOLV>
21.6843

>  <SCORE.INTER.VDW>
-17.4018

>  <SCORE.INTER.norm>
-0.113548

>  <SCORE.INTRA>
-4.38433

>  <SCORE.INTRA.DIHEDRAL>
-7.40379

>  <SCORE.INTRA.DIHEDRAL.0>
18.0069

>  <SCORE.INTRA.POLAR>
0

>  <SCORE.INTRA.POLAR.0>
0

>  <SCORE.INTRA.REPUL>
0

>  <SCORE.INTRA.REPUL.0>
0

>  <SCORE.INTRA.SOLV>
-1.10752

>  <SCORE.INTRA.SOLV.lig_0>
-70.7393

>  <SCORE.INTRA.VDW>
-0.12868

>  <SCORE.INTRA.VDW.0>
-3.23471

>  <SCORE.INTRA.norm>
-0.128951

>  <SCORE.RESTR>
0

>  <SCORE.RESTR.CAVITY>
0

>  <SCORE.RESTR.norm>
0

>  <SCORE.SYSTEM>
0

>  <SCORE.SYSTEM.CONST>
0

>  <SCORE.SYSTEM.DIHEDRAL>
0

>  <SCORE.SYSTEM.SOLV>
0

>  <SCORE.SYSTEM.norm>
0

>  <SCORE.heavy>
34

>  <SCORE.norm>
-0.242499

>  <RMSD>
5.910

$$$$
lig.pdb
 OpenBabel11021811503D
libRbt.so/2013.1/901 2013/11/27
 34 36  0  0  0  0  0  0  0  0999 V2000
   -2.5902   19.7865   34.5576 C   0  0  2  0  0  0  0  0  0  0  0  0
   -2.0750   19.2314   35.7728 O   0  0  0  0  0  0  0  0  0  0  0  0
   -1.4596   19.7021   33.4459 C   0  0  2  0  0  0  0  0  0  0  0  0
   -1.0465   18.3034   33.1855 N   0  0  0  0  0  0  0  0  0  0  0  0
   -0.2348   20.5398   33.8922 C   0  0  1  0  0  0  0  0  0  0  0  0
    0.7922   20.4816   32.8995 O   0  0  0  0  0  0  0  0  0  0  0  0
   -0.6949   21.9879   34.1377 C   0  0  2  0  0  0  0  0  0  0  0  0
    0.4264   22.7728   34.5465 O   0  0  0  0  0  0  0  0  0  0  0  0
   -1.8259   22.0071   35.2362 C   0  0  2  0  0  0  0  0  0  0  0  0
   -2.9759   21.1772   34.8183 O   0  0  0  0  0  0  0  0  0  0  0  0
   -2.3338   23.4452   35.5062 C   0  0  2  0  0  0  0  0  0  0  0  0
   -3.1460   23.4592   36.6817 O   0  0  0  0  0  0  0  0  0  0  0  0
   -3.1594   23.9646   34.3395 C   0  0  0  0  0  0  0  0  0  0  0  0
   -2.6931   15.6341   38.0076 C   0  0  2  0  0  0  0  0  0  0  0  0
   -3.0995   14.2713   38.3594 N   0  0  0  0  0  0  0  0  0  0  0  0
   -3.9430   16.3523   37.4280 C   0  0  0  0  0  0  0  0  0  0  0  0
   -3.5380   17.8082   37.0711 C   0  0  2  0  0  0  0  0  0  0  0  0
   -4.6965   18.5302   36.5219 N   0  0  0  0  0  0  0  0  0  0  0  0
   -2.3867   17.8251   36.0301 C   0  0  2  0  0  0  0  0  0  0  0  0
   -1.1590   17.0588   36.6161 C   0  0  2  0  0  0  0  0  0  0  0  0
   -0.1000   17.0651   35.6491 O   0  0  0  0  0  0  0  0  0  0  0  0
   -1.5275   15.5889   36.9320 C   0  0  1  0  0  0  0  0  0  0  0  0
   -0.3446   14.9550   37.4786 O   0  0  0  0  0  0  0  0  0  0  0  0
    0.8913   15.1921   36.7645 C   0  0  2  0  0  0  0  0  0  0  0  0
    1.8502   14.0024   37.1421 C   0  0  2  0  0  0  0  0  0  0  0  0
    1.2742   12.7713   36.7346 O   0  0  0  0  0  0  0  0  0  0  0  0
    2.1008   14.0204   38.6976 C   0  0  1  0  0  0  0  0  0  0  0  0
    3.0008   12.8983   39.1040 N   0  0  0  0  0  0  0  0  0  0  0  0
    2.5264   12.3466   40.3913 C   0  0  0  0  0  0  0  0  0  0  0  0
    2.7388   15.3906   39.0798 C   0  0  2  0  0  0  0  0  0  0  0  0
    3.9817   15.5241   38.3920 O   0  0  0  0  0  0  0  0  0  0  0  0
    3.0067   15.4927   40.5792 C   0  0  0  0  0  0  0  0  0  0  0  0
    1.7790   16.5426   38.6408 C   0  0  0  0  0  0  0  0  0  0  0  0
    1.4947   16.4703   37.1921 O   0  0  0  0  0  0  0  0  0  0  0  0
  1  3  1  0  0  0  0
  1  2  1  1  0  0  0
  3  5  1  0  0  0  0
  3  4  1  1  0  0  0
  5  6  1  6  0  0  0
  7  8  1  1  0  0  0
  7  5  1  0  0  0  0
  9 10  1  6  0  0  0
  9  7  1  0  0  0  0
 10  1  1  0  0  0  0
 11 13  1  6  0  0  0
 11  9  1  0  0  0  0
 12 11  1  0  0  0  0
 14 15  1  6  0  0  0
 16 14  1  0  0  0  0
 17 18  1  6  0  0  0
 17 16  1  0  0  0  0
 19  2  1  1  0  0  0
 19 20  1  0  0  0  0
 19 17  1  0  0  0  0
 20 21  1  6  0  0  0
 20 22  1  0  0  0  0
 22 23  1  1  0  0  0
 22 14  1  0  0  0  0
 24 23  1  1  0  0  0
 24 25  1  0  0  0  0
 25 27  1  0  0  0  0
 25 26  1  1  0  0  0
 27 28  1  6  0  0  0
 28 29  1  0  0  0  0
 30 31  1  6  0  0  0
 30 32  1  0  0  0  0
 30 27  1  0  0  0  0
 33 30  1  0  0  0  0
 34 33  1  0  0  0  0
 34 24  1  0  0  0  0
M  END
>  <CHROM.1>
-95.56965099,-168.18416490,-102.04064902,-162.56606304,-157.33172576,-141.18450223
-0.53253371,17.74441942,36.52021980,1.99595243,-0.00070885,-0.46835344

>  <Name>
lig.pdb

>  <RI>
0

>  <Rbt.Current_Directory>
/home/itssahil/PROJECTS/Mol_Feturizer/New_Systems/rnas/4k32

>  <Rbt.Executable>
rbdock ($Id: //depot/dev/client3/rdock/2013.1/src/exe/rbdock.cxx#4 $)

>  <Rbt.Library>
libRbt.so (2013.1, Build901 2013/11/27)

>  <Rbt.Parameter_File>
/export/apps/rDock/src/rDock_2013.1_src/data/scripts/dock_solv.prm

>  <Rbt.Receptor>
prm/blind_docking_100.prm

>  <SCORE>
18.8988

>  <SCORE.INTER>
2.28645

>  <SCORE.INTER.CONST>
1

>  <SCORE.INTER.POLAR>
0

>  <SCORE.INTER.ROT>
6

>  <SCORE.INTER.SOLV>
27.4144

>  <SCORE.INTER.VDW>
-15.2138

>  <SCORE.INTER.norm>
0.0672485

>  <SCORE.INTRA>
7.19152

>  <SCORE.INTRA.DIHEDRAL>
-2.57685

>  <SCORE.INTRA.DIHEDRAL.0>
18.0069

>  <SCORE.INTRA.POLAR>
0

>  <SCORE.INTRA.POLAR.0>
0

>  <SCORE.INTRA.REPUL>
0

>  <SCORE.INTRA.REPUL.0>
0

>  <SCORE.INTRA.SOLV>
-0.493129

>  <SCORE.INTRA.SOLV.lig_0>
-70.7393

>  <SCORE.INTRA.VDW>
8.72651

>  <SCORE.INTRA.VDW.0>
-3.23471

>  <SCORE.INTRA.norm>
0.211515

>  <SCORE.RESTR>
9.42081

>  <SCORE.RESTR.CAVITY>
9.42081

>  <SCORE.RESTR.norm>
0.277083

>  <SCORE.SYSTEM>
0

>  <SCORE.SYSTEM.CONST>
0

>  <SCORE.SYSTEM.DIHEDRAL>
0

>  <SCORE.SYSTEM.SOLV>
0

>  <SCORE.SYSTEM.norm>
0

>  <SCORE.heavy>
34

>  <SCORE.norm>
0.555846

>  <RMSD>
5.936

$$$$
lig.pdb
 OpenBabel11021811503D
libRbt.so/2013.1/901 2013/11/27
 34 36  0  0  0  0  0  0  0  0999 V2000
   -2.7726   16.0221   37.8509 C   0  0  2  0  0  0  0  0  0  0  0  0
   -3.4327   14.9207   38.4844 O   0  0  0  0  0  0  0  0  0  0  0  0
   -1.5500   16.4679   38.7608 C   0  0  2  0  0  0  0  0  0  0  0  0
   -0.5690   15.3723   38.9404 N   0  0  0  0  0  0  0  0  0  0  0  0
   -2.0782   16.9351   40.1405 C   0  0  1  0  0  0  0  0  0  0  0  0
   -0.9911   17.3474   40.9722 O   0  0  0  0  0  0  0  0  0  0  0  0
   -3.0800   18.0822   39.9188 C   0  0  2  0  0  0  0  0  0  0  0  0
   -3.5724   18.5254   41.1843 O   0  0  0  0  0  0  0  0  0  0  0  0
   -4.2601   17.5865   38.9979 C   0  0  2  0  0  0  0  0  0  0  0  0
   -3.7443   17.1097   37.6969 O   0  0  0  0  0  0  0  0  0  0  0  0
   -5.2880   18.7143   38.7322 C   0  0  2  0  0  0  0  0  0  0  0  0
   -5.9180   19.0938   39.9572 O   0  0  0  0  0  0  0  0  0  0  0  0
   -6.3610   18.2609   37.7546 C   0  0  0  0  0  0  0  0  0  0  0  0
   -5.7043   11.6865   36.8425 C   0  0  2  0  0  0  0  0  0  0  0  0
   -6.7742   10.9396   36.1764 N   0  0  0  0  0  0  0  0  0  0  0  0
   -6.3666   12.5485   37.9525 C   0  0  0  0  0  0  0  0  0  0  0  0
   -5.2443   13.3306   38.6872 C   0  0  2  0  0  0  0  0  0  0  0  0
   -5.8269   14.1592   39.7543 N   0  0  0  0  0  0  0  0  0  0  0  0
   -4.4660   14.2426   37.7013 C   0  0  2  0  0  0  0  0  0  0  0  0
   -3.8487   13.3605   36.5706 C   0  0  2  0  0  0  0  0  0  0  0  0
   -3.1396   14.2054   35.6541 O   0  0  0  0  0  0  0  0  0  0  0  0
   -4.9561   12.6102   35.7915 C   0  0  1  0  0  0  0  0  0  0  0  0
   -4.3027   11.8110   34.7745 O   0  0  0  0  0  0  0  0  0  0  0  0
   -5.1715   11.1912   33.7974 C   0  0  2  0  0  0  0  0  0  0  0  0
   -4.2382   10.3371   32.8610 C   0  0  2  0  0  0  0  0  0  0  0  0
   -3.5680    9.3456   33.6233 O   0  0  0  0  0  0  0  0  0  0  0  0
   -3.2081   11.2959   32.1523 C   0  0  1  0  0  0  0  0  0  0  0  0
   -2.2919   10.5242   31.2582 N   0  0  0  0  0  0  0  0  0  0  0  0
   -0.9177   10.6025   31.7986 C   0  0  0  0  0  0  0  0  0  0  0  0
   -4.0032   12.3538   31.3283 C   0  0  2  0  0  0  0  0  0  0  0  0
   -4.7826   11.6756   30.3443 O   0  0  0  0  0  0  0  0  0  0  0  0
   -3.0737   13.3315   30.6138 C   0  0  0  0  0  0  0  0  0  0  0  0
   -4.9530   13.1413   32.2869 C   0  0  0  0  0  0  0  0  0  0  0  0
   -5.8652   12.2221   32.9994 O   0  0  0  0  0  0  0  0  0  0  0  0
  1  3  1  0  0  0  0
  1  2  1  1  0  0  0
  3  5  1  0  0  0  0
  3  4  1  1  0  0  0
  5  6  1  1  0  0  0
  7  8  1  1  0  0  0
  7  5  1  0  0  0  0
  9 10  1  6  0  0  0
  9  7  1  0  0  0  0
 10  1  1  0  0  0  0
 11 13  1  6  0  0  0
 11  9  1  0  0  0  0
 12 11  1  0  0  0  0
 14 15  1  6  0  0  0
 16 14  1  0  0  0  0
 17 18  1  1  0  0  0
 17 16  1  0  0  0  0
 19  2  1  1  0  0  0
 19 20  1  0  0  0  0
 19 17  1  0  0  0  0
 20 21  1  6  0  0  0
 20 22  1  0  0  0  0
 22 23  1  6  0  0  0
 22 14  1  0  0  0  0
 24 23  1  1  0  0  0
 24 25  1  0  0  0  0
 25 27  1  0  0  0  0
 25 26  1  1  0  0  0
 27 28  1  6  0  0  0
 28 29  1  0  0  0  0
 30 31  1  6  0  0  0
 30 32  1  0  0  0  0
 30 27  1  0  0  0  0
 33 30  1  0  0  0  0
 34 33  1  0  0  0  0
 34 24  1  0  0  0  0
M  END
>  <CHROM.1>
-171.25685403,-64.33316961,-167.20812025,73.25347641,-177.38203286,-114.04389335
-4.00335147,14.11807845,36.23795859,-1.54369143,-0.36776183,-2.25662264

>  <Name>
lig.pdb

>  <RI>
0

>  <Rbt.Current_Directory>
/home/itssahil/PROJECTS/Mol_Feturizer/New_Systems/rnas/4k32

>  <Rbt.Executable>
rbdock ($Id: //depot/dev/client3/rdock/2013.1/src/exe/rbdock.cxx#4 $)

>  <Rbt.Library>
libRbt.so (2013.1, Build901 2013/11/27)

>  <Rbt.Parameter_File>
/export/apps/rDock/src/rDock_2013.1_src/data/scripts/dock_solv.prm

>  <Rbt.Receptor>
prm/pocket_docking_8.prm

>  <SCORE>
-8.52697

>  <SCORE.INTER>
-0.578841

>  <SCORE.INTER.CONST>
1

>  <SCORE.INTER.POLAR>
0

>  <SCORE.INTER.ROT>
6

>  <SCORE.INTER.SOLV>
9.79224

>  <SCORE.INTER.VDW>
-11.25

>  <SCORE.INTER.norm>
-0.0170247

>  <SCORE.INTRA>
-7.94813

>  <SCORE.INTRA.DIHEDRAL>
-14.6993

>  <SCORE.INTRA.DIHEDRAL.0>
18.0069

>  <SCORE.INTRA.POLAR>
0

>  <SCORE.INTRA.POLAR.0>
0

>  <SCORE.INTRA.REPUL>
0

>  <SCORE.INTRA.REPUL.0>
0

>  <SCORE.INTRA.SOLV>
-1.4897

>  <SCORE.INTRA.SOLV.lig_0>
-70.7393

>  <SCORE.INTRA.VDW>
0.146383

>  <SCORE.INTRA.VDW.0>
-3.23471

>  <SCORE.INTRA.norm>
-0.233769

>  <SCORE.RESTR>
0

>  <SCORE.RESTR.CAVITY>
0

>  <SCORE.RESTR.norm>
0

>  <SCORE.SYSTEM>
0

>  <SCORE.SYSTEM.CONST>
0

>  <SCORE.SYSTEM.DIHEDRAL>
0

>  <SCORE.SYSTEM.SOLV>
0

>  <SCORE.SYSTEM.norm>
0

>  <SCORE.heavy>
34

>  <SCORE.norm>
-0.250793

>  <RMSD>
5.961

$$$$
lig.pdb
 OpenBabel11021811503D
libRbt.so/2013.1/901 2013/11/27
 34 36  0  0  0  0  0  0  0  0999 V2000
   -1.1811   18.6063   32.8006 C   0  0  2  0  0  0  0  0  0  0  0  0
    0.0894   18.4906   33.4506 O   0  0  0  0  0  0  0  0  0  0  0  0
   -1.4378   20.1368   32.4646 C   0  0  2  0  0  0  0  0  0  0  0  0
   -0.3973   20.6849   31.5635 N   0  0  0  0  0  0  0  0  0  0  0  0
   -1.4796   20.9532   33.7809 C   0  0  1  0  0  0  0  0  0  0  0  0
   -1.7170   22.3343   33.4988 O   0  0  0  0  0  0  0  0  0  0  0  0
   -2.5797   20.3691   34.6849 C   0  0  2  0  0  0  0  0  0  0  0  0
   -2.6317   21.1156   35.9017 O   0  0  0  0  0  0  0  0  0  0  0  0
   -2.2807   18.8475   34.9704 C   0  0  2  0  0  0  0  0  0  0  0  0
   -2.2076   18.0822   33.7075 O   0  0  0  0  0  0  0  0  0  0  0  0
   -3.3726   18.2102   35.8652 C   0  0  2  0  0  0  0  0  0  0  0  0
   -3.4404   18.9021   37.1135 O   0  0  0  0  0  0  0  0  0  0  0  0
   -3.0731   16.7444   36.1382 C   0  0  0  0  0  0  0  0  0  0  0  0
    1.5727   17.2048   37.2537 C   0  0  2  0  0  0  0  0  0  0  0  0
    1.6517   16.9208   38.6887 N   0  0  0  0  0  0  0  0  0  0  0  0
    1.1618   18.6954   37.1012 C   0  0  0  0  0  0  0  0  0  0  0  0
    1.0963   19.0229   35.5847 C   0  0  2  0  0  0  0  0  0  0  0  0
    0.7147   20.4308   35.3922 N   0  0  0  0  0  0  0  0  0  0  0  0
    0.0661   18.1125   34.8639 C   0  0  2  0  0  0  0  0  0  0  0  0
    0.4740   16.6195   35.0697 C   0  0  2  0  0  0  0  0  0  0  0  0
   -0.4847   15.7791   34.4130 O   0  0  0  0  0  0  0  0  0  0  0  0
    0.4961   16.2575   36.5746 C   0  0  1  0  0  0  0  0  0  0  0  0
    0.8923   14.8676   36.6786 O   0  0  0  0  0  0  0  0  0  0  0  0
   -0.1155   13.8910   36.3262 C   0  0  2  0  0  0  0  0  0  0  0  0
    0.1701   12.6258   37.2179 C   0  0  2  0  0  0  0  0  0  0  0  0
    0.0642   12.9696   38.5904 O   0  0  0  0  0  0  0  0  0  0  0  0
    1.6089   12.0775   36.8830 C   0  0  1  0  0  0  0  0  0  0  0  0
    1.9279   10.8782   37.7163 N   0  0  0  0  0  0  0  0  0  0  0  0
    2.6548   11.3164   38.9271 C   0  0  0  0  0  0  0  0  0  0  0  0
    1.6587   11.7121   35.3683 C   0  0  2  0  0  0  0  0  0  0  0  0
    0.6873   10.6996   35.1098 O   0  0  0  0  0  0  0  0  0  0  0  0
    3.0290   11.1783   34.9585 C   0  0  0  0  0  0  0  0  0  0  0  0
    1.3186   12.9819   34.5238 C   0  0  0  0  0  0  0  0  0  0  0  0
   -0.0025   13.5280   34.8993 O   0  0  0  0  0  0  0  0  0  0  0  0
  1  3  1  0  0  0  0
  1  2  1  1  0  0  0
  3  5  1  0  0  0  0
  3  4  1  6  0  0  0
  5  6  1  6  0  0  0
  7  8  1  1  0  0  0
  7  5  1  0  0  0  0
  9 10  1  6  0  0  0
  9  7  1  0  0  0  0
 10  1  1  0  0  0  0
 11 13  1  1  0  0  0
 11  9  1  0  0  0  0
 12 11  1  0  0  0  0
 14 15  1  1  0  0  0
 16 14  1  0  0  0  0
 17 18  1  1  0  0  0
 17 16  1  0  0  0  0
 19  2  1  6  0  0  0
 19 20  1  0  0  0  0
 19 17  1  0  0  0  0
 20 21  1  6  0  0  0
 20 22  1  0  0  0  0
 22 23  1  6  0  0  0
 22 14  1  0  0  0  0
 24 23  1  1  0  0  0
 24 25  1  0  0  0  0
 25 27  1  0  0  0  0
 25 26  1  1  0  0  0
 27 28  1  1  0  0  0
 28 29  1  0  0  0  0
 30 31  1  6  0  0  0
 30 32  1  0  0  0  0
 30 27  1  0  0  0  0
 33 30  1  0  0  0  0
 34 33  1  0  0  0  0
 34 24  1  0  0  0  0
M  END
>  <CHROM.1>
111.38301524,-59.59144687,-136.74302520,168.75545827,-148.93720998,-93.67688281
-0.16982797,16.48794567,35.53807495,-2.77672176,-1.20293481,1.66915679

>  <Name>
lig.pdb

>  <RI>
0

>  <Rbt.Current_Directory>
/home/itssahil/PROJECTS/Mol_Feturizer/New_Systems/rnas/4k32

>  <Rbt.Executable>
rbdock ($Id: //depot/dev/client3/rdock/2013.1/src/exe/rbdock.cxx#4 $)

>  <Rbt.Library>
libRbt.so (2013.1, Build901 2013/11/27)

>  <Rbt.Parameter_File>
/export/apps/rDock/src/rDock_2013.1_src/data/scripts/dock_solv.prm

>  <Rbt.Receptor>
prm/blind_docking_100.prm

>  <SCORE>
21.6326

>  <SCORE.INTER>
1.58575

>  <SCORE.INTER.CONST>
1

>  <SCORE.INTER.POLAR>
0

>  <SCORE.INTER.ROT>
6

>  <SCORE.INTER.SOLV>
26.9993

>  <SCORE.INTER.VDW>
-15.5426

>  <SCORE.INTER.norm>
0.0466397

>  <SCORE.INTRA>
10.7697

>  <SCORE.INTRA.DIHEDRAL>
-0.0931404

>  <SCORE.INTRA.DIHEDRAL.0>
18.0069

>  <SCORE.INTRA.POLAR>
0

>  <SCORE.INTRA.POLAR.0>
0

>  <SCORE.INTRA.REPUL>
0

>  <SCORE.INTRA.REPUL.0>
0

>  <SCORE.INTRA.SOLV>
2.47812

>  <SCORE.INTRA.SOLV.lig_0>
-70.7393

>  <SCORE.INTRA.VDW>
9.57724

>  <SCORE.INTRA.VDW.0>
-3.23471

>  <SCORE.INTRA.norm>
0.316757

>  <SCORE.RESTR>
9.27715

>  <SCORE.RESTR.CAVITY>
9.27715

>  <SCORE.RESTR.norm>
0.272857

>  <SCORE.SYSTEM>
0

>  <SCORE.SYSTEM.CONST>
0

>  <SCORE.SYSTEM.DIHEDRAL>
0

>  <SCORE.SYSTEM.SOLV>
0

>  <SCORE.SYSTEM.norm>
0

>  <SCORE.heavy>
34

>  <SCORE.norm>
0.636254

>  <RMSD>
6.002

$$$$
lig.pdb
 OpenBabel11021811503D
libRbt.so/2013.1/901 2013/11/27
 34 36  0  0  0  0  0  0  0  0999 V2000
   -1.4715   20.4388   35.1824 C   0  0  2  0  0  0  0  0  0  0  0  0
   -2.0403   19.1789   34.8092 O   0  0  0  0  0  0  0  0  0  0  0  0
   -1.9008   21.5243   34.1060 C   0  0  2  0  0  0  0  0  0  0  0  0
   -3.3728   21.6762   34.0339 N   0  0  0  0  0  0  0  0  0  0  0  0
   -1.3430   21.1217   32.7176 C   0  0  1  0  0  0  0  0  0  0  0  0
   -1.7139   22.0919   31.7355 O   0  0  0  0  0  0  0  0  0  0  0  0
    0.1866   20.9889   32.8239 C   0  0  2  0  0  0  0  0  0  0  0  0
    0.7148   20.6214   31.5486 O   0  0  0  0  0  0  0  0  0  0  0  0
    0.5519   19.9118   33.9161 C   0  0  2  0  0  0  0  0  0  0  0  0
   -0.0137   20.2856   35.2299 O   0  0  0  0  0  0  0  0  0  0  0  0
    2.0850   19.7547   34.0711 C   0  0  2  0  0  0  0  0  0  0  0  0
    2.3757   18.9399   35.2083 O   0  0  0  0  0  0  0  0  0  0  0  0
    2.7600   21.1048   34.2560 C   0  0  0  0  0  0  0  0  0  0  0  0
   -1.1898   17.2351   38.5259 C   0  0  2  0  0  0  0  0  0  0  0  0
   -1.1263   16.2161   39.5766 N   0  0  0  0  0  0  0  0  0  0  0  0
   -2.6777   17.3630   38.0977 C   0  0  0  0  0  0  0  0  0  0  0  0
   -2.7693   18.4574   36.9999 C   0  0  2  0  0  0  0  0  0  0  0  0
   -4.1663   18.6170   36.5668 N   0  0  0  0  0  0  0  0  0  0  0  0
   -1.8942   18.0872   35.7723 C   0  0  2  0  0  0  0  0  0  0  0  0
   -0.4126   17.9191   36.2351 C   0  0  2  0  0  0  0  0  0  0  0  0
    0.3929   17.5659   35.1024 O   0  0  0  0  0  0  0  0  0  0  0  0
   -0.2909   16.7965   37.2941 C   0  0  1  0  0  0  0  0  0  0  0  0
    1.1043   16.7131   37.6765 O   0  0  0  0  0  0  0  0  0  0  0  0
    1.9444   15.8837   36.8399 C   0  0  2  0  0  0  0  0  0  0  0  0
    1.2003   14.5034   36.7039 C   0  0  2  0  0  0  0  0  0  0  0  0
   -0.0657   14.6965   36.0930 O   0  0  0  0  0  0  0  0  0  0  0  0
    1.0443   13.8625   38.1348 C   0  0  1  0  0  0  0  0  0  0  0  0
    0.3319   12.5509   38.0550 N   0  0  0  0  0  0  0  0  0  0  0  0
   -1.1252   12.7994   38.0143 C   0  0  0  0  0  0  0  0  0  0  0  0
    2.4648   13.6696   38.7478 C   0  0  2  0  0  0  0  0  0  0  0  0
    3.2102   12.7905   37.9071 O   0  0  0  0  0  0  0  0  0  0  0  0
    2.4011   13.0581   40.1451 C   0  0  0  0  0  0  0  0  0  0  0  0
    3.1854   15.0543   38.8157 C   0  0  0  0  0  0  0  0  0  0  0  0
    3.2603   15.6771   37.4774 O   0  0  0  0  0  0  0  0  0  0  0  0
  1  3  1  0  0  0  0
  1  2  1  6  0  0  0
  3  5  1  0  0  0  0
  3  4  1  6  0  0  0
  5  6  1  6  0  0  0
  7  8  1  6  0  0  0
  7  5  1  0  0  0  0
  9 10  1  1  0  0  0
  9  7  1  0  0  0  0
 10  1  1  0  0  0  0
 11 13  1  1  0  0  0
 11  9  1  0  0  0  0
 12 11  1  0  0  0  0
 14 15  1  1  0  0  0
 16 14  1  0  0  0  0
 17 18  1  6  0  0  0
 17 16  1  0  0  0  0
 19  2  1  6  0  0  0
 19 20  1  0  0  0  0
 19 17  1  0  0  0  0
 20 21  1  6  0  0  0
 20 22  1  0  0  0  0
 22 23  1  1  0  0  0
 22 14  1  0  0  0  0
 24 23  1  1  0  0  0
 24 25  1  0  0  0  0
 25 27  1  0  0  0  0
 25 26  1  1  0  0  0
 27 28  1  6  0  0  0
 28 29  1  0  0  0  0
 30 31  1  6  0  0  0
 30 32  1  0  0  0  0
 30 27  1  0  0  0  0
 33 30  1  0  0  0  0
 34 33  1  0  0  0  0
 34 24  1  0  0  0  0
M  END
>  <CHROM.1>
-172.57728140,170.65413247,68.13306967,158.26238348,-50.42556846,-82.79565866
0.08441642,17.55758756,36.10613139,1.85359094,0.22748715,-0.67462397

>  <Name>
lig.pdb

>  <RI>
0

>  <Rbt.Current_Directory>
/home/itssahil/PROJECTS/Mol_Feturizer/New_Systems/rnas/4k32

>  <Rbt.Executable>
rbdock ($Id: //depot/dev/client3/rdock/2013.1/src/exe/rbdock.cxx#4 $)

>  <Rbt.Library>
libRbt.so (2013.1, Build901 2013/11/27)

>  <Rbt.Parameter_File>
/export/apps/rDock/src/rDock_2013.1_src/data/scripts/dock_solv.prm

>  <Rbt.Receptor>
prm/blind_docking_100.prm

>  <SCORE>
34.4469

>  <SCORE.INTER>
22.4576

>  <SCORE.INTER.CONST>
1

>  <SCORE.INTER.POLAR>
0

>  <SCORE.INTER.ROT>
6

>  <SCORE.INTER.SOLV>
28.2906

>  <SCORE.INTER.VDW>
-2.05849

>  <SCORE.INTER.norm>
0.660517

>  <SCORE.INTRA>
2.10112

>  <SCORE.INTRA.DIHEDRAL>
-14.16

>  <SCORE.INTRA.DIHEDRAL.0>
18.0069

>  <SCORE.INTRA.POLAR>
0

>  <SCORE.INTRA.POLAR.0>
0

>  <SCORE.INTRA.REPUL>
0

>  <SCORE.INTRA.REPUL.0>
0

>  <SCORE.INTRA.SOLV>
2.00236

>  <SCORE.INTRA.SOLV.lig_0>
-70.7393

>  <SCORE.INTRA.VDW>
8.17994

>  <SCORE.INTRA.VDW.0>
-3.23471

>  <SCORE.INTRA.norm>
0.0617976

>  <SCORE.RESTR>
9.88826

>  <SCORE.RESTR.CAVITY>
9.88826

>  <SCORE.RESTR.norm>
0.290831

>  <SCORE.SYSTEM>
0

>  <SCORE.SYSTEM.CONST>
0

>  <SCORE.SYSTEM.DIHEDRAL>
0

>  <SCORE.SYSTEM.SOLV>
0

>  <SCORE.SYSTEM.norm>
0

>  <SCORE.heavy>
34

>  <SCORE.norm>
1.01315

>  <RMSD>
6.002

$$$$
lig.pdb
 OpenBabel11021811503D
libRbt.so/2013.1/901 2013/11/27
 34 36  0  0  0  0  0  0  0  0999 V2000
   -1.0133   18.7303   32.6447 C   0  0  2  0  0  0  0  0  0  0  0  0
    0.2361   18.6898   33.3429 O   0  0  0  0  0  0  0  0  0  0  0  0
   -1.6168   20.1932   32.7759 C   0  0  2  0  0  0  0  0  0  0  0  0
   -0.7176   21.2145   32.1899 N   0  0  0  0  0  0  0  0  0  0  0  0
   -1.8746   20.5118   34.2702 C   0  0  1  0  0  0  0  0  0  0  0  0
   -2.4252   21.8238   34.4080 O   0  0  0  0  0  0  0  0  0  0  0  0
   -2.8233   19.4435   34.8424 C   0  0  2  0  0  0  0  0  0  0  0  0
   -3.0727   19.7277   36.2198 O   0  0  0  0  0  0  0  0  0  0  0  0
   -2.1798   18.0143   34.6701 C   0  0  2  0  0  0  0  0  0  0  0  0
   -1.9046   17.7323   33.2451 O   0  0  0  0  0  0  0  0  0  0  0  0
   -3.1078   16.9017   35.2178 C   0  0  2  0  0  0  0  0  0  0  0  0
   -4.4425   17.1119   34.7528 O   0  0  0  0  0  0  0  0  0  0  0  0
   -3.1190   16.8944   36.7385 C   0  0  0  0  0  0  0  0  0  0  0  0
    1.6205   17.3860   37.1770 C   0  0  2  0  0  0  0  0  0  0  0  0
    1.6692   17.1112   38.6151 N   0  0  0  0  0  0  0  0  0  0  0  0
    1.2622   18.8883   37.0070 C   0  0  0  0  0  0  0  0  0  0  0  0
    1.2296   19.2053   35.4873 C   0  0  2  0  0  0  0  0  0  0  0  0
    0.8985   20.6237   35.2784 N   0  0  0  0  0  0  0  0  0  0  0  0
    0.1798   18.3242   34.7585 C   0  0  2  0  0  0  0  0  0  0  0  0
    0.5341   16.8201   34.9817 C   0  0  2  0  0  0  0  0  0  0  0  0
   -0.4428   16.0070   34.3176 O   0  0  0  0  0  0  0  0  0  0  0  0
    0.5224   16.4699   36.4895 C   0  0  1  0  0  0  0  0  0  0  0  0
    0.8700   15.0683   36.6100 O   0  0  0  0  0  0  0  0  0  0  0  0
   -0.1710   14.1233   36.2678 C   0  0  2  0  0  0  0  0  0  0  0  0
    0.0424   12.8780   37.2065 C   0  0  2  0  0  0  0  0  0  0  0  0
   -0.0769   13.2720   38.5644 O   0  0  0  0  0  0  0  0  0  0  0  0
    1.4632   12.2593   36.9214 C   0  0  1  0  0  0  0  0  0  0  0  0
    1.7139   11.0764   37.8002 N   0  0  0  0  0  0  0  0  0  0  0  0
    2.4814   11.5151   38.9856 C   0  0  0  0  0  0  0  0  0  0  0  0
    1.5285   11.8414   35.4208 C   0  0  2  0  0  0  0  0  0  0  0  0
    0.5206   10.8621   35.1745 O   0  0  0  0  0  0  0  0  0  0  0  0
    2.8830   11.2374   35.0589 C   0  0  0  0  0  0  0  0  0  0  0  0
    1.2600   13.0951   34.5280 C   0  0  0  0  0  0  0  0  0  0  0  0
   -0.0442   13.7081   34.8563 O   0  0  0  0  0  0  0  0  0  0  0  0
  1  3  1  0  0  0  0
  1  2  1  1  0  0  0
  3  5  1  0  0  0  0
  3  4  1  1  0  0  0
  5  6  1  6  0  0  0
  7  8  1  1  0  0  0
  7  5  1  0  0  0  0
  9 10  1  6  0  0  0
  9  7  1  0  0  0  0
 10  1  1  0  0  0  0
 11 13  1  1  0  0  0
 11  9  1  0  0  0  0
 12 11  1  0  0  0  0
 14 15  1  1  0  0  0
 16 14  1  0  0  0  0
 17 18  1  1  0  0  0
 17 16  1  0  0  0  0
 19  2  1  6  0  0  0
 19 20  1  0  0  0  0
 19 17  1  0  0  0  0
 20 21  1  6  0  0  0
 20 22  1  0  0  0  0
 22 23  1  6  0  0  0
 22 14  1  0  0  0  0
 24 23  1  1  0  0  0
 24 25  1  0  0  0  0
 25 27  1  0  0  0  0
 25 26  1  1  0  0  0
 27 28  1  1  0  0  0
 28 29  1  0  0  0  0
 30 31  1  6  0  0  0
 30 32  1  0  0  0  0
 30 27  1  0  0  0  0
 33 30  1  0  0  0  0
 34 33  1  0  0  0  0
 34 24  1  0  0  0  0
M  END
>  <CHROM.1>
89.61116707,46.36847804,-141.94098130,167.94802087,-147.18563681,-95.93125082
-0.26633469,16.40830944,35.49663396,2.01798551,-0.64003130,-0.03767400

>  <Name>
lig.pdb

>  <RI>
0

>  <Rbt.Current_Directory>
/home/itssahil/PROJECTS/Mol_Feturizer/New_Systems/rnas/4k32

>  <Rbt.Executable>
rbdock ($Id: //depot/dev/client3/rdock/2013.1/src/exe/rbdock.cxx#4 $)

>  <Rbt.Library>
libRbt.so (2013.1, Build901 2013/11/27)

>  <Rbt.Parameter_File>
/export/apps/rDock/src/rDock_2013.1_src/data/scripts/dock_solv.prm

>  <Rbt.Receptor>
prm/blind_docking_100.prm

>  <SCORE>
48.4139

>  <SCORE.INTER>
25.375

>  <SCORE.INTER.CONST>
1

>  <SCORE.INTER.POLAR>
0

>  <SCORE.INTER.ROT>
6

>  <SCORE.INTER.SOLV>
26.4439

>  <SCORE.INTER.VDW>
0.502048

>  <SCORE.INTER.norm>
0.746325

>  <SCORE.INTRA>
14.5655

>  <SCORE.INTRA.DIHEDRAL>
-3.11236

>  <SCORE.INTRA.DIHEDRAL.0>
18.0069

>  <SCORE.INTRA.POLAR>
0

>  <SCORE.INTRA.POLAR.0>
0

>  <SCORE.INTRA.REPUL>
0

>  <SCORE.INTRA.REPUL.0>
0

>  <SCORE.INTRA.SOLV>
2.63305

>  <SCORE.INTRA.SOLV.lig_0>
-70.7393

>  <SCORE.INTRA.VDW>
14.8051

>  <SCORE.INTRA.VDW.0>
-3.23471

>  <SCORE.INTRA.norm>
0.428396

>  <SCORE.RESTR>
8.47342

>  <SCORE.RESTR.CAVITY>
8.47342

>  <SCORE.RESTR.norm>
0.249218

>  <SCORE.SYSTEM>
0

>  <SCORE.SYSTEM.CONST>
0

>  <SCORE.SYSTEM.DIHEDRAL>
0

>  <SCORE.SYSTEM.SOLV>
0

>  <SCORE.SYSTEM.norm>
0

>  <SCORE.heavy>
34

>  <SCORE.norm>
1.42394

>  <RMSD>
6.028

$$$$
lig.pdb
 OpenBabel11021811503D
libRbt.so/2013.1/901 2013/11/27
 34 36  0  0  0  0  0  0  0  0999 V2000
   -1.1578   19.0449   32.6862 C   0  0  2  0  0  0  0  0  0  0  0  0
    0.1167   18.9206   33.3268 O   0  0  0  0  0  0  0  0  0  0  0  0
   -1.4462   20.5855   32.4323 C   0  0  2  0  0  0  0  0  0  0  0  0
   -0.4196   21.2015   31.5596 N   0  0  0  0  0  0  0  0  0  0  0  0
   -1.5004   21.3300   33.7902 C   0  0  1  0  0  0  0  0  0  0  0  0
   -1.7664   22.7191   33.5821 O   0  0  0  0  0  0  0  0  0  0  0  0
   -2.5860   20.6768   34.6641 C   0  0  2  0  0  0  0  0  0  0  0  0
   -2.6492   21.3566   35.9188 O   0  0  0  0  0  0  0  0  0  0  0  0
   -2.2556   19.1485   34.8679 C   0  0  2  0  0  0  0  0  0  0  0  0
   -2.1709   18.4529   33.5661 O   0  0  0  0  0  0  0  0  0  0  0  0
   -3.3318   18.4428   35.7298 C   0  0  2  0  0  0  0  0  0  0  0  0
   -3.4600   19.1104   36.9866 O   0  0  0  0  0  0  0  0  0  0  0  0
   -2.9641   16.9898   35.9870 C   0  0  0  0  0  0  0  0  0  0  0  0
    1.6124   17.4339   37.0509 C   0  0  2  0  0  0  0  0  0  0  0  0
    1.7063   17.0963   38.4734 N   0  0  0  0  0  0  0  0  0  0  0  0
    1.2703   18.9466   36.9582 C   0  0  0  0  0  0  0  0  0  0  0  0
    1.1903   19.3297   35.4556 C   0  0  2  0  0  0  0  0  0  0  0  0
    0.8728   20.7599   35.3193 N   0  0  0  0  0  0  0  0  0  0  0  0
    0.1035   18.4947   34.7266 C   0  0  2  0  0  0  0  0  0  0  0  0
    0.4435   16.9779   34.8725 C   0  0  2  0  0  0  0  0  0  0  0  0
   -0.5672   16.2071   34.2086 O   0  0  0  0  0  0  0  0  0  0  0  0
    0.4783   16.5628   36.3634 C   0  0  1  0  0  0  0  0  0  0  0  0
    0.8096   15.1529   36.4114 O   0  0  0  0  0  0  0  0  0  0  0  0
   -0.2995   14.2456   36.6130 C   0  0  2  0  0  0  0  0  0  0  0  0
    0.3360   12.8443   36.9444 C   0  0  2  0  0  0  0  0  0  0  0  0
    1.1177   12.9366   38.1249 O   0  0  0  0  0  0  0  0  0  0  0  0
    1.2136   12.3779   35.7217 C   0  0  1  0  0  0  0  0  0  0  0  0
    1.8467   11.0521   35.9969 N   0  0  0  0  0  0  0  0  0  0  0  0
    3.2675   11.1067   35.5906 C   0  0  0  0  0  0  0  0  0  0  0  0
    0.2993   12.2893   34.4620 C   0  0  2  0  0  0  0  0  0  0  0  0
   -0.7278   11.3302   34.7088 O   0  0  0  0  0  0  0  0  0  0  0  0
    1.0790   11.8498   33.2253 C   0  0  0  0  0  0  0  0  0  0  0  0
   -0.3501   13.6862   34.2013 C   0  0  0  0  0  0  0  0  0  0  0  0
   -1.1105   14.1443   35.3831 O   0  0  0  0  0  0  0  0  0  0  0  0
  1  3  1  0  0  0  0
  1  2  1  1  0  0  0
  3  5  1  0  0  0  0
  3  4  1  6  0  0  0
  5  6  1  6  0  0  0
  7  8  1  1  0  0  0
  7  5  1  0  0  0  0
  9 10  1  6  0  0  0
  9  7  1  0  0  0  0
 10  1  1  0  0  0  0
 11 13  1  1  0  0  0
 11  9  1  0  0  0  0
 12 11  1  0  0  0  0
 14 15  1  1  0  0  0
 16 14  1  0  0  0  0
 17 18  1  1  0  0  0
 17 16  1  0  0  0  0
 19  2  1  6  0  0  0
 19 20  1  0  0  0  0
 19 17  1  0  0  0  0
 20 21  1  6  0  0  0
 20 22  1  0  0  0  0
 22 23  1  6  0  0  0
 22 14  1  0  0  0  0
 24 23  1  6  0  0  0
 24 25  1  0  0  0  0
 25 27  1  0  0  0  0
 25 26  1  1  0  0  0
 27 28  1  1  0  0  0
 28 29  1  0  0  0  0
 30 31  1  1  0  0  0
 30 32  1  0  0  0  0
 30 27  1  0  0  0  0
 33 30  1  0  0  0  0
 34 33  1  0  0  0  0
 34 24  1  0  0  0  0
M  END
>  <CHROM.1>
110.14511985,-56.52415695,-140.19564007,143.54466959,-167.78770687,-134.72742492
-0.34513859,16.82731494,35.17828327,2.29930339,-1.12709278,0.50268130

>  <Name>
lig.pdb

>  <RI>
0

>  <Rbt.Current_Directory>
/home/itssahil/PROJECTS/Mol_Feturizer/New_Systems/rnas/4k32

>  <Rbt.Executable>
rbdock ($Id: //depot/dev/client3/rdock/2013.1/src/exe/rbdock.cxx#4 $)

>  <Rbt.Library>
libRbt.so (2013.1, Build901 2013/11/27)

>  <Rbt.Parameter_File>
/export/apps/rDock/src/rDock_2013.1_src/data/scripts/dock_solv.prm

>  <Rbt.Receptor>
prm/blind_docking_100.prm

>  <SCORE>
27.2506

>  <SCORE.INTER>
6.52538

>  <SCORE.INTER.CONST>
1

>  <SCORE.INTER.POLAR>
0

>  <SCORE.INTER.ROT>
6

>  <SCORE.INTER.SOLV>
27.1677

>  <SCORE.INTER.VDW>
-12.3057

>  <SCORE.INTER.norm>
0.191923

>  <SCORE.INTRA>
12.7727

>  <SCORE.INTRA.DIHEDRAL>
0.672651

>  <SCORE.INTRA.DIHEDRAL.0>
18.0069

>  <SCORE.INTRA.POLAR>
0

>  <SCORE.INTRA.POLAR.0>
0

>  <SCORE.INTRA.REPUL>
0

>  <SCORE.INTRA.REPUL.0>
0

>  <SCORE.INTRA.SOLV>
2.33648

>  <SCORE.INTRA.SOLV.lig_0>
-70.7393

>  <SCORE.INTRA.VDW>
11.2681

>  <SCORE.INTRA.VDW.0>
-3.23471

>  <SCORE.INTRA.norm>
0.375666

>  <SCORE.RESTR>
7.95258

>  <SCORE.RESTR.CAVITY>
7.95258

>  <SCORE.RESTR.norm>
0.233899

>  <SCORE.SYSTEM>
0

>  <SCORE.SYSTEM.CONST>
0

>  <SCORE.SYSTEM.DIHEDRAL>
0

>  <SCORE.SYSTEM.SOLV>
0

>  <SCORE.SYSTEM.norm>
0

>  <SCORE.heavy>
34

>  <SCORE.norm>
0.801489

>  <RMSD>
6.059

$$$$
lig.pdb
 OpenBabel11021811503D
libRbt.so/2013.1/901 2013/11/27
 34 36  0  0  0  0  0  0  0  0999 V2000
   -3.8722   15.1945   36.6670 C   0  0  2  0  0  0  0  0  0  0  0  0
   -3.1978   14.9819   37.9121 O   0  0  0  0  0  0  0  0  0  0  0  0
   -2.8559   15.8724   35.6527 C   0  0  2  0  0  0  0  0  0  0  0  0
   -1.6716   15.0172   35.4056 N   0  0  0  0  0  0  0  0  0  0  0  0
   -2.4077   17.2456   36.2132 C   0  0  1  0  0  0  0  0  0  0  0  0
   -1.4966   17.8750   35.3093 O   0  0  0  0  0  0  0  0  0  0  0  0
   -3.6582   18.1131   36.4423 C   0  0  2  0  0  0  0  0  0  0  0  0
   -3.2587   19.3847   36.9560 O   0  0  0  0  0  0  0  0  0  0  0  0
   -4.6349   17.3837   37.4424 C   0  0  2  0  0  0  0  0  0  0  0  0
   -5.0299   16.0595   36.9165 O   0  0  0  0  0  0  0  0  0  0  0  0
   -5.9191   18.2131   37.6917 C   0  0  2  0  0  0  0  0  0  0  0  0
   -5.5689   19.5367   38.1002 O   0  0  0  0  0  0  0  0  0  0  0  0
   -6.7792   17.5820   38.7755 C   0  0  0  0  0  0  0  0  0  0  0  0
   -6.4342   12.8652   39.7456 C   0  0  2  0  0  0  0  0  0  0  0  0
   -7.1843   11.9845   40.6444 N   0  0  0  0  0  0  0  0  0  0  0  0
   -5.2641   12.0314   39.1544 C   0  0  0  0  0  0  0  0  0  0  0  0
   -4.4703   12.9420   38.1788 C   0  0  2  0  0  0  0  0  0  0  0  0
   -3.3519   12.1896   37.5890 N   0  0  0  0  0  0  0  0  0  0  0  0
   -3.9132   14.1907   38.9137 C   0  0  2  0  0  0  0  0  0  0  0  0
   -5.1023   14.9871   39.5378 C   0  0  2  0  0  0  0  0  0  0  0  0
   -4.5855   16.1342   40.2261 O   0  0  0  0  0  0  0  0  0  0  0  0
   -5.8776   14.1126   40.5529 C   0  0  1  0  0  0  0  0  0  0  0  0
   -6.9643   14.9170   41.0744 O   0  0  0  0  0  0  0  0  0  0  0  0
   -7.7223   14.3343   42.1605 C   0  0  2  0  0  0  0  0  0  0  0  0
   -8.8547   15.3705   42.5092 C   0  0  2  0  0  0  0  0  0  0  0  0
   -9.6885   15.5717   41.3790 O   0  0  0  0  0  0  0  0  0  0  0  0
   -8.1881   16.7230   42.9665 C   0  0  1  0  0  0  0  0  0  0  0  0
   -9.2292   17.7428   43.2990 N   0  0  0  0  0  0  0  0  0  0  0  0
   -9.4139   18.6353   42.1346 C   0  0  0  0  0  0  0  0  0  0  0  0
   -7.2940   16.4375   44.2113 C   0  0  2  0  0  0  0  0  0  0  0  0
   -8.1180   15.9303   45.2598 O   0  0  0  0  0  0  0  0  0  0  0  0
   -6.6017   17.7018   44.7141 C   0  0  0  0  0  0  0  0  0  0  0  0
   -6.2193   15.3676   43.8353 C   0  0  0  0  0  0  0  0  0  0  0  0
   -6.8569   14.1298   43.3394 O   0  0  0  0  0  0  0  0  0  0  0  0
  1  3  1  0  0  0  0
  1  2  1  1  0  0  0
  3  5  1  0  0  0  0
  3  4  1  1  0  0  0
  5  6  1  6  0  0  0
  7  8  1  1  0  0  0
  7  5  1  0  0  0  0
  9 10  1  6  0  0  0
  9  7  1  0  0  0  0
 10  1  1  0  0  0  0
 11 13  1  1  0  0  0
 11  9  1  0  0  0  0
 12 11  1  0  0  0  0
 14 15  1  1  0  0  0
 16 14  1  0  0  0  0
 17 18  1  1  0  0  0
 17 16  1  0  0  0  0
 19  2  1  6  0  0  0
 19 20  1  0  0  0  0
 19 17  1  0  0  0  0
 20 21  1  1  0  0  0
 20 22  1  0  0  0  0
 22 23  1  6  0  0  0
 22 14  1  0  0  0  0
 24 23  1  6  0  0  0
 24 25  1  0  0  0  0
 25 27  1  0  0  0  0
 25 26  1  6  0  0  0
 27 28  1  1  0  0  0
 28 29  1  0  0  0  0
 30 31  1  1  0  0  0
 30 32  1  0  0  0  0
 30 27  1  0  0  0  0
 33 30  1  0  0  0  0
 34 33  1  0  0  0  0
 34 24  1  0  0  0  0
M  END
>  <CHROM.1>
-171.48147043,-53.22880219,46.66675411,70.86737832,-178.25789457,-97.90756125
-5.64707764,15.83260831,39.74812101,-0.19546310,-0.93024851,2.96363216

>  <Name>
lig.pdb

>  <RI>
0

>  <Rbt.Current_Directory>
/home/itssahil/PROJECTS/Mol_Feturizer/New_Systems/rnas/4k32

>  <Rbt.Executable>
rbdock ($Id: //depot/dev/client3/rdock/2013.1/src/exe/rbdock.cxx#4 $)

>  <Rbt.Library>
libRbt.so (2013.1, Build901 2013/11/27)

>  <Rbt.Parameter_File>
/export/apps/rDock/src/rDock_2013.1_src/data/scripts/dock_solv.prm

>  <Rbt.Receptor>
prm/pocket_docking_7.prm

>  <SCORE>
-5.47563

>  <SCORE.INTER>
0.870495

>  <SCORE.INTER.CONST>
1

>  <SCORE.INTER.POLAR>
0

>  <SCORE.INTER.ROT>
6

>  <SCORE.INTER.SOLV>
13.4892

>  <SCORE.INTER.VDW>
-11.5161

>  <SCORE.INTER.norm>
0.0256028

>  <SCORE.INTRA>
-6.34613

>  <SCORE.INTRA.DIHEDRAL>
-15.1498

>  <SCORE.INTRA.DIHEDRAL.0>
18.0069

>  <SCORE.INTRA.POLAR>
0

>  <SCORE.INTRA.POLAR.0>
0

>  <SCORE.INTRA.REPUL>
0

>  <SCORE.INTRA.REPUL.0>
0

>  <SCORE.INTRA.SOLV>
0.226178

>  <SCORE.INTRA.SOLV.lig_0>
-70.7393

>  <SCORE.INTRA.VDW>
1.11569

>  <SCORE.INTRA.VDW.0>
-3.23471

>  <SCORE.INTRA.norm>
-0.186651

>  <SCORE.RESTR>
0

>  <SCORE.RESTR.CAVITY>
0

>  <SCORE.RESTR.norm>
0

>  <SCORE.SYSTEM>
0

>  <SCORE.SYSTEM.CONST>
0

>  <SCORE.SYSTEM.DIHEDRAL>
0

>  <SCORE.SYSTEM.SOLV>
0

>  <SCORE.SYSTEM.norm>
0

>  <SCORE.heavy>
34

>  <SCORE.norm>
-0.161048

>  <RMSD>
6.061

$$$$
lig.pdb
 OpenBabel11021811503D
libRbt.so/2013.1/901 2013/11/27
 34 36  0  0  0  0  0  0  0  0999 V2000
   -1.0510   19.1063   32.6502 C   0  0  2  0  0  0  0  0  0  0  0  0
    0.2045   19.0819   33.3382 O   0  0  0  0  0  0  0  0  0  0  0  0
   -1.4218   20.6170   32.3315 C   0  0  2  0  0  0  0  0  0  0  0  0
   -0.4028   21.2648   31.4731 N   0  0  0  0  0  0  0  0  0  0  0  0
   -1.5700   21.4020   33.6591 C   0  0  1  0  0  0  0  0  0  0  0  0
   -1.9110   22.7644   33.3924 O   0  0  0  0  0  0  0  0  0  0  0  0
   -2.6456   20.7134   34.5180 C   0  0  2  0  0  0  0  0  0  0  0  0
   -2.7952   21.4299   35.7447 O   0  0  0  0  0  0  0  0  0  0  0  0
   -2.2318   19.2160   34.7878 C   0  0  2  0  0  0  0  0  0  0  0  0
   -2.0581   18.4834   33.5154 O   0  0  0  0  0  0  0  0  0  0  0  0
   -3.2945   18.4752   35.6369 C   0  0  2  0  0  0  0  0  0  0  0  0
   -3.4123   19.0989   36.9170 O   0  0  0  0  0  0  0  0  0  0  0  0
   -2.9160   17.0164   35.8406 C   0  0  0  0  0  0  0  0  0  0  0  0
    1.6580   17.4399   37.0136 C   0  0  2  0  0  0  0  0  0  0  0  0
    1.7418   17.0551   38.4246 N   0  0  0  0  0  0  0  0  0  0  0  0
    1.3549   18.9631   36.9688 C   0  0  0  0  0  0  0  0  0  0  0  0
    1.2862   19.3956   35.4790 C   0  0  2  0  0  0  0  0  0  0  0  0
    1.0056   20.8371   35.3882 N   0  0  0  0  0  0  0  0  0  0  0  0
    0.1790   18.6123   34.7238 C   0  0  2  0  0  0  0  0  0  0  0  0
    0.4799   17.0834   34.8216 C   0  0  2  0  0  0  0  0  0  0  0  0
   -0.5497   16.3602   34.1334 O   0  0  0  0  0  0  0  0  0  0  0  0
    0.5026   16.6204   36.2986 C   0  0  1  0  0  0  0  0  0  0  0  0
    0.7974   15.2017   36.3020 O   0  0  0  0  0  0  0  0  0  0  0  0
   -0.3208   14.3204   36.5599 C   0  0  2  0  0  0  0  0  0  0  0  0
    0.2985   12.9088   36.8778 C   0  0  2  0  0  0  0  0  0  0  0  0
    1.1320   12.9950   38.0229 O   0  0  0  0  0  0  0  0  0  0  0  0
    1.1128   12.4125   35.6235 C   0  0  1  0  0  0  0  0  0  0  0  0
    1.7290   11.0760   35.8846 N   0  0  0  0  0  0  0  0  0  0  0  0
    3.1640   11.1335   35.5323 C   0  0  0  0  0  0  0  0  0  0  0  0
    0.1436   12.3321   34.4050 C   0  0  2  0  0  0  0  0  0  0  0  0
   -0.8919   11.3976   34.7051 O   0  0  0  0  0  0  0  0  0  0  0  0
    0.8600   11.8647   33.1405 C   0  0  0  0  0  0  0  0  0  0  0  0
   -0.4868   13.7402   34.1583 C   0  0  0  0  0  0  0  0  0  0  0  0
   -1.1859   14.2253   35.3668 O   0  0  0  0  0  0  0  0  0  0  0  0
  1  3  1  0  0  0  0
  1  2  1  1  0  0  0
  3  5  1  0  0  0  0
  3  4  1  6  0  0  0
  5  6  1  6  0  0  0
  7  8  1  1  0  0  0
  7  5  1  0  0  0  0
  9 10  1  6  0  0  0
  9  7  1  0  0  0  0
 10  1  1  0  0  0  0
 11 13  1  1  0  0  0
 11  9  1  0  0  0  0
 12 11  1  0  0  0  0
 14 15  1  1  0  0  0
 16 14  1  0  0  0  0
 17 18  1  1  0  0  0
 17 16  1  0  0  0  0
 19  2  1  6  0  0  0
 19 20  1  0  0  0  0
 19 17  1  0  0  0  0
 20 21  1  6  0  0  0
 20 22  1  0  0  0  0
 22 23  1  6  0  0  0
 22 14  1  0  0  0  0
 24 23  1  6  0  0  0
 24 25  1  0  0  0  0
 25 27  1  0  0  0  0
 25 26  1  1  0  0  0
 27 28  1  1  0  0  0
 28 29  1  0  0  0  0
 30 31  1  1  0  0  0
 30 32  1  0  0  0  0
 30 27  1  0  0  0  0
 33 30  1  0  0  0  0
 34 33  1  0  0  0  0
 34 24  1  0  0  0  0
M  END
>  <CHROM.1>
114.34257118,-62.22745974,-147.43737605,139.72895912,-165.78612776,-129.60919526
-0.36088761,16.88182621,35.11070398,2.13112033,-1.02786377,0.31129930

>  <Name>
lig.pdb

>  <RI>
0

>  <Rbt.Current_Directory>
/home/itssahil/PROJECTS/Mol_Feturizer/New_Systems/rnas/4k32

>  <Rbt.Executable>
rbdock ($Id: //depot/dev/client3/rdock/2013.1/src/exe/rbdock.cxx#4 $)

>  <Rbt.Library>
libRbt.so (2013.1, Build901 2013/11/27)

>  <Rbt.Parameter_File>
/export/apps/rDock/src/rDock_2013.1_src/data/scripts/dock_solv.prm

>  <Rbt.Receptor>
prm/blind_docking_100.prm

>  <SCORE>
24.3758

>  <SCORE.INTER>
6.75449

>  <SCORE.INTER.CONST>
1

>  <SCORE.INTER.POLAR>
0

>  <SCORE.INTER.ROT>
6

>  <SCORE.INTER.SOLV>
27.3938

>  <SCORE.INTER.VDW>
-12.2283

>  <SCORE.INTER.norm>
0.198661

>  <SCORE.INTRA>
9.27973

>  <SCORE.INTRA.DIHEDRAL>
0.641842

>  <SCORE.INTRA.DIHEDRAL.0>
18.0069

>  <SCORE.INTRA.POLAR>
0

>  <SCORE.INTRA.POLAR.0>
0

>  <SCORE.INTRA.REPUL>
0

>  <SCORE.INTRA.REPUL.0>
0

>  <SCORE.INTRA.SOLV>
1.29592

>  <SCORE.INTRA.SOLV.lig_0>
-70.7393

>  <SCORE.INTRA.VDW>
8.31085

>  <SCORE.INTRA.VDW.0>
-3.23471

>  <SCORE.INTRA.norm>
0.272933

>  <SCORE.RESTR>
8.34157

>  <SCORE.RESTR.CAVITY>
8.34157

>  <SCORE.RESTR.norm>
0.24534

>  <SCORE.SYSTEM>
0

>  <SCORE.SYSTEM.CONST>
0

>  <SCORE.SYSTEM.DIHEDRAL>
0

>  <SCORE.SYSTEM.SOLV>
0

>  <SCORE.SYSTEM.norm>
0

>  <SCORE.heavy>
34

>  <SCORE.norm>
0.716935

>  <RMSD>
6.071

$$$$
lig.pdb
 OpenBabel11021811503D
libRbt.so/2013.1/901 2013/11/27
 34 36  0  0  0  0  0  0  0  0999 V2000
   -2.4564   20.0183   35.2138 C   0  0  2  0  0  0  0  0  0  0  0  0
   -1.9921   19.7918   36.5492 O   0  0  0  0  0  0  0  0  0  0  0  0
   -2.4609   18.6319   34.4399 C   0  0  2  0  0  0  0  0  0  0  0  0
   -3.3546   17.6430   35.0867 N   0  0  0  0  0  0  0  0  0  0  0  0
   -1.0167   18.0744   34.3735 C   0  0  1  0  0  0  0  0  0  0  0  0
   -0.9996   16.8282   33.6733 O   0  0  0  0  0  0  0  0  0  0  0  0
   -0.1202   19.1173   33.6826 C   0  0  2  0  0  0  0  0  0  0  0  0
    1.2147   18.6140   33.6113 O   0  0  0  0  0  0  0  0  0  0  0  0
   -0.1681   20.4740   34.4847 C   0  0  2  0  0  0  0  0  0  0  0  0
   -1.5541   20.9811   34.5737 O   0  0  0  0  0  0  0  0  0  0  0  0
    0.7083   21.5624   33.8165 C   0  0  2  0  0  0  0  0  0  0  0  0
    2.0327   21.0638   33.6190 O   0  0  0  0  0  0  0  0  0  0  0  0
    0.7838   22.8130   34.6785 C   0  0  0  0  0  0  0  0  0  0  0  0
   -0.9794   16.4478   39.0207 C   0  0  2  0  0  0  0  0  0  0  0  0
   -0.7753   15.0708   39.4773 N   0  0  0  0  0  0  0  0  0  0  0  0
   -2.4389   16.5479   38.4975 C   0  0  0  0  0  0  0  0  0  0  0  0
   -2.6827   18.0087   38.0308 C   0  0  2  0  0  0  0  0  0  0  0  0
   -4.0590   18.1518   37.5306 N   0  0  0  0  0  0  0  0  0  0  0  0
   -1.6882   18.4060   36.9070 C   0  0  2  0  0  0  0  0  0  0  0  0
   -0.2290   18.2536   37.4410 C   0  0  2  0  0  0  0  0  0  0  0  0
    0.6890   18.6099   36.3985 O   0  0  0  0  0  0  0  0  0  0  0  0
    0.0519   16.7915   37.8649 C   0  0  1  0  0  0  0  0  0  0  0  0
    1.4143   16.7383   38.3557 O   0  0  0  0  0  0  0  0  0  0  0  0
    2.2850   15.7784   37.7122 C   0  0  2  0  0  0  0  0  0  0  0  0
    1.7190   14.3571   38.0823 C   0  0  2  0  0  0  0  0  0  0  0  0
    0.3933   14.2242   37.5943 O   0  0  0  0  0  0  0  0  0  0  0  0
    1.7646   14.1793   39.6473 C   0  0  1  0  0  0  0  0  0  0  0  0
    1.2254   12.8435   40.0463 N   0  0  0  0  0  0  0  0  0  0  0  0
    0.4595   12.9923   41.3024 C   0  0  0  0  0  0  0  0  0  0  0  0
    3.2430   14.3284   40.1191 C   0  0  2  0  0  0  0  0  0  0  0  0
    4.0263   13.3107   39.4976 O   0  0  0  0  0  0  0  0  0  0  0  0
    3.3731   14.1771   41.6326 C   0  0  0  0  0  0  0  0  0  0  0  0
    3.7797   15.7304   39.6859 C   0  0  0  0  0  0  0  0  0  0  0  0
    3.6639   15.9118   38.2236 O   0  0  0  0  0  0  0  0  0  0  0  0
  1  3  1  0  0  0  0
  1  2  1  1  0  0  0
  3  5  1  0  0  0  0
  3  4  1  1  0  0  0
  5  6  1  6  0  0  0
  7  8  1  1  0  0  0
  7  5  1  0  0  0  0
  9 10  1  6  0  0  0
  9  7  1  0  0  0  0
 10  1  1  0  0  0  0
 11 13  1  1  0  0  0
 11  9  1  0  0  0  0
 12 11  1  0  0  0  0
 14 15  1  6  0  0  0
 16 14  1  0  0  0  0
 17 18  1  6  0  0  0
 17 16  1  0  0  0  0
 19  2  1  1  0  0  0
 19 20  1  0  0  0  0
 19 17  1  0  0  0  0
 20 21  1  6  0  0  0
 20 22  1  0  0  0  0
 22 23  1  1  0  0  0
 22 14  1  0  0  0  0
 24 23  1  1  0  0  0
 24 25  1  0  0  0  0
 25 27  1  0  0  0  0
 25 26  1  1  0  0  0
 27 28  1  6  0  0  0
 28 29  1  0  0  0  0
 30 31  1  6  0  0  0
 30 32  1  0  0  0  0
 30 27  1  0  0  0  0
 33 30  1  0  0  0  0
 34 33  1  0  0  0  0
 34 24  1  0  0  0  0
M  END
>  <CHROM.1>
-2.11904285,-53.25441396,-116.31920787,119.61431007,-66.24722406,-142.57133679
0.21345703,17.25457624,37.06682154,1.93099807,0.03857569,-0.74475649

>  <Name>
lig.pdb

>  <RI>
0

>  <Rbt.Current_Directory>
/home/itssahil/PROJECTS/Mol_Feturizer/New_Systems/rnas/4k32

>  <Rbt.Executable>
rbdock ($Id: //depot/dev/client3/rdock/2013.1/src/exe/rbdock.cxx#4 $)

>  <Rbt.Library>
libRbt.so (2013.1, Build901 2013/11/27)

>  <Rbt.Parameter_File>
/export/apps/rDock/src/rDock_2013.1_src/data/scripts/dock_solv.prm

>  <Rbt.Receptor>
prm/blind_docking_100.prm

>  <SCORE>
35.4987

>  <SCORE.INTER>
6.74486

>  <SCORE.INTER.CONST>
1

>  <SCORE.INTER.POLAR>
0

>  <SCORE.INTER.ROT>
6

>  <SCORE.INTER.SOLV>
25.4524

>  <SCORE.INTER.VDW>
-11.5876

>  <SCORE.INTER.norm>
0.198378

>  <SCORE.INTRA>
19.2435

>  <SCORE.INTRA.DIHEDRAL>
4.65879

>  <SCORE.INTRA.DIHEDRAL.0>
18.0069

>  <SCORE.INTRA.POLAR>
0

>  <SCORE.INTRA.POLAR.0>
0

>  <SCORE.INTRA.REPUL>
0

>  <SCORE.INTRA.REPUL.0>
0

>  <SCORE.INTRA.SOLV>
10.2975

>  <SCORE.INTRA.SOLV.lig_0>
-70.7393

>  <SCORE.INTRA.VDW>
11.7654

>  <SCORE.INTRA.VDW.0>
-3.23471

>  <SCORE.INTRA.norm>
0.565987

>  <SCORE.RESTR>
9.51027

>  <SCORE.RESTR.CAVITY>
9.51027

>  <SCORE.RESTR.norm>
0.279714

>  <SCORE.SYSTEM>
0

>  <SCORE.SYSTEM.CONST>
0

>  <SCORE.SYSTEM.DIHEDRAL>
0

>  <SCORE.SYSTEM.SOLV>
0

>  <SCORE.SYSTEM.norm>
0

>  <SCORE.heavy>
34

>  <SCORE.norm>
1.04408

>  <RMSD>
6.078

$$$$
lig.pdb
 OpenBabel11021811503D
libRbt.so/2013.1/901 2013/11/27
 34 36  0  0  0  0  0  0  0  0999 V2000
   -1.1457   23.1312   34.7383 C   0  0  2  0  0  0  0  0  0  0  0  0
   -1.4571   22.0297   33.8781 O   0  0  0  0  0  0  0  0  0  0  0  0
   -1.4788   24.4804   33.9702 C   0  0  2  0  0  0  0  0  0  0  0  0
   -2.9107   24.5639   33.5995 N   0  0  0  0  0  0  0  0  0  0  0  0
   -0.5978   24.5806   32.6995 C   0  0  1  0  0  0  0  0  0  0  0  0
   -0.8789   25.7937   31.9975 O   0  0  0  0  0  0  0  0  0  0  0  0
    0.8805   24.5074   33.1213 C   0  0  2  0  0  0  0  0  0  0  0  0
    1.7048   24.6025   31.9585 O   0  0  0  0  0  0  0  0  0  0  0  0
    1.1472   23.1574   33.8912 C   0  0  2  0  0  0  0  0  0  0  0  0
    0.2778   23.0535   35.0826 O   0  0  0  0  0  0  0  0  0  0  0  0
    2.6219   23.0455   34.3514 C   0  0  2  0  0  0  0  0  0  0  0  0
    2.8283   21.7978   35.0164 O   0  0  0  0  0  0  0  0  0  0  0  0
    2.9864   24.1710   35.3069 C   0  0  0  0  0  0  0  0  0  0  0  0
   -2.0485   17.8328   34.4725 C   0  0  2  0  0  0  0  0  0  0  0  0
   -1.8328   16.4472   34.8962 N   0  0  0  0  0  0  0  0  0  0  0  0
   -0.7727   18.2852   33.7099 C   0  0  0  0  0  0  0  0  0  0  0  0
   -0.9919   19.7458   33.2308 C   0  0  2  0  0  0  0  0  0  0  0  0
    0.1933   20.2155   32.4962 N   0  0  0  0  0  0  0  0  0  0  0  0
   -1.2538   20.6914   34.4337 C   0  0  2  0  0  0  0  0  0  0  0  0
   -2.5121   20.1908   35.2107 C   0  0  2  0  0  0  0  0  0  0  0  0
   -2.7463   21.0584   36.3282 O   0  0  0  0  0  0  0  0  0  0  0  0
   -2.2949   18.7529   35.7415 C   0  0  1  0  0  0  0  0  0  0  0  0
   -3.5051   18.3616   36.4360 O   0  0  0  0  0  0  0  0  0  0  0  0
   -3.6982   18.9361   37.7499 C   0  0  2  0  0  0  0  0  0  0  0  0
   -3.2443   17.8358   38.7798 C   0  0  2  0  0  0  0  0  0  0  0  0
   -1.8759   17.5205   38.5764 O   0  0  0  0  0  0  0  0  0  0  0  0
   -4.1503   16.5595   38.5983 C   0  0  1  0  0  0  0  0  0  0  0  0
   -3.7473   15.4816   39.5521 N   0  0  0  0  0  0  0  0  0  0  0  0
   -2.9614   14.4647   38.8207 C   0  0  0  0  0  0  0  0  0  0  0  0
   -5.6351   16.9685   38.8408 C   0  0  2  0  0  0  0  0  0  0  0  0
   -5.7619   17.4612   40.1738 O   0  0  0  0  0  0  0  0  0  0  0  0
   -6.5838   15.7842   38.6747 C   0  0  0  0  0  0  0  0  0  0  0  0
   -6.0265   18.0969   37.8335 C   0  0  0  0  0  0  0  0  0  0  0  0
   -5.1230   19.2593   37.9650 O   0  0  0  0  0  0  0  0  0  0  0  0
  1  3  1  0  0  0  0
  1  2  1  6  0  0  0
  3  5  1  0  0  0  0
  3  4  1  6  0  0  0
  5  6  1  1  0  0  0
  7  8  1  6  0  0  0
  7  5  1  0  0  0  0
  9 10  1  1  0  0  0
  9  7  1  0  0  0  0
 10  1  1  0  0  0  0
 11 13  1  1  0  0  0
 11  9  1  0  0  0  0
 12 11  1  0  0  0  0
 14 15  1  1  0  0  0
 16 14  1  0  0  0  0
 17 18  1  1  0  0  0
 17 16  1  0  0  0  0
 19  2  1  6  0  0  0
 19 20  1  0  0  0  0
 19 17  1  0  0  0  0
 20 21  1  1  0  0  0
 20 22  1  0  0  0  0
 22 23  1  6  0  0  0
 22 14  1  0  0  0  0
 24 23  1  6  0  0  0
 24 25  1  0  0  0  0
 25 27  1  0  0  0  0
 25 26  1  6  0  0  0
 27 28  1  1  0  0  0
 28 29  1  0  0  0  0
 30 31  1  1  0  0  0
 30 32  1  0  0  0  0
 30 27  1  0  0  0  0
 33 30  1  0  0  0  0
 34 33  1  0  0  0  0
 34 24  1  0  0  0  0
M  END
>  <CHROM.1>
-178.12344146,-178.68663339,-153.82500564,167.87629889,-99.29080060,-102.62668785
-1.83427620,20.27494149,35.67054574,1.00135241,0.36523325,-0.39960627

>  <Name>
lig.pdb

>  <RI>
0

>  <Rbt.Current_Directory>
/home/itssahil/PROJECTS/Mol_Feturizer/New_Systems/rnas/4k32

>  <Rbt.Executable>
rbdock ($Id: //depot/dev/client3/rdock/2013.1/src/exe/rbdock.cxx#4 $)

>  <Rbt.Library>
libRbt.so (2013.1, Build901 2013/11/27)

>  <Rbt.Parameter_File>
/export/apps/rDock/src/rDock_2013.1_src/data/scripts/dock_solv.prm

>  <Rbt.Receptor>
prm/pocket_docking_6.prm

>  <SCORE>
-11.2896

>  <SCORE.INTER>
-7.34497

>  <SCORE.INTER.CONST>
1

>  <SCORE.INTER.POLAR>
0

>  <SCORE.INTER.ROT>
6

>  <SCORE.INTER.SOLV>
18.721

>  <SCORE.INTER.VDW>
-18.737

>  <SCORE.INTER.norm>
-0.216029

>  <SCORE.INTRA>
-3.94466

>  <SCORE.INTRA.DIHEDRAL>
-8.09355

>  <SCORE.INTRA.DIHEDRAL.0>
18.0069

>  <SCORE.INTRA.POLAR>
0

>  <SCORE.INTRA.POLAR.0>
0

>  <SCORE.INTRA.REPUL>
0

>  <SCORE.INTRA.REPUL.0>
0

>  <SCORE.INTRA.SOLV>
-1.01364

>  <SCORE.INTRA.SOLV.lig_0>
-70.7393

>  <SCORE.INTRA.VDW>
0.608934

>  <SCORE.INTRA.VDW.0>
-3.23471

>  <SCORE.INTRA.norm>
-0.116019

>  <SCORE.RESTR>
0

>  <SCORE.RESTR.CAVITY>
0

>  <SCORE.RESTR.norm>
0

>  <SCORE.SYSTEM>
0

>  <SCORE.SYSTEM.CONST>
0

>  <SCORE.SYSTEM.DIHEDRAL>
0

>  <SCORE.SYSTEM.SOLV>
0

>  <SCORE.SYSTEM.norm>
0

>  <SCORE.heavy>
34

>  <SCORE.norm>
-0.332048

>  <RMSD>
6.152

$$$$
lig.pdb
 OpenBabel11021811503D
libRbt.so/2013.1/901 2013/11/27
 34 36  0  0  0  0  0  0  0  0999 V2000
   -1.1952   19.1258   33.0359 C   0  0  2  0  0  0  0  0  0  0  0  0
    0.1238   19.2061   33.5873 O   0  0  0  0  0  0  0  0  0  0  0  0
   -1.6477   20.5832   32.5973 C   0  0  2  0  0  0  0  0  0  0  0  0
   -0.7439   21.1553   31.5722 N   0  0  0  0  0  0  0  0  0  0  0  0
   -1.6869   21.5065   33.8410 C   0  0  1  0  0  0  0  0  0  0  0  0
   -2.0994   22.8230   33.4666 O   0  0  0  0  0  0  0  0  0  0  0  0
   -2.6455   20.8926   34.8769 C   0  0  2  0  0  0  0  0  0  0  0  0
   -2.6940   21.7366   36.0283 O   0  0  0  0  0  0  0  0  0  0  0  0
   -2.1556   19.4439   35.2612 C   0  0  2  0  0  0  0  0  0  0  0  0
   -2.0873   18.5794   34.0637 O   0  0  0  0  0  0  0  0  0  0  0  0
   -3.1007   18.7774   36.2915 C   0  0  2  0  0  0  0  0  0  0  0  0
   -3.1861   19.5878   37.4653 O   0  0  0  0  0  0  0  0  0  0  0  0
   -2.5961   17.3990   36.6889 C   0  0  0  0  0  0  0  0  0  0  0  0
    2.1001   17.0376   36.7031 C   0  0  2  0  0  0  0  0  0  0  0  0
    2.4191   16.4827   38.0209 N   0  0  0  0  0  0  0  0  0  0  0  0
    1.9399   18.5732   36.8766 C   0  0  0  0  0  0  0  0  0  0  0  0
    1.6249   19.1837   35.4840 C   0  0  2  0  0  0  0  0  0  0  0  0
    1.4701   20.6423   35.5997 N   0  0  0  0  0  0  0  0  0  0  0  0
    0.3231   18.5782   34.8937 C   0  0  2  0  0  0  0  0  0  0  0  0
    0.4909   17.0307   34.7718 C   0  0  2  0  0  0  0  0  0  0  0  0
   -0.7165   16.4712   34.2372 O   0  0  0  0  0  0  0  0  0  0  0  0
    0.7556   16.3950   36.1582 C   0  0  1  0  0  0  0  0  0  0  0  0
    0.9096   14.9683   35.9568 O   0  0  0  0  0  0  0  0  0  0  0  0
   -0.2401   14.1523   36.2825 C   0  0  2  0  0  0  0  0  0  0  0  0
    0.3240   12.7328   36.6624 C   0  0  2  0  0  0  0  0  0  0  0  0
    1.1852   12.8410   37.7849 O   0  0  0  0  0  0  0  0  0  0  0  0
    1.0884   12.1364   35.4203 C   0  0  1  0  0  0  0  0  0  0  0  0
    1.6514   10.7890   35.7396 N   0  0  0  0  0  0  0  0  0  0  0  0
    3.0971   10.9281   36.0175 C   0  0  0  0  0  0  0  0  0  0  0  0
    0.0903   12.0362   34.2269 C   0  0  2  0  0  0  0  0  0  0  0  0
   -0.9782   11.1657   34.5960 O   0  0  0  0  0  0  0  0  0  0  0  0
    0.7579   11.4724   32.9751 C   0  0  0  0  0  0  0  0  0  0  0  0
   -0.4834   13.4564   33.9186 C   0  0  0  0  0  0  0  0  0  0  0  0
   -1.1342   14.0341   35.1132 O   0  0  0  0  0  0  0  0  0  0  0  0
  1  3  1  0  0  0  0
  1  2  1  1  0  0  0
  3  5  1  0  0  0  0
  3  4  1  6  0  0  0
  5  6  1  6  0  0  0
  7  8  1  1  0  0  0
  7  5  1  0  0  0  0
  9 10  1  6  0  0  0
  9  7  1  0  0  0  0
 10  1  1  0  0  0  0
 11 13  1  1  0  0  0
 11  9  1  0  0  0  0
 12 11  1  0  0  0  0
 14 15  1  1  0  0  0
 16 14  1  0  0  0  0
 17 18  1  1  0  0  0
 17 16  1  0  0  0  0
 19  2  1  6  0  0  0
 19 20  1  0  0  0  0
 19 17  1  0  0  0  0
 20 21  1  1  0  0  0
 20 22  1  0  0  0  0
 22 23  1  6  0  0  0
 22 14  1  0  0  0  0
 24 23  1  6  0  0  0
 24 25  1  0  0  0  0
 25 27  1  0  0  0  0
 25 26  1  1  0  0  0
 27 28  1  1  0  0  0
 28 29  1  0  0  0  0
 30 31  1  1  0  0  0
 30 32  1  0  0  0  0
 30 27  1  0  0  0  0
 33 30  1  0  0  0  0
 34 33  1  0  0  0  0
 34 24  1  0  0  0  0
M  END
>  <CHROM.1>
129.31976096,-57.96013691,-161.44375479,142.71044925,-153.21544763,-101.44212351
-0.29135837,16.80681205,35.18954825,2.01418186,-0.86337125,0.22428384

>  <Name>
lig.pdb

>  <RI>
0

>  <Rbt.Current_Directory>
/home/itssahil/PROJECTS/Mol_Feturizer/New_Systems/rnas/4k32

>  <Rbt.Executable>
rbdock ($Id: //depot/dev/client3/rdock/2013.1/src/exe/rbdock.cxx#4 $)

>  <Rbt.Library>
libRbt.so (2013.1, Build901 2013/11/27)

>  <Rbt.Parameter_File>
/export/apps/rDock/src/rDock_2013.1_src/data/scripts/dock_solv.prm

>  <Rbt.Receptor>
prm/blind_docking_100.prm

>  <SCORE>
30.2103

>  <SCORE.INTER>
18.2227

>  <SCORE.INTER.CONST>
1

>  <SCORE.INTER.POLAR>
0

>  <SCORE.INTER.ROT>
6

>  <SCORE.INTER.SOLV>
30.5659

>  <SCORE.INTER.VDW>
-5.64014

>  <SCORE.INTER.norm>
0.535963

>  <SCORE.INTRA>
2.45303

>  <SCORE.INTRA.DIHEDRAL>
-0.769829

>  <SCORE.INTRA.DIHEDRAL.0>
18.0069

>  <SCORE.INTRA.POLAR>
0

>  <SCORE.INTRA.POLAR.0>
0

>  <SCORE.INTRA.REPUL>
0

>  <SCORE.INTRA.REPUL.0>
0

>  <SCORE.INTRA.SOLV>
-0.461233

>  <SCORE.INTRA.SOLV.lig_0>
-70.7393

>  <SCORE.INTRA.VDW>
3.06856

>  <SCORE.INTRA.VDW.0>
-3.23471

>  <SCORE.INTRA.norm>
0.0721478

>  <SCORE.RESTR>
9.53458

>  <SCORE.RESTR.CAVITY>
9.53458

>  <SCORE.RESTR.norm>
0.280429

>  <SCORE.SYSTEM>
0

>  <SCORE.SYSTEM.CONST>
0

>  <SCORE.SYSTEM.DIHEDRAL>
0

>  <SCORE.SYSTEM.SOLV>
0

>  <SCORE.SYSTEM.norm>
0

>  <SCORE.heavy>
34

>  <SCORE.norm>
0.888539

>  <RMSD>
6.156

$$$$
lig.pdb
 OpenBabel11021811503D
libRbt.so/2013.1/901 2013/11/27
 34 36  0  0  0  0  0  0  0  0999 V2000
   -4.4693   16.0614   37.6339 C   0  0  2  0  0  0  0  0  0  0  0  0
   -4.6371   14.8635   38.4001 O   0  0  0  0  0  0  0  0  0  0  0  0
   -3.1459   16.7906   38.1220 C   0  0  2  0  0  0  0  0  0  0  0  0
   -1.9472   15.9405   37.9337 N   0  0  0  0  0  0  0  0  0  0  0  0
   -3.2909   17.1752   39.6160 C   0  0  1  0  0  0  0  0  0  0  0  0
   -2.1104   17.8399   40.0721 O   0  0  0  0  0  0  0  0  0  0  0  0
   -4.5334   18.0698   39.7732 C   0  0  2  0  0  0  0  0  0  0  0  0
   -4.6769   18.4352   41.1467 O   0  0  0  0  0  0  0  0  0  0  0  0
   -5.8103   17.3008   39.2591 C   0  0  2  0  0  0  0  0  0  0  0  0
   -5.6494   16.9066   37.8432 O   0  0  0  0  0  0  0  0  0  0  0  0
   -7.0868   18.1694   39.3822 C   0  0  2  0  0  0  0  0  0  0  0  0
   -8.2402   17.3800   39.0857 O   0  0  0  0  0  0  0  0  0  0  0  0
   -7.0447   19.3475   38.4215 C   0  0  0  0  0  0  0  0  0  0  0  0
   -6.2745   11.0764   37.2628 C   0  0  2  0  0  0  0  0  0  0  0  0
   -7.2338   10.0386   36.8769 N   0  0  0  0  0  0  0  0  0  0  0  0
   -6.8091   11.7372   38.5633 C   0  0  0  0  0  0  0  0  0  0  0  0
   -5.7921   12.8252   39.0025 C   0  0  2  0  0  0  0  0  0  0  0  0
   -6.2565   13.4759   40.2377 N   0  0  0  0  0  0  0  0  0  0  0  0
   -5.6156   13.8995   37.8959 C   0  0  2  0  0  0  0  0  0  0  0  0
   -5.1223   13.2060   36.5869 C   0  0  2  0  0  0  0  0  0  0  0  0
   -4.9705   14.1977   35.5621 O   0  0  0  0  0  0  0  0  0  0  0  0
   -6.1472   12.1516   36.1030 C   0  0  1  0  0  0  0  0  0  0  0  0
   -5.6120   11.5506   34.8979 O   0  0  0  0  0  0  0  0  0  0  0  0
   -5.8915   12.2479   33.6613 C   0  0  2  0  0  0  0  0  0  0  0  0
   -5.9696   11.1427   32.5434 C   0  0  2  0  0  0  0  0  0  0  0  0
   -7.0141   10.2294   32.8408 O   0  0  0  0  0  0  0  0  0  0  0  0
   -4.5811   10.4029   32.4567 C   0  0  1  0  0  0  0  0  0  0  0  0
   -4.6124    9.3347   31.4116 N   0  0  0  0  0  0  0  0  0  0  0  0
   -4.4328    8.0204   32.0652 C   0  0  0  0  0  0  0  0  0  0  0  0
   -3.4804   11.4550   32.1215 C   0  0  2  0  0  0  0  0  0  0  0  0
   -3.7859   12.0511   30.8618 O   0  0  0  0  0  0  0  0  0  0  0  0
   -2.0965   10.8174   32.0277 C   0  0  0  0  0  0  0  0  0  0  0  0
   -3.4734   12.5587   33.2274 C   0  0  0  0  0  0  0  0  0  0  0  0
   -4.8023   13.1945   33.3477 O   0  0  0  0  0  0  0  0  0  0  0  0
  1  3  1  0  0  0  0
  1  2  1  1  0  0  0
  3  5  1  0  0  0  0
  3  4  1  1  0  0  0
  5  6  1  6  0  0  0
  7  8  1  1  0  0  0
  7  5  1  0  0  0  0
  9 10  1  6  0  0  0
  9  7  1  0  0  0  0
 10  1  1  0  0  0  0
 11 13  1  6  0  0  0
 11  9  1  0  0  0  0
 12 11  1  0  0  0  0
 14 15  1  6  0  0  0
 16 14  1  0  0  0  0
 17 18  1  1  0  0  0
 17 16  1  0  0  0  0
 19  2  1  1  0  0  0
 19 20  1  0  0  0  0
 19 17  1  0  0  0  0
 20 21  1  6  0  0  0
 20 22  1  0  0  0  0
 22 23  1  6  0  0  0
 22 14  1  0  0  0  0
 24 23  1  1  0  0  0
 24 25  1  0  0  0  0
 25 27  1  0  0  0  0
 25 26  1  1  0  0  0
 27 28  1  6  0  0  0
 28 29  1  0  0  0  0
 30 31  1  6  0  0  0
 30 32  1  0  0  0  0
 30 27  1  0  0  0  0
 33 30  1  0  0  0  0
 34 33  1  0  0  0  0
 34 24  1  0  0  0  0
M  END
>  <CHROM.1>
-166.17025111,-171.93732166,-170.53702880,158.19098421,-149.22730079,-115.79468490
-5.07759784,13.84351258,36.34452565,-1.61920722,-0.69180641,-2.38520475

>  <Name>
lig.pdb

>  <RI>
0

>  <Rbt.Current_Directory>
/home/itssahil/PROJECTS/Mol_Feturizer/New_Systems/rnas/4k32

>  <Rbt.Executable>
rbdock ($Id: //depot/dev/client3/rdock/2013.1/src/exe/rbdock.cxx#4 $)

>  <Rbt.Library>
libRbt.so (2013.1, Build901 2013/11/27)

>  <Rbt.Parameter_File>
/export/apps/rDock/src/rDock_2013.1_src/data/scripts/dock_solv.prm

>  <Rbt.Receptor>
prm/pocket_docking_8.prm

>  <SCORE>
-8.84197

>  <SCORE.INTER>
-4.18819

>  <SCORE.INTER.CONST>
1

>  <SCORE.INTER.POLAR>
0

>  <SCORE.INTER.ROT>
6

>  <SCORE.INTER.SOLV>
17.5291

>  <SCORE.INTER.VDW>
-16.2352

>  <SCORE.INTER.norm>
-0.123182

>  <SCORE.INTRA>
-4.65378

>  <SCORE.INTRA.DIHEDRAL>
-9.35388

>  <SCORE.INTRA.DIHEDRAL.0>
18.0069

>  <SCORE.INTRA.POLAR>
0

>  <SCORE.INTRA.POLAR.0>
0

>  <SCORE.INTRA.REPUL>
0

>  <SCORE.INTRA.REPUL.0>
0

>  <SCORE.INTRA.SOLV>
-2.6652

>  <SCORE.INTRA.SOLV.lig_0>
-70.7393

>  <SCORE.INTRA.VDW>
1.35576

>  <SCORE.INTRA.VDW.0>
-3.23471

>  <SCORE.INTRA.norm>
-0.136876

>  <SCORE.RESTR>
0

>  <SCORE.RESTR.CAVITY>
0

>  <SCORE.RESTR.norm>
0

>  <SCORE.SYSTEM>
0

>  <SCORE.SYSTEM.CONST>
0

>  <SCORE.SYSTEM.DIHEDRAL>
0

>  <SCORE.SYSTEM.SOLV>
0

>  <SCORE.SYSTEM.norm>
0

>  <SCORE.heavy>
34

>  <SCORE.norm>
-0.260058

>  <RMSD>
6.187

$$$$
lig.pdb
 OpenBabel11021811503D
libRbt.so/2013.1/901 2013/11/27
 34 36  0  0  0  0  0  0  0  0999 V2000
   -1.4608   18.1079   34.2145 C   0  0  2  0  0  0  0  0  0  0  0  0
   -0.1238   18.1479   34.7253 O   0  0  0  0  0  0  0  0  0  0  0  0
   -1.7457   19.4650   33.4410 C   0  0  2  0  0  0  0  0  0  0  0  0
   -0.8142   19.6576   32.3051 N   0  0  0  0  0  0  0  0  0  0  0  0
   -1.6284   20.6544   34.4273 C   0  0  1  0  0  0  0  0  0  0  0  0
   -1.8888   21.8859   33.7498 O   0  0  0  0  0  0  0  0  0  0  0  0
   -2.6191   20.4312   35.5838 C   0  0  2  0  0  0  0  0  0  0  0  0
   -2.5240   21.5234   36.4995 O   0  0  0  0  0  0  0  0  0  0  0  0
   -2.2980   19.0648   36.3023 C   0  0  2  0  0  0  0  0  0  0  0  0
   -2.3776   17.9394   35.3468 O   0  0  0  0  0  0  0  0  0  0  0  0
   -3.2818   18.7880   37.4661 C   0  0  2  0  0  0  0  0  0  0  0  0
   -2.6373   17.9986   38.4677 O   0  0  0  0  0  0  0  0  0  0  0  0
   -4.5140   18.0418   36.9785 C   0  0  0  0  0  0  0  0  0  0  0  0
    2.1093   15.2032   36.8836 C   0  0  2  0  0  0  0  0  0  0  0  0
    2.5550   14.3100   37.9559 N   0  0  0  0  0  0  0  0  0  0  0  0
    2.0307   16.6356   37.4801 C   0  0  0  0  0  0  0  0  0  0  0  0
    1.5826   17.6024   36.3507 C   0  0  2  0  0  0  0  0  0  0  0  0
    1.4997   18.9763   36.8707 N   0  0  0  0  0  0  0  0  0  0  0  0
    0.1989   17.1885   35.7818 C   0  0  2  0  0  0  0  0  0  0  0  0
    0.2904   15.7306   35.2304 C   0  0  2  0  0  0  0  0  0  0  0  0
   -0.9914   15.3452   34.7155 O   0  0  0  0  0  0  0  0  0  0  0  0
    0.6869   14.7415   36.3533 C   0  0  1  0  0  0  0  0  0  0  0  0
    0.7604   13.4215   35.7599 O   0  0  0  0  0  0  0  0  0  0  0  0
   -0.4475   12.6275   35.8238 C   0  0  2  0  0  0  0  0  0  0  0  0
   -0.0029   11.1350   35.5953 C   0  0  2  0  0  0  0  0  0  0  0  0
    0.9008   10.7399   36.6154 O   0  0  0  0  0  0  0  0  0  0  0  0
    0.6630   11.0110   34.1727 C   0  0  1  0  0  0  0  0  0  0  0  0
    1.1111    9.6083   33.9160 N   0  0  0  0  0  0  0  0  0  0  0  0
    2.2928    9.6384   33.0276 C   0  0  0  0  0  0  0  0  0  0  0  0
   -0.3786   11.4507   33.0992 C   0  0  2  0  0  0  0  0  0  0  0  0
   -1.5092   10.5839   33.1769 O   0  0  0  0  0  0  0  0  0  0  0  0
    0.1937   11.3674   31.6864 C   0  0  0  0  0  0  0  0  0  0  0  0
   -0.8304   12.9169   33.3944 C   0  0  0  0  0  0  0  0  0  0  0  0
   -1.3865   13.0339   34.7589 O   0  0  0  0  0  0  0  0  0  0  0  0
  1  3  1  0  0  0  0
  1  2  1  1  0  0  0
  3  5  1  0  0  0  0
  3  4  1  6  0  0  0
  5  6  1  6  0  0  0
  7  8  1  1  0  0  0
  7  5  1  0  0  0  0
  9 10  1  6  0  0  0
  9  7  1  0  0  0  0
 10  1  1  0  0  0  0
 11 13  1  6  0  0  0
 11  9  1  0  0  0  0
 12 11  1  0  0  0  0
 14 15  1  1  0  0  0
 16 14  1  0  0  0  0
 17 18  1  1  0  0  0
 17 16  1  0  0  0  0
 19  2  1  6  0  0  0
 19 20  1  0  0  0  0
 19 17  1  0  0  0  0
 20 21  1  1  0  0  0
 20 22  1  0  0  0  0
 22 23  1  6  0  0  0
 22 14  1  0  0  0  0
 24 23  1  6  0  0  0
 24 25  1  0  0  0  0
 25 27  1  0  0  0  0
 25 26  1  1  0  0  0
 27 28  1  6  0  0  0
 28 29  1  0  0  0  0
 30 31  1  1  0  0  0
 30 32  1  0  0  0  0
 30 27  1  0  0  0  0
 33 30  1  0  0  0  0
 34 33  1  0  0  0  0
 34 24  1  0  0  0  0
M  END
>  <CHROM.1>
162.64322823,-151.01564623,-169.32457046,151.36845789,-160.89042871,-149.69314703
-0.51547930,15.72484942,35.23729587,2.03915142,-0.93970092,0.53269169

>  <Name>
lig.pdb

>  <RI>
0

>  <Rbt.Current_Directory>
/home/itssahil/PROJECTS/Mol_Feturizer/New_Systems/rnas/4k32

>  <Rbt.Executable>
rbdock ($Id: //depot/dev/client3/rdock/2013.1/src/exe/rbdock.cxx#4 $)

>  <Rbt.Library>
libRbt.so (2013.1, Build901 2013/11/27)

>  <Rbt.Parameter_File>
/export/apps/rDock/src/rDock_2013.1_src/data/scripts/dock_solv.prm

>  <Rbt.Receptor>
prm/blind_docking_100.prm

>  <SCORE>
21.8168

>  <SCORE.INTER>
3.06155

>  <SCORE.INTER.CONST>
1

>  <SCORE.INTER.POLAR>
0

>  <SCORE.INTER.ROT>
6

>  <SCORE.INTER.SOLV>
30.9586

>  <SCORE.INTER.VDW>
-15.8785

>  <SCORE.INTER.norm>
0.0900455

>  <SCORE.INTRA>
0.20175

>  <SCORE.INTRA.DIHEDRAL>
-7.8693

>  <SCORE.INTRA.DIHEDRAL.0>
18.0069

>  <SCORE.INTRA.POLAR>
0

>  <SCORE.INTRA.POLAR.0>
0

>  <SCORE.INTRA.REPUL>
0

>  <SCORE.INTRA.REPUL.0>
0

>  <SCORE.INTRA.SOLV>
-2.48187

>  <SCORE.INTRA.SOLV.lig_0>
-70.7393

>  <SCORE.INTRA.VDW>
5.37733

>  <SCORE.INTRA.VDW.0>
-3.23471

>  <SCORE.INTRA.norm>
0.00593382

>  <SCORE.RESTR>
18.5535

>  <SCORE.RESTR.CAVITY>
18.5535

>  <SCORE.RESTR.norm>
0.545691

>  <SCORE.SYSTEM>
0

>  <SCORE.SYSTEM.CONST>
0

>  <SCORE.SYSTEM.DIHEDRAL>
0

>  <SCORE.SYSTEM.SOLV>
0

>  <SCORE.SYSTEM.norm>
0

>  <SCORE.heavy>
34

>  <SCORE.norm>
0.64167

>  <RMSD>
6.189

$$$$
lig.pdb
 OpenBabel11021811503D
libRbt.so/2013.1/901 2013/11/27
 34 36  0  0  0  0  0  0  0  0999 V2000
   -1.1249   17.6554   34.0185 C   0  0  2  0  0  0  0  0  0  0  0  0
    0.1351   17.7469   34.6925 O   0  0  0  0  0  0  0  0  0  0  0  0
   -1.4828   19.0832   33.4231 C   0  0  2  0  0  0  0  0  0  0  0  0
   -0.4634   19.5466   32.4529 N   0  0  0  0  0  0  0  0  0  0  0  0
   -1.6137   20.1057   34.5799 C   0  0  1  0  0  0  0  0  0  0  0  0
   -1.9429   21.3973   34.0633 O   0  0  0  0  0  0  0  0  0  0  0  0
   -2.6900   19.6031   35.5585 C   0  0  2  0  0  0  0  0  0  0  0  0
   -2.8238   20.5392   36.6291 O   0  0  0  0  0  0  0  0  0  0  0  0
   -2.2894   18.1786   36.1032 C   0  0  2  0  0  0  0  0  0  0  0  0
   -2.1322   17.2177   34.9905 O   0  0  0  0  0  0  0  0  0  0  0  0
   -3.3535   17.6227   37.0819 C   0  0  2  0  0  0  0  0  0  0  0  0
   -4.6605   17.9876   36.6344 O   0  0  0  0  0  0  0  0  0  0  0  0
   -3.1498   18.1720   38.4852 C   0  0  0  0  0  0  0  0  0  0  0  0
    2.0485   15.9032   38.0475 C   0  0  2  0  0  0  0  0  0  0  0  0
    2.2514   15.2443   39.3401 N   0  0  0  0  0  0  0  0  0  0  0  0
    1.1937   17.1743   38.3077 C   0  0  0  0  0  0  0  0  0  0  0  0
    0.9880   17.9008   36.9509 C   0  0  2  0  0  0  0  0  0  0  0  0
    0.1856   19.1178   37.1507 N   0  0  0  0  0  0  0  0  0  0  0  0
    0.2691   16.9782   35.9303 C   0  0  2  0  0  0  0  0  0  0  0  0
    1.1232   15.6882   35.7201 C   0  0  2  0  0  0  0  0  0  0  0  0
    0.4524   14.8316   34.7858 O   0  0  0  0  0  0  0  0  0  0  0  0
    1.2980   14.9207   37.0530 C   0  0  1  0  0  0  0  0  0  0  0  0
    2.1063   13.7507   36.7748 O   0  0  0  0  0  0  0  0  0  0  0  0
    1.5460   12.4797   37.1802 C   0  0  2  0  0  0  0  0  0  0  0  0
    1.5729   11.5618   35.9019 C   0  0  2  0  0  0  0  0  0  0  0  0
    2.9100   11.3917   35.4588 O   0  0  0  0  0  0  0  0  0  0  0  0
    0.6859   12.2214   34.7790 C   0  0  1  0  0  0  0  0  0  0  0  0
    0.6904   11.3864   33.5392 N   0  0  0  0  0  0  0  0  0  0  0  0
    0.5920   12.2765   32.3624 C   0  0  0  0  0  0  0  0  0  0  0  0
   -0.7672   12.3741   35.3226 C   0  0  2  0  0  0  0  0  0  0  0  0
   -1.2764   11.0790   35.6371 O   0  0  0  0  0  0  0  0  0  0  0  0
   -1.6932   13.0167   34.2929 C   0  0  0  0  0  0  0  0  0  0  0  0
   -0.7402   13.2472   36.6180 C   0  0  0  0  0  0  0  0  0  0  0  0
    0.1524   12.6545   37.6361 O   0  0  0  0  0  0  0  0  0  0  0  0
  1  3  1  0  0  0  0
  1  2  1  1  0  0  0
  3  5  1  0  0  0  0
  3  4  1  6  0  0  0
  5  6  1  6  0  0  0
  7  8  1  1  0  0  0
  7  5  1  0  0  0  0
  9 10  1  6  0  0  0
  9  7  1  0  0  0  0
 10  1  1  0  0  0  0
 11 13  1  1  0  0  0
 11  9  1  0  0  0  0
 12 11  1  0  0  0  0
 14 15  1  1  0  0  0
 16 14  1  0  0  0  0
 17 18  1  1  0  0  0
 17 16  1  0  0  0  0
 19  2  1  6  0  0  0
 19 20  1  0  0  0  0
 19 17  1  0  0  0  0
 20 21  1  6  0  0  0
 20 22  1  0  0  0  0
 22 23  1  6  0  0  0
 22 14  1  0  0  0  0
 24 23  1  6  0  0  0
 24 25  1  0  0  0  0
 25 27  1  0  0  0  0
 25 26  1  6  0  0  0
 27 28  1  6  0  0  0
 28 29  1  0  0  0  0
 30 31  1  1  0  0  0
 30 32  1  0  0  0  0
 30 27  1  0  0  0  0
 33 30  1  0  0  0  0
 34 33  1  0  0  0  0
 34 24  1  0  0  0  0
M  END
>  <CHROM.1>
141.98173438,37.29196997,-137.00376101,118.06068873,126.57432298,-146.98110093
-0.37661746,15.87310711,35.80087742,2.36088150,-0.99670890,0.68524037

>  <Name>
lig.pdb

>  <RI>
0

>  <Rbt.Current_Directory>
/home/itssahil/PROJECTS/Mol_Feturizer/New_Systems/rnas/4k32

>  <Rbt.Executable>
rbdock ($Id: //depot/dev/client3/rdock/2013.1/src/exe/rbdock.cxx#4 $)

>  <Rbt.Library>
libRbt.so (2013.1, Build901 2013/11/27)

>  <Rbt.Parameter_File>
/export/apps/rDock/src/rDock_2013.1_src/data/scripts/dock_solv.prm

>  <Rbt.Receptor>
prm/blind_docking_100.prm

>  <SCORE>
31.659

>  <SCORE.INTER>
5.36563

>  <SCORE.INTER.CONST>
1

>  <SCORE.INTER.POLAR>
0

>  <SCORE.INTER.ROT>
6

>  <SCORE.INTER.SOLV>
27.4919

>  <SCORE.INTER.VDW>
-13.1869

>  <SCORE.INTER.norm>
0.157813

>  <SCORE.INTRA>
15.0775

>  <SCORE.INTRA.DIHEDRAL>
9.40607

>  <SCORE.INTRA.DIHEDRAL.0>
18.0069

>  <SCORE.INTRA.POLAR>
0

>  <SCORE.INTRA.POLAR.0>
0

>  <SCORE.INTRA.REPUL>
0

>  <SCORE.INTRA.REPUL.0>
0

>  <SCORE.INTRA.SOLV>
3.67176

>  <SCORE.INTRA.SOLV.lig_0>
-70.7393

>  <SCORE.INTRA.VDW>
8.53863

>  <SCORE.INTRA.VDW.0>
-3.23471

>  <SCORE.INTRA.norm>
0.443457

>  <SCORE.RESTR>
11.2158

>  <SCORE.RESTR.CAVITY>
11.2158

>  <SCORE.RESTR.norm>
0.329877

>  <SCORE.SYSTEM>
0

>  <SCORE.SYSTEM.CONST>
0

>  <SCORE.SYSTEM.DIHEDRAL>
0

>  <SCORE.SYSTEM.SOLV>
0

>  <SCORE.SYSTEM.norm>
0

>  <SCORE.heavy>
34

>  <SCORE.norm>
0.931147

>  <RMSD>
6.193

$$$$
lig.pdb
 OpenBabel11021811503D
libRbt.so/2013.1/901 2013/11/27
 34 36  0  0  0  0  0  0  0  0999 V2000
   -4.7964   16.8857   39.5834 C   0  0  2  0  0  0  0  0  0  0  0  0
   -4.7592   15.9531   40.6693 O   0  0  0  0  0  0  0  0  0  0  0  0
   -3.8058   18.0822   39.9127 C   0  0  2  0  0  0  0  0  0  0  0  0
   -2.4110   17.6121   40.0807 N   0  0  0  0  0  0  0  0  0  0  0  0
   -4.2787   18.8030   41.2002 C   0  0  1  0  0  0  0  0  0  0  0  0
   -3.4021   19.8890   41.5092 O   0  0  0  0  0  0  0  0  0  0  0  0
   -5.7222   19.2921   40.9858 C   0  0  2  0  0  0  0  0  0  0  0  0
   -6.1697   19.9624   42.1651 O   0  0  0  0  0  0  0  0  0  0  0  0
   -6.6540   18.0659   40.6475 C   0  0  2  0  0  0  0  0  0  0  0  0
   -6.1756   17.3627   39.4381 O   0  0  0  0  0  0  0  0  0  0  0  0
   -8.1176   18.5118   40.4065 C   0  0  2  0  0  0  0  0  0  0  0  0
   -8.9358   17.3689   40.1493 O   0  0  0  0  0  0  0  0  0  0  0  0
   -8.2159   19.4564   39.2187 C   0  0  0  0  0  0  0  0  0  0  0  0
   -5.9408   11.8435   40.8466 C   0  0  2  0  0  0  0  0  0  0  0  0
   -6.7733   10.6381   40.8600 N   0  0  0  0  0  0  0  0  0  0  0  0
   -6.5127   12.8100   41.9202 C   0  0  0  0  0  0  0  0  0  0  0  0
   -5.6276   14.0857   41.9383 C   0  0  2  0  0  0  0  0  0  0  0  0
   -6.1307   15.0304   42.9480 N   0  0  0  0  0  0  0  0  0  0  0  0
   -5.6237   14.7787   40.5492 C   0  0  2  0  0  0  0  0  0  0  0  0
   -5.0890   13.7741   39.4804 C   0  0  2  0  0  0  0  0  0  0  0  0
   -5.0967   14.4116   38.1958 O   0  0  0  0  0  0  0  0  0  0  0  0
   -5.9875   12.5155   39.4100 C   0  0  1  0  0  0  0  0  0  0  0  0
   -5.4196   11.6349   38.4091 O   0  0  0  0  0  0  0  0  0  0  0  0
   -6.3594   10.8098   37.6813 C   0  0  2  0  0  0  0  0  0  0  0  0
   -5.4957    9.8769   36.7534 C   0  0  2  0  0  0  0  0  0  0  0  0
   -4.6405    9.0678   37.5455 O   0  0  0  0  0  0  0  0  0  0  0  0
   -4.6637   10.7721   35.7589 C   0  0  1  0  0  0  0  0  0  0  0  0
   -3.8182    9.9261   34.8624 N   0  0  0  0  0  0  0  0  0  0  0  0
   -2.3972   10.1178   35.2237 C   0  0  0  0  0  0  0  0  0  0  0  0
   -5.6567   11.6285   34.9156 C   0  0  2  0  0  0  0  0  0  0  0  0
   -6.5041   10.7505   34.1763 O   0  0  0  0  0  0  0  0  0  0  0  0
   -4.9264   12.5350   33.9280 C   0  0  0  0  0  0  0  0  0  0  0  0
   -6.5276   12.4984   35.8778 C   0  0  0  0  0  0  0  0  0  0  0  0
   -7.2462   11.6504   36.8520 O   0  0  0  0  0  0  0  0  0  0  0  0
  1  3  1  0  0  0  0
  1  2  1  1  0  0  0
  3  5  1  0  0  0  0
  3  4  1  1  0  0  0
  5  6  1  6  0  0  0
  7  8  1  1  0  0  0
  7  5  1  0  0  0  0
  9 10  1  6  0  0  0
  9  7  1  0  0  0  0
 10  1  1  0  0  0  0
 11 13  1  6  0  0  0
 11  9  1  0  0  0  0
 12 11  1  0  0  0  0
 14 15  1  6  0  0  0
 16 14  1  0  0  0  0
 17 18  1  1  0  0  0
 17 16  1  0  0  0  0
 19  2  1  1  0  0  0
 19 20  1  0  0  0  0
 19 17  1  0  0  0  0
 20 21  1  6  0  0  0
 20 22  1  0  0  0  0
 22 23  1  6  0  0  0
 22 14  1  0  0  0  0
 24 23  1  6  0  0  0
 24 25  1  0  0  0  0
 25 27  1  0  0  0  0
 25 26  1  1  0  0  0
 27 28  1  6  0  0  0
 28 29  1  0  0  0  0
 30 31  1  6  0  0  0
 30 32  1  0  0  0  0
 30 27  1  0  0  0  0
 33 30  1  0  0  0  0
 34 33  1  0  0  0  0
 34 24  1  0  0  0  0
M  END
>  <CHROM.1>
179.52009065,-178.00575546,-168.87005363,95.22469217,-175.56442269,-110.64492154
-5.59229905,14.37766611,38.92105780,-1.80528473,-1.30581930,-2.81320773

>  <Name>
lig.pdb

>  <RI>
0

>  <Rbt.Current_Directory>
/home/itssahil/PROJECTS/Mol_Feturizer/New_Systems/rnas/4k32

>  <Rbt.Executable>
rbdock ($Id: //depot/dev/client3/rdock/2013.1/src/exe/rbdock.cxx#4 $)

>  <Rbt.Library>
libRbt.so (2013.1, Build901 2013/11/27)

>  <Rbt.Parameter_File>
/export/apps/rDock/src/rDock_2013.1_src/data/scripts/dock_solv.prm

>  <Rbt.Receptor>
prm/pocket_docking_5.prm

>  <SCORE>
-10.9806

>  <SCORE.INTER>
-4.2326

>  <SCORE.INTER.CONST>
1

>  <SCORE.INTER.POLAR>
0

>  <SCORE.INTER.ROT>
6

>  <SCORE.INTER.SOLV>
18.1917

>  <SCORE.INTER.VDW>
-16.4856

>  <SCORE.INTER.norm>
-0.124488

>  <SCORE.INTRA>
-6.74796

>  <SCORE.INTRA.DIHEDRAL>
-11.5882

>  <SCORE.INTRA.DIHEDRAL.0>
18.0069

>  <SCORE.INTRA.POLAR>
0

>  <SCORE.INTRA.POLAR.0>
0

>  <SCORE.INTRA.REPUL>
0

>  <SCORE.INTRA.REPUL.0>
0

>  <SCORE.INTRA.SOLV>
-2.28249

>  <SCORE.INTRA.SOLV.lig_0>
-70.7393

>  <SCORE.INTRA.VDW>
0.187366

>  <SCORE.INTRA.VDW.0>
-3.23471

>  <SCORE.INTRA.norm>
-0.198469

>  <SCORE.RESTR>
0

>  <SCORE.RESTR.CAVITY>
0

>  <SCORE.RESTR.norm>
0

>  <SCORE.SYSTEM>
0

>  <SCORE.SYSTEM.CONST>
0

>  <SCORE.SYSTEM.DIHEDRAL>
0

>  <SCORE.SYSTEM.SOLV>
0

>  <SCORE.SYSTEM.norm>
0

>  <SCORE.heavy>
34

>  <SCORE.norm>
-0.322958

>  <RMSD>
6.207

$$$$
lig.pdb
 OpenBabel11021811503D
libRbt.so/2013.1/901 2013/11/27
 34 36  0  0  0  0  0  0  0  0999 V2000
   -4.5970   16.6898   39.0876 C   0  0  2  0  0  0  0  0  0  0  0  0
   -4.7489   15.6150   40.0214 O   0  0  0  0  0  0  0  0  0  0  0  0
   -3.5575   17.7318   39.6832 C   0  0  2  0  0  0  0  0  0  0  0  0
   -2.2294   17.1160   39.9110 N   0  0  0  0  0  0  0  0  0  0  0  0
   -4.1083   18.3060   41.0129 C   0  0  1  0  0  0  0  0  0  0  0  0
   -3.1881   19.2525   41.5614 O   0  0  0  0  0  0  0  0  0  0  0  0
   -5.4781   18.9515   40.7377 C   0  0  2  0  0  0  0  0  0  0  0  0
   -5.9960   19.4887   41.9557 O   0  0  0  0  0  0  0  0  0  0  0  0
   -6.4606   17.8760   40.1342 C   0  0  2  0  0  0  0  0  0  0  0  0
   -5.9115   17.3078   38.8846 O   0  0  0  0  0  0  0  0  0  0  0  0
   -7.8509   18.4844   39.8245 C   0  0  2  0  0  0  0  0  0  0  0  0
   -8.7140   17.4758   39.2959 O   0  0  0  0  0  0  0  0  0  0  0  0
   -7.7437   19.6122   38.8099 C   0  0  0  0  0  0  0  0  0  0  0  0
   -5.6781   11.5038   39.2790 C   0  0  2  0  0  0  0  0  0  0  0  0
   -6.4241   10.2878   38.9460 N   0  0  0  0  0  0  0  0  0  0  0  0
   -6.4659   12.2348   40.4010 C   0  0  0  0  0  0  0  0  0  0  0  0
   -5.6772   13.5160   40.7853 C   0  0  2  0  0  0  0  0  0  0  0  0
   -6.3861   14.2396   41.8524 N   0  0  0  0  0  0  0  0  0  0  0  0
   -5.5085   14.4530   39.5592 C   0  0  2  0  0  0  0  0  0  0  0  0
   -4.7556   13.6824   38.4291 C   0  0  2  0  0  0  0  0  0  0  0  0
   -4.6104   14.5452   37.2929 O   0  0  0  0  0  0  0  0  0  0  0  0
   -5.5507   12.4272   37.9950 C   0  0  1  0  0  0  0  0  0  0  0  0
   -4.7833   11.7672   36.9581 O   0  0  0  0  0  0  0  0  0  0  0  0
   -5.4025   10.6108   36.3472 C   0  0  2  0  0  0  0  0  0  0  0  0
   -4.3278   10.0033   35.3709 C   0  0  2  0  0  0  0  0  0  0  0  0
   -3.1758    9.6159   36.1031 O   0  0  0  0  0  0  0  0  0  0  0  0
   -3.9656   11.0768   34.2759 C   0  0  1  0  0  0  0  0  0  0  0  0
   -2.9377   10.5452   33.3298 N   0  0  0  0  0  0  0  0  0  0  0  0
   -1.6260   11.1402   33.6646 C   0  0  0  0  0  0  0  0  0  0  0  0
   -5.2666   11.4544   33.5042 C   0  0  2  0  0  0  0  0  0  0  0  0
   -5.7816   10.2821   32.8748 O   0  0  0  0  0  0  0  0  0  0  0  0
   -5.0022   12.5014   32.4252 C   0  0  0  0  0  0  0  0  0  0  0  0
   -6.3219   12.0029   34.5173 C   0  0  0  0  0  0  0  0  0  0  0  0
   -6.5983   11.0136   35.5800 O   0  0  0  0  0  0  0  0  0  0  0  0
  1  3  1  0  0  0  0
  1  2  1  1  0  0  0
  3  5  1  0  0  0  0
  3  4  1  1  0  0  0
  5  6  1  6  0  0  0
  7  8  1  1  0  0  0
  7  5  1  0  0  0  0
  9 10  1  6  0  0  0
  9  7  1  0  0  0  0
 10  1  1  0  0  0  0
 11 13  1  6  0  0  0
 11  9  1  0  0  0  0
 12 11  1  0  0  0  0
 14 15  1  6  0  0  0
 16 14  1  0  0  0  0
 17 18  1  1  0  0  0
 17 16  1  0  0  0  0
 19  2  1  1  0  0  0
 19 20  1  0  0  0  0
 19 17  1  0  0  0  0
 20 21  1  6  0  0  0
 20 22  1  0  0  0  0
 22 23  1  6  0  0  0
 22 14  1  0  0  0  0
 24 23  1  6  0  0  0
 24 25  1  0  0  0  0
 25 27  1  0  0  0  0
 25 26  1  1  0  0  0
 27 28  1  6  0  0  0
 28 29  1  0  0  0  0
 30 31  1  6  0  0  0
 30 32  1  0  0  0  0
 30 27  1  0  0  0  0
 33 30  1  0  0  0  0
 34 33  1  0  0  0  0
 34 24  1  0  0  0  0
M  END
>  <CHROM.1>
-170.81326866,-179.30027925,-173.39425087,67.99885928,-174.66776306,-103.44623178
-5.20405469,14.21755711,37.93380563,-1.85321137,-1.16469213,-2.72532994

>  <Name>
lig.pdb

>  <RI>
0

>  <Rbt.Current_Directory>
/home/itssahil/PROJECTS/Mol_Feturizer/New_Systems/rnas/4k32

>  <Rbt.Executable>
rbdock ($Id: //depot/dev/client3/rdock/2013.1/src/exe/rbdock.cxx#4 $)

>  <Rbt.Library>
libRbt.so (2013.1, Build901 2013/11/27)

>  <Rbt.Parameter_File>
/export/apps/rDock/src/rDock_2013.1_src/data/scripts/dock_solv.prm

>  <Rbt.Receptor>
prm/pocket_docking_6.prm

>  <SCORE>
-10.6179

>  <SCORE.INTER>
-2.90255

>  <SCORE.INTER.CONST>
1

>  <SCORE.INTER.POLAR>
0

>  <SCORE.INTER.ROT>
6

>  <SCORE.INTER.SOLV>
13.6546

>  <SCORE.INTER.VDW>
-14.0866

>  <SCORE.INTER.norm>
-0.0853691

>  <SCORE.INTRA>
-7.71534

>  <SCORE.INTRA.DIHEDRAL>
-15.8771

>  <SCORE.INTRA.DIHEDRAL.0>
18.0069

>  <SCORE.INTRA.POLAR>
0

>  <SCORE.INTRA.POLAR.0>
0

>  <SCORE.INTRA.REPUL>
0

>  <SCORE.INTRA.REPUL.0>
0

>  <SCORE.INTRA.SOLV>
-1.85842

>  <SCORE.INTRA.SOLV.lig_0>
-70.7393

>  <SCORE.INTRA.VDW>
1.15243

>  <SCORE.INTRA.VDW.0>
-3.23471

>  <SCORE.INTRA.norm>
-0.226922

>  <SCORE.RESTR>
0

>  <SCORE.RESTR.CAVITY>
0

>  <SCORE.RESTR.norm>
0

>  <SCORE.SYSTEM>
0

>  <SCORE.SYSTEM.CONST>
0

>  <SCORE.SYSTEM.DIHEDRAL>
0

>  <SCORE.SYSTEM.SOLV>
0

>  <SCORE.SYSTEM.norm>
0

>  <SCORE.heavy>
34

>  <SCORE.norm>
-0.312291

>  <RMSD>
6.216

$$$$
lig.pdb
 OpenBabel11021811503D
libRbt.so/2013.1/901 2013/11/27
 34 36  0  0  0  0  0  0  0  0999 V2000
    0.4213   13.7685   39.9858 C   0  0  2  0  0  0  0  0  0  0  0  0
    0.6653   13.9993   38.5939 O   0  0  0  0  0  0  0  0  0  0  0  0
    1.8179   13.5847   40.7186 C   0  0  2  0  0  0  0  0  0  0  0  0
    2.6727   14.7873   40.5845 N   0  0  0  0  0  0  0  0  0  0  0  0
    2.5482   12.3499   40.1330 C   0  0  1  0  0  0  0  0  0  0  0  0
    3.8062   12.1640   40.7860 O   0  0  0  0  0  0  0  0  0  0  0  0
    1.6415   11.1181   40.3033 C   0  0  2  0  0  0  0  0  0  0  0  0
    2.3048    9.9707   39.7705 O   0  0  0  0  0  0  0  0  0  0  0  0
    0.2672   11.3645   39.5705 C   0  0  2  0  0  0  0  0  0  0  0  0
   -0.4066   12.5644   40.1108 O   0  0  0  0  0  0  0  0  0  0  0  0
   -0.6878   10.1553   39.7284 C   0  0  2  0  0  0  0  0  0  0  0  0
   -1.8758   10.3736   38.9652 O   0  0  0  0  0  0  0  0  0  0  0  0
   -1.0769    9.9487   41.1840 C   0  0  0  0  0  0  0  0  0  0  0  0
   -3.0601   15.9831   37.8849 C   0  0  2  0  0  0  0  0  0  0  0  0
   -4.1218   16.7481   37.2264 N   0  0  0  0  0  0  0  0  0  0  0  0
   -1.7593   16.8276   37.7935 C   0  0  0  0  0  0  0  0  0  0  0  0
   -0.6260   16.0431   38.5085 C   0  0  2  0  0  0  0  0  0  0  0  0
    0.6280   16.8106   38.4513 N   0  0  0  0  0  0  0  0  0  0  0  0
   -0.4059   14.6571   37.8450 C   0  0  2  0  0  0  0  0  0  0  0  0
   -1.7380   13.8451   37.9079 C   0  0  2  0  0  0  0  0  0  0  0  0
   -1.5367   12.5693   37.2844 O   0  0  0  0  0  0  0  0  0  0  0  0
   -2.8703   14.5864   37.1563 C   0  0  1  0  0  0  0  0  0  0  0  0
   -4.0667   13.7770   37.2712 O   0  0  0  0  0  0  0  0  0  0  0  0
   -5.1774   14.1606   36.4268 C   0  0  2  0  0  0  0  0  0  0  0  0
   -6.2799   13.0548   36.6244 C   0  0  2  0  0  0  0  0  0  0  0  0
   -6.6851   13.0158   37.9837 O   0  0  0  0  0  0  0  0  0  0  0  0
   -5.6971   11.6634   36.1693 C   0  0  1  0  0  0  0  0  0  0  0  0
   -6.7094   10.5785   36.3495 N   0  0  0  0  0  0  0  0  0  0  0  0
   -6.3098    9.7369   37.4979 C   0  0  0  0  0  0  0  0  0  0  0  0
   -5.2784   11.7687   34.6713 C   0  0  2  0  0  0  0  0  0  0  0  0
   -6.4334   12.0822   33.8946 O   0  0  0  0  0  0  0  0  0  0  0  0
   -4.6928   10.4578   34.1527 C   0  0  0  0  0  0  0  0  0  0  0  0
   -4.2240   12.9108   34.5134 C   0  0  0  0  0  0  0  0  0  0  0  0
   -4.7583   14.1958   35.0112 O   0  0  0  0  0  0  0  0  0  0  0  0
  1  3  1  0  0  0  0
  1  2  1  6  0  0  0
  3  5  1  0  0  0  0
  3  4  1  6  0  0  0
  5  6  1  1  0  0  0
  7  8  1  6  0  0  0
  7  5  1  0  0  0  0
  9 10  1  1  0  0  0
  9  7  1  0  0  0  0
 10  1  1  0  0  0  0
 11 13  1  1  0  0  0
 11  9  1  0  0  0  0
 12 11  1  0  0  0  0
 14 15  1  6  0  0  0
 16 14  1  0  0  0  0
 17 18  1  6  0  0  0
 17 16  1  0  0  0  0
 19  2  1  1  0  0  0
 19 20  1  0  0  0  0
 19 17  1  0  0  0  0
 20 21  1  6  0  0  0
 20 22  1  0  0  0  0
 22 23  1  1  0  0  0
 22 14  1  0  0  0  0
 24 23  1  1  0  0  0
 24 25  1  0  0  0  0
 25 27  1  0  0  0  0
 25 26  1  1  0  0  0
 27 28  1  6  0  0  0
 28 29  1  0  0  0  0
 30 31  1  6  0  0  0
 30 32  1  0  0  0  0
 30 27  1  0  0  0  0
 33 30  1  0  0  0  0
 34 33  1  0  0  0  0
 34 24  1  0  0  0  0
M  END
>  <CHROM.1>
-158.65154738,-175.46973151,60.44002027,75.23739996,174.25527961,-107.31205865
-2.06133173,12.94478679,37.96825816,-0.05417207,-0.53283042,-0.17298310

>  <Name>
lig.pdb

>  <RI>
0

>  <Rbt.Current_Directory>
/home/itssahil/PROJECTS/Mol_Feturizer/New_Systems/rnas/4k32

>  <Rbt.Executable>
rbdock ($Id: //depot/dev/client3/rdock/2013.1/src/exe/rbdock.cxx#4 $)

>  <Rbt.Library>
libRbt.so (2013.1, Build901 2013/11/27)

>  <Rbt.Parameter_File>
/export/apps/rDock/src/rDock_2013.1_src/data/scripts/dock_solv.prm

>  <Rbt.Receptor>
prm/pocket_docking_8.prm

>  <SCORE>
-4.30267

>  <SCORE.INTER>
1.57449

>  <SCORE.INTER.CONST>
1

>  <SCORE.INTER.POLAR>
0

>  <SCORE.INTER.ROT>
6

>  <SCORE.INTER.SOLV>
9.46249

>  <SCORE.INTER.VDW>
-9.7045

>  <SCORE.INTER.norm>
0.0463086

>  <SCORE.INTRA>
-5.87716

>  <SCORE.INTRA.DIHEDRAL>
-13.5248

>  <SCORE.INTRA.DIHEDRAL.0>
18.0069

>  <SCORE.INTRA.POLAR>
0

>  <SCORE.INTRA.POLAR.0>
0

>  <SCORE.INTRA.REPUL>
0.00700827

>  <SCORE.INTRA.REPUL.0>
0

>  <SCORE.INTRA.SOLV>
0.53465

>  <SCORE.INTRA.SOLV.lig_0>
-70.7393

>  <SCORE.INTRA.VDW>
0.582855

>  <SCORE.INTRA.VDW.0>
-3.23471

>  <SCORE.INTRA.norm>
-0.172858

>  <SCORE.RESTR>
0

>  <SCORE.RESTR.CAVITY>
0

>  <SCORE.RESTR.norm>
0

>  <SCORE.SYSTEM>
0

>  <SCORE.SYSTEM.CONST>
0

>  <SCORE.SYSTEM.DIHEDRAL>
0

>  <SCORE.SYSTEM.SOLV>
0

>  <SCORE.SYSTEM.norm>
0

>  <SCORE.heavy>
34

>  <SCORE.norm>
-0.126549

>  <RMSD>
6.225

$$$$
lig.pdb
 OpenBabel11021811503D
libRbt.so/2013.1/901 2013/11/27
 34 36  0  0  0  0  0  0  0  0999 V2000
   -4.6173   16.6784   39.1306 C   0  0  2  0  0  0  0  0  0  0  0  0
   -4.7893   15.6079   40.0659 O   0  0  0  0  0  0  0  0  0  0  0  0
   -3.5882   17.7214   39.7421 C   0  0  2  0  0  0  0  0  0  0  0  0
   -2.2658   17.1047   39.9987 N   0  0  0  0  0  0  0  0  0  0  0  0
   -4.1641   18.3022   41.0582 C   0  0  1  0  0  0  0  0  0  0  0  0
   -3.2534   19.2497   41.6206 O   0  0  0  0  0  0  0  0  0  0  0  0
   -5.5272   18.9485   40.7533 C   0  0  2  0  0  0  0  0  0  0  0  0
   -6.0682   19.4918   41.9585 O   0  0  0  0  0  0  0  0  0  0  0  0
   -6.4994   17.8718   40.1352 C   0  0  2  0  0  0  0  0  0  0  0  0
   -5.9266   17.2974   38.8991 O   0  0  0  0  0  0  0  0  0  0  0  0
   -7.8824   18.4810   39.7955 C   0  0  2  0  0  0  0  0  0  0  0  0
   -8.7265   17.4783   39.2265 O   0  0  0  0  0  0  0  0  0  0  0  0
   -7.7501   19.6251   38.8023 C   0  0  0  0  0  0  0  0  0  0  0  0
   -5.6684   11.4942   39.2775 C   0  0  2  0  0  0  0  0  0  0  0  0
   -6.3997   10.2729   38.9317 N   0  0  0  0  0  0  0  0  0  0  0  0
   -6.4634   12.2023   40.4091 C   0  0  0  0  0  0  0  0  0  0  0  0
   -5.6901   13.4887   40.8069 C   0  0  2  0  0  0  0  0  0  0  0  0
   -6.4062   14.1911   41.8834 N   0  0  0  0  0  0  0  0  0  0  0  0
   -5.5351   14.4418   39.5915 C   0  0  2  0  0  0  0  0  0  0  0  0
   -4.7745   13.6938   38.4515 C   0  0  2  0  0  0  0  0  0  0  0  0
   -4.6420   14.5714   37.3250 O   0  0  0  0  0  0  0  0  0  0  0  0
   -5.5547   12.4339   38.0041 C   0  0  1  0  0  0  0  0  0  0  0  0
   -4.7808   11.7954   36.9585 O   0  0  0  0  0  0  0  0  0  0  0  0
   -5.3789   10.6283   36.3472 C   0  0  2  0  0  0  0  0  0  0  0  0
   -4.2845   10.0263   35.3895 C   0  0  2  0  0  0  0  0  0  0  0  0
   -3.1383    9.6566   36.1397 O   0  0  0  0  0  0  0  0  0  0  0  0
   -3.9195   11.0965   34.2921 C   0  0  1  0  0  0  0  0  0  0  0  0
   -2.8731   10.5701   33.3636 N   0  0  0  0  0  0  0  0  0  0  0  0
   -1.5542   11.0889   33.7855 C   0  0  0  0  0  0  0  0  0  0  0  0
   -5.2141   11.4545   33.5006 C   0  0  2  0  0  0  0  0  0  0  0  0
   -5.7076   10.2724   32.8723 O   0  0  0  0  0  0  0  0  0  0  0  0
   -4.9467   12.4972   32.4182 C   0  0  0  0  0  0  0  0  0  0  0  0
   -6.2890   11.9979   34.4957 C   0  0  0  0  0  0  0  0  0  0  0  0
   -6.5687   11.0126   35.5613 O   0  0  0  0  0  0  0  0  0  0  0  0
  1  3  1  0  0  0  0
  1  2  1  1  0  0  0
  3  5  1  0  0  0  0
  3  4  1  1  0  0  0
  5  6  1  6  0  0  0
  7  8  1  1  0  0  0
  7  5  1  0  0  0  0
  9 10  1  6  0  0  0
  9  7  1  0  0  0  0
 10  1  1  0  0  0  0
 11 13  1  6  0  0  0
 11  9  1  0  0  0  0
 12 11  1  0  0  0  0
 14 15  1  6  0  0  0
 16 14  1  0  0  0  0
 17 18  1  1  0  0  0
 17 16  1  0  0  0  0
 19  2  1  1  0  0  0
 19 20  1  0  0  0  0
 19 17  1  0  0  0  0
 20 21  1  6  0  0  0
 20 22  1  0  0  0  0
 22 23  1  6  0  0  0
 22 14  1  0  0  0  0
 24 23  1  6  0  0  0
 24 25  1  0  0  0  0
 25 27  1  0  0  0  0
 25 26  1  1  0  0  0
 27 28  1  6  0  0  0
 28 29  1  0  0  0  0
 30 31  1  6  0  0  0
 30 32  1  0  0  0  0
 30 27  1  0  0  0  0
 33 30  1  0  0  0  0
 34 33  1  0  0  0  0
 34 24  1  0  0  0  0
M  END
>  <CHROM.1>
-170.48760460,179.40742620,-175.23490177,67.22475954,-173.16420936,-98.52571839
-5.20458016,14.21584806,37.95075635,-1.92395210,-1.22067251,-2.79729216

>  <Name>
lig.pdb

>  <RI>
0

>  <Rbt.Current_Directory>
/home/itssahil/PROJECTS/Mol_Feturizer/New_Systems/rnas/4k32

>  <Rbt.Executable>
rbdock ($Id: //depot/dev/client3/rdock/2013.1/src/exe/rbdock.cxx#4 $)

>  <Rbt.Library>
libRbt.so (2013.1, Build901 2013/11/27)

>  <Rbt.Parameter_File>
/export/apps/rDock/src/rDock_2013.1_src/data/scripts/dock_solv.prm

>  <Rbt.Receptor>
prm/pocket_docking_6.prm

>  <SCORE>
-10.6068

>  <SCORE.INTER>
-3.02535

>  <SCORE.INTER.CONST>
1

>  <SCORE.INTER.POLAR>
0

>  <SCORE.INTER.ROT>
6

>  <SCORE.INTER.SOLV>
13.5198

>  <SCORE.INTER.VDW>
-14.1235

>  <SCORE.INTER.norm>
-0.0889808

>  <SCORE.INTRA>
-7.58144

>  <SCORE.INTRA.DIHEDRAL>
-16.0488

>  <SCORE.INTRA.DIHEDRAL.0>
18.0069

>  <SCORE.INTRA.POLAR>
0

>  <SCORE.INTRA.POLAR.0>
0

>  <SCORE.INTRA.REPUL>
0

>  <SCORE.INTRA.REPUL.0>
0

>  <SCORE.INTRA.SOLV>
-1.87062

>  <SCORE.INTRA.SOLV.lig_0>
-70.7393

>  <SCORE.INTRA.VDW>
1.37827

>  <SCORE.INTRA.VDW.0>
-3.23471

>  <SCORE.INTRA.norm>
-0.222984

>  <SCORE.RESTR>
0

>  <SCORE.RESTR.CAVITY>
0

>  <SCORE.RESTR.norm>
0

>  <SCORE.SYSTEM>
0

>  <SCORE.SYSTEM.CONST>
0

>  <SCORE.SYSTEM.DIHEDRAL>
0

>  <SCORE.SYSTEM.SOLV>
0

>  <SCORE.SYSTEM.norm>
0

>  <SCORE.heavy>
34

>  <SCORE.norm>
-0.311964

>  <RMSD>
6.236

$$$$
lig.pdb
 OpenBabel11021811503D
libRbt.so/2013.1/901 2013/11/27
 34 36  0  0  0  0  0  0  0  0999 V2000
   -1.2766   17.7811   33.8673 C   0  0  2  0  0  0  0  0  0  0  0  0
   -0.0164   17.8557   34.5431 O   0  0  0  0  0  0  0  0  0  0  0  0
   -1.5254   19.1553   33.1116 C   0  0  2  0  0  0  0  0  0  0  0  0
   -0.4701   19.4314   32.1091 N   0  0  0  0  0  0  0  0  0  0  0  0
   -1.5860   20.3079   34.1454 C   0  0  1  0  0  0  0  0  0  0  0  0
   -1.8166   21.5539   33.4836 O   0  0  0  0  0  0  0  0  0  0  0  0
   -2.7010   19.9980   35.1600 C   0  0  2  0  0  0  0  0  0  0  0  0
   -2.7704   21.0556   36.1176 O   0  0  0  0  0  0  0  0  0  0  0  0
   -2.4090   18.6183   35.8653 C   0  0  2  0  0  0  0  0  0  0  0  0
   -2.3178   17.5297   34.8690 O   0  0  0  0  0  0  0  0  0  0  0  0
   -3.5158   18.2546   36.8861 C   0  0  2  0  0  0  0  0  0  0  0  0
   -3.6195   19.2815   37.8742 O   0  0  0  0  0  0  0  0  0  0  0  0
   -3.2091   16.9386   37.5839 C   0  0  0  0  0  0  0  0  0  0  0  0
    1.8609   16.0613   37.9448 C   0  0  2  0  0  0  0  0  0  0  0  0
    2.0483   15.3909   39.2339 N   0  0  0  0  0  0  0  0  0  0  0  0
    0.9246   17.2767   38.1896 C   0  0  0  0  0  0  0  0  0  0  0  0
    0.7332   18.0156   36.8374 C   0  0  2  0  0  0  0  0  0  0  0  0
   -0.1453   19.1812   37.0233 N   0  0  0  0  0  0  0  0  0  0  0  0
    0.1108   17.0729   35.7727 C   0  0  2  0  0  0  0  0  0  0  0  0
    1.0455   15.8376   35.5774 C   0  0  2  0  0  0  0  0  0  0  0  0
    0.4638   14.9619   34.6020 O   0  0  0  0  0  0  0  0  0  0  0  0
    1.2094   15.0566   36.9038 C   0  0  1  0  0  0  0  0  0  0  0  0
    2.0943   13.9397   36.6407 O   0  0  0  0  0  0  0  0  0  0  0  0
    1.5702   12.6267   36.9491 C   0  0  2  0  0  0  0  0  0  0  0  0
    1.8282   11.7416   35.6734 C   0  0  2  0  0  0  0  0  0  0  0  0
    3.2209   11.6671   35.4122 O   0  0  0  0  0  0  0  0  0  0  0  0
    1.0576   12.3688   34.4504 C   0  0  1  0  0  0  0  0  0  0  0  0
    1.2830   11.5642   33.2110 N   0  0  0  0  0  0  0  0  0  0  0  0
    1.1246   10.1304   33.5359 C   0  0  0  0  0  0  0  0  0  0  0  0
   -0.4620   12.4164   34.7952 C   0  0  2  0  0  0  0  0  0  0  0  0
   -0.9219   11.0847   35.0201 O   0  0  0  0  0  0  0  0  0  0  0  0
   -1.2825   13.0220   33.6592 C   0  0  0  0  0  0  0  0  0  0  0  0
   -0.6661   13.2598   36.0945 C   0  0  0  0  0  0  0  0  0  0  0  0
    0.1196   12.7021   37.2153 O   0  0  0  0  0  0  0  0  0  0  0  0
  1  3  1  0  0  0  0
  1  2  1  1  0  0  0
  3  5  1  0  0  0  0
  3  4  1  6  0  0  0
  5  6  1  6  0  0  0
  7  8  1  1  0  0  0
  7  5  1  0  0  0  0
  9 10  1  6  0  0  0
  9  7  1  0  0  0  0
 10  1  1  0  0  0  0
 11 13  1  1  0  0  0
 11  9  1  0  0  0  0
 12 11  1  0  0  0  0
 14 15  1  1  0  0  0
 16 14  1  0  0  0  0
 17 18  1  1  0  0  0
 17 16  1  0  0  0  0
 19  2  1  6  0  0  0
 19 20  1  0  0  0  0
 19 17  1  0  0  0  0
 20 21  1  6  0  0  0
 20 22  1  0  0  0  0
 22 23  1  6  0  0  0
 22 14  1  0  0  0  0
 24 23  1  6  0  0  0
 24 25  1  0  0  0  0
 25 27  1  0  0  0  0
 25 26  1  6  0  0  0
 27 28  1  6  0  0  0
 28 29  1  0  0  0  0
 30 31  1  1  0  0  0
 30 32  1  0  0  0  0
 30 27  1  0  0  0  0
 33 30  1  0  0  0  0
 34 33  1  0  0  0  0
 34 24  1  0  0  0  0
M  END
>  <CHROM.1>
149.98464001,-58.46178339,-132.60258461,120.57134074,130.33761376,45.55557397
-0.31102594,15.96153905,35.59549963,2.54729417,-1.09011365,0.92039306

>  <Name>
lig.pdb

>  <RI>
0

>  <Rbt.Current_Directory>
/home/itssahil/PROJECTS/Mol_Feturizer/New_Systems/rnas/4k32

>  <Rbt.Executable>
rbdock ($Id: //depot/dev/client3/rdock/2013.1/src/exe/rbdock.cxx#4 $)

>  <Rbt.Library>
libRbt.so (2013.1, Build901 2013/11/27)

>  <Rbt.Parameter_File>
/export/apps/rDock/src/rDock_2013.1_src/data/scripts/dock_solv.prm

>  <Rbt.Receptor>
prm/blind_docking_100.prm

>  <SCORE>
35.7877

>  <SCORE.INTER>
7.67218

>  <SCORE.INTER.CONST>
1

>  <SCORE.INTER.POLAR>
0

>  <SCORE.INTER.ROT>
6

>  <SCORE.INTER.SOLV>
29.5006

>  <SCORE.INTER.VDW>
-12.3187

>  <SCORE.INTER.norm>
0.225652

>  <SCORE.INTRA>
19.1218

>  <SCORE.INTRA.DIHEDRAL>
6.05276

>  <SCORE.INTRA.DIHEDRAL.0>
18.0069

>  <SCORE.INTRA.POLAR>
0

>  <SCORE.INTRA.POLAR.0>
0

>  <SCORE.INTRA.REPUL>
0

>  <SCORE.INTRA.REPUL.0>
0

>  <SCORE.INTRA.SOLV>
4.10791

>  <SCORE.INTRA.SOLV.lig_0>
-70.7393

>  <SCORE.INTRA.VDW>
14.0414

>  <SCORE.INTRA.VDW.0>
-3.23471

>  <SCORE.INTRA.norm>
0.562405

>  <SCORE.RESTR>
8.99372

>  <SCORE.RESTR.CAVITY>
8.99372

>  <SCORE.RESTR.norm>
0.264521

>  <SCORE.SYSTEM>
0

>  <SCORE.SYSTEM.CONST>
0

>  <SCORE.SYSTEM.DIHEDRAL>
0

>  <SCORE.SYSTEM.SOLV>
0

>  <SCORE.SYSTEM.norm>
0

>  <SCORE.heavy>
34

>  <SCORE.norm>
1.05258

>  <RMSD>
6.239

$$$$
lig.pdb
 OpenBabel11021811503D
libRbt.so/2013.1/901 2013/11/27
 34 36  0  0  0  0  0  0  0  0999 V2000
   -6.7697   17.0754   41.0705 C   0  0  2  0  0  0  0  0  0  0  0  0
   -7.8928   16.2613   40.7153 O   0  0  0  0  0  0  0  0  0  0  0  0
   -7.1225   18.5895   40.7476 C   0  0  2  0  0  0  0  0  0  0  0  0
   -8.3018   19.0556   41.5138 N   0  0  0  0  0  0  0  0  0  0  0  0
   -7.3850   18.7445   39.2284 C   0  0  1  0  0  0  0  0  0  0  0  0
   -7.6978   20.1041   38.9170 O   0  0  0  0  0  0  0  0  0  0  0  0
   -6.1368   18.2680   38.4645 C   0  0  2  0  0  0  0  0  0  0  0  0
   -6.3640   18.4092   37.0613 O   0  0  0  0  0  0  0  0  0  0  0  0
   -5.8270   16.7673   38.8363 C   0  0  2  0  0  0  0  0  0  0  0  0
   -5.6125   16.6220   40.2919 O   0  0  0  0  0  0  0  0  0  0  0  0
   -4.5660   16.2470   38.1025 C   0  0  2  0  0  0  0  0  0  0  0  0
   -3.5164   17.2116   38.2002 O   0  0  0  0  0  0  0  0  0  0  0  0
   -4.8532   15.9894   36.6315 C   0  0  0  0  0  0  0  0  0  0  0  0
   -5.9179   12.4945   41.1923 C   0  0  2  0  0  0  0  0  0  0  0  0
   -5.6789   11.0813   41.4955 N   0  0  0  0  0  0  0  0  0  0  0  0
   -6.5853   13.1277   42.4443 C   0  0  0  0  0  0  0  0  0  0  0  0
   -6.8248   14.6336   42.1511 C   0  0  2  0  0  0  0  0  0  0  0  0
   -7.4526   15.2773   43.3158 N   0  0  0  0  0  0  0  0  0  0  0  0
   -7.7402   14.8194   40.9112 C   0  0  2  0  0  0  0  0  0  0  0  0
   -7.0711   14.1359   39.6772 C   0  0  2  0  0  0  0  0  0  0  0  0
   -7.9230   14.2982   38.5350 O   0  0  0  0  0  0  0  0  0  0  0  0
   -6.8694   12.6219   39.9289 C   0  0  1  0  0  0  0  0  0  0  0  0
   -6.2372   12.0683   38.7484 O   0  0  0  0  0  0  0  0  0  0  0  0
   -7.1247   11.6910   37.6696 C   0  0  2  0  0  0  0  0  0  0  0  0
   -6.5513   10.3489   37.0802 C   0  0  2  0  0  0  0  0  0  0  0  0
   -6.5427    9.3464   38.0843 O   0  0  0  0  0  0  0  0  0  0  0  0
   -5.0977   10.6103   36.5314 C   0  0  1  0  0  0  0  0  0  0  0  0
   -4.5083    9.3568   35.9695 N   0  0  0  0  0  0  0  0  0  0  0  0
   -3.7673    8.6549   37.0394 C   0  0  0  0  0  0  0  0  0  0  0  0
   -5.1752   11.7118   35.4308 C   0  0  2  0  0  0  0  0  0  0  0  0
   -6.0103   11.2435   34.3731 O   0  0  0  0  0  0  0  0  0  0  0  0
   -3.7998   12.0314   34.8507 C   0  0  0  0  0  0  0  0  0  0  0  0
   -5.7970   13.0067   36.0454 C   0  0  0  0  0  0  0  0  0  0  0  0
   -7.1301   12.7309   36.6211 O   0  0  0  0  0  0  0  0  0  0  0  0
  1  3  1  0  0  0  0
  1  2  1  6  0  0  0
  3  5  1  0  0  0  0
  3  4  1  1  0  0  0
  5  6  1  1  0  0  0
  7  8  1  6  0  0  0
  7  5  1  0  0  0  0
  9 10  1  1  0  0  0
  9  7  1  0  0  0  0
 10  1  1  0  0  0  0
 11 13  1  6  0  0  0
 11  9  1  0  0  0  0
 12 11  1  0  0  0  0
 14 15  1  1  0  0  0
 16 14  1  0  0  0  0
 17 18  1  1  0  0  0
 17 16  1  0  0  0  0
 19  2  1  6  0  0  0
 19 20  1  0  0  0  0
 19 17  1  0  0  0  0
 20 21  1  6  0  0  0
 20 22  1  0  0  0  0
 22 23  1  6  0  0  0
 22 14  1  0  0  0  0
 24 23  1  1  0  0  0
 24 25  1  0  0  0  0
 25 27  1  0  0  0  0
 25 26  1  1  0  0  0
 27 28  1  6  0  0  0
 28 29  1  0  0  0  0
 30 31  1  6  0  0  0
 30 32  1  0  0  0  0
 30 27  1  0  0  0  0
 33 30  1  0  0  0  0
 34 33  1  0  0  0  0
 34 24  1  0  0  0  0
M  END
>  <CHROM.1>
178.48268525,46.09495215,32.91562922,159.06040820,-140.68195908,-91.06972682
-6.22499027,14.25985557,38.71508438,2.23402900,1.25513515,-0.19224234

>  <Name>
lig.pdb

>  <RI>
0

>  <Rbt.Current_Directory>
/home/itssahil/PROJECTS/Mol_Feturizer/New_Systems/rnas/4k32

>  <Rbt.Executable>
rbdock ($Id: //depot/dev/client3/rdock/2013.1/src/exe/rbdock.cxx#4 $)

>  <Rbt.Library>
libRbt.so (2013.1, Build901 2013/11/27)

>  <Rbt.Parameter_File>
/export/apps/rDock/src/rDock_2013.1_src/data/scripts/dock_solv.prm

>  <Rbt.Receptor>
prm/pocket_docking_6.prm

>  <SCORE>
-8.29309

>  <SCORE.INTER>
-7.64092

>  <SCORE.INTER.CONST>
1

>  <SCORE.INTER.POLAR>
0

>  <SCORE.INTER.ROT>
6

>  <SCORE.INTER.SOLV>
18.728

>  <SCORE.INTER.VDW>
-18.9366

>  <SCORE.INTER.norm>
-0.224733

>  <SCORE.INTRA>
-0.652174

>  <SCORE.INTRA.DIHEDRAL>
-6.36874

>  <SCORE.INTRA.DIHEDRAL.0>
18.0069

>  <SCORE.INTRA.POLAR>
0

>  <SCORE.INTRA.POLAR.0>
0

>  <SCORE.INTRA.REPUL>
0

>  <SCORE.INTRA.REPUL.0>
0

>  <SCORE.INTRA.SOLV>
-0.763302

>  <SCORE.INTRA.SOLV.lig_0>
-70.7393

>  <SCORE.INTRA.VDW>
2.91385

>  <SCORE.INTRA.VDW.0>
-3.23471

>  <SCORE.INTRA.norm>
-0.0191816

>  <SCORE.RESTR>
0

>  <SCORE.RESTR.CAVITY>
0

>  <SCORE.RESTR.norm>
0

>  <SCORE.SYSTEM>
0

>  <SCORE.SYSTEM.CONST>
0

>  <SCORE.SYSTEM.DIHEDRAL>
0

>  <SCORE.SYSTEM.SOLV>
0

>  <SCORE.SYSTEM.norm>
0

>  <SCORE.heavy>
34

>  <SCORE.norm>
-0.243915

>  <RMSD>
6.285

$$$$
lig.pdb
 OpenBabel11021811503D
libRbt.so/2013.1/901 2013/11/27
 34 36  0  0  0  0  0  0  0  0999 V2000
   -2.1719   19.8419   34.4796 C   0  0  2  0  0  0  0  0  0  0  0  0
   -1.7862   19.4186   35.7919 O   0  0  0  0  0  0  0  0  0  0  0  0
   -0.8651   19.9692   33.5867 C   0  0  2  0  0  0  0  0  0  0  0  0
   -0.1484   18.6776   33.4721 N   0  0  0  0  0  0  0  0  0  0  0  0
    0.0730   21.0412   34.1964 C   0  0  1  0  0  0  0  0  0  0  0  0
    1.2534   21.1751   33.4013 O   0  0  0  0  0  0  0  0  0  0  0  0
   -0.6959   22.3714   34.2856 C   0  0  2  0  0  0  0  0  0  0  0  0
    0.1593   23.3705   34.8432 O   0  0  0  0  0  0  0  0  0  0  0  0
   -1.9881   22.1800   35.1688 C   0  0  2  0  0  0  0  0  0  0  0  0
   -2.8608   21.1311   34.5996 O   0  0  0  0  0  0  0  0  0  0  0  0
   -2.8057   23.4914   35.2743 C   0  0  2  0  0  0  0  0  0  0  0  0
   -1.9580   24.6125   35.0169 O   0  0  0  0  0  0  0  0  0  0  0  0
   -3.4136   23.6502   36.6592 C   0  0  0  0  0  0  0  0  0  0  0  0
   -1.2742   15.4841   37.3962 C   0  0  2  0  0  0  0  0  0  0  0  0
   -0.8952   14.0744   37.5205 N   0  0  0  0  0  0  0  0  0  0  0  0
   -2.0779   15.6301   36.0746 C   0  0  0  0  0  0  0  0  0  0  0  0
   -2.5102   17.1151   35.9368 C   0  0  2  0  0  0  0  0  0  0  0  0
   -3.2817   17.2995   34.6976 N   0  0  0  0  0  0  0  0  0  0  0  0
   -1.2738   18.0534   35.9118 C   0  0  2  0  0  0  0  0  0  0  0  0
   -0.4577   17.8557   37.2281 C   0  0  2  0  0  0  0  0  0  0  0  0
    0.6904   18.7146   37.1987 O   0  0  0  0  0  0  0  0  0  0  0  0
    0.0269   16.3915   37.3604 C   0  0  1  0  0  0  0  0  0  0  0  0
    0.7614   16.2906   38.6055 O   0  0  0  0  0  0  0  0  0  0  0  0
    2.2015   16.2103   38.4895 C   0  0  2  0  0  0  0  0  0  0  0  0
    2.5014   14.9143   37.6482 C   0  0  2  0  0  0  0  0  0  0  0  0
    1.9093   15.0260   36.3635 O   0  0  0  0  0  0  0  0  0  0  0  0
    1.9405   13.6609   38.4208 C   0  0  1  0  0  0  0  0  0  0  0  0
    2.1947   12.4048   37.6516 N   0  0  0  0  0  0  0  0  0  0  0  0
    1.2106   12.3095   36.5520 C   0  0  0  0  0  0  0  0  0  0  0  0
    2.6325   13.5897   39.8161 C   0  0  2  0  0  0  0  0  0  0  0  0
    4.0385   13.4442   39.6224 O   0  0  0  0  0  0  0  0  0  0  0  0
    2.1355   12.4015   40.6355 C   0  0  0  0  0  0  0  0  0  0  0  0
    2.3526   14.9151   40.5946 C   0  0  0  0  0  0  0  0  0  0  0  0
    2.8185   16.0882   39.8256 O   0  0  0  0  0  0  0  0  0  0  0  0
  1  3  1  0  0  0  0
  1  2  1  1  0  0  0
  3  5  1  0  0  0  0
  3  4  1  1  0  0  0
  5  6  1  6  0  0  0
  7  8  1  1  0  0  0
  7  5  1  0  0  0  0
  9 10  1  6  0  0  0
  9  7  1  0  0  0  0
 10  1  1  0  0  0  0
 11 13  1  1  0  0  0
 11  9  1  0  0  0  0
 12 11  1  0  0  0  0
 14 15  1  6  0  0  0
 16 14  1  0  0  0  0
 17 18  1  6  0  0  0
 17 16  1  0  0  0  0
 19  2  1  1  0  0  0
 19 20  1  0  0  0  0
 19 17  1  0  0  0  0
 20 21  1  6  0  0  0
 20 22  1  0  0  0  0
 22 23  1  1  0  0  0
 22 14  1  0  0  0  0
 24 23  1  1  0  0  0
 24 25  1  0  0  0  0
 25 27  1  0  0  0  0
 25 26  1  6  0  0  0
 27 28  1  6  0  0  0
 28 29  1  0  0  0  0
 30 31  1  6  0  0  0
 30 32  1  0  0  0  0
 30 27  1  0  0  0  0
 33 30  1  0  0  0  0
 34 33  1  0  0  0  0
 34 24  1  0  0  0  0
M  END
>  <CHROM.1>
-68.68064281,-22.71737464,-80.02563010,138.60334497,-60.29121160,-77.48667260
-0.02069056,17.76433589,36.60463969,2.04452144,-0.61532669,-0.16033861

>  <Name>
lig.pdb

>  <RI>
0

>  <Rbt.Current_Directory>
/home/itssahil/PROJECTS/Mol_Feturizer/New_Systems/rnas/4k32

>  <Rbt.Executable>
rbdock ($Id: //depot/dev/client3/rdock/2013.1/src/exe/rbdock.cxx#4 $)

>  <Rbt.Library>
libRbt.so (2013.1, Build901 2013/11/27)

>  <Rbt.Parameter_File>
/export/apps/rDock/src/rDock_2013.1_src/data/scripts/dock_solv.prm

>  <Rbt.Receptor>
prm/blind_docking_100.prm

>  <SCORE>
15.1444

>  <SCORE.INTER>
1.38409

>  <SCORE.INTER.CONST>
1

>  <SCORE.INTER.POLAR>
0

>  <SCORE.INTER.ROT>
6

>  <SCORE.INTER.SOLV>
26.0345

>  <SCORE.INTER.VDW>
-15.3554

>  <SCORE.INTER.norm>
0.0407085

>  <SCORE.INTRA>
4.71506

>  <SCORE.INTRA.DIHEDRAL>
-6.27327

>  <SCORE.INTRA.DIHEDRAL.0>
18.0069

>  <SCORE.INTRA.POLAR>
0

>  <SCORE.INTRA.POLAR.0>
0

>  <SCORE.INTRA.REPUL>
0

>  <SCORE.INTRA.REPUL.0>
0

>  <SCORE.INTRA.SOLV>
6.30168

>  <SCORE.INTRA.SOLV.lig_0>
-70.7393

>  <SCORE.INTRA.VDW>
4.70086

>  <SCORE.INTRA.VDW.0>
-3.23471

>  <SCORE.INTRA.norm>
0.138678

>  <SCORE.RESTR>
9.04521

>  <SCORE.RESTR.CAVITY>
9.04521

>  <SCORE.RESTR.norm>
0.266036

>  <SCORE.SYSTEM>
0

>  <SCORE.SYSTEM.CONST>
0

>  <SCORE.SYSTEM.DIHEDRAL>
0

>  <SCORE.SYSTEM.SOLV>
0

>  <SCORE.SYSTEM.norm>
0

>  <SCORE.heavy>
34

>  <SCORE.norm>
0.445423

>  <RMSD>
6.291

$$$$
lig.pdb
 OpenBabel11021811503D
libRbt.so/2013.1/901 2013/11/27
 34 36  0  0  0  0  0  0  0  0999 V2000
   -1.7214   23.2400   34.5245 C   0  0  2  0  0  0  0  0  0  0  0  0
   -1.5757   22.1498   33.6078 O   0  0  0  0  0  0  0  0  0  0  0  0
   -1.9454   24.5728   33.6910 C   0  0  2  0  0  0  0  0  0  0  0  0
   -3.1636   24.4990   32.8511 N   0  0  0  0  0  0  0  0  0  0  0  0
   -0.7054   24.8378   32.8004 C   0  0  1  0  0  0  0  0  0  0  0  0
   -0.8858   26.0390   32.0466 O   0  0  0  0  0  0  0  0  0  0  0  0
    0.5373   24.9252   33.7041 C   0  0  2  0  0  0  0  0  0  0  0  0
    1.6883   25.1733   32.8954 O   0  0  0  0  0  0  0  0  0  0  0  0
    0.6988   23.5834   34.5166 C   0  0  2  0  0  0  0  0  0  0  0  0
   -0.5028   23.3199   35.3366 O   0  0  0  0  0  0  0  0  0  0  0  0
    1.9301   23.6303   35.4551 C   0  0  2  0  0  0  0  0  0  0  0  0
    2.1527   24.9713   35.8952 O   0  0  0  0  0  0  0  0  0  0  0  0
    3.1816   23.1382   34.7450 C   0  0  0  0  0  0  0  0  0  0  0  0
   -1.9470   17.9478   34.3301 C   0  0  2  0  0  0  0  0  0  0  0  0
   -1.6538   16.5866   34.7854 N   0  0  0  0  0  0  0  0  0  0  0  0
   -0.7137   18.4393   33.5232 C   0  0  0  0  0  0  0  0  0  0  0  0
   -1.0154   19.8736   33.0107 C   0  0  2  0  0  0  0  0  0  0  0  0
    0.1272   20.3788   32.2336 N   0  0  0  0  0  0  0  0  0  0  0  0
   -1.2939   20.8391   34.1939 C   0  0  2  0  0  0  0  0  0  0  0  0
   -2.5070   20.3005   35.0160 C   0  0  2  0  0  0  0  0  0  0  0  0
   -2.7561   21.1871   36.1154 O   0  0  0  0  0  0  0  0  0  0  0  0
   -2.2072   18.8903   35.5797 C   0  0  1  0  0  0  0  0  0  0  0  0
   -3.3796   18.4611   36.3152 O   0  0  0  0  0  0  0  0  0  0  0  0
   -3.5051   18.9688   37.6644 C   0  0  2  0  0  0  0  0  0  0  0  0
   -3.0000   17.8192   38.6135 C   0  0  2  0  0  0  0  0  0  0  0  0
   -1.6440   17.5170   38.3250 O   0  0  0  0  0  0  0  0  0  0  0  0
   -3.9151   16.5520   38.4148 C   0  0  1  0  0  0  0  0  0  0  0  0
   -3.4647   15.4284   39.2917 N   0  0  0  0  0  0  0  0  0  0  0  0
   -2.7032   14.4593   38.4746 C   0  0  0  0  0  0  0  0  0  0  0  0
   -5.3852   16.9457   38.7529 C   0  0  2  0  0  0  0  0  0  0  0  0
   -5.4435   17.3709   40.1135 O   0  0  0  0  0  0  0  0  0  0  0  0
   -6.3421   15.7694   38.5764 C   0  0  0  0  0  0  0  0  0  0  0  0
   -5.8266   18.1223   37.8245 C   0  0  0  0  0  0  0  0  0  0  0  0
   -4.9168   19.2783   37.9677 O   0  0  0  0  0  0  0  0  0  0  0  0
  1  3  1  0  0  0  0
  1  2  1  6  0  0  0
  3  5  1  0  0  0  0
  3  4  1  6  0  0  0
  5  6  1  1  0  0  0
  7  8  1  6  0  0  0
  7  5  1  0  0  0  0
  9 10  1  1  0  0  0
  9  7  1  0  0  0  0
 10  1  1  0  0  0  0
 11 13  1  6  0  0  0
 11  9  1  0  0  0  0
 12 11  1  0  0  0  0
 14 15  1  1  0  0  0
 16 14  1  0  0  0  0
 17 18  1  1  0  0  0
 17 16  1  0  0  0  0
 19  2  1  6  0  0  0
 19 20  1  0  0  0  0
 19 17  1  0  0  0  0
 20 21  1  1  0  0  0
 20 22  1  0  0  0  0
 22 23  1  6  0  0  0
 22 14  1  0  0  0  0
 24 23  1  6  0  0  0
 24 25  1  0  0  0  0
 25 27  1  0  0  0  0
 25 26  1  6  0  0  0
 27 28  1  1  0  0  0
 28 29  1  0  0  0  0
 30 31  1  1  0  0  0
 30 32  1  0  0  0  0
 30 27  1  0  0  0  0
 33 30  1  0  0  0  0
 34 33  1  0  0  0  0
 34 24  1  0  0  0  0
M  END
>  <CHROM.1>
177.10252092,31.15575461,-173.45622330,162.47741940,-99.37848476,-101.91615892
-1.86812753,20.47028263,35.64541310,1.05656432,0.39859927,-0.33963809

>  <Name>
lig.pdb

>  <RI>
0

>  <Rbt.Current_Directory>
/home/itssahil/PROJECTS/Mol_Feturizer/New_Systems/rnas/4k32

>  <Rbt.Executable>
rbdock ($Id: //depot/dev/client3/rdock/2013.1/src/exe/rbdock.cxx#4 $)

>  <Rbt.Library>
libRbt.so (2013.1, Build901 2013/11/27)

>  <Rbt.Parameter_File>
/export/apps/rDock/src/rDock_2013.1_src/data/scripts/dock_solv.prm

>  <Rbt.Receptor>
prm/pocket_docking_6.prm

>  <SCORE>
-12.62

>  <SCORE.INTER>
-8.49116

>  <SCORE.INTER.CONST>
1

>  <SCORE.INTER.POLAR>
0

>  <SCORE.INTER.ROT>
6

>  <SCORE.INTER.SOLV>
21.1354

>  <SCORE.INTER.VDW>
-20.3059

>  <SCORE.INTER.norm>
-0.24974

>  <SCORE.INTRA>
-4.12885

>  <SCORE.INTRA.DIHEDRAL>
-7.55327

>  <SCORE.INTRA.DIHEDRAL.0>
18.0069

>  <SCORE.INTRA.POLAR>
0

>  <SCORE.INTRA.POLAR.0>
0

>  <SCORE.INTRA.REPUL>
0

>  <SCORE.INTRA.REPUL.0>
0

>  <SCORE.INTRA.SOLV>
-1.62201

>  <SCORE.INTRA.SOLV.lig_0>
-70.7393

>  <SCORE.INTRA.VDW>
0.458789

>  <SCORE.INTRA.VDW.0>
-3.23471

>  <SCORE.INTRA.norm>
-0.121437

>  <SCORE.RESTR>
0

>  <SCORE.RESTR.CAVITY>
0

>  <SCORE.RESTR.norm>
0

>  <SCORE.SYSTEM>
0

>  <SCORE.SYSTEM.CONST>
0

>  <SCORE.SYSTEM.DIHEDRAL>
0

>  <SCORE.SYSTEM.SOLV>
0

>  <SCORE.SYSTEM.norm>
0

>  <SCORE.heavy>
34

>  <SCORE.norm>
-0.371177

>  <RMSD>
6.292

$$$$
lig.pdb
 OpenBabel11021811503D
libRbt.so/2013.1/901 2013/11/27
 34 36  0  0  0  0  0  0  0  0999 V2000
   -2.4191   19.6844   34.4647 C   0  0  2  0  0  0  0  0  0  0  0  0
   -1.9733   19.2717   35.7613 O   0  0  0  0  0  0  0  0  0  0  0  0
   -1.1879   19.6197   33.4642 C   0  0  2  0  0  0  0  0  0  0  0  0
   -0.6366   18.2487   33.3572 N   0  0  0  0  0  0  0  0  0  0  0  0
   -0.0842   20.5967   33.9419 C   0  0  1  0  0  0  0  0  0  0  0  0
    1.0311   20.5575   33.0485 O   0  0  0  0  0  0  0  0  0  0  0  0
   -0.6848   22.0112   34.0259 C   0  0  2  0  0  0  0  0  0  0  0  0
    0.3241   22.9235   34.4619 O   0  0  0  0  0  0  0  0  0  0  0  0
   -1.9098   22.0101   35.0188 C   0  0  2  0  0  0  0  0  0  0  0  0
   -2.9427   21.0499   34.5750 O   0  0  0  0  0  0  0  0  0  0  0  0
   -2.5594   23.4123   35.1239 C   0  0  2  0  0  0  0  0  0  0  0  0
   -1.5550   24.4215   35.0039 O   0  0  0  0  0  0  0  0  0  0  0  0
   -3.2698   23.5905   36.4567 C   0  0  0  0  0  0  0  0  0  0  0  0
   -1.2215   15.3694   37.3499 C   0  0  2  0  0  0  0  0  0  0  0  0
   -0.7831   13.9758   37.4580 N   0  0  0  0  0  0  0  0  0  0  0  0
   -2.1053   15.4768   36.0767 C   0  0  0  0  0  0  0  0  0  0  0  0
   -2.6004   16.9437   35.9578 C   0  0  2  0  0  0  0  0  0  0  0  0
   -3.4488   17.0912   34.7648 N   0  0  0  0  0  0  0  0  0  0  0  0
   -1.4038   17.9273   35.8570 C   0  0  2  0  0  0  0  0  0  0  0  0
   -0.5060   17.7688   37.1245 C   0  0  2  0  0  0  0  0  0  0  0  0
    0.6053   18.6697   37.0248 O   0  0  0  0  0  0  0  0  0  0  0  0
    0.0403   16.3246   37.2347 C   0  0  1  0  0  0  0  0  0  0  0  0
    0.8489   16.2592   38.4354 O   0  0  0  0  0  0  0  0  0  0  0  0
    2.2784   16.1591   38.2347 C   0  0  2  0  0  0  0  0  0  0  0  0
    2.5334   14.7406   37.6021 C   0  0  2  0  0  0  0  0  0  0  0  0
    1.8533   14.6371   36.3611 O   0  0  0  0  0  0  0  0  0  0  0  0
    2.0400   13.6343   38.6097 C   0  0  1  0  0  0  0  0  0  0  0  0
    2.2540   12.2671   38.0445 N   0  0  0  0  0  0  0  0  0  0  0  0
    1.1685   11.9707   37.0851 C   0  0  0  0  0  0  0  0  0  0  0  0
    2.8269   13.7960   39.9459 C   0  0  2  0  0  0  0  0  0  0  0  0
    4.2177   13.6187   39.6819 O   0  0  0  0  0  0  0  0  0  0  0  0
    2.3998   12.7617   40.9842 C   0  0  0  0  0  0  0  0  0  0  0  0
    2.5873   15.2330   40.5104 C   0  0  0  0  0  0  0  0  0  0  0  0
    2.9870   16.2609   39.5263 O   0  0  0  0  0  0  0  0  0  0  0  0
  1  3  1  0  0  0  0
  1  2  1  1  0  0  0
  3  5  1  0  0  0  0
  3  4  1  1  0  0  0
  5  6  1  6  0  0  0
  7  8  1  1  0  0  0
  7  5  1  0  0  0  0
  9 10  1  6  0  0  0
  9  7  1  0  0  0  0
 10  1  1  0  0  0  0
 11 13  1  1  0  0  0
 11  9  1  0  0  0  0
 12 11  1  0  0  0  0
 14 15  1  6  0  0  0
 16 14  1  0  0  0  0
 17 18  1  6  0  0  0
 17 16  1  0  0  0  0
 19  2  1  1  0  0  0
 19 20  1  0  0  0  0
 19 17  1  0  0  0  0
 20 21  1  6  0  0  0
 20 22  1  0  0  0  0
 22 23  1  1  0  0  0
 22 14  1  0  0  0  0
 24 23  1  1  0  0  0
 24 25  1  0  0  0  0
 25 27  1  0  0  0  0
 25 26  1  6  0  0  0
 27 28  1  6  0  0  0
 28 29  1  0  0  0  0
 30 31  1  6  0  0  0
 30 32  1  0  0  0  0
 30 27  1  0  0  0  0
 33 30  1  0  0  0  0
 34 33  1  0  0  0  0
 34 24  1  0  0  0  0
M  END
>  <CHROM.1>
-58.83800552,-34.13273066,-81.54801564,135.38342555,-67.92785582,-79.61495977
-0.01059863,17.63069794,36.55187343,2.07232379,-0.62750975,-0.17306960

>  <Name>
lig.pdb

>  <RI>
0

>  <Rbt.Current_Directory>
/home/itssahil/PROJECTS/Mol_Feturizer/New_Systems/rnas/4k32

>  <Rbt.Executable>
rbdock ($Id: //depot/dev/client3/rdock/2013.1/src/exe/rbdock.cxx#4 $)

>  <Rbt.Library>
libRbt.so (2013.1, Build901 2013/11/27)

>  <Rbt.Parameter_File>
/export/apps/rDock/src/rDock_2013.1_src/data/scripts/dock_solv.prm

>  <Rbt.Receptor>
prm/blind_docking_100.prm

>  <SCORE>
14.795

>  <SCORE.INTER>
1.66534

>  <SCORE.INTER.CONST>
1

>  <SCORE.INTER.POLAR>
0

>  <SCORE.INTER.ROT>
6

>  <SCORE.INTER.SOLV>
26.5306

>  <SCORE.INTER.VDW>
-15.3333

>  <SCORE.INTER.norm>
0.0489805

>  <SCORE.INTRA>
4.0397

>  <SCORE.INTRA.DIHEDRAL>
-7.13015

>  <SCORE.INTRA.DIHEDRAL.0>
18.0069

>  <SCORE.INTRA.POLAR>
0

>  <SCORE.INTRA.POLAR.0>
0

>  <SCORE.INTRA.REPUL>
0

>  <SCORE.INTRA.REPUL.0>
0

>  <SCORE.INTRA.SOLV>
6.85549

>  <SCORE.INTRA.SOLV.lig_0>
-70.7393

>  <SCORE.INTRA.VDW>
4.17703

>  <SCORE.INTRA.VDW.0>
-3.23471

>  <SCORE.INTRA.norm>
0.118815

>  <SCORE.RESTR>
9.08996

>  <SCORE.RESTR.CAVITY>
9.08996

>  <SCORE.RESTR.norm>
0.267352

>  <SCORE.SYSTEM>
0

>  <SCORE.SYSTEM.CONST>
0

>  <SCORE.SYSTEM.DIHEDRAL>
0

>  <SCORE.SYSTEM.SOLV>
0

>  <SCORE.SYSTEM.norm>
0

>  <SCORE.heavy>
34

>  <SCORE.norm>
0.435147

>  <RMSD>
6.302

$$$$
lig.pdb
 OpenBabel11021811503D
libRbt.so/2013.1/901 2013/11/27
 34 36  0  0  0  0  0  0  0  0999 V2000
   -5.0793   16.8926   38.6951 C   0  0  2  0  0  0  0  0  0  0  0  0
   -5.0785   15.7754   39.5907 O   0  0  0  0  0  0  0  0  0  0  0  0
   -3.9986   17.9419   39.1973 C   0  0  2  0  0  0  0  0  0  0  0  0
   -2.6362   17.3604   39.2219 N   0  0  0  0  0  0  0  0  0  0  0  0
   -4.3848   18.4420   40.6121 C   0  0  1  0  0  0  0  0  0  0  0  0
   -3.4260   19.3940   41.0787 O   0  0  0  0  0  0  0  0  0  0  0  0
   -5.7956   19.0538   40.5473 C   0  0  2  0  0  0  0  0  0  0  0  0
   -6.1630   19.5227   41.8456 O   0  0  0  0  0  0  0  0  0  0  0  0
   -6.8200   17.9732   40.0284 C   0  0  2  0  0  0  0  0  0  0  0  0
   -6.4250   17.4757   38.6934 O   0  0  0  0  0  0  0  0  0  0  0  0
   -8.2547   18.5488   39.9304 C   0  0  2  0  0  0  0  0  0  0  0  0
   -9.1411   17.5544   39.4136 O   0  0  0  0  0  0  0  0  0  0  0  0
   -8.2988   19.7618   39.0143 C   0  0  0  0  0  0  0  0  0  0  0  0
   -5.8005   11.6142   38.8980 C   0  0  2  0  0  0  0  0  0  0  0  0
   -6.4820   10.3597   38.5696 N   0  0  0  0  0  0  0  0  0  0  0  0
   -6.6461   12.3256   39.9902 C   0  0  0  0  0  0  0  0  0  0  0  0
   -5.9261   13.6479   40.3697 C   0  0  2  0  0  0  0  0  0  0  0  0
   -6.6913   14.3547   41.4088 N   0  0  0  0  0  0  0  0  0  0  0  0
   -5.7732   14.5722   39.1320 C   0  0  2  0  0  0  0  0  0  0  0  0
   -4.9605   13.8196   38.0316 C   0  0  2  0  0  0  0  0  0  0  0  0
   -4.8297   14.6700   36.8844 O   0  0  0  0  0  0  0  0  0  0  0  0
   -5.6871   12.5221   37.6016 C   0  0  1  0  0  0  0  0  0  0  0  0
   -4.8670   11.8819   36.5929 O   0  0  0  0  0  0  0  0  0  0  0  0
   -5.3896   10.6539   36.0339 C   0  0  2  0  0  0  0  0  0  0  0  0
   -4.2679   10.0939   35.0823 C   0  0  2  0  0  0  0  0  0  0  0  0
   -3.0892    9.8331   35.8281 O   0  0  0  0  0  0  0  0  0  0  0  0
   -3.9925   11.1450   33.9412 C   0  0  1  0  0  0  0  0  0  0  0  0
   -2.9236   10.6581   33.0168 N   0  0  0  0  0  0  0  0  0  0  0  0
   -1.6673   11.3783   33.3163 C   0  0  0  0  0  0  0  0  0  0  0  0
   -5.3188   11.3821   33.1568 C   0  0  2  0  0  0  0  0  0  0  0  0
   -5.7362   10.1458   32.5798 O   0  0  0  0  0  0  0  0  0  0  0  0
   -5.1387   12.3996   32.0331 C   0  0  0  0  0  0  0  0  0  0  0  0
   -6.4165   11.8865   34.1476 C   0  0  0  0  0  0  0  0  0  0  0  0
   -6.6131   10.9248   35.2526 O   0  0  0  0  0  0  0  0  0  0  0  0
  1  3  1  0  0  0  0
  1  2  1  1  0  0  0
  3  5  1  0  0  0  0
  3  4  1  1  0  0  0
  5  6  1  6  0  0  0
  7  8  1  1  0  0  0
  7  5  1  0  0  0  0
  9 10  1  6  0  0  0
  9  7  1  0  0  0  0
 10  1  1  0  0  0  0
 11 13  1  6  0  0  0
 11  9  1  0  0  0  0
 12 11  1  0  0  0  0
 14 15  1  6  0  0  0
 16 14  1  0  0  0  0
 17 18  1  1  0  0  0
 17 16  1  0  0  0  0
 19  2  1  1  0  0  0
 19 20  1  0  0  0  0
 19 17  1  0  0  0  0
 20 21  1  6  0  0  0
 20 22  1  0  0  0  0
 22 23  1  6  0  0  0
 22 14  1  0  0  0  0
 24 23  1  6  0  0  0
 24 25  1  0  0  0  0
 25 27  1  0  0  0  0
 25 26  1  1  0  0  0
 27 28  1  6  0  0  0
 28 29  1  0  0  0  0
 30 31  1  6  0  0  0
 30 32  1  0  0  0  0
 30 27  1  0  0  0  0
 33 30  1  0  0  0  0
 34 33  1  0  0  0  0
 34 24  1  0  0  0  0
M  END
>  <CHROM.1>
-166.15627913,177.99539211,-166.94808209,65.17585663,-174.69245040,-103.84205810
-5.40608807,14.30992179,37.62241763,-1.80284247,-0.85136420,-2.63856605

>  <Name>
lig.pdb

>  <RI>
0

>  <Rbt.Current_Directory>
/home/itssahil/PROJECTS/Mol_Feturizer/New_Systems/rnas/4k32

>  <Rbt.Executable>
rbdock ($Id: //depot/dev/client3/rdock/2013.1/src/exe/rbdock.cxx#4 $)

>  <Rbt.Library>
libRbt.so (2013.1, Build901 2013/11/27)

>  <Rbt.Parameter_File>
/export/apps/rDock/src/rDock_2013.1_src/data/scripts/dock_solv.prm

>  <Rbt.Receptor>
prm/pocket_docking_7.prm

>  <SCORE>
-10.4119

>  <SCORE.INTER>
-3.3346

>  <SCORE.INTER.CONST>
1

>  <SCORE.INTER.POLAR>
0

>  <SCORE.INTER.ROT>
6

>  <SCORE.INTER.SOLV>
14.8685

>  <SCORE.INTER.VDW>
-14.7792

>  <SCORE.INTER.norm>
-0.0980764

>  <SCORE.INTRA>
-7.07729

>  <SCORE.INTRA.DIHEDRAL>
-14.946

>  <SCORE.INTRA.DIHEDRAL.0>
18.0069

>  <SCORE.INTRA.POLAR>
0

>  <SCORE.INTRA.POLAR.0>
0

>  <SCORE.INTRA.REPUL>
0

>  <SCORE.INTRA.REPUL.0>
0

>  <SCORE.INTRA.SOLV>
-1.42379

>  <SCORE.INTRA.SOLV.lig_0>
-70.7393

>  <SCORE.INTRA.VDW>
1.10762

>  <SCORE.INTRA.VDW.0>
-3.23471

>  <SCORE.INTRA.norm>
-0.208155

>  <SCORE.RESTR>
0

>  <SCORE.RESTR.CAVITY>
0

>  <SCORE.RESTR.norm>
0

>  <SCORE.SYSTEM>
0

>  <SCORE.SYSTEM.CONST>
0

>  <SCORE.SYSTEM.DIHEDRAL>
0

>  <SCORE.SYSTEM.SOLV>
0

>  <SCORE.SYSTEM.norm>
0

>  <SCORE.heavy>
34

>  <SCORE.norm>
-0.306232

>  <RMSD>
6.305

$$$$
lig.pdb
 OpenBabel11021811503D
libRbt.so/2013.1/901 2013/11/27
 34 36  0  0  0  0  0  0  0  0999 V2000
   -1.8569   23.2801   34.8131 C   0  0  2  0  0  0  0  0  0  0  0  0
   -1.7369   22.2490   33.8269 O   0  0  0  0  0  0  0  0  0  0  0  0
   -2.4585   24.5747   34.1181 C   0  0  2  0  0  0  0  0  0  0  0  0
   -3.7988   24.3178   33.5414 N   0  0  0  0  0  0  0  0  0  0  0  0
   -1.4912   25.0608   33.0095 C   0  0  1  0  0  0  0  0  0  0  0  0
   -2.0132   26.2313   32.3762 O   0  0  0  0  0  0  0  0  0  0  0  0
   -0.1160   25.3338   33.6444 C   0  0  2  0  0  0  0  0  0  0  0  0
    0.7854   25.7867   32.6330 O   0  0  0  0  0  0  0  0  0  0  0  0
    0.4224   24.0204   34.3310 C   0  0  2  0  0  0  0  0  0  0  0  0
   -0.5230   23.5437   35.3629 O   0  0  0  0  0  0  0  0  0  0  0  0
    1.8003   24.2508   35.0000 C   0  0  2  0  0  0  0  0  0  0  0  0
    2.7341   24.7325   34.0318 O   0  0  0  0  0  0  0  0  0  0  0  0
    2.3428   22.9624   35.5987 C   0  0  0  0  0  0  0  0  0  0  0  0
   -1.8202   17.9936   34.2750 C   0  0  2  0  0  0  0  0  0  0  0  0
   -1.4266   16.6272   34.6274 N   0  0  0  0  0  0  0  0  0  0  0  0
   -0.6503   18.6151   33.4633 C   0  0  0  0  0  0  0  0  0  0  0  0
   -1.0591   20.0575   33.0591 C   0  0  2  0  0  0  0  0  0  0  0  0
    0.0207   20.6849   32.2811 N   0  0  0  0  0  0  0  0  0  0  0  0
   -1.3529   20.9236   34.3134 C   0  0  2  0  0  0  0  0  0  0  0  0
   -2.4993   20.2555   35.1364 C   0  0  2  0  0  0  0  0  0  0  0  0
   -2.7620   21.0503   36.3008 O   0  0  0  0  0  0  0  0  0  0  0  0
   -2.0920   18.8336   35.5934 C   0  0  1  0  0  0  0  0  0  0  0  0
   -3.2076   18.2827   36.3361 O   0  0  0  0  0  0  0  0  0  0  0  0
   -3.4068   18.8100   37.6687 C   0  0  2  0  0  0  0  0  0  0  0  0
   -2.9648   17.6708   38.6609 C   0  0  2  0  0  0  0  0  0  0  0  0
   -1.5966   17.3564   38.4550 O   0  0  0  0  0  0  0  0  0  0  0  0
   -3.8756   16.4064   38.4273 C   0  0  1  0  0  0  0  0  0  0  0  0
   -3.4838   15.2926   39.3439 N   0  0  0  0  0  0  0  0  0  0  0  0
   -2.8442   14.2217   38.5496 C   0  0  0  0  0  0  0  0  0  0  0  0
   -5.3600   16.8136   38.6750 C   0  0  2  0  0  0  0  0  0  0  0  0
   -5.4933   17.2582   40.0241 O   0  0  0  0  0  0  0  0  0  0  0  0
   -6.3131   15.6407   38.4599 C   0  0  0  0  0  0  0  0  0  0  0  0
   -5.7394   17.9797   37.7068 C   0  0  0  0  0  0  0  0  0  0  0  0
   -4.8314   19.1321   37.8863 O   0  0  0  0  0  0  0  0  0  0  0  0
  1  3  1  0  0  0  0
  1  2  1  6  0  0  0
  3  5  1  0  0  0  0
  3  4  1  6  0  0  0
  5  6  1  1  0  0  0
  7  8  1  6  0  0  0
  7  5  1  0  0  0  0
  9 10  1  1  0  0  0
  9  7  1  0  0  0  0
 10  1  1  0  0  0  0
 11 13  1  6  0  0  0
 11  9  1  0  0  0  0
 12 11  1  0  0  0  0
 14 15  1  1  0  0  0
 16 14  1  0  0  0  0
 17 18  1  1  0  0  0
 17 16  1  0  0  0  0
 19  2  1  6  0  0  0
 19 20  1  0  0  0  0
 19 17  1  0  0  0  0
 20 21  1  1  0  0  0
 20 22  1  0  0  0  0
 22 23  1  6  0  0  0
 22 14  1  0  0  0  0
 24 23  1  6  0  0  0
 24 25  1  0  0  0  0
 25 27  1  0  0  0  0
 25 26  1  6  0  0  0
 27 28  1  1  0  0  0
 28 29  1  0  0  0  0
 30 31  1  1  0  0  0
 30 32  1  0  0  0  0
 30 27  1  0  0  0  0
 33 30  1  0  0  0  0
 34 33  1  0  0  0  0
 34 24  1  0  0  0  0
M  END
>  <CHROM.1>
-172.72118842,-56.92413105,-170.71620433,169.46408097,-107.52891662,-109.53133536
-2.01240777,20.49726058,35.65046236,1.12253879,0.38089030,-0.36032539

>  <Name>
lig.pdb

>  <RI>
0

>  <Rbt.Current_Directory>
/home/itssahil/PROJECTS/Mol_Feturizer/New_Systems/rnas/4k32

>  <Rbt.Executable>
rbdock ($Id: //depot/dev/client3/rdock/2013.1/src/exe/rbdock.cxx#4 $)

>  <Rbt.Library>
libRbt.so (2013.1, Build901 2013/11/27)

>  <Rbt.Parameter_File>
/export/apps/rDock/src/rDock_2013.1_src/data/scripts/dock_solv.prm

>  <Rbt.Receptor>
prm/pocket_docking_8.prm

>  <SCORE>
-13.9981

>  <SCORE.INTER>
-8.93965

>  <SCORE.INTER.CONST>
1

>  <SCORE.INTER.POLAR>
0

>  <SCORE.INTER.ROT>
6

>  <SCORE.INTER.SOLV>
21.4787

>  <SCORE.INTER.VDW>
-20.7194

>  <SCORE.INTER.norm>
-0.262931

>  <SCORE.INTRA>
-5.05845

>  <SCORE.INTRA.DIHEDRAL>
-9.13329

>  <SCORE.INTRA.DIHEDRAL.0>
18.0069

>  <SCORE.INTRA.POLAR>
0

>  <SCORE.INTRA.POLAR.0>
0

>  <SCORE.INTRA.REPUL>
0

>  <SCORE.INTRA.REPUL.0>
0

>  <SCORE.INTRA.SOLV>
-2.37356

>  <SCORE.INTRA.SOLV.lig_0>
-70.7393

>  <SCORE.INTRA.VDW>
0.694967

>  <SCORE.INTRA.VDW.0>
-3.23471

>  <SCORE.INTRA.norm>
-0.148778

>  <SCORE.RESTR>
0

>  <SCORE.RESTR.CAVITY>
0

>  <SCORE.RESTR.norm>
0

>  <SCORE.SYSTEM>
0

>  <SCORE.SYSTEM.CONST>
0

>  <SCORE.SYSTEM.DIHEDRAL>
0

>  <SCORE.SYSTEM.SOLV>
0

>  <SCORE.SYSTEM.norm>
0

>  <SCORE.heavy>
34

>  <SCORE.norm>
-0.411709

>  <RMSD>
6.319

$$$$
lig.pdb
 OpenBabel11021811503D
libRbt.so/2013.1/901 2013/11/27
 34 36  0  0  0  0  0  0  0  0999 V2000
   -5.2141   16.9428   38.3467 C   0  0  2  0  0  0  0  0  0  0  0  0
   -5.3648   15.8402   39.2477 O   0  0  0  0  0  0  0  0  0  0  0  0
   -4.1783   17.9692   38.9751 C   0  0  2  0  0  0  0  0  0  0  0  0
   -2.8491   17.3502   39.1867 N   0  0  0  0  0  0  0  0  0  0  0  0
   -4.7328   18.5019   40.3204 C   0  0  1  0  0  0  0  0  0  0  0  0
   -3.8160   19.4339   40.8986 O   0  0  0  0  0  0  0  0  0  0  0  0
   -6.1038   19.1518   40.0623 C   0  0  2  0  0  0  0  0  0  0  0  0
   -6.6252   19.6511   41.2949 O   0  0  0  0  0  0  0  0  0  0  0  0
   -7.0826   18.0924   39.4252 C   0  0  2  0  0  0  0  0  0  0  0  0
   -6.5299   17.5632   38.1601 O   0  0  0  0  0  0  0  0  0  0  0  0
   -8.4739   18.7063   39.1313 C   0  0  2  0  0  0  0  0  0  0  0  0
   -8.3191   20.0175   38.5851 O   0  0  0  0  0  0  0  0  0  0  0  0
   -9.3103   18.8036   40.3977 C   0  0  0  0  0  0  0  0  0  0  0  0
   -6.0330   11.6886   38.4509 C   0  0  2  0  0  0  0  0  0  0  0  0
   -6.6838   10.4406   38.0447 N   0  0  0  0  0  0  0  0  0  0  0  0
   -6.9815   12.3963   39.4576 C   0  0  0  0  0  0  0  0  0  0  0  0
   -6.2973   13.7115   39.9191 C   0  0  2  0  0  0  0  0  0  0  0  0
   -7.1605   14.4146   40.8811 N   0  0  0  0  0  0  0  0  0  0  0  0
   -6.0152   14.6445   38.7109 C   0  0  2  0  0  0  0  0  0  0  0  0
   -5.0988   13.8958   37.6925 C   0  0  2  0  0  0  0  0  0  0  0  0
   -4.8483   14.7544   36.5714 O   0  0  0  0  0  0  0  0  0  0  0  0
   -5.7843   12.6058   37.1803 C   0  0  1  0  0  0  0  0  0  0  0  0
   -4.8693   11.9689   36.2546 O   0  0  0  0  0  0  0  0  0  0  0  0
   -5.2781   10.6787   35.7428 C   0  0  2  0  0  0  0  0  0  0  0  0
   -4.1186   10.1968   34.7938 C   0  0  2  0  0  0  0  0  0  0  0  0
   -2.9121   10.0747   35.5305 O   0  0  0  0  0  0  0  0  0  0  0  0
   -3.9580   11.2307   33.6156 C   0  0  1  0  0  0  0  0  0  0  0  0
   -2.8577   10.8174   32.6921 N   0  0  0  0  0  0  0  0  0  0  0  0
   -1.7096   11.7309   32.8765 C   0  0  0  0  0  0  0  0  0  0  0  0
   -5.3096   11.3140   32.8431 C   0  0  2  0  0  0  0  0  0  0  0  0
   -5.6131   10.0250   32.3121 O   0  0  0  0  0  0  0  0  0  0  0  0
   -5.2404   12.3060   31.6848 C   0  0  0  0  0  0  0  0  0  0  0  0
   -6.4394   11.7442   33.8329 C   0  0  0  0  0  0  0  0  0  0  0  0
   -6.5306   10.8055   34.9709 O   0  0  0  0  0  0  0  0  0  0  0  0
  1  3  1  0  0  0  0
  1  2  1  1  0  0  0
  3  5  1  0  0  0  0
  3  4  1  1  0  0  0
  5  6  1  6  0  0  0
  7  8  1  1  0  0  0
  7  5  1  0  0  0  0
  9 10  1  6  0  0  0
  9  7  1  0  0  0  0
 10  1  1  0  0  0  0
 11 13  1  1  0  0  0
 11  9  1  0  0  0  0
 12 11  1  0  0  0  0
 14 15  1  6  0  0  0
 16 14  1  0  0  0  0
 17 18  1  1  0  0  0
 17 16  1  0  0  0  0
 19  2  1  1  0  0  0
 19 20  1  0  0  0  0
 19 17  1  0  0  0  0
 20 21  1  6  0  0  0
 20 22  1  0  0  0  0
 22 23  1  6  0  0  0
 22 14  1  0  0  0  0
 24 23  1  6  0  0  0
 24 25  1  0  0  0  0
 25 27  1  0  0  0  0
 25 26  1  1  0  0  0
 27 28  1  6  0  0  0
 28 29  1  0  0  0  0
 30 31  1  6  0  0  0
 30 32  1  0  0  0  0
 30 27  1  0  0  0  0
 33 30  1  0  0  0  0
 34 33  1  0  0  0  0
 34 24  1  0  0  0  0
M  END
>  <CHROM.1>
-165.50451724,41.61482569,-169.73083241,58.93174712,-179.04945432,-108.19543489
-5.53813870,14.42016726,37.28303695,-1.85076588,-0.82382764,-2.68211717

>  <Name>
lig.pdb

>  <RI>
0

>  <Rbt.Current_Directory>
/home/itssahil/PROJECTS/Mol_Feturizer/New_Systems/rnas/4k32

>  <Rbt.Executable>
rbdock ($Id: //depot/dev/client3/rdock/2013.1/src/exe/rbdock.cxx#4 $)

>  <Rbt.Library>
libRbt.so (2013.1, Build901 2013/11/27)

>  <Rbt.Parameter_File>
/export/apps/rDock/src/rDock_2013.1_src/data/scripts/dock_solv.prm

>  <Rbt.Receptor>
prm/pocket_docking_6.prm

>  <SCORE>
-10.3055

>  <SCORE.INTER>
-3.97756

>  <SCORE.INTER.CONST>
1

>  <SCORE.INTER.POLAR>
0

>  <SCORE.INTER.ROT>
6

>  <SCORE.INTER.SOLV>
16.1453

>  <SCORE.INTER.VDW>
-15.6335

>  <SCORE.INTER.norm>
-0.116987

>  <SCORE.INTRA>
-6.32791

>  <SCORE.INTRA.DIHEDRAL>
-14.2109

>  <SCORE.INTRA.DIHEDRAL.0>
18.0069

>  <SCORE.INTRA.POLAR>
0

>  <SCORE.INTRA.POLAR.0>
0

>  <SCORE.INTRA.REPUL>
0

>  <SCORE.INTRA.REPUL.0>
0

>  <SCORE.INTRA.SOLV>
-0.784466

>  <SCORE.INTRA.SOLV.lig_0>
-70.7393

>  <SCORE.INTRA.VDW>
1.1698

>  <SCORE.INTRA.VDW.0>
-3.23471

>  <SCORE.INTRA.norm>
-0.186115

>  <SCORE.RESTR>
0

>  <SCORE.RESTR.CAVITY>
0

>  <SCORE.RESTR.norm>
0

>  <SCORE.SYSTEM>
0

>  <SCORE.SYSTEM.CONST>
0

>  <SCORE.SYSTEM.DIHEDRAL>
0

>  <SCORE.SYSTEM.SOLV>
0

>  <SCORE.SYSTEM.norm>
0

>  <SCORE.heavy>
34

>  <SCORE.norm>
-0.303102

>  <RMSD>
6.339

$$$$
lig.pdb
 OpenBabel11021811503D
libRbt.so/2013.1/901 2013/11/27
 34 36  0  0  0  0  0  0  0  0999 V2000
   -4.2647   16.5830   37.3373 C   0  0  2  0  0  0  0  0  0  0  0  0
   -4.7372   15.3957   37.9833 O   0  0  0  0  0  0  0  0  0  0  0  0
   -3.1234   17.2252   38.2351 C   0  0  2  0  0  0  0  0  0  0  0  0
   -1.9793   16.3014   38.4156 N   0  0  0  0  0  0  0  0  0  0  0  0
   -3.7111   17.6135   39.6153 C   0  0  1  0  0  0  0  0  0  0  0  0
   -2.6987   18.2005   40.4362 O   0  0  0  0  0  0  0  0  0  0  0  0
   -4.8842   18.5846   39.3926 C   0  0  2  0  0  0  0  0  0  0  0  0
   -5.4335   18.9540   40.6584 O   0  0  0  0  0  0  0  0  0  0  0  0
   -5.9757   17.8997   38.4837 C   0  0  2  0  0  0  0  0  0  0  0  0
   -5.3983   17.5006   37.1825 O   0  0  0  0  0  0  0  0  0  0  0  0
   -7.1717   18.8472   38.2174 C   0  0  2  0  0  0  0  0  0  0  0  0
   -6.6931   20.1635   37.9346 O   0  0  0  0  0  0  0  0  0  0  0  0
   -8.0976   18.9156   39.4219 C   0  0  0  0  0  0  0  0  0  0  0  0
   -5.9997   11.6645   36.3098 C   0  0  2  0  0  0  0  0  0  0  0  0
   -6.7953   10.6606   35.5989 N   0  0  0  0  0  0  0  0  0  0  0  0
   -6.9396   12.3544   37.3366 C   0  0  0  0  0  0  0  0  0  0  0  0
   -6.1073   13.4067   38.1183 C   0  0  2  0  0  0  0  0  0  0  0  0
   -6.9587   14.0835   39.1092 N   0  0  0  0  0  0  0  0  0  0  0  0
   -5.5055   14.4654   37.1556 C   0  0  2  0  0  0  0  0  0  0  0  0
   -4.6024   13.7443   36.1059 C   0  0  2  0  0  0  0  0  0  0  0  0
   -4.0562   14.7219   35.2101 O   0  0  0  0  0  0  0  0  0  0  0  0
   -5.4247   12.7256   35.2798 C   0  0  1  0  0  0  0  0  0  0  0  0
   -4.5162   12.0960   34.3427 O   0  0  0  0  0  0  0  0  0  0  0  0
   -5.1151   11.1866   33.3898 C   0  0  2  0  0  0  0  0  0  0  0  0
   -3.9200   10.4855   32.6430 C   0  0  2  0  0  0  0  0  0  0  0  0
   -3.1238    9.7694   33.5738 O   0  0  0  0  0  0  0  0  0  0  0  0
   -3.0682   11.5817   31.8976 C   0  0  1  0  0  0  0  0  0  0  0  0
   -1.9129   10.9605   31.1808 N   0  0  0  0  0  0  0  0  0  0  0  0
   -0.6684   11.2782   31.9134 C   0  0  0  0  0  0  0  0  0  0  0  0
   -3.9942   12.3255   30.8878 C   0  0  2  0  0  0  0  0  0  0  0  0
   -4.4926   11.3803   29.9424 O   0  0  0  0  0  0  0  0  0  0  0  0
   -3.2435   13.4153   30.1268 C   0  0  0  0  0  0  0  0  0  0  0  0
   -5.1923   12.9607   31.6639 C   0  0  0  0  0  0  0  0  0  0  0  0
   -5.9394   11.9314   32.4169 O   0  0  0  0  0  0  0  0  0  0  0  0
  1  3  1  0  0  0  0
  1  2  1  1  0  0  0
  3  5  1  0  0  0  0
  3  4  1  1  0  0  0
  5  6  1  1  0  0  0
  7  8  1  1  0  0  0
  7  5  1  0  0  0  0
  9 10  1  6  0  0  0
  9  7  1  0  0  0  0
 10  1  1  0  0  0  0
 11 13  1  1  0  0  0
 11  9  1  0  0  0  0
 12 11  1  0  0  0  0
 14 15  1  6  0  0  0
 16 14  1  0  0  0  0
 17 18  1  1  0  0  0
 17 16  1  0  0  0  0
 19  2  1  1  0  0  0
 19 20  1  0  0  0  0
 19 17  1  0  0  0  0
 20 21  1  6  0  0  0
 20 22  1  0  0  0  0
 22 23  1  6  0  0  0
 22 14  1  0  0  0  0
 24 23  1  1  0  0  0
 24 25  1  0  0  0  0
 25 27  1  0  0  0  0
 25 26  1  1  0  0  0
 27 28  1  6  0  0  0
 28 29  1  0  0  0  0
 30 31  1  6  0  0  0
 30 32  1  0  0  0  0
 30 27  1  0  0  0  0
 33 30  1  0  0  0  0
 34 33  1  0  0  0  0
 34 24  1  0  0  0  0
M  END
>  <CHROM.1>
-163.26911980,42.73147639,-170.33069002,69.10026998,-171.85741098,-106.76149516
-4.74900461,14.41917085,35.80121645,-1.77181021,-0.63825459,-2.44403641

>  <Name>
lig.pdb

>  <RI>
0

>  <Rbt.Current_Directory>
/home/itssahil/PROJECTS/Mol_Feturizer/New_Systems/rnas/4k32

>  <Rbt.Executable>
rbdock ($Id: //depot/dev/client3/rdock/2013.1/src/exe/rbdock.cxx#4 $)

>  <Rbt.Library>
libRbt.so (2013.1, Build901 2013/11/27)

>  <Rbt.Parameter_File>
/export/apps/rDock/src/rDock_2013.1_src/data/scripts/dock_solv.prm

>  <Rbt.Receptor>
prm/pocket_docking_8.prm

>  <SCORE>
-11.954

>  <SCORE.INTER>
-5.34635

>  <SCORE.INTER.CONST>
1

>  <SCORE.INTER.POLAR>
0

>  <SCORE.INTER.ROT>
6

>  <SCORE.INTER.SOLV>
15.9899

>  <SCORE.INTER.VDW>
-16.4942

>  <SCORE.INTER.norm>
-0.157245

>  <SCORE.INTRA>
-6.60798

>  <SCORE.INTRA.DIHEDRAL>
-13.4059

>  <SCORE.INTRA.DIHEDRAL.0>
18.0069

>  <SCORE.INTRA.POLAR>
0

>  <SCORE.INTRA.POLAR.0>
0

>  <SCORE.INTRA.REPUL>
0

>  <SCORE.INTRA.REPUL.0>
0

>  <SCORE.INTRA.SOLV>
-1.17587

>  <SCORE.INTRA.SOLV.lig_0>
-70.7393

>  <SCORE.INTRA.VDW>
0.682905

>  <SCORE.INTRA.VDW.0>
-3.23471

>  <SCORE.INTRA.norm>
-0.194352

>  <SCORE.RESTR>
0.000347093

>  <SCORE.RESTR.CAVITY>
0.000347093

>  <SCORE.RESTR.norm>
1.02086e-05

>  <SCORE.SYSTEM>
0

>  <SCORE.SYSTEM.CONST>
0

>  <SCORE.SYSTEM.DIHEDRAL>
0

>  <SCORE.SYSTEM.SOLV>
0

>  <SCORE.SYSTEM.norm>
0

>  <SCORE.heavy>
34

>  <SCORE.norm>
-0.351588

>  <RMSD>
6.355

$$$$
lig.pdb
 OpenBabel11021811503D
libRbt.so/2013.1/901 2013/11/27
 34 36  0  0  0  0  0  0  0  0999 V2000
   -1.8136   23.3435   34.8340 C   0  0  2  0  0  0  0  0  0  0  0  0
   -1.6956   22.3322   33.8274 O   0  0  0  0  0  0  0  0  0  0  0  0
   -2.4218   24.6499   34.1672 C   0  0  2  0  0  0  0  0  0  0  0  0
   -3.7641   24.4006   33.5919 N   0  0  0  0  0  0  0  0  0  0  0  0
   -1.4610   25.1600   33.0637 C   0  0  1  0  0  0  0  0  0  0  0  0
   -1.9890   26.3411   32.4558 O   0  0  0  0  0  0  0  0  0  0  0  0
   -0.0835   25.4242   33.6973 C   0  0  2  0  0  0  0  0  0  0  0  0
    0.8119   25.8991   32.6908 O   0  0  0  0  0  0  0  0  0  0  0  0
    0.4615   24.0992   34.3558 C   0  0  2  0  0  0  0  0  0  0  0  0
   -0.4778   23.5999   35.3826 O   0  0  0  0  0  0  0  0  0  0  0  0
    1.8419   24.3201   35.0226 C   0  0  2  0  0  0  0  0  0  0  0  0
    2.7808   24.7836   34.0503 O   0  0  0  0  0  0  0  0  0  0  0  0
    2.3705   23.0311   35.6322 C   0  0  0  0  0  0  0  0  0  0  0  0
   -1.8224   18.0696   34.1899 C   0  0  2  0  0  0  0  0  0  0  0  0
   -1.4436   16.6927   34.5164 N   0  0  0  0  0  0  0  0  0  0  0  0
   -0.6431   18.6957   33.3955 C   0  0  0  0  0  0  0  0  0  0  0  0
   -1.0360   20.1499   33.0186 C   0  0  2  0  0  0  0  0  0  0  0  0
    0.0531   20.7820   32.2576 N   0  0  0  0  0  0  0  0  0  0  0  0
   -1.3267   20.9936   34.2888 C   0  0  2  0  0  0  0  0  0  0  0  0
   -2.4829   20.3205   35.0937 C   0  0  2  0  0  0  0  0  0  0  0  0
   -2.7428   21.0945   36.2727 O   0  0  0  0  0  0  0  0  0  0  0  0
   -2.0916   18.8859   35.5237 C   0  0  1  0  0  0  0  0  0  0  0  0
   -3.2156   18.3312   36.2507 O   0  0  0  0  0  0  0  0  0  0  0  0
   -3.4036   18.8193   37.5999 C   0  0  2  0  0  0  0  0  0  0  0  0
   -2.9348   17.6590   38.5545 C   0  0  2  0  0  0  0  0  0  0  0  0
   -1.5656   17.3676   38.3225 O   0  0  0  0  0  0  0  0  0  0  0  0
   -3.8330   16.3902   38.2979 C   0  0  1  0  0  0  0  0  0  0  0  0
   -3.4157   15.2566   39.1783 N   0  0  0  0  0  0  0  0  0  0  0  0
   -2.6579   14.2771   38.3704 C   0  0  0  0  0  0  0  0  0  0  0  0
   -5.3189   16.7718   38.5757 C   0  0  2  0  0  0  0  0  0  0  0  0
   -5.4398   17.1776   39.9382 O   0  0  0  0  0  0  0  0  0  0  0  0
   -6.2604   15.5934   38.3407 C   0  0  0  0  0  0  0  0  0  0  0  0
   -5.7252   17.9591   37.6450 C   0  0  0  0  0  0  0  0  0  0  0  0
   -4.8291   19.1175   37.8444 O   0  0  0  0  0  0  0  0  0  0  0  0
  1  3  1  0  0  0  0
  1  2  1  6  0  0  0
  3  5  1  0  0  0  0
  3  4  1  6  0  0  0
  5  6  1  1  0  0  0
  7  8  1  6  0  0  0
  7  5  1  0  0  0  0
  9 10  1  1  0  0  0
  9  7  1  0  0  0  0
 10  1  1  0  0  0  0
 11 13  1  6  0  0  0
 11  9  1  0  0  0  0
 12 11  1  0  0  0  0
 14 15  1  1  0  0  0
 16 14  1  0  0  0  0
 17 18  1  1  0  0  0
 17 16  1  0  0  0  0
 19  2  1  6  0  0  0
 19 20  1  0  0  0  0
 19 17  1  0  0  0  0
 20 21  1  1  0  0  0
 20 22  1  0  0  0  0
 22 23  1  6  0  0  0
 22 14  1  0  0  0  0
 24 23  1  6  0  0  0
 24 25  1  0  0  0  0
 25 27  1  0  0  0  0
 25 26  1  6  0  0  0
 27 28  1  1  0  0  0
 28 29  1  0  0  0  0
 30 31  1  1  0  0  0
 30 32  1  0  0  0  0
 30 27  1  0  0  0  0
 33 30  1  0  0  0  0
 34 33  1  0  0  0  0
 34 24  1  0  0  0  0
M  END
>  <CHROM.1>
-171.78174504,-58.71748024,-170.89722802,168.59165456,-105.68103203,-104.08193036
-1.97994492,20.54225864,35.61299830,1.12440331,0.37586453,-0.34321746

>  <Name>
lig.pdb

>  <RI>
0

>  <Rbt.Current_Directory>
/home/itssahil/PROJECTS/Mol_Feturizer/New_Systems/rnas/4k32

>  <Rbt.Executable>
rbdock ($Id: //depot/dev/client3/rdock/2013.1/src/exe/rbdock.cxx#4 $)

>  <Rbt.Library>
libRbt.so (2013.1, Build901 2013/11/27)

>  <Rbt.Parameter_File>
/export/apps/rDock/src/rDock_2013.1_src/data/scripts/dock_solv.prm

>  <Rbt.Receptor>
prm/pocket_docking_7.prm

>  <SCORE>
-14.0122

>  <SCORE.INTER>
-8.92045

>  <SCORE.INTER.CONST>
1

>  <SCORE.INTER.POLAR>
0

>  <SCORE.INTER.ROT>
6

>  <SCORE.INTER.SOLV>
21.6371

>  <SCORE.INTER.VDW>
-20.7593

>  <SCORE.INTER.norm>
-0.262366

>  <SCORE.INTRA>
-5.0918

>  <SCORE.INTRA.DIHEDRAL>
-9.35538

>  <SCORE.INTRA.DIHEDRAL.0>
18.0069

>  <SCORE.INTRA.POLAR>
0

>  <SCORE.INTRA.POLAR.0>
0

>  <SCORE.INTRA.REPUL>
0

>  <SCORE.INTRA.REPUL.0>
0

>  <SCORE.INTRA.SOLV>
-2.24863

>  <SCORE.INTRA.SOLV.lig_0>
-70.7393

>  <SCORE.INTRA.VDW>
0.710211

>  <SCORE.INTRA.VDW.0>
-3.23471

>  <SCORE.INTRA.norm>
-0.149759

>  <SCORE.RESTR>
0

>  <SCORE.RESTR.CAVITY>
0

>  <SCORE.RESTR.norm>
0

>  <SCORE.SYSTEM>
0

>  <SCORE.SYSTEM.CONST>
0

>  <SCORE.SYSTEM.DIHEDRAL>
0

>  <SCORE.SYSTEM.SOLV>
0

>  <SCORE.SYSTEM.norm>
0

>  <SCORE.heavy>
34

>  <SCORE.norm>
-0.412125

>  <RMSD>
6.360

$$$$
lig.pdb
 OpenBabel11021811503D
libRbt.so/2013.1/901 2013/11/27
 34 36  0  0  0  0  0  0  0  0999 V2000
   -4.3073   16.6360   37.3100 C   0  0  2  0  0  0  0  0  0  0  0  0
   -4.7698   15.4459   37.9580 O   0  0  0  0  0  0  0  0  0  0  0  0
   -3.1544   17.2759   38.1946 C   0  0  2  0  0  0  0  0  0  0  0  0
   -2.0071   16.3525   38.3558 N   0  0  0  0  0  0  0  0  0  0  0  0
   -3.7234   17.6584   39.5841 C   0  0  1  0  0  0  0  0  0  0  0  0
   -2.7004   18.2433   40.3934 O   0  0  0  0  0  0  0  0  0  0  0  0
   -4.9003   18.6292   39.3812 C   0  0  2  0  0  0  0  0  0  0  0  0
   -5.4325   18.9934   40.6558 O   0  0  0  0  0  0  0  0  0  0  0  0
   -6.0035   17.9468   38.4848 C   0  0  2  0  0  0  0  0  0  0  0  0
   -5.4436   17.5532   37.1743 O   0  0  0  0  0  0  0  0  0  0  0  0
   -7.2039   18.8942   38.2384 C   0  0  2  0  0  0  0  0  0  0  0  0
   -6.7298   20.1908   37.8701 O   0  0  0  0  0  0  0  0  0  0  0  0
   -8.0637   19.0279   39.4857 C   0  0  0  0  0  0  0  0  0  0  0  0
   -5.9579   11.6779   36.3125 C   0  0  2  0  0  0  0  0  0  0  0  0
   -6.7266   10.6562   35.5973 N   0  0  0  0  0  0  0  0  0  0  0  0
   -6.9301   12.3762   37.3030 C   0  0  0  0  0  0  0  0  0  0  0  0
   -6.1271   13.4478   38.0891 C   0  0  2  0  0  0  0  0  0  0  0  0
   -7.0096   14.1331   39.0464 N   0  0  0  0  0  0  0  0  0  0  0  0
   -5.5087   14.4960   37.1256 C   0  0  2  0  0  0  0  0  0  0  0  0
   -4.5725   13.7659   36.1116 C   0  0  2  0  0  0  0  0  0  0  0  0
   -4.0107   14.7338   35.2148 O   0  0  0  0  0  0  0  0  0  0  0  0
   -5.3646   12.7273   35.2808 C   0  0  1  0  0  0  0  0  0  0  0  0
   -4.4268   12.0906   34.3781 O   0  0  0  0  0  0  0  0  0  0  0  0
   -4.9870   11.1279   33.4545 C   0  0  2  0  0  0  0  0  0  0  0  0
   -3.7662   10.4915   32.6915 C   0  0  2  0  0  0  0  0  0  0  0  0
   -2.9049    9.8446   33.6150 O   0  0  0  0  0  0  0  0  0  0  0  0
   -3.0035   11.6265   31.9086 C   0  0  1  0  0  0  0  0  0  0  0  0
   -1.8270   11.0679   31.1752 N   0  0  0  0  0  0  0  0  0  0  0  0
   -0.5892   11.6291   31.7580 C   0  0  0  0  0  0  0  0  0  0  0  0
   -3.9979   12.2914   30.9087 C   0  0  2  0  0  0  0  0  0  0  0  0
   -4.4552   11.2996   29.9908 O   0  0  0  0  0  0  0  0  0  0  0  0
   -3.3361   13.4133   30.1125 C   0  0  0  0  0  0  0  0  0  0  0  0
   -5.2167   12.8624   31.7021 C   0  0  0  0  0  0  0  0  0  0  0  0
   -5.8790   11.8009   32.4891 O   0  0  0  0  0  0  0  0  0  0  0  0
  1  3  1  0  0  0  0
  1  2  1  1  0  0  0
  3  5  1  0  0  0  0
  3  4  1  1  0  0  0
  5  6  1  1  0  0  0
  7  8  1  1  0  0  0
  7  5  1  0  0  0  0
  9 10  1  6  0  0  0
  9  7  1  0  0  0  0
 10  1  1  0  0  0  0
 11 13  1  1  0  0  0
 11  9  1  0  0  0  0
 12 11  1  0  0  0  0
 14 15  1  6  0  0  0
 16 14  1  0  0  0  0
 17 18  1  1  0  0  0
 17 16  1  0  0  0  0
 19  2  1  1  0  0  0
 19 20  1  0  0  0  0
 19 17  1  0  0  0  0
 20 21  1  6  0  0  0
 20 22  1  0  0  0  0
 22 23  1  6  0  0  0
 22 14  1  0  0  0  0
 24 23  1  1  0  0  0
 24 25  1  0  0  0  0
 25 27  1  0  0  0  0
 25 26  1  1  0  0  0
 27 28  1  6  0  0  0
 28 29  1  0  0  0  0
 30 31  1  6  0  0  0
 30 32  1  0  0  0  0
 30 27  1  0  0  0  0
 33 30  1  0  0  0  0
 34 33  1  0  0  0  0
 34 24  1  0  0  0  0
M  END
>  <CHROM.1>
-161.20997794,46.42570882,-169.43035027,67.11339822,-174.86347588,-114.55961025
-4.72765719,14.44952978,35.79638159,-1.78218011,-0.63317138,-2.45432053

>  <Name>
lig.pdb

>  <RI>
0

>  <Rbt.Current_Directory>
/home/itssahil/PROJECTS/Mol_Feturizer/New_Systems/rnas/4k32

>  <Rbt.Executable>
rbdock ($Id: //depot/dev/client3/rdock/2013.1/src/exe/rbdock.cxx#4 $)

>  <Rbt.Library>
libRbt.so (2013.1, Build901 2013/11/27)

>  <Rbt.Parameter_File>
/export/apps/rDock/src/rDock_2013.1_src/data/scripts/dock_solv.prm

>  <Rbt.Receptor>
prm/pocket_docking_7.prm

>  <SCORE>
-12.0168

>  <SCORE.INTER>
-5.64759

>  <SCORE.INTER.CONST>
1

>  <SCORE.INTER.POLAR>
0

>  <SCORE.INTER.ROT>
6

>  <SCORE.INTER.SOLV>
16.2336

>  <SCORE.INTER.VDW>
-16.7763

>  <SCORE.INTER.norm>
-0.166106

>  <SCORE.INTRA>
-6.36922

>  <SCORE.INTRA.DIHEDRAL>
-13.6113

>  <SCORE.INTRA.DIHEDRAL.0>
18.0069

>  <SCORE.INTRA.POLAR>
0

>  <SCORE.INTRA.POLAR.0>
0

>  <SCORE.INTRA.REPUL>
0

>  <SCORE.INTRA.REPUL.0>
0

>  <SCORE.INTRA.SOLV>
-1.05411

>  <SCORE.INTRA.SOLV.lig_0>
-70.7393

>  <SCORE.INTRA.VDW>
0.963499

>  <SCORE.INTRA.VDW.0>
-3.23471

>  <SCORE.INTRA.norm>
-0.18733

>  <SCORE.RESTR>
0

>  <SCORE.RESTR.CAVITY>
0

>  <SCORE.RESTR.norm>
0

>  <SCORE.SYSTEM>
0

>  <SCORE.SYSTEM.CONST>
0

>  <SCORE.SYSTEM.DIHEDRAL>
0

>  <SCORE.SYSTEM.SOLV>
0

>  <SCORE.SYSTEM.norm>
0

>  <SCORE.heavy>
34

>  <SCORE.norm>
-0.353436

>  <RMSD>
6.361

$$$$
lig.pdb
 OpenBabel11021811503D
libRbt.so/2013.1/901 2013/11/27
 34 36  0  0  0  0  0  0  0  0999 V2000
   -2.2174   20.2084   34.5533 C   0  0  2  0  0  0  0  0  0  0  0  0
   -1.7823   19.6488   35.7974 O   0  0  0  0  0  0  0  0  0  0  0  0
   -0.9529   20.3808   33.6086 C   0  0  2  0  0  0  0  0  0  0  0  0
   -0.2894   19.0849   33.3345 N   0  0  0  0  0  0  0  0  0  0  0  0
    0.0520   21.3596   34.2667 C   0  0  1  0  0  0  0  0  0  0  0  0
    1.1955   21.5332   33.4265 O   0  0  0  0  0  0  0  0  0  0  0  0
   -0.6635   22.6981   34.5220 C   0  0  2  0  0  0  0  0  0  0  0  0
    0.2535   23.6119   35.1257 O   0  0  0  0  0  0  0  0  0  0  0  0
   -1.9162   22.4624   35.4502 C   0  0  2  0  0  0  0  0  0  0  0  0
   -2.8530   21.5006   34.8311 O   0  0  0  0  0  0  0  0  0  0  0  0
   -2.6801   23.7820   35.7225 C   0  0  2  0  0  0  0  0  0  0  0  0
   -3.5796   23.6035   36.8183 O   0  0  0  0  0  0  0  0  0  0  0  0
   -3.4796   24.2158   34.5038 C   0  0  0  0  0  0  0  0  0  0  0  0
   -1.1928   15.5656   36.9361 C   0  0  2  0  0  0  0  0  0  0  0  0
   -0.7989   14.1553   36.8912 N   0  0  0  0  0  0  0  0  0  0  0  0
   -2.0351   15.8494   35.6617 C   0  0  0  0  0  0  0  0  0  0  0  0
   -2.4831   17.3355   35.7031 C   0  0  2  0  0  0  0  0  0  0  0  0
   -3.2911   17.6485   34.5140 N   0  0  0  0  0  0  0  0  0  0  0  0
   -1.2556   18.2846   35.7494 C   0  0  2  0  0  0  0  0  0  0  0  0
   -0.4007   17.9503   37.0124 C   0  0  2  0  0  0  0  0  0  0  0  0
    0.7390   18.8199   37.0480 O   0  0  0  0  0  0  0  0  0  0  0  0
    0.0994   16.4860   36.9665 C   0  0  1  0  0  0  0  0  0  0  0  0
    0.8698   16.2548   38.1718 O   0  0  0  0  0  0  0  0  0  0  0  0
    2.2941   16.0747   37.9913 C   0  0  2  0  0  0  0  0  0  0  0  0
    2.4829   14.6184   37.4247 C   0  0  2  0  0  0  0  0  0  0  0  0
    1.8093   14.4937   36.1822 O   0  0  0  0  0  0  0  0  0  0  0  0
    1.9258   13.5842   38.4748 C   0  0  1  0  0  0  0  0  0  0  0  0
    2.0756   12.1842   37.9729 N   0  0  0  0  0  0  0  0  0  0  0  0
    0.9993   11.9079   36.9973 C   0  0  0  0  0  0  0  0  0  0  0  0
    2.7083   13.7660   39.8110 C   0  0  2  0  0  0  0  0  0  0  0  0
    4.0907   13.5079   39.5703 O   0  0  0  0  0  0  0  0  0  0  0  0
    2.2207   12.8016   40.8893 C   0  0  0  0  0  0  0  0  0  0  0  0
    2.5364   15.2369   40.3089 C   0  0  0  0  0  0  0  0  0  0  0  0
    2.9957   16.1986   39.2848 O   0  0  0  0  0  0  0  0  0  0  0  0
  1  3  1  0  0  0  0
  1  2  1  1  0  0  0
  3  5  1  0  0  0  0
  3  4  1  1  0  0  0
  5  6  1  6  0  0  0
  7  8  1  1  0  0  0
  7  5  1  0  0  0  0
  9 10  1  6  0  0  0
  9  7  1  0  0  0  0
 10  1  1  0  0  0  0
 11 13  1  6  0  0  0
 11  9  1  0  0  0  0
 12 11  1  0  0  0  0
 14 15  1  6  0  0  0
 16 14  1  0  0  0  0
 17 18  1  6  0  0  0
 17 16  1  0  0  0  0
 19  2  1  1  0  0  0
 19 20  1  0  0  0  0
 19 17  1  0  0  0  0
 20 21  1  6  0  0  0
 20 22  1  0  0  0  0
 22 23  1  1  0  0  0
 22 14  1  0  0  0  0
 24 23  1  1  0  0  0
 24 25  1  0  0  0  0
 25 27  1  0  0  0  0
 25 26  1  6  0  0  0
 27 28  1  6  0  0  0
 28 29  1  0  0  0  0
 30 31  1  6  0  0  0
 30 32  1  0  0  0  0
 30 27  1  0  0  0  0
 33 30  1  0  0  0  0
 34 33  1  0  0  0  0
 34 24  1  0  0  0  0
M  END
>  <CHROM.1>
-65.93387700,-165.12703197,-79.60405306,132.81444722,-75.89392395,-78.60162337
-0.05530073,17.87608343,36.52642949,2.06962416,-0.60996333,-0.11737485

>  <Name>
lig.pdb

>  <RI>
0

>  <Rbt.Current_Directory>
/home/itssahil/PROJECTS/Mol_Feturizer/New_Systems/rnas/4k32

>  <Rbt.Executable>
rbdock ($Id: //depot/dev/client3/rdock/2013.1/src/exe/rbdock.cxx#4 $)

>  <Rbt.Library>
libRbt.so (2013.1, Build901 2013/11/27)

>  <Rbt.Parameter_File>
/export/apps/rDock/src/rDock_2013.1_src/data/scripts/dock_solv.prm

>  <Rbt.Receptor>
prm/blind_docking_100.prm

>  <SCORE>
10.3418

>  <SCORE.INTER>
-0.155935

>  <SCORE.INTER.CONST>
1

>  <SCORE.INTER.POLAR>
0

>  <SCORE.INTER.ROT>
6

>  <SCORE.INTER.SOLV>
27.8222

>  <SCORE.INTER.VDW>
-16.978

>  <SCORE.INTER.norm>
-0.00458634

>  <SCORE.INTRA>
2.2486

>  <SCORE.INTRA.DIHEDRAL>
-7.46723

>  <SCORE.INTRA.DIHEDRAL.0>
18.0069

>  <SCORE.INTRA.POLAR>
0

>  <SCORE.INTRA.POLAR.0>
0

>  <SCORE.INTRA.REPUL>
0

>  <SCORE.INTRA.REPUL.0>
0

>  <SCORE.INTRA.SOLV>
5.83334

>  <SCORE.INTRA.SOLV.lig_0>
-70.7393

>  <SCORE.INTRA.VDW>
3.06554

>  <SCORE.INTRA.VDW.0>
-3.23471

>  <SCORE.INTRA.norm>
0.0661353

>  <SCORE.RESTR>
8.24916

>  <SCORE.RESTR.CAVITY>
8.24916

>  <SCORE.RESTR.norm>
0.242622

>  <SCORE.SYSTEM>
0

>  <SCORE.SYSTEM.CONST>
0

>  <SCORE.SYSTEM.DIHEDRAL>
0

>  <SCORE.SYSTEM.SOLV>
0

>  <SCORE.SYSTEM.norm>
0

>  <SCORE.heavy>
34

>  <SCORE.norm>
0.304171

>  <RMSD>
6.363

$$$$
lig.pdb
 OpenBabel11021811503D
libRbt.so/2013.1/901 2013/11/27
 34 36  0  0  0  0  0  0  0  0999 V2000
   -1.6996   23.0697   35.0543 C   0  0  2  0  0  0  0  0  0  0  0  0
   -1.5790   21.9610   34.1562 O   0  0  0  0  0  0  0  0  0  0  0  0
   -2.3890   24.2725   34.2803 C   0  0  2  0  0  0  0  0  0  0  0  0
   -3.7414   23.9119   33.7947 N   0  0  0  0  0  0  0  0  0  0  0  0
   -1.4957   24.6971   33.0876 C   0  0  1  0  0  0  0  0  0  0  0  0
   -2.0974   25.7849   32.3819 O   0  0  0  0  0  0  0  0  0  0  0  0
   -0.1065   25.0802   33.6280 C   0  0  2  0  0  0  0  0  0  0  0  0
    0.7270   25.4777   32.5381 O   0  0  0  0  0  0  0  0  0  0  0  0
    0.5203   23.8554   34.3983 C   0  0  2  0  0  0  0  0  0  0  0  0
   -0.3551   23.4343   35.5129 O   0  0  0  0  0  0  0  0  0  0  0  0
    1.9156   24.1993   34.9763 C   0  0  2  0  0  0  0  0  0  0  0  0
    2.7693   24.6712   33.9321 O   0  0  0  0  0  0  0  0  0  0  0  0
    2.5607   22.9803   35.6172 C   0  0  0  0  0  0  0  0  0  0  0  0
   -2.1703   17.7983   34.9554 C   0  0  2  0  0  0  0  0  0  0  0  0
   -1.9488   16.4322   35.4359 N   0  0  0  0  0  0  0  0  0  0  0  0
   -0.9130   18.2094   34.1406 C   0  0  0  0  0  0  0  0  0  0  0  0
   -1.1391   19.6479   33.6015 C   0  0  2  0  0  0  0  0  0  0  0  0
    0.0284   20.0781   32.8162 N   0  0  0  0  0  0  0  0  0  0  0  0
   -1.3663   20.6483   34.7665 C   0  0  2  0  0  0  0  0  0  0  0  0
   -2.6059   20.1895   35.5974 C   0  0  2  0  0  0  0  0  0  0  0  0
   -2.8079   21.1079   36.6801 O   0  0  0  0  0  0  0  0  0  0  0  0
   -2.3805   18.7761   36.1872 C   0  0  1  0  0  0  0  0  0  0  0  0
   -3.5737   18.4226   36.9296 O   0  0  0  0  0  0  0  0  0  0  0  0
   -3.5527   17.1363   37.5919 C   0  0  2  0  0  0  0  0  0  0  0  0
   -5.0300   16.8608   38.0600 C   0  0  2  0  0  0  0  0  0  0  0  0
   -5.8928   16.8212   36.9342 O   0  0  0  0  0  0  0  0  0  0  0  0
   -5.4676   17.9914   39.0666 C   0  0  1  0  0  0  0  0  0  0  0  0
   -6.8719   17.7753   39.5309 N   0  0  0  0  0  0  0  0  0  0  0  0
   -7.6919   18.9397   39.1331 C   0  0  0  0  0  0  0  0  0  0  0  0
   -4.4890   17.9789   40.2801 C   0  0  2  0  0  0  0  0  0  0  0  0
   -4.5720   16.7071   40.9215 O   0  0  0  0  0  0  0  0  0  0  0  0
   -4.8406   19.0561   41.3031 C   0  0  0  0  0  0  0  0  0  0  0  0
   -3.0312   18.2034   39.7648 C   0  0  0  0  0  0  0  0  0  0  0  0
   -2.6596   17.1780   38.7672 O   0  0  0  0  0  0  0  0  0  0  0  0
  1  3  1  0  0  0  0
  1  2  1  6  0  0  0
  3  5  1  0  0  0  0
  3  4  1  6  0  0  0
  5  6  1  1  0  0  0
  7  8  1  6  0  0  0
  7  5  1  0  0  0  0
  9 10  1  1  0  0  0
  9  7  1  0  0  0  0
 10  1  1  0  0  0  0
 11 13  1  6  0  0  0
 11  9  1  0  0  0  0
 12 11  1  0  0  0  0
 14 15  1  1  0  0  0
 16 14  1  0  0  0  0
 17 18  1  1  0  0  0
 17 16  1  0  0  0  0
 19  2  1  6  0  0  0
 19 20  1  0  0  0  0
 19 17  1  0  0  0  0
 20 21  1  1  0  0  0
 20 22  1  0  0  0  0
 22 23  1  6  0  0  0
 22 14  1  0  0  0  0
 24 23  1  1  0  0  0
 24 25  1  0  0  0  0
 25 27  1  0  0  0  0
 25 26  1  6  0  0  0
 27 28  1  1  0  0  0
 28 29  1  0  0  0  0
 30 31  1  1  0  0  0
 30 32  1  0  0  0  0
 30 27  1  0  0  0  0
 33 30  1  0  0  0  0
 34 33  1  0  0  0  0
 34 24  1  0  0  0  0
M  END
>  <CHROM.1>
-161.39826205,-55.08659301,-174.91894310,65.27814788,-168.55958024,-119.25054608
-2.28863140,20.58961485,36.06505968,0.91494865,0.58767760,-0.26944215

>  <Name>
lig.pdb

>  <RI>
0

>  <Rbt.Current_Directory>
/home/itssahil/PROJECTS/Mol_Feturizer/New_Systems/rnas/4k32

>  <Rbt.Executable>
rbdock ($Id: //depot/dev/client3/rdock/2013.1/src/exe/rbdock.cxx#4 $)

>  <Rbt.Library>
libRbt.so (2013.1, Build901 2013/11/27)

>  <Rbt.Parameter_File>
/export/apps/rDock/src/rDock_2013.1_src/data/scripts/dock_solv.prm

>  <Rbt.Receptor>
prm/pocket_docking_7.prm

>  <SCORE>
-15.1796

>  <SCORE.INTER>
-8.31353

>  <SCORE.INTER.CONST>
1

>  <SCORE.INTER.POLAR>
0

>  <SCORE.INTER.ROT>
6

>  <SCORE.INTER.SOLV>
21.8879

>  <SCORE.INTER.VDW>
-20.4383

>  <SCORE.INTER.norm>
-0.244516

>  <SCORE.INTRA>
-6.86609

>  <SCORE.INTRA.DIHEDRAL>
-14.1777

>  <SCORE.INTRA.DIHEDRAL.0>
18.0069

>  <SCORE.INTRA.POLAR>
0

>  <SCORE.INTRA.POLAR.0>
0

>  <SCORE.INTRA.REPUL>
0

>  <SCORE.INTRA.REPUL.0>
0

>  <SCORE.INTRA.SOLV>
-1.32313

>  <SCORE.INTRA.SOLV.lig_0>
-70.7393

>  <SCORE.INTRA.VDW>
0.884345

>  <SCORE.INTRA.VDW.0>
-3.23471

>  <SCORE.INTRA.norm>
-0.201944

>  <SCORE.RESTR>
0

>  <SCORE.RESTR.CAVITY>
0

>  <SCORE.RESTR.norm>
0

>  <SCORE.SYSTEM>
0

>  <SCORE.SYSTEM.CONST>
0

>  <SCORE.SYSTEM.DIHEDRAL>
0

>  <SCORE.SYSTEM.SOLV>
0

>  <SCORE.SYSTEM.norm>
0

>  <SCORE.heavy>
34

>  <SCORE.norm>
-0.446459

>  <RMSD>
6.370

$$$$
lig.pdb
 OpenBabel11021811503D
libRbt.so/2013.1/901 2013/11/27
 34 36  0  0  0  0  0  0  0  0999 V2000
   -5.4070   16.9485   37.7774 C   0  0  2  0  0  0  0  0  0  0  0  0
   -5.3505   15.7326   38.5315 O   0  0  0  0  0  0  0  0  0  0  0  0
   -4.1728   17.8570   38.1929 C   0  0  2  0  0  0  0  0  0  0  0  0
   -2.8795   17.1904   37.9133 N   0  0  0  0  0  0  0  0  0  0  0  0
   -4.2729   18.2043   39.6996 C   0  0  1  0  0  0  0  0  0  0  0  0
   -3.1726   19.0286   40.0911 O   0  0  0  0  0  0  0  0  0  0  0  0
   -5.6178   18.9088   39.9517 C   0  0  2  0  0  0  0  0  0  0  0  0
   -5.7216   19.2382   41.3378 O   0  0  0  0  0  0  0  0  0  0  0  0
   -6.8022   17.9678   39.5066 C   0  0  2  0  0  0  0  0  0  0  0  0
   -6.6799   17.6127   38.0767 O   0  0  0  0  0  0  0  0  0  0  0  0
   -8.1792   18.6420   39.7265 C   0  0  2  0  0  0  0  0  0  0  0  0
   -8.2804   19.1086   41.0732 O   0  0  0  0  0  0  0  0  0  0  0  0
   -9.3167   17.6675   39.4635 C   0  0  0  0  0  0  0  0  0  0  0  0
   -6.3082   11.6694   37.5884 C   0  0  2  0  0  0  0  0  0  0  0  0
   -7.0597   10.4783   37.1851 N   0  0  0  0  0  0  0  0  0  0  0  0
   -7.1144   12.3606   38.7224 C   0  0  0  0  0  0  0  0  0  0  0  0
   -6.3207   13.6140   39.1808 C   0  0  2  0  0  0  0  0  0  0  0  0
   -7.0468   14.2993   40.2615 N   0  0  0  0  0  0  0  0  0  0  0  0
   -6.1119   14.6012   38.0012 C   0  0  2  0  0  0  0  0  0  0  0  0
   -5.3408   13.8712   36.8566 C   0  0  2  0  0  0  0  0  0  0  0  0
   -5.1585   14.7807   35.7628 O   0  0  0  0  0  0  0  0  0  0  0  0
   -6.1395   12.6460   36.3493 C   0  0  1  0  0  0  0  0  0  0  0  0
   -5.3549   12.0221   35.3029 O   0  0  0  0  0  0  0  0  0  0  0  0
   -5.4840   12.5984   33.9820 C   0  0  2  0  0  0  0  0  0  0  0  0
   -5.3542   11.4018   32.9678 C   0  0  2  0  0  0  0  0  0  0  0  0
   -6.3907   10.4604   33.1979 O   0  0  0  0  0  0  0  0  0  0  0  0
   -3.9374   10.7346   33.1413 C   0  0  1  0  0  0  0  0  0  0  0  0
   -3.7733    9.5834   32.2021 N   0  0  0  0  0  0  0  0  0  0  0  0
   -3.8299    8.3237   32.9746 C   0  0  0  0  0  0  0  0  0  0  0  0
   -2.8458   11.8140   32.8693 C   0  0  2  0  0  0  0  0  0  0  0  0
   -2.9930   12.2862   31.5311 O   0  0  0  0  0  0  0  0  0  0  0  0
   -1.4369   11.2477   33.0261 C   0  0  0  0  0  0  0  0  0  0  0  0
   -3.0441   13.0042   33.8619 C   0  0  0  0  0  0  0  0  0  0  0  0
   -4.4024   13.5740   33.7390 O   0  0  0  0  0  0  0  0  0  0  0  0
  1  3  1  0  0  0  0
  1  2  1  1  0  0  0
  3  5  1  0  0  0  0
  3  4  1  1  0  0  0
  5  6  1  6  0  0  0
  7  8  1  1  0  0  0
  7  5  1  0  0  0  0
  9 10  1  6  0  0  0
  9  7  1  0  0  0  0
 10  1  1  0  0  0  0
 11 13  1  1  0  0  0
 11  9  1  0  0  0  0
 12 11  1  0  0  0  0
 14 15  1  6  0  0  0
 16 14  1  0  0  0  0
 17 18  1  1  0  0  0
 17 16  1  0  0  0  0
 19  2  1  1  0  0  0
 19 20  1  0  0  0  0
 19 17  1  0  0  0  0
 20 21  1  6  0  0  0
 20 22  1  0  0  0  0
 22 23  1  6  0  0  0
 22 14  1  0  0  0  0
 24 23  1  1  0  0  0
 24 25  1  0  0  0  0
 25 27  1  0  0  0  0
 25 26  1  1  0  0  0
 27 28  1  6  0  0  0
 28 29  1  0  0  0  0
 30 31  1  6  0  0  0
 30 32  1  0  0  0  0
 30 27  1  0  0  0  0
 33 30  1  0  0  0  0
 34 33  1  0  0  0  0
 34 24  1  0  0  0  0
M  END
>  <CHROM.1>
-160.49270173,-52.51471338,-160.24291588,160.66445310,-145.96771255,-107.69026161
-5.33054875,14.41843459,36.75913118,-1.84032304,-0.62240694,-2.55431954

>  <Name>
lig.pdb

>  <RI>
0

>  <Rbt.Current_Directory>
/home/itssahil/PROJECTS/Mol_Feturizer/New_Systems/rnas/4k32

>  <Rbt.Executable>
rbdock ($Id: //depot/dev/client3/rdock/2013.1/src/exe/rbdock.cxx#4 $)

>  <Rbt.Library>
libRbt.so (2013.1, Build901 2013/11/27)

>  <Rbt.Parameter_File>
/export/apps/rDock/src/rDock_2013.1_src/data/scripts/dock_solv.prm

>  <Rbt.Receptor>
prm/pocket_docking_6.prm

>  <SCORE>
-6.63805

>  <SCORE.INTER>
-2.87543

>  <SCORE.INTER.CONST>
1

>  <SCORE.INTER.POLAR>
0

>  <SCORE.INTER.ROT>
6

>  <SCORE.INTER.SOLV>
16.533

>  <SCORE.INTER.VDW>
-15.028

>  <SCORE.INTER.norm>
-0.0845714

>  <SCORE.INTRA>
-3.76262

>  <SCORE.INTRA.DIHEDRAL>
-7.14649

>  <SCORE.INTRA.DIHEDRAL.0>
18.0069

>  <SCORE.INTRA.POLAR>
0

>  <SCORE.INTRA.POLAR.0>
0

>  <SCORE.INTRA.REPUL>
0

>  <SCORE.INTRA.REPUL.0>
0

>  <SCORE.INTRA.SOLV>
-1.3187

>  <SCORE.INTRA.SOLV.lig_0>
-70.7393

>  <SCORE.INTRA.VDW>
0.469971

>  <SCORE.INTRA.VDW.0>
-3.23471

>  <SCORE.INTRA.norm>
-0.110665

>  <SCORE.RESTR>
0

>  <SCORE.RESTR.CAVITY>
0

>  <SCORE.RESTR.norm>
0

>  <SCORE.SYSTEM>
0

>  <SCORE.SYSTEM.CONST>
0

>  <SCORE.SYSTEM.DIHEDRAL>
0

>  <SCORE.SYSTEM.SOLV>
0

>  <SCORE.SYSTEM.norm>
0

>  <SCORE.heavy>
34

>  <SCORE.norm>
-0.195237

>  <RMSD>
6.375

$$$$
lig.pdb
 OpenBabel11021811503D
libRbt.so/2013.1/901 2013/11/27
 34 36  0  0  0  0  0  0  0  0999 V2000
   -2.2564   20.2330   34.5609 C   0  0  2  0  0  0  0  0  0  0  0  0
   -1.8110   19.6687   35.7991 O   0  0  0  0  0  0  0  0  0  0  0  0
   -1.0003   20.4065   33.6053 C   0  0  2  0  0  0  0  0  0  0  0  0
   -0.3414   19.1103   33.3209 N   0  0  0  0  0  0  0  0  0  0  0  0
    0.0122   21.3815   34.2573 C   0  0  1  0  0  0  0  0  0  0  0  0
    1.1482   21.5559   33.4073 O   0  0  0  0  0  0  0  0  0  0  0  0
   -0.6987   22.7203   34.5236 C   0  0  2  0  0  0  0  0  0  0  0  0
    0.2253   23.6306   35.1218 O   0  0  0  0  0  0  0  0  0  0  0  0
   -1.9433   22.4835   35.4623 C   0  0  2  0  0  0  0  0  0  0  0  0
   -2.8873   21.5253   34.8487 O   0  0  0  0  0  0  0  0  0  0  0  0
   -2.7025   23.8035   35.7459 C   0  0  2  0  0  0  0  0  0  0  0  0
   -3.6243   23.6107   36.8205 O   0  0  0  0  0  0  0  0  0  0  0  0
   -3.4752   24.2673   34.5209 C   0  0  0  0  0  0  0  0  0  0  0  0
   -1.1862   15.5780   36.8913 C   0  0  2  0  0  0  0  0  0  0  0  0
   -0.7763   14.1728   36.8322 N   0  0  0  0  0  0  0  0  0  0  0  0
   -2.0202   15.8687   35.6131 C   0  0  0  0  0  0  0  0  0  0  0  0
   -2.4851   17.3492   35.6692 C   0  0  2  0  0  0  0  0  0  0  0  0
   -3.2860   17.6684   34.4769 N   0  0  0  0  0  0  0  0  0  0  0  0
   -1.2687   18.3110   35.7387 C   0  0  2  0  0  0  0  0  0  0  0  0
   -0.4214   17.9701   37.0050 C   0  0  2  0  0  0  0  0  0  0  0  0
    0.7082   18.8517   37.0619 O   0  0  0  0  0  0  0  0  0  0  0  0
    0.0953   16.5121   36.9451 C   0  0  1  0  0  0  0  0  0  0  0  0
    0.8576   16.2741   38.1543 O   0  0  0  0  0  0  0  0  0  0  0  0
    2.2844   16.1050   37.9835 C   0  0  2  0  0  0  0  0  0  0  0  0
    2.4885   14.6496   37.4200 C   0  0  2  0  0  0  0  0  0  0  0  0
    1.8242   14.5181   36.1731 O   0  0  0  0  0  0  0  0  0  0  0  0
    1.9326   13.6122   38.4676 C   0  0  1  0  0  0  0  0  0  0  0  0
    2.0968   12.2128   37.9684 N   0  0  0  0  0  0  0  0  0  0  0  0
    1.0067   11.9139   37.0150 C   0  0  0  0  0  0  0  0  0  0  0  0
    2.7045   13.8018   39.8088 C   0  0  2  0  0  0  0  0  0  0  0  0
    4.0905   13.5543   39.5777 O   0  0  0  0  0  0  0  0  0  0  0  0
    2.2174   12.8348   40.8850 C   0  0  0  0  0  0  0  0  0  0  0  0
    2.5176   15.2719   40.3038 C   0  0  0  0  0  0  0  0  0  0  0  0
    2.9763   16.2359   39.2816 O   0  0  0  0  0  0  0  0  0  0  0  0
  1  3  1  0  0  0  0
  1  2  1  1  0  0  0
  3  5  1  0  0  0  0
  3  4  1  1  0  0  0
  5  6  1  6  0  0  0
  7  8  1  1  0  0  0
  7  5  1  0  0  0  0
  9 10  1  6  0  0  0
  9  7  1  0  0  0  0
 10  1  1  0  0  0  0
 11 13  1  6  0  0  0
 11  9  1  0  0  0  0
 12 11  1  0  0  0  0
 14 15  1  6  0  0  0
 16 14  1  0  0  0  0
 17 18  1  6  0  0  0
 17 16  1  0  0  0  0
 19  2  1  1  0  0  0
 19 20  1  0  0  0  0
 19 17  1  0  0  0  0
 20 21  1  6  0  0  0
 20 22  1  0  0  0  0
 22 23  1  1  0  0  0
 22 14  1  0  0  0  0
 24 23  1  1  0  0  0
 24 25  1  0  0  0  0
 25 27  1  0  0  0  0
 25 26  1  6  0  0  0
 27 28  1  6  0  0  0
 28 29  1  0  0  0  0
 30 31  1  6  0  0  0
 30 32  1  0  0  0  0
 30 27  1  0  0  0  0
 33 30  1  0  0  0  0
 34 33  1  0  0  0  0
 34 24  1  0  0  0  0
M  END
>  <CHROM.1>
-65.06188108,-167.03076670,-78.85874846,132.50365008,-76.53527353,-80.19981847
-0.06947207,17.90112174,36.51927737,2.08130037,-0.62894035,-0.10082374

>  <Name>
lig.pdb

>  <RI>
0

>  <Rbt.Current_Directory>
/home/itssahil/PROJECTS/Mol_Feturizer/New_Systems/rnas/4k32

>  <Rbt.Executable>
rbdock ($Id: //depot/dev/client3/rdock/2013.1/src/exe/rbdock.cxx#4 $)

>  <Rbt.Library>
libRbt.so (2013.1, Build901 2013/11/27)

>  <Rbt.Parameter_File>
/export/apps/rDock/src/rDock_2013.1_src/data/scripts/dock_solv.prm

>  <Rbt.Receptor>
prm/blind_docking_100.prm

>  <SCORE>
10.5815

>  <SCORE.INTER>
0.298005

>  <SCORE.INTER.CONST>
1

>  <SCORE.INTER.POLAR>
0

>  <SCORE.INTER.ROT>
6

>  <SCORE.INTER.SOLV>
27.9184

>  <SCORE.INTER.VDW>
-16.7075

>  <SCORE.INTER.norm>
0.00876487

>  <SCORE.INTRA>
2.10515

>  <SCORE.INTRA.DIHEDRAL>
-7.64413

>  <SCORE.INTRA.DIHEDRAL.0>
18.0069

>  <SCORE.INTRA.POLAR>
0

>  <SCORE.INTRA.POLAR.0>
0

>  <SCORE.INTRA.REPUL>
0

>  <SCORE.INTRA.REPUL.0>
0

>  <SCORE.INTRA.SOLV>
5.9369

>  <SCORE.INTRA.SOLV.lig_0>
-70.7393

>  <SCORE.INTRA.VDW>
2.95877

>  <SCORE.INTRA.VDW.0>
-3.23471

>  <SCORE.INTRA.norm>
0.0619161

>  <SCORE.RESTR>
8.17833

>  <SCORE.RESTR.CAVITY>
8.17833

>  <SCORE.RESTR.norm>
0.240539

>  <SCORE.SYSTEM>
0

>  <SCORE.SYSTEM.CONST>
0

>  <SCORE.SYSTEM.DIHEDRAL>
0

>  <SCORE.SYSTEM.SOLV>
0

>  <SCORE.SYSTEM.norm>
0

>  <SCORE.heavy>
34

>  <SCORE.norm>
0.31122

>  <RMSD>
6.376

$$$$
lig.pdb
 OpenBabel11021811503D
libRbt.so/2013.1/901 2013/11/27
 34 36  0  0  0  0  0  0  0  0999 V2000
   -3.4372   15.8595   38.8728 C   0  0  2  0  0  0  0  0  0  0  0  0
   -4.2643   14.9758   38.1078 O   0  0  0  0  0  0  0  0  0  0  0  0
   -4.1980   17.2431   39.0402 C   0  0  2  0  0  0  0  0  0  0  0  0
   -5.4899   17.0793   39.7467 N   0  0  0  0  0  0  0  0  0  0  0  0
   -4.4357   17.8725   37.6444 C   0  0  1  0  0  0  0  0  0  0  0  0
   -5.1142   19.1238   37.7754 O   0  0  0  0  0  0  0  0  0  0  0  0
   -3.0749   18.0438   36.9460 C   0  0  2  0  0  0  0  0  0  0  0  0
   -3.2793   18.6271   35.6583 O   0  0  0  0  0  0  0  0  0  0  0  0
   -2.3610   16.6432   36.8226 C   0  0  2  0  0  0  0  0  0  0  0  0
   -2.1696   16.0337   38.1559 O   0  0  0  0  0  0  0  0  0  0  0  0
   -0.9766   16.7675   36.1391 C   0  0  2  0  0  0  0  0  0  0  0  0
   -1.1364   17.2619   34.8081 O   0  0  0  0  0  0  0  0  0  0  0  0
   -0.2721   15.4213   36.0758 C   0  0  0  0  0  0  0  0  0  0  0  0
   -2.2043   11.4185   39.2989 C   0  0  2  0  0  0  0  0  0  0  0  0
   -1.8948   10.0054   39.5300 N   0  0  0  0  0  0  0  0  0  0  0  0
   -3.6002   11.6924   39.9234 C   0  0  0  0  0  0  0  0  0  0  0  0
   -3.9360   13.1933   39.7098 C   0  0  2  0  0  0  0  0  0  0  0  0
   -5.2517   13.5004   40.2925 N   0  0  0  0  0  0  0  0  0  0  0  0
   -3.9521   13.5492   38.1989 C   0  0  2  0  0  0  0  0  0  0  0  0
   -2.5547   13.2228   37.5838 C   0  0  2  0  0  0  0  0  0  0  0  0
   -2.5744   13.5412   36.1856 O   0  0  0  0  0  0  0  0  0  0  0  0
   -2.2220   11.7191   37.7410 C   0  0  1  0  0  0  0  0  0  0  0  0
   -0.9128   11.5034   37.1584 O   0  0  0  0  0  0  0  0  0  0  0  0
   -0.4776   10.1266   37.0646 C   0  0  2  0  0  0  0  0  0  0  0  0
    1.0169   10.1724   36.5732 C   0  0  2  0  0  0  0  0  0  0  0  0
    1.8121   10.8774   37.5134 O   0  0  0  0  0  0  0  0  0  0  0  0
    1.0699   10.8642   35.1584 C   0  0  1  0  0  0  0  0  0  0  0  0
    2.4755   10.9389   34.6556 N   0  0  0  0  0  0  0  0  0  0  0  0
    3.0175   12.2833   34.9478 C   0  0  0  0  0  0  0  0  0  0  0  0
    0.1859   10.0415   34.1723 C   0  0  2  0  0  0  0  0  0  0  0  0
    0.7133    8.7191   34.0798 O   0  0  0  0  0  0  0  0  0  0  0  0
    0.1766   10.6534   32.7738 C   0  0  0  0  0  0  0  0  0  0  0  0
   -1.2742    9.9779   34.7247 C   0  0  0  0  0  0  0  0  0  0  0  0
   -1.3007    9.3933   36.0820 O   0  0  0  0  0  0  0  0  0  0  0  0
  1  3  1  0  0  0  0
  1  2  1  6  0  0  0
  3  5  1  0  0  0  0
  3  4  1  6  0  0  0
  5  6  1  1  0  0  0
  7  8  1  6  0  0  0
  7  5  1  0  0  0  0
  9 10  1  1  0  0  0
  9  7  1  0  0  0  0
 10  1  1  0  0  0  0
 11 13  1  6  0  0  0
 11  9  1  0  0  0  0
 12 11  1  0  0  0  0
 14 15  1  6  0  0  0
 16 14  1  0  0  0  0
 17 18  1  6  0  0  0
 17 16  1  0  0  0  0
 19  2  1  1  0  0  0
 19 20  1  0  0  0  0
 19 17  1  0  0  0  0
 20 21  1  6  0  0  0
 20 22  1  0  0  0  0
 22 23  1  1  0  0  0
 22 14  1  0  0  0  0
 24 23  1  6  0  0  0
 24 25  1  0  0  0  0
 25 27  1  0  0  0  0
 25 26  1  1  0  0  0
 27 28  1  6  0  0  0
 28 29  1  0  0  0  0
 30 31  1  6  0  0  0
 30 32  1  0  0  0  0
 30 27  1  0  0  0  0
 33 30  1  0  0  0  0
 34 33  1  0  0  0  0
 34 24  1  0  0  0  0
M  END
>  <CHROM.1>
-161.22228997,-62.07507159,53.35552097,70.75348163,-173.24793284,-97.72902087
-1.79830960,13.49567364,36.99359915,2.42668243,0.79747258,-0.33372020

>  <Name>
lig.pdb

>  <RI>
0

>  <Rbt.Current_Directory>
/home/itssahil/PROJECTS/Mol_Feturizer/New_Systems/rnas/4k32

>  <Rbt.Executable>
rbdock ($Id: //depot/dev/client3/rdock/2013.1/src/exe/rbdock.cxx#4 $)

>  <Rbt.Library>
libRbt.so (2013.1, Build901 2013/11/27)

>  <Rbt.Parameter_File>
/export/apps/rDock/src/rDock_2013.1_src/data/scripts/dock_solv.prm

>  <Rbt.Receptor>
prm/pocket_docking_8.prm

>  <SCORE>
-5.23395

>  <SCORE.INTER>
1.05373

>  <SCORE.INTER.CONST>
1

>  <SCORE.INTER.POLAR>
0

>  <SCORE.INTER.ROT>
6

>  <SCORE.INTER.SOLV>
9.5851

>  <SCORE.INTER.VDW>
-10.0925

>  <SCORE.INTER.norm>
0.0309921

>  <SCORE.INTRA>
-6.28768

>  <SCORE.INTRA.DIHEDRAL>
-14.4972

>  <SCORE.INTRA.DIHEDRAL.0>
18.0069

>  <SCORE.INTRA.POLAR>
0

>  <SCORE.INTRA.POLAR.0>
0

>  <SCORE.INTRA.REPUL>
0

>  <SCORE.INTRA.REPUL.0>
0

>  <SCORE.INTRA.SOLV>
0.543471

>  <SCORE.INTRA.SOLV.lig_0>
-70.7393

>  <SCORE.INTRA.VDW>
0.68917

>  <SCORE.INTRA.VDW.0>
-3.23471

>  <SCORE.INTRA.norm>
-0.184932

>  <SCORE.RESTR>
0

>  <SCORE.RESTR.CAVITY>
0

>  <SCORE.RESTR.norm>
0

>  <SCORE.SYSTEM>
0

>  <SCORE.SYSTEM.CONST>
0

>  <SCORE.SYSTEM.DIHEDRAL>
0

>  <SCORE.SYSTEM.SOLV>
0

>  <SCORE.SYSTEM.norm>
0

>  <SCORE.heavy>
34

>  <SCORE.norm>
-0.15394

>  <RMSD>
6.386

$$$$
lig.pdb
 OpenBabel11021811503D
libRbt.so/2013.1/901 2013/11/27
 34 36  0  0  0  0  0  0  0  0999 V2000
   -6.9337   16.9237   40.1247 C   0  0  2  0  0  0  0  0  0  0  0  0
   -7.9209   16.2067   39.3753 O   0  0  0  0  0  0  0  0  0  0  0  0
   -7.5762   18.2840   40.6325 C   0  0  2  0  0  0  0  0  0  0  0  0
   -8.7488   18.0468   41.5064 N   0  0  0  0  0  0  0  0  0  0  0  0
   -7.9924   19.1441   39.4127 C   0  0  1  0  0  0  0  0  0  0  0  0
   -8.5674   20.3775   39.8505 O   0  0  0  0  0  0  0  0  0  0  0  0
   -6.7503   19.3851   38.5365 C   0  0  2  0  0  0  0  0  0  0  0  0
   -7.1194   20.1808   37.4090 O   0  0  0  0  0  0  0  0  0  0  0  0
   -6.1480   18.0024   38.0765 C   0  0  2  0  0  0  0  0  0  0  0  0
   -5.7861   17.1737   39.2463 O   0  0  0  0  0  0  0  0  0  0  0  0
   -4.8830   18.1939   37.2035 C   0  0  2  0  0  0  0  0  0  0  0  0
   -4.4128   16.9241   36.7472 O   0  0  0  0  0  0  0  0  0  0  0  0
   -3.7702   18.8699   37.9891 C   0  0  0  0  0  0  0  0  0  0  0  0
   -6.0285   12.3935   39.8169 C   0  0  2  0  0  0  0  0  0  0  0  0
   -5.8168   10.9442   39.8455 N   0  0  0  0  0  0  0  0  0  0  0  0
   -7.2681   12.6955   40.7034 C   0  0  0  0  0  0  0  0  0  0  0  0
   -7.4945   14.2317   40.7054 C   0  0  2  0  0  0  0  0  0  0  0  0
   -8.6594   14.5654   41.5400 N   0  0  0  0  0  0  0  0  0  0  0  0
   -7.7314   14.7600   39.2651 C   0  0  2  0  0  0  0  0  0  0  0  0
   -6.4935   14.4048   38.3823 C   0  0  2  0  0  0  0  0  0  0  0  0
   -6.7183   14.8833   37.0493 O   0  0  0  0  0  0  0  0  0  0  0  0
   -6.2798   12.8727   38.3253 C   0  0  1  0  0  0  0  0  0  0  0  0
   -5.1129   12.6298   37.5012 O   0  0  0  0  0  0  0  0  0  0  0  0
   -4.8195   11.2438   37.2069 C   0  0  2  0  0  0  0  0  0  0  0  0
   -3.5168   11.2501   36.3236 C   0  0  2  0  0  0  0  0  0  0  0  0
   -2.4467   11.8371   37.0472 O   0  0  0  0  0  0  0  0  0  0  0  0
   -3.8030   12.0465   34.9945 C   0  0  1  0  0  0  0  0  0  0  0  0
   -2.5867   12.0870   34.1267 N   0  0  0  0  0  0  0  0  0  0  0  0
   -2.0434   13.4624   34.1281 C   0  0  0  0  0  0  0  0  0  0  0  0
   -4.9793   11.3505   34.2445 C   0  0  2  0  0  0  0  0  0  0  0  0
   -4.5932   10.0137   33.9290 O   0  0  0  0  0  0  0  0  0  0  0  0
   -5.3265   12.0694   32.9433 C   0  0  0  0  0  0  0  0  0  0  0  0
   -6.2336   11.3200   35.1756 C   0  0  0  0  0  0  0  0  0  0  0  0
   -5.9300   10.6334   36.4488 O   0  0  0  0  0  0  0  0  0  0  0  0
  1  3  1  0  0  0  0
  1  2  1  6  0  0  0
  3  5  1  0  0  0  0
  3  4  1  1  0  0  0
  5  6  1  1  0  0  0
  7  8  1  6  0  0  0
  7  5  1  0  0  0  0
  9 10  1  1  0  0  0
  9  7  1  0  0  0  0
 10  1  1  0  0  0  0
 11 13  1  1  0  0  0
 11  9  1  0  0  0  0
 12 11  1  0  0  0  0
 14 15  1  6  0  0  0
 16 14  1  0  0  0  0
 17 18  1  1  0  0  0
 17 16  1  0  0  0  0
 19  2  1  1  0  0  0
 19 20  1  0  0  0  0
 19 17  1  0  0  0  0
 20 21  1  6  0  0  0
 20 22  1  0  0  0  0
 22 23  1  6  0  0  0
 22 14  1  0  0  0  0
 24 23  1  6  0  0  0
 24 25  1  0  0  0  0
 25 27  1  0  0  0  0
 25 26  1  1  0  0  0
 27 28  1  6  0  0  0
 28 29  1  0  0  0  0
 30 31  1  6  0  0  0
 30 32  1  0  0  0  0
 30 27  1  0  0  0  0
 33 30  1  0  0  0  0
 34 33  1  0  0  0  0
 34 24  1  0  0  0  0
M  END
>  <CHROM.1>
-157.10759969,-176.79703031,50.31823430,70.01595062,-179.42714354,-108.97031612
-5.87728215,14.70380016,37.78067426,2.24328506,0.96657553,-0.03256241

>  <Name>
lig.pdb

>  <RI>
0

>  <Rbt.Current_Directory>
/home/itssahil/PROJECTS/Mol_Feturizer/New_Systems/rnas/4k32

>  <Rbt.Executable>
rbdock ($Id: //depot/dev/client3/rdock/2013.1/src/exe/rbdock.cxx#4 $)

>  <Rbt.Library>
libRbt.so (2013.1, Build901 2013/11/27)

>  <Rbt.Parameter_File>
/export/apps/rDock/src/rDock_2013.1_src/data/scripts/dock_solv.prm

>  <Rbt.Receptor>
prm/pocket_docking_5.prm

>  <SCORE>
-11.8744

>  <SCORE.INTER>
-6.44159

>  <SCORE.INTER.CONST>
1

>  <SCORE.INTER.POLAR>
0

>  <SCORE.INTER.ROT>
6

>  <SCORE.INTER.SOLV>
17.89

>  <SCORE.INTER.VDW>
-17.8577

>  <SCORE.INTER.norm>
-0.189459

>  <SCORE.INTRA>
-5.43285

>  <SCORE.INTRA.DIHEDRAL>
-13.5699

>  <SCORE.INTRA.DIHEDRAL.0>
18.0069

>  <SCORE.INTRA.POLAR>
0

>  <SCORE.INTRA.POLAR.0>
0

>  <SCORE.INTRA.REPUL>
0

>  <SCORE.INTRA.REPUL.0>
0

>  <SCORE.INTRA.SOLV>
0.74368

>  <SCORE.INTRA.SOLV.lig_0>
-70.7393

>  <SCORE.INTRA.VDW>
0.980259

>  <SCORE.INTRA.VDW.0>
-3.23471

>  <SCORE.INTRA.norm>
-0.15979

>  <SCORE.RESTR>
0

>  <SCORE.RESTR.CAVITY>
0

>  <SCORE.RESTR.norm>
0

>  <SCORE.SYSTEM>
0

>  <SCORE.SYSTEM.CONST>
0

>  <SCORE.SYSTEM.DIHEDRAL>
0

>  <SCORE.SYSTEM.SOLV>
0

>  <SCORE.SYSTEM.norm>
0

>  <SCORE.heavy>
34

>  <SCORE.norm>
-0.349248

>  <RMSD>
6.400

$$$$
lig.pdb
 OpenBabel11021811503D
libRbt.so/2013.1/901 2013/11/27
 34 36  0  0  0  0  0  0  0  0999 V2000
   -5.4009   16.9999   37.8559 C   0  0  2  0  0  0  0  0  0  0  0  0
   -5.4821   15.7731   38.5896 O   0  0  0  0  0  0  0  0  0  0  0  0
   -4.1585   17.8286   38.3955 C   0  0  2  0  0  0  0  0  0  0  0  0
   -2.8860   17.0907   38.2195 N   0  0  0  0  0  0  0  0  0  0  0  0
   -4.3730   18.1614   39.8935 C   0  0  1  0  0  0  0  0  0  0  0  0
   -3.2665   18.9143   40.3960 O   0  0  0  0  0  0  0  0  0  0  0  0
   -5.6923   18.9407   40.0383 C   0  0  2  0  0  0  0  0  0  0  0  0
   -5.9006   19.2575   41.4155 O   0  0  0  0  0  0  0  0  0  0  0  0
   -6.8843   18.0770   39.4730 C   0  0  2  0  0  0  0  0  0  0  0  0
   -6.6551   17.7340   38.0532 O   0  0  0  0  0  0  0  0  0  0  0  0
   -8.2343   18.8283   39.5822 C   0  0  2  0  0  0  0  0  0  0  0  0
   -9.2904   18.0003   39.0915 O   0  0  0  0  0  0  0  0  0  0  0  0
   -8.2130   20.1171   38.7752 C   0  0  0  0  0  0  0  0  0  0  0  0
   -6.1415   11.7084   37.4233 C   0  0  2  0  0  0  0  0  0  0  0  0
   -6.7661   10.5117   36.8541 N   0  0  0  0  0  0  0  0  0  0  0  0
   -7.1887   12.3742   38.3582 C   0  0  0  0  0  0  0  0  0  0  0  0
   -6.5361   13.6331   38.9910 C   0  0  2  0  0  0  0  0  0  0  0  0
   -7.4933   14.2948   39.8914 N   0  0  0  0  0  0  0  0  0  0  0  0
   -6.0894   14.6375   37.8949 C   0  0  2  0  0  0  0  0  0  0  0  0
   -5.0735   13.9326   36.9416 C   0  0  2  0  0  0  0  0  0  0  0  0
   -4.6703   14.8578   35.9228 O   0  0  0  0  0  0  0  0  0  0  0  0
   -5.7207   12.7024   36.2604 C   0  0  1  0  0  0  0  0  0  0  0  0
   -4.7150   12.1026   35.4068 O   0  0  0  0  0  0  0  0  0  0  0  0
   -5.1497   10.9799   34.6041 C   0  0  2  0  0  0  0  0  0  0  0  0
   -3.8461   10.3589   33.9776 C   0  0  2  0  0  0  0  0  0  0  0  0
   -2.9775    9.9193   35.0099 O   0  0  0  0  0  0  0  0  0  0  0  0
   -3.1454   11.4432   33.0743 C   0  0  1  0  0  0  0  0  0  0  0  0
   -1.8936   10.8989   32.4649 N   0  0  0  0  0  0  0  0  0  0  0  0
   -0.7296   11.5683   33.0843 C   0  0  0  0  0  0  0  0  0  0  0  0
   -4.1443   11.8785   31.9593 C   0  0  2  0  0  0  0  0  0  0  0  0
   -4.4745   10.7369   31.1698 O   0  0  0  0  0  0  0  0  0  0  0  0
   -3.5423   12.9391   31.0411 C   0  0  0  0  0  0  0  0  0  0  0  0
   -5.4420   12.4392   32.6249 C   0  0  0  0  0  0  0  0  0  0  0  0
   -6.0491   11.4369   33.5258 O   0  0  0  0  0  0  0  0  0  0  0  0
  1  3  1  0  0  0  0
  1  2  1  1  0  0  0
  3  5  1  0  0  0  0
  3  4  1  1  0  0  0
  5  6  1  6  0  0  0
  7  8  1  1  0  0  0
  7  5  1  0  0  0  0
  9 10  1  6  0  0  0
  9  7  1  0  0  0  0
 10  1  1  0  0  0  0
 11 13  1  6  0  0  0
 11  9  1  0  0  0  0
 12 11  1  0  0  0  0
 14 15  1  6  0  0  0
 16 14  1  0  0  0  0
 17 18  1  1  0  0  0
 17 16  1  0  0  0  0
 19  2  1  1  0  0  0
 19 20  1  0  0  0  0
 19 17  1  0  0  0  0
 20 21  1  6  0  0  0
 20 22  1  0  0  0  0
 22 23  1  6  0  0  0
 22 14  1  0  0  0  0
 24 23  1  1  0  0  0
 24 25  1  0  0  0  0
 25 27  1  0  0  0  0
 25 26  1  1  0  0  0
 27 28  1  6  0  0  0
 28 29  1  0  0  0  0
 30 31  1  6  0  0  0
 30 32  1  0  0  0  0
 30 27  1  0  0  0  0
 33 30  1  0  0  0  0
 34 33  1  0  0  0  0
 34 24  1  0  0  0  0
M  END
>  <CHROM.1>
-152.01028027,-178.55167208,-159.78356228,67.89995960,-170.24441727,-110.27013241
-5.23778574,14.46203100,36.64438629,-1.87377505,-0.56752215,-2.56846924

>  <Name>
lig.pdb

>  <RI>
0

>  <Rbt.Current_Directory>
/home/itssahil/PROJECTS/Mol_Feturizer/New_Systems/rnas/4k32

>  <Rbt.Executable>
rbdock ($Id: //depot/dev/client3/rdock/2013.1/src/exe/rbdock.cxx#4 $)

>  <Rbt.Library>
libRbt.so (2013.1, Build901 2013/11/27)

>  <Rbt.Parameter_File>
/export/apps/rDock/src/rDock_2013.1_src/data/scripts/dock_solv.prm

>  <Rbt.Receptor>
prm/pocket_docking_6.prm

>  <SCORE>
-10.1842

>  <SCORE.INTER>
-4.9643

>  <SCORE.INTER.CONST>
1

>  <SCORE.INTER.POLAR>
0

>  <SCORE.INTER.ROT>
6

>  <SCORE.INTER.SOLV>
15.6469

>  <SCORE.INTER.VDW>
-16.1252

>  <SCORE.INTER.norm>
-0.146009

>  <SCORE.INTRA>
-5.21986

>  <SCORE.INTRA.DIHEDRAL>
-10.9898

>  <SCORE.INTRA.DIHEDRAL.0>
18.0069

>  <SCORE.INTRA.POLAR>
0

>  <SCORE.INTRA.POLAR.0>
0

>  <SCORE.INTRA.REPUL>
0

>  <SCORE.INTRA.REPUL.0>
0

>  <SCORE.INTRA.SOLV>
-0.689324

>  <SCORE.INTRA.SOLV.lig_0>
-70.7393

>  <SCORE.INTRA.VDW>
0.61972

>  <SCORE.INTRA.VDW.0>
-3.23471

>  <SCORE.INTRA.norm>
-0.153525

>  <SCORE.RESTR>
0

>  <SCORE.RESTR.CAVITY>
0

>  <SCORE.RESTR.norm>
0

>  <SCORE.SYSTEM>
0

>  <SCORE.SYSTEM.CONST>
0

>  <SCORE.SYSTEM.DIHEDRAL>
0

>  <SCORE.SYSTEM.SOLV>
0

>  <SCORE.SYSTEM.norm>
0

>  <SCORE.heavy>
34

>  <SCORE.norm>
-0.299534

>  <RMSD>
6.411

$$$$
lig.pdb
 OpenBabel11021811503D
libRbt.so/2013.1/901 2013/11/27
 34 36  0  0  0  0  0  0  0  0999 V2000
   -6.9057   16.7406   39.9699 C   0  0  2  0  0  0  0  0  0  0  0  0
   -7.8806   16.0696   39.1640 O   0  0  0  0  0  0  0  0  0  0  0  0
   -7.5632   18.0583   40.5636 C   0  0  2  0  0  0  0  0  0  0  0  0
   -8.7417   17.7535   41.4081 N   0  0  0  0  0  0  0  0  0  0  0  0
   -7.9751   18.9969   39.4016 C   0  0  1  0  0  0  0  0  0  0  0  0
   -8.5634   20.1934   39.9173 O   0  0  0  0  0  0  0  0  0  0  0  0
   -6.7271   19.3062   38.5557 C   0  0  2  0  0  0  0  0  0  0  0  0
   -7.0923   20.1746   37.4819 O   0  0  0  0  0  0  0  0  0  0  0  0
   -6.1101   17.9625   38.0079 C   0  0  2  0  0  0  0  0  0  0  0  0
   -5.7523   17.0583   39.1216 O   0  0  0  0  0  0  0  0  0  0  0  0
   -4.8389   18.2223   37.1620 C   0  0  2  0  0  0  0  0  0  0  0  0
   -4.3589   16.9911   36.6185 O   0  0  0  0  0  0  0  0  0  0  0  0
   -3.7358   18.8440   38.0042 C   0  0  0  0  0  0  0  0  0  0  0  0
   -5.9581   12.2500   39.3404 C   0  0  2  0  0  0  0  0  0  0  0  0
   -5.7395   10.8024   39.2858 N   0  0  0  0  0  0  0  0  0  0  0  0
   -7.1678   12.4978   40.2833 C   0  0  0  0  0  0  0  0  0  0  0  0
   -7.4005   14.0304   40.3734 C   0  0  2  0  0  0  0  0  0  0  0  0
   -8.5374   14.3131   41.2636 N   0  0  0  0  0  0  0  0  0  0  0  0
   -7.6889   14.6318   38.9717 C   0  0  2  0  0  0  0  0  0  0  0  0
   -6.4807   14.3306   38.0299 C   0  0  2  0  0  0  0  0  0  0  0  0
   -6.7532   14.8767   36.7321 O   0  0  0  0  0  0  0  0  0  0  0  0
   -6.2626   12.8049   37.8854 C   0  0  1  0  0  0  0  0  0  0  0  0
   -5.1237   12.6124   37.0104 O   0  0  0  0  0  0  0  0  0  0  0  0
   -4.7933   11.2408   36.6891 C   0  0  2  0  0  0  0  0  0  0  0  0
   -3.5082   11.3009   35.7823 C   0  0  2  0  0  0  0  0  0  0  0  0
   -2.4433   11.9100   36.4954 O   0  0  0  0  0  0  0  0  0  0  0  0
   -3.8437   12.1080   34.4713 C   0  0  1  0  0  0  0  0  0  0  0  0
   -2.6456   12.1995   33.5822 N   0  0  0  0  0  0  0  0  0  0  0  0
   -2.1270   13.5838   33.6189 C   0  0  0  0  0  0  0  0  0  0  0  0
   -5.0117   11.3871   33.7321 C   0  0  2  0  0  0  0  0  0  0  0  0
   -4.5907   10.0679   33.3887 O   0  0  0  0  0  0  0  0  0  0  0  0
   -5.4053   12.1144   32.4489 C   0  0  0  0  0  0  0  0  0  0  0  0
   -6.2469   11.3035   34.6853 C   0  0  0  0  0  0  0  0  0  0  0  0
   -5.8985   10.6076   35.9418 O   0  0  0  0  0  0  0  0  0  0  0  0
  1  3  1  0  0  0  0
  1  2  1  6  0  0  0
  3  5  1  0  0  0  0
  3  4  1  6  0  0  0
  5  6  1  1  0  0  0
  7  8  1  6  0  0  0
  7  5  1  0  0  0  0
  9 10  1  1  0  0  0
  9  7  1  0  0  0  0
 10  1  1  0  0  0  0
 11 13  1  1  0  0  0
 11  9  1  0  0  0  0
 12 11  1  0  0  0  0
 14 15  1  6  0  0  0
 16 14  1  0  0  0  0
 17 18  1  1  0  0  0
 17 16  1  0  0  0  0
 19  2  1  1  0  0  0
 19 20  1  0  0  0  0
 19 17  1  0  0  0  0
 20 21  1  6  0  0  0
 20 22  1  0  0  0  0
 22 23  1  6  0  0  0
 22 14  1  0  0  0  0
 24 23  1  6  0  0  0
 24 25  1  0  0  0  0
 25 27  1  0  0  0  0
 25 26  1  1  0  0  0
 27 28  1  6  0  0  0
 28 29  1  0  0  0  0
 30 31  1  6  0  0  0
 30 32  1  0  0  0  0
 30 27  1  0  0  0  0
 33 30  1  0  0  0  0
 34 33  1  0  0  0  0
 34 24  1  0  0  0  0
M  END
>  <CHROM.1>
-156.30959729,-176.49132367,47.39970827,66.96921580,-177.99743092,-107.71776832
-5.85965571,14.64530106,37.47514127,2.22566572,0.97508172,0.04131655

>  <Name>
lig.pdb

>  <RI>
0

>  <Rbt.Current_Directory>
/home/itssahil/PROJECTS/Mol_Feturizer/New_Systems/rnas/4k32

>  <Rbt.Executable>
rbdock ($Id: //depot/dev/client3/rdock/2013.1/src/exe/rbdock.cxx#4 $)

>  <Rbt.Library>
libRbt.so (2013.1, Build901 2013/11/27)

>  <Rbt.Parameter_File>
/export/apps/rDock/src/rDock_2013.1_src/data/scripts/dock_solv.prm

>  <Rbt.Receptor>
prm/pocket_docking_5.prm

>  <SCORE>
-11.8615

>  <SCORE.INTER>
-6.90663

>  <SCORE.INTER.CONST>
1

>  <SCORE.INTER.POLAR>
0

>  <SCORE.INTER.ROT>
6

>  <SCORE.INTER.SOLV>
18.5472

>  <SCORE.INTER.VDW>
-18.3868

>  <SCORE.INTER.norm>
-0.203136

>  <SCORE.INTRA>
-4.95489

>  <SCORE.INTRA.DIHEDRAL>
-13.3661

>  <SCORE.INTRA.DIHEDRAL.0>
18.0069

>  <SCORE.INTRA.POLAR>
0

>  <SCORE.INTRA.POLAR.0>
0

>  <SCORE.INTRA.REPUL>
0

>  <SCORE.INTRA.REPUL.0>
0

>  <SCORE.INTRA.SOLV>
0.878364

>  <SCORE.INTRA.SOLV.lig_0>
-70.7393

>  <SCORE.INTRA.VDW>
1.28898

>  <SCORE.INTRA.VDW.0>
-3.23471

>  <SCORE.INTRA.norm>
-0.145732

>  <SCORE.RESTR>
0

>  <SCORE.RESTR.CAVITY>
0

>  <SCORE.RESTR.norm>
0

>  <SCORE.SYSTEM>
0

>  <SCORE.SYSTEM.CONST>
0

>  <SCORE.SYSTEM.DIHEDRAL>
0

>  <SCORE.SYSTEM.SOLV>
0

>  <SCORE.SYSTEM.norm>
0

>  <SCORE.heavy>
34

>  <SCORE.norm>
-0.348868

>  <RMSD>
6.448

$$$$
lig.pdb
 OpenBabel11021811503D
libRbt.so/2013.1/901 2013/11/27
 34 36  0  0  0  0  0  0  0  0999 V2000
   -5.4774   16.9713   38.0149 C   0  0  2  0  0  0  0  0  0  0  0  0
   -5.5279   15.7849   38.8150 O   0  0  0  0  0  0  0  0  0  0  0  0
   -4.2415   17.8476   38.4903 C   0  0  2  0  0  0  0  0  0  0  0  0
   -2.9595   17.1215   38.3354 N   0  0  0  0  0  0  0  0  0  0  0  0
   -4.4403   18.2578   39.9712 C   0  0  1  0  0  0  0  0  0  0  0  0
   -3.3395   19.0542   40.4157 O   0  0  0  0  0  0  0  0  0  0  0  0
   -5.7702   19.0227   40.0935 C   0  0  2  0  0  0  0  0  0  0  0  0
   -5.9643   19.4105   41.4545 O   0  0  0  0  0  0  0  0  0  0  0  0
   -6.9555   18.1109   39.5935 C   0  0  2  0  0  0  0  0  0  0  0  0
   -6.7407   17.6951   38.1911 O   0  0  0  0  0  0  0  0  0  0  0  0
   -8.3162   18.8456   39.6822 C   0  0  2  0  0  0  0  0  0  0  0  0
   -8.4891   19.3880   40.9928 O   0  0  0  0  0  0  0  0  0  0  0  0
   -9.4713   17.9001   39.3918 C   0  0  0  0  0  0  0  0  0  0  0  0
   -6.1344   11.6591   37.8525 C   0  0  2  0  0  0  0  0  0  0  0  0
   -6.7521   10.4249   37.3614 N   0  0  0  0  0  0  0  0  0  0  0  0
   -7.1593   12.3417   38.8000 C   0  0  0  0  0  0  0  0  0  0  0  0
   -6.5127   13.6415   39.3508 C   0  0  2  0  0  0  0  0  0  0  0  0
   -7.4490   14.3204   40.2603 N   0  0  0  0  0  0  0  0  0  0  0  0
   -6.1347   14.6066   38.1952 C   0  0  2  0  0  0  0  0  0  0  0  0
   -5.1408   13.8835   37.2323 C   0  0  2  0  0  0  0  0  0  0  0  0
   -4.8012   14.7719   36.1590 O   0  0  0  0  0  0  0  0  0  0  0  0
   -5.7847   12.6103   36.6316 C   0  0  1  0  0  0  0  0  0  0  0  0
   -4.7996   11.9963   35.7642 O   0  0  0  0  0  0  0  0  0  0  0  0
   -5.1738   10.7295   35.1737 C   0  0  2  0  0  0  0  0  0  0  0  0
   -3.9097   10.2245   34.3833 C   0  0  2  0  0  0  0  0  0  0  0  0
   -2.8212   10.0493   35.2764 O   0  0  0  0  0  0  0  0  0  0  0  0
   -3.5555   11.2720   33.2608 C   0  0  1  0  0  0  0  0  0  0  0  0
   -2.3515   10.8372   32.4890 N   0  0  0  0  0  0  0  0  0  0  0  0
   -1.1784   11.6045   32.9599 C   0  0  0  0  0  0  0  0  0  0  0  0
   -4.7840   11.4140   32.3115 C   0  0  2  0  0  0  0  0  0  0  0  0
   -5.0512   10.1451   31.7165 O   0  0  0  0  0  0  0  0  0  0  0  0
   -4.5243   12.4223   31.1951 C   0  0  0  0  0  0  0  0  0  0  0  0
   -6.0258   11.8655   33.1451 C   0  0  0  0  0  0  0  0  0  0  0  0
   -6.3028   10.9115   34.2395 O   0  0  0  0  0  0  0  0  0  0  0  0
  1  3  1  0  0  0  0
  1  2  1  1  0  0  0
  3  5  1  0  0  0  0
  3  4  1  1  0  0  0
  5  6  1  6  0  0  0
  7  8  1  1  0  0  0
  7  5  1  0  0  0  0
  9 10  1  6  0  0  0
  9  7  1  0  0  0  0
 10  1  1  0  0  0  0
 11 13  1  1  0  0  0
 11  9  1  0  0  0  0
 12 11  1  0  0  0  0
 14 15  1  6  0  0  0
 16 14  1  0  0  0  0
 17 18  1  1  0  0  0
 17 16  1  0  0  0  0
 19  2  1  1  0  0  0
 19 20  1  0  0  0  0
 19 17  1  0  0  0  0
 20 21  1  6  0  0  0
 20 22  1  0  0  0  0
 22 23  1  6  0  0  0
 22 14  1  0  0  0  0
 24 23  1  6  0  0  0
 24 25  1  0  0  0  0
 25 27  1  0  0  0  0
 25 26  1  1  0  0  0
 27 28  1  6  0  0  0
 28 29  1  0  0  0  0
 30 31  1  6  0  0  0
 30 32  1  0  0  0  0
 30 27  1  0  0  0  0
 33 30  1  0  0  0  0
 34 33  1  0  0  0  0
 34 24  1  0  0  0  0
M  END
>  <CHROM.1>
-152.43576814,-51.54766834,-161.20579153,59.61745430,-175.56212869,-101.83477279
-5.40855535,14.34724108,36.97243441,-1.83421226,-0.56445610,-2.55693640

>  <Name>
lig.pdb

>  <RI>
0

>  <Rbt.Current_Directory>
/home/itssahil/PROJECTS/Mol_Feturizer/New_Systems/rnas/4k32

>  <Rbt.Executable>
rbdock ($Id: //depot/dev/client3/rdock/2013.1/src/exe/rbdock.cxx#4 $)

>  <Rbt.Library>
libRbt.so (2013.1, Build901 2013/11/27)

>  <Rbt.Parameter_File>
/export/apps/rDock/src/rDock_2013.1_src/data/scripts/dock_solv.prm

>  <Rbt.Receptor>
prm/pocket_docking_6.prm

>  <SCORE>
-8.49926

>  <SCORE.INTER>
-3.41291

>  <SCORE.INTER.CONST>
1

>  <SCORE.INTER.POLAR>
0

>  <SCORE.INTER.ROT>
6

>  <SCORE.INTER.SOLV>
14.2555

>  <SCORE.INTER.VDW>
-14.6271

>  <SCORE.INTER.norm>
-0.10038

>  <SCORE.INTRA>
-5.08635

>  <SCORE.INTRA.DIHEDRAL>
-11.8733

>  <SCORE.INTRA.DIHEDRAL.0>
18.0069

>  <SCORE.INTRA.POLAR>
0

>  <SCORE.INTRA.POLAR.0>
0

>  <SCORE.INTRA.REPUL>
0

>  <SCORE.INTRA.REPUL.0>
0

>  <SCORE.INTRA.SOLV>
0.136209

>  <SCORE.INTRA.SOLV.lig_0>
-70.7393

>  <SCORE.INTRA.VDW>
0.782207

>  <SCORE.INTRA.VDW.0>
-3.23471

>  <SCORE.INTRA.norm>
-0.149598

>  <SCORE.RESTR>
0

>  <SCORE.RESTR.CAVITY>
0

>  <SCORE.RESTR.norm>
0

>  <SCORE.SYSTEM>
0

>  <SCORE.SYSTEM.CONST>
0

>  <SCORE.SYSTEM.DIHEDRAL>
0

>  <SCORE.SYSTEM.SOLV>
0

>  <SCORE.SYSTEM.norm>
0

>  <SCORE.heavy>
34

>  <SCORE.norm>
-0.249978

>  <RMSD>
6.456

$$$$
lig.pdb
 OpenBabel11021811503D
libRbt.so/2013.1/901 2013/11/27
 34 36  0  0  0  0  0  0  0  0999 V2000
   -1.7667   20.7883   33.1239 C   0  0  2  0  0  0  0  0  0  0  0  0
   -0.3694   20.6544   33.4063 O   0  0  0  0  0  0  0  0  0  0  0  0
   -2.1517   22.3267   33.2030 C   0  0  2  0  0  0  0  0  0  0  0  0
   -1.3940   23.1353   32.2197 N   0  0  0  0  0  0  0  0  0  0  0  0
   -1.8841   22.8516   34.6361 C   0  0  1  0  0  0  0  0  0  0  0  0
   -2.2317   24.2351   34.7288 O   0  0  0  0  0  0  0  0  0  0  0  0
   -2.6975   22.0022   35.6289 C   0  0  2  0  0  0  0  0  0  0  0  0
   -2.4627   22.4783   36.9550 O   0  0  0  0  0  0  0  0  0  0  0  0
   -2.2847   20.4864   35.4938 C   0  0  2  0  0  0  0  0  0  0  0  0
   -2.5101   20.0032   34.1148 O   0  0  0  0  0  0  0  0  0  0  0  0
   -3.0907   19.5876   36.4642 C   0  0  2  0  0  0  0  0  0  0  0  0
   -3.0992   20.1696   37.7691 O   0  0  0  0  0  0  0  0  0  0  0  0
   -2.4838   18.1963   36.5570 C   0  0  0  0  0  0  0  0  0  0  0  0
    1.9029   17.7923   35.6338 C   0  0  2  0  0  0  0  0  0  0  0  0
    2.3880   16.9626   36.7395 N   0  0  0  0  0  0  0  0  0  0  0  0
    1.9087   19.2657   36.1266 C   0  0  0  0  0  0  0  0  0  0  0  0
    1.4199   20.1648   34.9587 C   0  0  2  0  0  0  0  0  0  0  0  0
    1.4146   21.5745   35.3800 N   0  0  0  0  0  0  0  0  0  0  0  0
   -0.0101   19.7620   34.5087 C   0  0  2  0  0  0  0  0  0  0  0  0
   -0.0009   18.2660   34.0619 C   0  0  2  0  0  0  0  0  0  0  0  0
   -1.3249   17.8917   33.6573 O   0  0  0  0  0  0  0  0  0  0  0  0
    0.4352   17.3461   35.2281 C   0  0  1  0  0  0  0  0  0  0  0  0
    0.4282   15.9852   34.7304 O   0  0  0  0  0  0  0  0  0  0  0  0
   -0.5462   15.0958   35.3248 C   0  0  2  0  0  0  0  0  0  0  0  0
   -0.0023   14.7470   36.7601 C   0  0  2  0  0  0  0  0  0  0  0  0
    0.1178   15.9321   37.5311 O   0  0  0  0  0  0  0  0  0  0  0  0
    1.3899   14.0228   36.6182 C   0  0  1  0  0  0  0  0  0  0  0  0
    1.9505   13.6809   37.9610 N   0  0  0  0  0  0  0  0  0  0  0  0
    2.8266   14.7847   38.4089 C   0  0  0  0  0  0  0  0  0  0  0  0
    1.1905   12.7297   35.7704 C   0  0  2  0  0  0  0  0  0  0  0  0
    0.2720   11.8747   36.4494 O   0  0  0  0  0  0  0  0  0  0  0  0
    2.5006   11.9701   35.5781 C   0  0  0  0  0  0  0  0  0  0  0  0
    0.6015   13.1172   34.3761 C   0  0  0  0  0  0  0  0  0  0  0  0
   -0.6678   13.8594   34.5265 O   0  0  0  0  0  0  0  0  0  0  0  0
  1  3  1  0  0  0  0
  1  2  1  1  0  0  0
  3  5  1  0  0  0  0
  3  4  1  6  0  0  0
  5  6  1  6  0  0  0
  7  8  1  1  0  0  0
  7  5  1  0  0  0  0
  9 10  1  6  0  0  0
  9  7  1  0  0  0  0
 10  1  1  0  0  0  0
 11 13  1  1  0  0  0
 11  9  1  0  0  0  0
 12 11  1  0  0  0  0
 14 15  1  1  0  0  0
 16 14  1  0  0  0  0
 17 18  1  1  0  0  0
 17 16  1  0  0  0  0
 19  2  1  6  0  0  0
 19 20  1  0  0  0  0
 19 17  1  0  0  0  0
 20 21  1  1  0  0  0
 20 22  1  0  0  0  0
 22 23  1  6  0  0  0
 22 14  1  0  0  0  0
 24 23  1  6  0  0  0
 24 25  1  0  0  0  0
 25 27  1  0  0  0  0
 25 26  1  1  0  0  0
 27 28  1  1  0  0  0
 28 29  1  0  0  0  0
 30 31  1  1  0  0  0
 30 32  1  0  0  0  0
 30 27  1  0  0  0  0
 33 30  1  0  0  0  0
 34 33  1  0  0  0  0
 34 24  1  0  0  0  0
M  END
>  <CHROM.1>
123.74087842,-47.05249979,-159.65438631,129.51396362,-74.61187712,-92.46552056
-0.32504842,18.03843447,35.44508063,-3.08061697,-1.22987730,1.44771060

>  <Name>
lig.pdb

>  <RI>
0

>  <Rbt.Current_Directory>
/home/itssahil/PROJECTS/Mol_Feturizer/New_Systems/rnas/4k32

>  <Rbt.Executable>
rbdock ($Id: //depot/dev/client3/rdock/2013.1/src/exe/rbdock.cxx#4 $)

>  <Rbt.Library>
libRbt.so (2013.1, Build901 2013/11/27)

>  <Rbt.Parameter_File>
/export/apps/rDock/src/rDock_2013.1_src/data/scripts/dock_solv.prm

>  <Rbt.Receptor>
prm/blind_docking_100.prm

>  <SCORE>
11.1778

>  <SCORE.INTER>
-4.89459

>  <SCORE.INTER.CONST>
1

>  <SCORE.INTER.POLAR>
0

>  <SCORE.INTER.ROT>
6

>  <SCORE.INTER.SOLV>
30.2404

>  <SCORE.INTER.VDW>
-20.9432

>  <SCORE.INTER.norm>
-0.143959

>  <SCORE.INTRA>
8.29651

>  <SCORE.INTRA.DIHEDRAL>
0.0060204

>  <SCORE.INTRA.DIHEDRAL.0>
18.0069

>  <SCORE.INTRA.POLAR>
0

>  <SCORE.INTRA.POLAR.0>
0

>  <SCORE.INTRA.REPUL>
0

>  <SCORE.INTRA.REPUL.0>
0

>  <SCORE.INTRA.SOLV>
4.27693

>  <SCORE.INTRA.SOLV.lig_0>
-70.7393

>  <SCORE.INTRA.VDW>
6.15504

>  <SCORE.INTRA.VDW.0>
-3.23471

>  <SCORE.INTRA.norm>
0.244015

>  <SCORE.RESTR>
7.77588

>  <SCORE.RESTR.CAVITY>
7.77588

>  <SCORE.RESTR.norm>
0.228702

>  <SCORE.SYSTEM>
0

>  <SCORE.SYSTEM.CONST>
0

>  <SCORE.SYSTEM.DIHEDRAL>
0

>  <SCORE.SYSTEM.SOLV>
0

>  <SCORE.SYSTEM.norm>
0

>  <SCORE.heavy>
34

>  <SCORE.norm>
0.328759

>  <RMSD>
6.470

$$$$
lig.pdb
 OpenBabel11021811503D
libRbt.so/2013.1/901 2013/11/27
 34 36  0  0  0  0  0  0  0  0999 V2000
   -1.1518   21.1431   35.9975 C   0  0  2  0  0  0  0  0  0  0  0  0
   -2.0029   20.0140   36.2226 O   0  0  0  0  0  0  0  0  0  0  0  0
   -1.9951   22.2720   35.2655 C   0  0  2  0  0  0  0  0  0  0  0  0
   -3.1521   22.7107   36.0802 N   0  0  0  0  0  0  0  0  0  0  0  0
   -2.4856   21.7412   33.8948 C   0  0  1  0  0  0  0  0  0  0  0  0
   -3.2419   22.7473   33.2170 O   0  0  0  0  0  0  0  0  0  0  0  0
   -1.2602   21.3106   33.0692 C   0  0  2  0  0  0  0  0  0  0  0  0
   -1.6982   20.8222   31.8003 O   0  0  0  0  0  0  0  0  0  0  0  0
   -0.4552   20.2029   33.8512 C   0  0  2  0  0  0  0  0  0  0  0  0
   -0.0212   20.7055   35.1721 O   0  0  0  0  0  0  0  0  0  0  0  0
    0.7996   19.7486   33.0650 C   0  0  2  0  0  0  0  0  0  0  0  0
    1.5057   18.7559   33.8118 O   0  0  0  0  0  0  0  0  0  0  0  0
    1.7370   20.9170   32.8030 C   0  0  0  0  0  0  0  0  0  0  0  0
   -1.3989   15.7770   36.2307 C   0  0  2  0  0  0  0  0  0  0  0  0
   -1.0116   14.4295   35.8059 N   0  0  0  0  0  0  0  0  0  0  0  0
   -2.2733   16.3833   35.0985 C   0  0  0  0  0  0  0  0  0  0  0  0
   -2.7146   17.8047   35.5413 C   0  0  2  0  0  0  0  0  0  0  0  0
   -3.5524   18.4169   34.4982 N   0  0  0  0  0  0  0  0  0  0  0  0
   -1.4828   18.7122   35.8034 C   0  0  2  0  0  0  0  0  0  0  0  0
   -0.5962   18.0601   36.9109 C   0  0  2  0  0  0  0  0  0  0  0  0
    0.5473   18.8936   37.1441 O   0  0  0  0  0  0  0  0  0  0  0  0
   -0.1029   16.6612   36.4681 C   0  0  1  0  0  0  0  0  0  0  0  0
    0.6981   16.1236   37.5494 O   0  0  0  0  0  0  0  0  0  0  0  0
    1.9749   15.5560   37.1735 C   0  0  2  0  0  0  0  0  0  0  0  0
    1.9165   14.0374   37.5831 C   0  0  2  0  0  0  0  0  0  0  0  0
    0.8648   13.3899   36.8845 O   0  0  0  0  0  0  0  0  0  0  0  0
    1.7058   13.9350   39.1412 C   0  0  1  0  0  0  0  0  0  0  0  0
    1.6340   12.5064   39.5751 N   0  0  0  0  0  0  0  0  0  0  0  0
    0.2939   12.2456   40.1435 C   0  0  0  0  0  0  0  0  0  0  0  0
    2.8930   14.6559   39.8493 C   0  0  2  0  0  0  0  0  0  0  0  0
    4.1077   14.0019   39.4854 O   0  0  0  0  0  0  0  0  0  0  0  0
    2.7595   14.6091   41.3693 C   0  0  0  0  0  0  0  0  0  0  0  0
    2.9450   16.1436   39.3747 C   0  0  0  0  0  0  0  0  0  0  0  0
    3.0699   16.2251   37.9042 O   0  0  0  0  0  0  0  0  0  0  0  0
  1  3  1  0  0  0  0
  1  2  1  6  0  0  0
  3  5  1  0  0  0  0
  3  4  1  1  0  0  0
  5  6  1  6  0  0  0
  7  8  1  6  0  0  0
  7  5  1  0  0  0  0
  9 10  1  1  0  0  0
  9  7  1  0  0  0  0
 10  1  1  0  0  0  0
 11 13  1  1  0  0  0
 11  9  1  0  0  0  0
 12 11  1  0  0  0  0
 14 15  1  6  0  0  0
 16 14  1  0  0  0  0
 17 18  1  6  0  0  0
 17 16  1  0  0  0  0
 19  2  1  1  0  0  0
 19 20  1  0  0  0  0
 19 17  1  0  0  0  0
 20 21  1  6  0  0  0
 20 22  1  0  0  0  0
 22 23  1  1  0  0  0
 22 14  1  0  0  0  0
 24 23  1  1  0  0  0
 24 25  1  0  0  0  0
 25 27  1  0  0  0  0
 25 26  1  6  0  0  0
 27 28  1  1  0  0  0
 28 29  1  0  0  0  0
 30 31  1  6  0  0  0
 30 32  1  0  0  0  0
 30 27  1  0  0  0  0
 33 30  1  0  0  0  0
 34 33  1  0  0  0  0
 34 24  1  0  0  0  0
M  END
>  <CHROM.1>
130.18863583,179.47049420,-155.18748600,111.42469671,-118.32659137,-116.72205862
-0.00428246,17.69760712,36.28597402,-1.98818577,0.26351634,2.63500926

>  <Name>
lig.pdb

>  <RI>
0

>  <Rbt.Current_Directory>
/home/itssahil/PROJECTS/Mol_Feturizer/New_Systems/rnas/4k32

>  <Rbt.Executable>
rbdock ($Id: //depot/dev/client3/rdock/2013.1/src/exe/rbdock.cxx#4 $)

>  <Rbt.Library>
libRbt.so (2013.1, Build901 2013/11/27)

>  <Rbt.Parameter_File>
/export/apps/rDock/src/rDock_2013.1_src/data/scripts/dock_solv.prm

>  <Rbt.Receptor>
prm/blind_docking_100.prm

>  <SCORE>
67.1244

>  <SCORE.INTER>
51.7836

>  <SCORE.INTER.CONST>
1

>  <SCORE.INTER.POLAR>
0

>  <SCORE.INTER.ROT>
6

>  <SCORE.INTER.SOLV>
33.2474

>  <SCORE.INTER.VDW>
15.8399

>  <SCORE.INTER.norm>
1.52305

>  <SCORE.INTRA>
7.92038

>  <SCORE.INTRA.DIHEDRAL>
6.50772

>  <SCORE.INTRA.DIHEDRAL.0>
18.0069

>  <SCORE.INTRA.POLAR>
0

>  <SCORE.INTRA.POLAR.0>
0

>  <SCORE.INTRA.REPUL>
0

>  <SCORE.INTRA.REPUL.0>
0

>  <SCORE.INTRA.SOLV>
1.93575

>  <SCORE.INTRA.SOLV.lig_0>
-70.7393

>  <SCORE.INTRA.VDW>
3.69864

>  <SCORE.INTRA.VDW.0>
-3.23471

>  <SCORE.INTRA.norm>
0.232952

>  <SCORE.RESTR>
7.42039

>  <SCORE.RESTR.CAVITY>
7.42039

>  <SCORE.RESTR.norm>
0.218247

>  <SCORE.SYSTEM>
0

>  <SCORE.SYSTEM.CONST>
0

>  <SCORE.SYSTEM.DIHEDRAL>
0

>  <SCORE.SYSTEM.SOLV>
0

>  <SCORE.SYSTEM.norm>
0

>  <SCORE.heavy>
34

>  <SCORE.norm>
1.97425

>  <RMSD>
6.477

$$$$
lig.pdb
 OpenBabel11021811503D
libRbt.so/2013.1/901 2013/11/27
 34 36  0  0  0  0  0  0  0  0999 V2000
   -4.9755   17.0351   37.4845 C   0  0  2  0  0  0  0  0  0  0  0  0
   -5.2377   15.7904   38.1419 O   0  0  0  0  0  0  0  0  0  0  0  0
   -3.8085   17.7797   38.2621 C   0  0  2  0  0  0  0  0  0  0  0  0
   -2.5595   16.9830   38.2753 N   0  0  0  0  0  0  0  0  0  0  0  0
   -4.2626   18.0733   39.7142 C   0  0  1  0  0  0  0  0  0  0  0  0
   -3.2263   18.7506   40.4289 O   0  0  0  0  0  0  0  0  0  0  0  0
   -5.5504   18.9147   39.6641 C   0  0  2  0  0  0  0  0  0  0  0  0
   -5.9784   19.1960   40.9976 O   0  0  0  0  0  0  0  0  0  0  0  0
   -6.6650   18.1333   38.8683 C   0  0  2  0  0  0  0  0  0  0  0  0
   -6.2103   17.8263   37.4954 O   0  0  0  0  0  0  0  0  0  0  0  0
   -7.9782   18.9497   38.7768 C   0  0  2  0  0  0  0  0  0  0  0  0
   -7.6813   20.3098   38.4551 O   0  0  0  0  0  0  0  0  0  0  0  0
   -8.7385   18.9170   40.0934 C   0  0  0  0  0  0  0  0  0  0  0  0
   -6.0493   11.8780   36.6085 C   0  0  2  0  0  0  0  0  0  0  0  0
   -6.7116   10.7665   35.9215 N   0  0  0  0  0  0  0  0  0  0  0  0
   -7.0914   12.5106   37.5716 C   0  0  0  0  0  0  0  0  0  0  0  0
   -6.4002   13.6773   38.3282 C   0  0  2  0  0  0  0  0  0  0  0  0
   -7.3517   14.3044   39.2589 N   0  0  0  0  0  0  0  0  0  0  0  0
   -5.8762   14.7496   37.3356 C   0  0  2  0  0  0  0  0  0  0  0  0
   -4.8666   14.0811   36.3500 C   0  0  2  0  0  0  0  0  0  0  0  0
   -4.3918   15.0702   35.4263 O   0  0  0  0  0  0  0  0  0  0  0  0
   -5.5497   12.9470   35.5478 C   0  0  1  0  0  0  0  0  0  0  0  0
   -4.5483   12.3750   34.6704 O   0  0  0  0  0  0  0  0  0  0  0  0
   -5.0024   11.3212   33.7889 C   0  0  2  0  0  0  0  0  0  0  0  0
   -3.7077   10.7061   33.1387 C   0  0  2  0  0  0  0  0  0  0  0  0
   -2.8667   10.1740   34.1501 O   0  0  0  0  0  0  0  0  0  0  0  0
   -2.9640   11.8275   32.3188 C   0  0  1  0  0  0  0  0  0  0  0  0
   -1.7193   11.2892   31.6902 N   0  0  0  0  0  0  0  0  0  0  0  0
   -0.5463   11.8978   32.3538 C   0  0  0  0  0  0  0  0  0  0  0  0
   -3.9342   12.3646   31.2231 C   0  0  2  0  0  0  0  0  0  0  0  0
   -4.2846   11.2881   30.3548 O   0  0  0  0  0  0  0  0  0  0  0  0
   -3.2896   13.4663   30.3856 C   0  0  0  0  0  0  0  0  0  0  0  0
   -5.2252   12.9168   31.9084 C   0  0  0  0  0  0  0  0  0  0  0  0
   -5.8731   11.8747   32.7324 O   0  0  0  0  0  0  0  0  0  0  0  0
  1  3  1  0  0  0  0
  1  2  1  1  0  0  0
  3  5  1  0  0  0  0
  3  4  1  1  0  0  0
  5  6  1  1  0  0  0
  7  8  1  1  0  0  0
  7  5  1  0  0  0  0
  9 10  1  6  0  0  0
  9  7  1  0  0  0  0
 10  1  1  0  0  0  0
 11 13  1  1  0  0  0
 11  9  1  0  0  0  0
 12 11  1  0  0  0  0
 14 15  1  6  0  0  0
 16 14  1  0  0  0  0
 17 18  1  1  0  0  0
 17 16  1  0  0  0  0
 19  2  1  1  0  0  0
 19 20  1  0  0  0  0
 19 17  1  0  0  0  0
 20 21  1  6  0  0  0
 20 22  1  0  0  0  0
 22 23  1  6  0  0  0
 22 14  1  0  0  0  0
 24 23  1  1  0  0  0
 24 25  1  0  0  0  0
 25 27  1  0  0  0  0
 25 26  1  1  0  0  0
 27 28  1  6  0  0  0
 28 29  1  0  0  0  0
 30 31  1  6  0  0  0
 30 32  1  0  0  0  0
 30 27  1  0  0  0  0
 33 30  1  0  0  0  0
 34 33  1  0  0  0  0
 34 24  1  0  0  0  0
M  END
>  <CHROM.1>
-157.21772822,43.97133289,-164.92447243,66.18668492,-170.34976317,-111.12648069
-5.02560310,14.67649036,36.10329936,-1.86688215,-0.59575686,-2.50975965

>  <Name>
lig.pdb

>  <RI>
0

>  <Rbt.Current_Directory>
/home/itssahil/PROJECTS/Mol_Feturizer/New_Systems/rnas/4k32

>  <Rbt.Executable>
rbdock ($Id: //depot/dev/client3/rdock/2013.1/src/exe/rbdock.cxx#4 $)

>  <Rbt.Library>
libRbt.so (2013.1, Build901 2013/11/27)

>  <Rbt.Parameter_File>
/export/apps/rDock/src/rDock_2013.1_src/data/scripts/dock_solv.prm

>  <Rbt.Receptor>
prm/pocket_docking_8.prm

>  <SCORE>
-12.214

>  <SCORE.INTER>
-6.56032

>  <SCORE.INTER.CONST>
1

>  <SCORE.INTER.POLAR>
0

>  <SCORE.INTER.ROT>
6

>  <SCORE.INTER.SOLV>
16.6134

>  <SCORE.INTER.VDW>
-17.5113

>  <SCORE.INTER.norm>
-0.192951

>  <SCORE.INTRA>
-5.65368

>  <SCORE.INTRA.DIHEDRAL>
-11.9586

>  <SCORE.INTRA.DIHEDRAL.0>
18.0069

>  <SCORE.INTRA.POLAR>
0

>  <SCORE.INTRA.POLAR.0>
0

>  <SCORE.INTRA.REPUL>
0

>  <SCORE.INTRA.REPUL.0>
0

>  <SCORE.INTRA.SOLV>
-0.705279

>  <SCORE.INTRA.SOLV.lig_0>
-70.7393

>  <SCORE.INTRA.VDW>
0.678273

>  <SCORE.INTRA.VDW.0>
-3.23471

>  <SCORE.INTRA.norm>
-0.166285

>  <SCORE.RESTR>
0

>  <SCORE.RESTR.CAVITY>
0

>  <SCORE.RESTR.norm>
0

>  <SCORE.SYSTEM>
0

>  <SCORE.SYSTEM.CONST>
0

>  <SCORE.SYSTEM.DIHEDRAL>
0

>  <SCORE.SYSTEM.SOLV>
0

>  <SCORE.SYSTEM.norm>
0

>  <SCORE.heavy>
34

>  <SCORE.norm>
-0.359235

>  <RMSD>
6.479

$$$$
lig.pdb
 OpenBabel11021811503D
libRbt.so/2013.1/901 2013/11/27
 34 36  0  0  0  0  0  0  0  0999 V2000
   -4.9802   17.0423   37.4455 C   0  0  2  0  0  0  0  0  0  0  0  0
   -5.2472   15.7948   38.0957 O   0  0  0  0  0  0  0  0  0  0  0  0
   -3.8047   17.7742   38.2226 C   0  0  2  0  0  0  0  0  0  0  0  0
   -2.5608   16.9695   38.2242 N   0  0  0  0  0  0  0  0  0  0  0  0
   -4.2500   18.0607   39.6788 C   0  0  1  0  0  0  0  0  0  0  0  0
   -3.2060   18.7264   40.3931 O   0  0  0  0  0  0  0  0  0  0  0  0
   -5.5326   18.9106   39.6407 C   0  0  2  0  0  0  0  0  0  0  0  0
   -5.9524   19.1855   40.9781 O   0  0  0  0  0  0  0  0  0  0  0  0
   -6.6560   18.1418   38.8449 C   0  0  2  0  0  0  0  0  0  0  0  0
   -6.2098   17.8413   37.4678 O   0  0  0  0  0  0  0  0  0  0  0  0
   -7.9643   18.9671   38.7654 C   0  0  2  0  0  0  0  0  0  0  0  0
   -7.6619   20.3230   38.4311 O   0  0  0  0  0  0  0  0  0  0  0  0
   -8.7076   18.9483   40.0920 C   0  0  0  0  0  0  0  0  0  0  0  0
   -6.0625   11.8873   36.5519 C   0  0  2  0  0  0  0  0  0  0  0  0
   -6.7222   10.7799   35.8557 N   0  0  0  0  0  0  0  0  0  0  0  0
   -7.1140   12.5271   37.5000 C   0  0  0  0  0  0  0  0  0  0  0  0
   -6.4260   13.6894   38.2659 C   0  0  2  0  0  0  0  0  0  0  0  0
   -7.3865   14.3231   39.1829 N   0  0  0  0  0  0  0  0  0  0  0  0
   -5.8810   14.7580   37.2807 C   0  0  2  0  0  0  0  0  0  0  0  0
   -4.8619   14.0826   36.3096 C   0  0  2  0  0  0  0  0  0  0  0  0
   -4.3676   15.0682   35.3925 O   0  0  0  0  0  0  0  0  0  0  0  0
   -5.5409   12.9527   35.4981 C   0  0  1  0  0  0  0  0  0  0  0  0
   -4.5309   12.3739   34.6351 O   0  0  0  0  0  0  0  0  0  0  0  0
   -4.9745   11.3076   33.7634 C   0  0  2  0  0  0  0  0  0  0  0  0
   -3.6741   10.7024   33.1153 C   0  0  2  0  0  0  0  0  0  0  0  0
   -2.8246   10.1887   34.1290 O   0  0  0  0  0  0  0  0  0  0  0  0
   -2.9456   11.8257   32.2844 C   0  0  1  0  0  0  0  0  0  0  0  0
   -1.6960   11.2970   31.6573 N   0  0  0  0  0  0  0  0  0  0  0  0
   -0.5308   11.9678   32.2729 C   0  0  0  0  0  0  0  0  0  0  0  0
   -3.9247   12.3422   31.1865 C   0  0  2  0  0  0  0  0  0  0  0  0
   -4.2642   11.2544   30.3281 O   0  0  0  0  0  0  0  0  0  0  0  0
   -3.2951   13.4444   30.3384 C   0  0  0  0  0  0  0  0  0  0  0  0
   -5.2205   12.8847   31.8703 C   0  0  0  0  0  0  0  0  0  0  0  0
   -5.8541   11.8419   32.7044 O   0  0  0  0  0  0  0  0  0  0  0  0
  1  3  1  0  0  0  0
  1  2  1  1  0  0  0
  3  5  1  0  0  0  0
  3  4  1  1  0  0  0
  5  6  1  1  0  0  0
  7  8  1  1  0  0  0
  7  5  1  0  0  0  0
  9 10  1  6  0  0  0
  9  7  1  0  0  0  0
 10  1  1  0  0  0  0
 11 13  1  1  0  0  0
 11  9  1  0  0  0  0
 12 11  1  0  0  0  0
 14 15  1  6  0  0  0
 16 14  1  0  0  0  0
 17 18  1  1  0  0  0
 17 16  1  0  0  0  0
 19  2  1  1  0  0  0
 19 20  1  0  0  0  0
 19 17  1  0  0  0  0
 20 21  1  6  0  0  0
 20 22  1  0  0  0  0
 22 23  1  6  0  0  0
 22 14  1  0  0  0  0
 24 23  1  1  0  0  0
 24 25  1  0  0  0  0
 25 27  1  0  0  0  0
 25 26  1  1  0  0  0
 27 28  1  6  0  0  0
 28 29  1  0  0  0  0
 30 31  1  6  0  0  0
 30 32  1  0  0  0  0
 30 27  1  0  0  0  0
 33 30  1  0  0  0  0
 34 33  1  0  0  0  0
 34 24  1  0  0  0  0
M  END
>  <CHROM.1>
-156.47710150,44.86480085,-164.30019055,65.18943221,-171.09995488,-113.53182082
-5.01660624,14.67760151,36.06478728,-1.86459565,-0.58171738,-2.50477139

>  <Name>
lig.pdb

>  <RI>
0

>  <Rbt.Current_Directory>
/home/itssahil/PROJECTS/Mol_Feturizer/New_Systems/rnas/4k32

>  <Rbt.Executable>
rbdock ($Id: //depot/dev/client3/rdock/2013.1/src/exe/rbdock.cxx#4 $)

>  <Rbt.Library>
libRbt.so (2013.1, Build901 2013/11/27)

>  <Rbt.Parameter_File>
/export/apps/rDock/src/rDock_2013.1_src/data/scripts/dock_solv.prm

>  <Rbt.Receptor>
prm/pocket_docking_7.prm

>  <SCORE>
-12.2151

>  <SCORE.INTER>
-6.68181

>  <SCORE.INTER.CONST>
1

>  <SCORE.INTER.POLAR>
0

>  <SCORE.INTER.ROT>
6

>  <SCORE.INTER.SOLV>
16.9564

>  <SCORE.INTER.VDW>
-17.7067

>  <SCORE.INTER.norm>
-0.196524

>  <SCORE.INTRA>
-5.53328

>  <SCORE.INTRA.DIHEDRAL>
-11.9247

>  <SCORE.INTRA.DIHEDRAL.0>
18.0069

>  <SCORE.INTRA.POLAR>
0

>  <SCORE.INTRA.POLAR.0>
0

>  <SCORE.INTRA.REPUL>
0

>  <SCORE.INTRA.REPUL.0>
0

>  <SCORE.INTRA.SOLV>
-0.655259

>  <SCORE.INTRA.SOLV.lig_0>
-70.7393

>  <SCORE.INTRA.VDW>
0.7567

>  <SCORE.INTRA.VDW.0>
-3.23471

>  <SCORE.INTRA.norm>
-0.162743

>  <SCORE.RESTR>
0

>  <SCORE.RESTR.CAVITY>
0

>  <SCORE.RESTR.norm>
0

>  <SCORE.SYSTEM>
0

>  <SCORE.SYSTEM.CONST>
0

>  <SCORE.SYSTEM.DIHEDRAL>
0

>  <SCORE.SYSTEM.SOLV>
0

>  <SCORE.SYSTEM.norm>
0

>  <SCORE.heavy>
34

>  <SCORE.norm>
-0.359267

>  <RMSD>
6.483

$$$$
lig.pdb
 OpenBabel11021811503D
libRbt.so/2013.1/901 2013/11/27
 34 36  0  0  0  0  0  0  0  0999 V2000
   -1.7882   20.8112   33.2285 C   0  0  2  0  0  0  0  0  0  0  0  0
   -0.3875   20.7287   33.5137 O   0  0  0  0  0  0  0  0  0  0  0  0
   -2.2367   22.3303   33.3403 C   0  0  2  0  0  0  0  0  0  0  0  0
   -1.5098   23.1913   32.3784 N   0  0  0  0  0  0  0  0  0  0  0  0
   -1.9957   22.8335   34.7858 C   0  0  1  0  0  0  0  0  0  0  0  0
   -2.4005   24.1990   34.9079 O   0  0  0  0  0  0  0  0  0  0  0  0
   -2.7766   21.9292   35.7559 C   0  0  2  0  0  0  0  0  0  0  0  0
   -2.5661   22.3846   37.0933 O   0  0  0  0  0  0  0  0  0  0  0  0
   -2.3011   20.4350   35.5888 C   0  0  2  0  0  0  0  0  0  0  0  0
   -2.5019   19.9740   34.1985 O   0  0  0  0  0  0  0  0  0  0  0  0
   -3.0726   19.4822   36.5355 C   0  0  2  0  0  0  0  0  0  0  0  0
   -3.2332   20.0968   37.8154 O   0  0  0  0  0  0  0  0  0  0  0  0
   -2.3293   18.1681   36.7178 C   0  0  0  0  0  0  0  0  0  0  0  0
    1.9445   17.7775   35.5555 C   0  0  2  0  0  0  0  0  0  0  0  0
    2.4667   16.9099   36.6141 N   0  0  0  0  0  0  0  0  0  0  0  0
    1.9882   19.2352   36.0912 C   0  0  0  0  0  0  0  0  0  0  0  0
    1.4605   20.1741   34.9727 C   0  0  2  0  0  0  0  0  0  0  0  0
    1.4893   21.5705   35.4356 N   0  0  0  0  0  0  0  0  0  0  0  0
    0.0081   19.7997   34.5726 C   0  0  2  0  0  0  0  0  0  0  0  0
   -0.0189   18.3179   34.0815 C   0  0  2  0  0  0  0  0  0  0  0  0
   -1.3631   17.9696   33.7231 O   0  0  0  0  0  0  0  0  0  0  0  0
    0.4559   17.3588   35.2000 C   0  0  1  0  0  0  0  0  0  0  0  0
    0.4120   16.0137   34.6628 O   0  0  0  0  0  0  0  0  0  0  0  0
   -0.5609   15.1229   35.2574 C   0  0  2  0  0  0  0  0  0  0  0  0
   -0.0210   14.7826   36.6962 C   0  0  2  0  0  0  0  0  0  0  0  0
    0.0912   15.9715   37.4625 O   0  0  0  0  0  0  0  0  0  0  0  0
    1.3746   14.0635   36.5627 C   0  0  1  0  0  0  0  0  0  0  0  0
    1.9315   13.7298   37.9091 N   0  0  0  0  0  0  0  0  0  0  0  0
    2.7119   14.8843   38.4038 C   0  0  0  0  0  0  0  0  0  0  0  0
    1.1837   12.7659   35.7199 C   0  0  2  0  0  0  0  0  0  0  0  0
    0.2662   11.9102   36.3991 O   0  0  0  0  0  0  0  0  0  0  0  0
    2.4977   12.0109   35.5358 C   0  0  0  0  0  0  0  0  0  0  0  0
    0.5985   13.1450   34.3217 C   0  0  0  0  0  0  0  0  0  0  0  0
   -0.6744   13.8826   34.4640 O   0  0  0  0  0  0  0  0  0  0  0  0
  1  3  1  0  0  0  0
  1  2  1  1  0  0  0
  3  5  1  0  0  0  0
  3  4  1  6  0  0  0
  5  6  1  6  0  0  0
  7  8  1  1  0  0  0
  7  5  1  0  0  0  0
  9 10  1  6  0  0  0
  9  7  1  0  0  0  0
 10  1  1  0  0  0  0
 11 13  1  1  0  0  0
 11  9  1  0  0  0  0
 12 11  1  0  0  0  0
 14 15  1  1  0  0  0
 16 14  1  0  0  0  0
 17 18  1  1  0  0  0
 17 16  1  0  0  0  0
 19  2  1  6  0  0  0
 19 20  1  0  0  0  0
 19 17  1  0  0  0  0
 20 21  1  1  0  0  0
 20 22  1  0  0  0  0
 22 23  1  6  0  0  0
 22 14  1  0  0  0  0
 24 23  1  6  0  0  0
 24 25  1  0  0  0  0
 25 27  1  0  0  0  0
 25 26  1  1  0  0  0
 27 28  1  1  0  0  0
 28 29  1  0  0  0  0
 30 31  1  1  0  0  0
 30 32  1  0  0  0  0
 30 27  1  0  0  0  0
 33 30  1  0  0  0  0
 34 33  1  0  0  0  0
 34 24  1  0  0  0  0
M  END
>  <CHROM.1>
125.37086856,-40.91495196,-164.13160511,130.45693649,-71.70793751,-87.90833772
-0.34466396,18.04512469,35.47129860,-1.95890895,-0.43865713,2.80231087

>  <Name>
lig.pdb

>  <RI>
0

>  <Rbt.Current_Directory>
/home/itssahil/PROJECTS/Mol_Feturizer/New_Systems/rnas/4k32

>  <Rbt.Executable>
rbdock ($Id: //depot/dev/client3/rdock/2013.1/src/exe/rbdock.cxx#4 $)

>  <Rbt.Library>
libRbt.so (2013.1, Build901 2013/11/27)

>  <Rbt.Parameter_File>
/export/apps/rDock/src/rDock_2013.1_src/data/scripts/dock_solv.prm

>  <Rbt.Receptor>
prm/blind_docking_100.prm

>  <SCORE>
11.6166

>  <SCORE.INTER>
-5.08048

>  <SCORE.INTER.CONST>
1

>  <SCORE.INTER.POLAR>
0

>  <SCORE.INTER.ROT>
6

>  <SCORE.INTER.SOLV>
31.0021

>  <SCORE.INTER.VDW>
-21.321

>  <SCORE.INTER.norm>
-0.149426

>  <SCORE.INTRA>
9.44307

>  <SCORE.INTRA.DIHEDRAL>
-0.681797

>  <SCORE.INTRA.DIHEDRAL.0>
18.0069

>  <SCORE.INTRA.POLAR>
0

>  <SCORE.INTRA.POLAR.0>
0

>  <SCORE.INTRA.REPUL>
0

>  <SCORE.INTRA.REPUL.0>
0

>  <SCORE.INTRA.SOLV>
4.11472

>  <SCORE.INTRA.SOLV.lig_0>
-70.7393

>  <SCORE.INTRA.VDW>
7.72661

>  <SCORE.INTRA.VDW.0>
-3.23471

>  <SCORE.INTRA.norm>
0.277737

>  <SCORE.RESTR>
7.254

>  <SCORE.RESTR.CAVITY>
7.254

>  <SCORE.RESTR.norm>
0.213353

>  <SCORE.SYSTEM>
0

>  <SCORE.SYSTEM.CONST>
0

>  <SCORE.SYSTEM.DIHEDRAL>
0

>  <SCORE.SYSTEM.SOLV>
0

>  <SCORE.SYSTEM.norm>
0

>  <SCORE.heavy>
34

>  <SCORE.norm>
0.341665

>  <RMSD>
6.492

$$$$
lig.pdb
 OpenBabel11021811503D
libRbt.so/2013.1/901 2013/11/27
 34 36  0  0  0  0  0  0  0  0999 V2000
   -2.5376   19.7685   34.6810 C   0  0  2  0  0  0  0  0  0  0  0  0
   -1.8338   19.2751   35.8262 O   0  0  0  0  0  0  0  0  0  0  0  0
   -1.5591   19.7261   33.4312 C   0  0  2  0  0  0  0  0  0  0  0  0
   -1.0959   18.3491   33.1409 N   0  0  0  0  0  0  0  0  0  0  0  0
   -0.3420   20.6471   33.6985 C   0  0  1  0  0  0  0  0  0  0  0  0
    0.5479   20.6273   32.5799 O   0  0  0  0  0  0  0  0  0  0  0  0
   -0.8568   22.0700   33.9794 C   0  0  2  0  0  0  0  0  0  0  0  0
    0.2563   22.9312   34.2240 O   0  0  0  0  0  0  0  0  0  0  0  0
   -1.8333   22.0471   35.2173 C   0  0  2  0  0  0  0  0  0  0  0  0
   -2.9733   21.1391   34.9682 O   0  0  0  0  0  0  0  0  0  0  0  0
   -2.3916   23.4579   35.5290 C   0  0  2  0  0  0  0  0  0  0  0  0
   -3.1239   23.4287   36.7555 O   0  0  0  0  0  0  0  0  0  0  0  0
   -3.3168   23.9397   34.4224 C   0  0  0  0  0  0  0  0  0  0  0  0
   -0.6679   15.2799   36.8238 C   0  0  2  0  0  0  0  0  0  0  0  0
   -0.1504   13.9145   36.7050 N   0  0  0  0  0  0  0  0  0  0  0  0
   -1.7315   15.4681   35.7071 C   0  0  0  0  0  0  0  0  0  0  0  0
   -2.3103   16.9036   35.8319 C   0  0  2  0  0  0  0  0  0  0  0  0
   -3.3292   17.1251   34.7938 N   0  0  0  0  0  0  0  0  0  0  0  0
   -1.1909   17.9686   35.6828 C   0  0  2  0  0  0  0  0  0  0  0  0
   -0.1118   17.7312   36.7859 C   0  0  2  0  0  0  0  0  0  0  0  0
    0.9275   18.7085   36.6401 O   0  0  0  0  0  0  0  0  0  0  0  0
    0.5152   16.3225   36.6482 C   0  0  1  0  0  0  0  0  0  0  0  0
    1.4918   16.1790   37.7090 O   0  0  0  0  0  0  0  0  0  0  0  0
    2.6204   15.3200   37.4224 C   0  0  2  0  0  0  0  0  0  0  0  0
    2.2153   13.8836   37.9223 C   0  0  2  0  0  0  0  0  0  0  0  0
    1.0653   13.4360   37.2219 O   0  0  0  0  0  0  0  0  0  0  0  0
    1.9452   13.9384   39.4737 C   0  0  1  0  0  0  0  0  0  0  0  0
    1.5464   12.5942   39.9916 N   0  0  0  0  0  0  0  0  0  0  0  0
    2.4946   11.5827   39.4775 C   0  0  0  0  0  0  0  0  0  0  0  0
    3.2434   14.4283   40.1846 C   0  0  2  0  0  0  0  0  0  0  0  0
    4.2919   13.4998   39.9127 O   0  0  0  0  0  0  0  0  0  0  0  0
    3.0619   14.5178   41.6977 C   0  0  0  0  0  0  0  0  0  0  0  0
    3.6371   15.8316   39.6216 C   0  0  0  0  0  0  0  0  0  0  0  0
    3.8165   15.7813   38.1553 O   0  0  0  0  0  0  0  0  0  0  0  0
  1  3  1  0  0  0  0
  1  2  1  1  0  0  0
  3  5  1  0  0  0  0
  3  4  1  1  0  0  0
  5  6  1  6  0  0  0
  7  8  1  1  0  0  0
  7  5  1  0  0  0  0
  9 10  1  6  0  0  0
  9  7  1  0  0  0  0
 10  1  1  0  0  0  0
 11 13  1  6  0  0  0
 11  9  1  0  0  0  0
 12 11  1  0  0  0  0
 14 15  1  6  0  0  0
 16 14  1  0  0  0  0
 17 18  1  6  0  0  0
 17 16  1  0  0  0  0
 19  2  1  1  0  0  0
 19 20  1  0  0  0  0
 19 17  1  0  0  0  0
 20 21  1  6  0  0  0
 20 22  1  0  0  0  0
 22 23  1  1  0  0  0
 22 14  1  0  0  0  0
 24 23  1  1  0  0  0
 24 25  1  0  0  0  0
 25 27  1  0  0  0  0
 25 26  1  6  0  0  0
 27 28  1  1  0  0  0
 28 29  1  0  0  0  0
 30 31  1  6  0  0  0
 30 32  1  0  0  0  0
 30 27  1  0  0  0  0
 33 30  1  0  0  0  0
 34 33  1  0  0  0  0
 34 24  1  0  0  0  0
M  END
>  <CHROM.1>
-52.82245888,-172.28210338,-78.65576742,93.87761439,-91.80896371,48.05553918
0.09039003,17.60972140,36.56373960,2.16472626,-0.67513701,-0.13145832

>  <Name>
lig.pdb

>  <RI>
0

>  <Rbt.Current_Directory>
/home/itssahil/PROJECTS/Mol_Feturizer/New_Systems/rnas/4k32

>  <Rbt.Executable>
rbdock ($Id: //depot/dev/client3/rdock/2013.1/src/exe/rbdock.cxx#4 $)

>  <Rbt.Library>
libRbt.so (2013.1, Build901 2013/11/27)

>  <Rbt.Parameter_File>
/export/apps/rDock/src/rDock_2013.1_src/data/scripts/dock_solv.prm

>  <Rbt.Receptor>
prm/blind_docking_100.prm

>  <SCORE>
28.9108

>  <SCORE.INTER>
-5.00951

>  <SCORE.INTER.CONST>
1

>  <SCORE.INTER.POLAR>
0

>  <SCORE.INTER.ROT>
6

>  <SCORE.INTER.SOLV>
27.936

>  <SCORE.INTER.VDW>
-20.2517

>  <SCORE.INTER.norm>
-0.147339

>  <SCORE.INTRA>
26.5732

>  <SCORE.INTRA.DIHEDRAL>
-7.55939

>  <SCORE.INTRA.DIHEDRAL.0>
18.0069

>  <SCORE.INTRA.POLAR>
0

>  <SCORE.INTRA.POLAR.0>
0

>  <SCORE.INTRA.REPUL>
0.147941

>  <SCORE.INTRA.REPUL.0>
0

>  <SCORE.INTRA.SOLV>
7.28883

>  <SCORE.INTRA.SOLV.lig_0>
-70.7393

>  <SCORE.INTRA.VDW>
25.9687

>  <SCORE.INTRA.VDW.0>
-3.23471

>  <SCORE.INTRA.norm>
0.781564

>  <SCORE.RESTR>
7.34711

>  <SCORE.RESTR.CAVITY>
7.34711

>  <SCORE.RESTR.norm>
0.216092

>  <SCORE.SYSTEM>
0

>  <SCORE.SYSTEM.CONST>
0

>  <SCORE.SYSTEM.DIHEDRAL>
0

>  <SCORE.SYSTEM.SOLV>
0

>  <SCORE.SYSTEM.norm>
0

>  <SCORE.heavy>
34

>  <SCORE.norm>
0.850317

>  <RMSD>
6.508

$$$$
lig.pdb
 OpenBabel11021811503D
libRbt.so/2013.1/901 2013/11/27
 34 36  0  0  0  0  0  0  0  0999 V2000
   -3.8718   15.7264   40.3081 C   0  0  2  0  0  0  0  0  0  0  0  0
   -4.9441   14.7776   40.3064 O   0  0  0  0  0  0  0  0  0  0  0  0
   -3.5861   16.1613   41.8083 C   0  0  2  0  0  0  0  0  0  0  0  0
   -3.1942   15.0076   42.6511 N   0  0  0  0  0  0  0  0  0  0  0  0
   -4.8484   16.8404   42.3969 C   0  0  1  0  0  0  0  0  0  0  0  0
   -4.6078   17.2457   43.7465 O   0  0  0  0  0  0  0  0  0  0  0  0
   -5.2175   18.0419   41.5088 C   0  0  2  0  0  0  0  0  0  0  0  0
   -6.3786   18.6801   42.0428 O   0  0  0  0  0  0  0  0  0  0  0  0
   -5.4734   17.5523   40.0319 C   0  0  2  0  0  0  0  0  0  0  0  0
   -4.2764   16.8745   39.4902 O   0  0  0  0  0  0  0  0  0  0  0  0
   -5.8330   18.7319   39.0947 C   0  0  2  0  0  0  0  0  0  0  0  0
   -7.0114   19.3857   39.5694 O   0  0  0  0  0  0  0  0  0  0  0  0
   -6.0844   18.2488   37.6748 C   0  0  0  0  0  0  0  0  0  0  0  0
   -6.0136   11.8551   37.3683 C   0  0  2  0  0  0  0  0  0  0  0  0
   -6.5089   11.2487   36.1302 N   0  0  0  0  0  0  0  0  0  0  0  0
   -7.1334   12.7897   37.9035 C   0  0  0  0  0  0  0  0  0  0  0  0
   -6.6361   13.4243   39.2305 C   0  0  2  0  0  0  0  0  0  0  0  0
   -7.6704   14.3160   39.7781 N   0  0  0  0  0  0  0  0  0  0  0  0
   -5.3320   14.2352   39.0039 C   0  0  2  0  0  0  0  0  0  0  0  0
   -4.2365   13.2862   38.4235 C   0  0  2  0  0  0  0  0  0  0  0  0
   -3.0357   14.0390   38.2038 O   0  0  0  0  0  0  0  0  0  0  0  0
   -4.6916   12.6815   37.0731 C   0  0  1  0  0  0  0  0  0  0  0  0
   -3.6303   11.8100   36.6106 O   0  0  0  0  0  0  0  0  0  0  0  0
   -3.7800   11.2805   35.2724 C   0  0  2  0  0  0  0  0  0  0  0  0
   -2.5765   10.2894   35.0565 C   0  0  2  0  0  0  0  0  0  0  0  0
   -2.6383    9.2411   36.0108 O   0  0  0  0  0  0  0  0  0  0  0  0
   -1.2250   11.0894   35.1840 C   0  0  1  0  0  0  0  0  0  0  0  0
   -0.0512   10.1833   34.9956 N   0  0  0  0  0  0  0  0  0  0  0  0
    0.5702    9.9252   36.3124 C   0  0  0  0  0  0  0  0  0  0  0  0
   -1.2150   12.2178   34.1083 C   0  0  2  0  0  0  0  0  0  0  0  0
   -1.2978   11.6187   32.8161 O   0  0  0  0  0  0  0  0  0  0  0  0
    0.0637   13.0493   34.1707 C   0  0  0  0  0  0  0  0  0  0  0  0
   -2.4529   13.1455   34.3279 C   0  0  0  0  0  0  0  0  0  0  0  0
   -3.7100   12.3699   34.2779 O   0  0  0  0  0  0  0  0  0  0  0  0
  1  3  1  0  0  0  0
  1  2  1  1  0  0  0
  3  5  1  0  0  0  0
  3  4  1  1  0  0  0
  5  6  1  1  0  0  0
  7  8  1  1  0  0  0
  7  5  1  0  0  0  0
  9 10  1  6  0  0  0
  9  7  1  0  0  0  0
 10  1  1  0  0  0  0
 11 13  1  6  0  0  0
 11  9  1  0  0  0  0
 12 11  1  0  0  0  0
 14 15  1  6  0  0  0
 16 14  1  0  0  0  0
 17 18  1  6  0  0  0
 17 16  1  0  0  0  0
 19  2  1  1  0  0  0
 19 20  1  0  0  0  0
 19 17  1  0  0  0  0
 20 21  1  6  0  0  0
 20 22  1  0  0  0  0
 22 23  1  1  0  0  0
 22 14  1  0  0  0  0
 24 23  1  1  0  0  0
 24 25  1  0  0  0  0
 25 27  1  0  0  0  0
 25 26  1  1  0  0  0
 27 28  1  6  0  0  0
 28 29  1  0  0  0  0
 30 31  1  6  0  0  0
 30 32  1  0  0  0  0
 30 27  1  0  0  0  0
 33 30  1  0  0  0  0
 34 33  1  0  0  0  0
 34 24  1  0  0  0  0
M  END
>  <CHROM.1>
-178.66235743,-59.48967960,-171.13864279,71.85120137,-175.60666699,-104.99379820
-4.06223716,14.05959795,38.02194809,-1.96816756,0.11620795,-2.31093603

>  <Name>
lig.pdb

>  <RI>
0

>  <Rbt.Current_Directory>
/home/itssahil/PROJECTS/Mol_Feturizer/New_Systems/rnas/4k32

>  <Rbt.Executable>
rbdock ($Id: //depot/dev/client3/rdock/2013.1/src/exe/rbdock.cxx#4 $)

>  <Rbt.Library>
libRbt.so (2013.1, Build901 2013/11/27)

>  <Rbt.Parameter_File>
/export/apps/rDock/src/rDock_2013.1_src/data/scripts/dock_solv.prm

>  <Rbt.Receptor>
prm/pocket_docking_7.prm

>  <SCORE>
-6.4032

>  <SCORE.INTER>
2.0119

>  <SCORE.INTER.CONST>
1

>  <SCORE.INTER.POLAR>
0

>  <SCORE.INTER.ROT>
6

>  <SCORE.INTER.SOLV>
8.24695

>  <SCORE.INTER.VDW>
-9.00772

>  <SCORE.INTER.norm>
0.0591735

>  <SCORE.INTRA>
-8.41509

>  <SCORE.INTRA.DIHEDRAL>
-15.7642

>  <SCORE.INTRA.DIHEDRAL.0>
18.0069

>  <SCORE.INTRA.POLAR>
0

>  <SCORE.INTRA.POLAR.0>
0

>  <SCORE.INTRA.REPUL>
0

>  <SCORE.INTRA.REPUL.0>
0

>  <SCORE.INTRA.SOLV>
-1.65204

>  <SCORE.INTRA.SOLV.lig_0>
-70.7393

>  <SCORE.INTRA.VDW>
0.29302

>  <SCORE.INTRA.VDW.0>
-3.23471

>  <SCORE.INTRA.norm>
-0.247503

>  <SCORE.RESTR>
0

>  <SCORE.RESTR.CAVITY>
0

>  <SCORE.RESTR.norm>
0

>  <SCORE.SYSTEM>
0

>  <SCORE.SYSTEM.CONST>
0

>  <SCORE.SYSTEM.DIHEDRAL>
0

>  <SCORE.SYSTEM.SOLV>
0

>  <SCORE.SYSTEM.norm>
0

>  <SCORE.heavy>
34

>  <SCORE.norm>
-0.188329

>  <RMSD>
6.553

$$$$
lig.pdb
 OpenBabel11021811503D
libRbt.so/2013.1/901 2013/11/27
 34 36  0  0  0  0  0  0  0  0999 V2000
   -0.5397   19.7765   35.3539 C   0  0  2  0  0  0  0  0  0  0  0  0
   -0.7465   18.6536   34.4898 O   0  0  0  0  0  0  0  0  0  0  0  0
   -1.8810   20.6245   35.4082 C   0  0  2  0  0  0  0  0  0  0  0  0
   -3.0146   19.8291   35.9345 N   0  0  0  0  0  0  0  0  0  0  0  0
   -2.2173   21.1478   33.9890 C   0  0  1  0  0  0  0  0  0  0  0  0
   -3.4196   21.9205   34.0191 O   0  0  0  0  0  0  0  0  0  0  0  0
   -1.0282   21.9819   33.4799 C   0  0  2  0  0  0  0  0  0  0  0  0
   -1.3267   22.4741   32.1726 O   0  0  0  0  0  0  0  0  0  0  0  0
    0.2750   21.0943   33.4631 C   0  0  2  0  0  0  0  0  0  0  0  0
    0.5690   20.5702   34.8139 O   0  0  0  0  0  0  0  0  0  0  0  0
    1.5051   21.8973   32.9722 C   0  0  2  0  0  0  0  0  0  0  0  0
    1.3746   22.1787   31.5774 O   0  0  0  0  0  0  0  0  0  0  0  0
    2.7930   21.1189   33.1919 C   0  0  0  0  0  0  0  0  0  0  0  0
   -0.7060   15.6189   37.5073 C   0  0  2  0  0  0  0  0  0  0  0  0
   -0.6575   14.3052   38.1539 N   0  0  0  0  0  0  0  0  0  0  0  0
   -1.8328   15.5652   36.4391 C   0  0  0  0  0  0  0  0  0  0  0  0
   -1.9162   16.9582   35.7583 C   0  0  2  0  0  0  0  0  0  0  0  0
   -2.9778   16.9554   34.7395 N   0  0  0  0  0  0  0  0  0  0  0  0
   -0.5668   17.3301   35.0871 C   0  0  2  0  0  0  0  0  0  0  0  0
    0.5573   17.3327   36.1707 C   0  0  2  0  0  0  0  0  0  0  0  0
    1.8054   17.6651   35.5475 O   0  0  0  0  0  0  0  0  0  0  0  0
    0.6919   15.9374   36.8274 C   0  0  1  0  0  0  0  0  0  0  0  0
    1.7415   16.0278   37.8223 O   0  0  0  0  0  0  0  0  0  0  0  0
    2.8830   15.1613   37.6229 C   0  0  2  0  0  0  0  0  0  0  0  0
    2.4099   13.7146   38.0236 C   0  0  2  0  0  0  0  0  0  0  0  0
    1.3341   13.3115   37.1909 O   0  0  0  0  0  0  0  0  0  0  0  0
    1.9794   13.7181   39.5393 C   0  0  1  0  0  0  0  0  0  0  0  0
    1.5117   12.3628   39.9621 N   0  0  0  0  0  0  0  0  0  0  0  0
    0.1534   12.4822   40.5344 C   0  0  0  0  0  0  0  0  0  0  0  0
    3.2019   14.1607   40.3996 C   0  0  2  0  0  0  0  0  0  0  0  0
    4.2615   13.2255   40.2039 O   0  0  0  0  0  0  0  0  0  0  0  0
    2.8640   14.1986   41.8878 C   0  0  0  0  0  0  0  0  0  0  0  0
    3.6700   15.5767   39.9337 C   0  0  0  0  0  0  0  0  0  0  0  0
    4.0014   15.5763   38.4933 O   0  0  0  0  0  0  0  0  0  0  0  0
  1  3  1  0  0  0  0
  1  2  1  6  0  0  0
  3  5  1  0  0  0  0
  3  4  1  6  0  0  0
  5  6  1  1  0  0  0
  7  8  1  6  0  0  0
  7  5  1  0  0  0  0
  9 10  1  1  0  0  0
  9  7  1  0  0  0  0
 10  1  1  0  0  0  0
 11 13  1  6  0  0  0
 11  9  1  0  0  0  0
 12 11  1  0  0  0  0
 14 15  1  6  0  0  0
 16 14  1  0  0  0  0
 17 18  1  6  0  0  0
 17 16  1  0  0  0  0
 19  2  1  1  0  0  0
 19 20  1  0  0  0  0
 19 17  1  0  0  0  0
 20 21  1  6  0  0  0
 20 22  1  0  0  0  0
 22 23  1  1  0  0  0
 22 14  1  0  0  0  0
 24 23  1  1  0  0  0
 24 25  1  0  0  0  0
 25 27  1  0  0  0  0
 25 26  1  6  0  0  0
 27 28  1  1  0  0  0
 28 29  1  0  0  0  0
 30 31  1  6  0  0  0
 30 32  1  0  0  0  0
 30 27  1  0  0  0  0
 33 30  1  0  0  0  0
 34 33  1  0  0  0  0
 34 24  1  0  0  0  0
M  END
>  <CHROM.1>
-120.55371855,-69.89908825,84.98488731,124.65450285,-75.05419089,-125.08814821
0.52116096,17.38417313,36.41498817,1.87811756,-0.10889408,-0.64836449

>  <Name>
lig.pdb

>  <RI>
0

>  <Rbt.Current_Directory>
/home/itssahil/PROJECTS/Mol_Feturizer/New_Systems/rnas/4k32

>  <Rbt.Executable>
rbdock ($Id: //depot/dev/client3/rdock/2013.1/src/exe/rbdock.cxx#4 $)

>  <Rbt.Library>
libRbt.so (2013.1, Build901 2013/11/27)

>  <Rbt.Parameter_File>
/export/apps/rDock/src/rDock_2013.1_src/data/scripts/dock_solv.prm

>  <Rbt.Receptor>
prm/blind_docking_100.prm

>  <SCORE>
25.3317

>  <SCORE.INTER>
6.34663

>  <SCORE.INTER.CONST>
1

>  <SCORE.INTER.POLAR>
0

>  <SCORE.INTER.ROT>
6

>  <SCORE.INTER.SOLV>
23.5901

>  <SCORE.INTER.VDW>
-11.2323

>  <SCORE.INTER.norm>
0.186666

>  <SCORE.INTRA>
5.59582

>  <SCORE.INTRA.DIHEDRAL>
1.49638

>  <SCORE.INTRA.DIHEDRAL.0>
18.0069

>  <SCORE.INTRA.POLAR>
0

>  <SCORE.INTRA.POLAR.0>
0

>  <SCORE.INTRA.REPUL>
0

>  <SCORE.INTRA.REPUL.0>
0

>  <SCORE.INTRA.SOLV>
5.5166

>  <SCORE.INTRA.SOLV.lig_0>
-70.7393

>  <SCORE.INTRA.VDW>
2.08933

>  <SCORE.INTRA.VDW.0>
-3.23471

>  <SCORE.INTRA.norm>
0.164583

>  <SCORE.RESTR>
13.3892

>  <SCORE.RESTR.CAVITY>
13.3892

>  <SCORE.RESTR.norm>
0.393801

>  <SCORE.SYSTEM>
0

>  <SCORE.SYSTEM.CONST>
0

>  <SCORE.SYSTEM.DIHEDRAL>
0

>  <SCORE.SYSTEM.SOLV>
0

>  <SCORE.SYSTEM.norm>
0

>  <SCORE.heavy>
34

>  <SCORE.norm>
0.745049

>  <RMSD>
6.579

$$$$
lig.pdb
 OpenBabel11021811503D
libRbt.so/2013.1/901 2013/11/27
 34 36  0  0  0  0  0  0  0  0999 V2000
   -5.8419   17.1967   37.8903 C   0  0  2  0  0  0  0  0  0  0  0  0
   -5.8722   15.9777   38.6408 O   0  0  0  0  0  0  0  0  0  0  0  0
   -4.5729   18.0364   38.3439 C   0  0  2  0  0  0  0  0  0  0  0  0
   -3.3099   17.3019   38.0983 N   0  0  0  0  0  0  0  0  0  0  0  0
   -4.6969   18.3850   39.8485 C   0  0  1  0  0  0  0  0  0  0  0  0
   -3.5654   19.1479   40.2741 O   0  0  0  0  0  0  0  0  0  0  0  0
   -6.0086   19.1602   40.0653 C   0  0  2  0  0  0  0  0  0  0  0  0
   -6.1339   19.4915   41.4492 O   0  0  0  0  0  0  0  0  0  0  0  0
   -7.2288   18.2854   39.5834 C   0  0  2  0  0  0  0  0  0  0  0  0
   -7.0852   17.9277   38.1560 O   0  0  0  0  0  0  0  0  0  0  0  0
   -8.5733   19.0323   39.7669 C   0  0  2  0  0  0  0  0  0  0  0  0
   -8.7035   19.4693   41.1210 O   0  0  0  0  0  0  0  0  0  0  0  0
   -9.7523   18.1321   39.4317 C   0  0  0  0  0  0  0  0  0  0  0  0
   -6.0734   11.8787   37.4266 C   0  0  2  0  0  0  0  0  0  0  0  0
   -6.5614   10.6260   36.8446 N   0  0  0  0  0  0  0  0  0  0  0  0
   -7.1850   12.4108   38.3726 C   0  0  0  0  0  0  0  0  0  0  0  0
   -6.6761   13.7277   39.0189 C   0  0  2  0  0  0  0  0  0  0  0  0
   -7.6980   14.2663   39.9302 N   0  0  0  0  0  0  0  0  0  0  0  0
   -6.3503   14.7891   37.9340 C   0  0  2  0  0  0  0  0  0  0  0  0
   -5.2654   14.2148   36.9692 C   0  0  2  0  0  0  0  0  0  0  0  0
   -4.9737   15.1918   35.9607 O   0  0  0  0  0  0  0  0  0  0  0  0
   -5.7726   12.9276   36.2747 C   0  0  1  0  0  0  0  0  0  0  0  0
   -4.7092   12.4554   35.4110 O   0  0  0  0  0  0  0  0  0  0  0  0
   -4.9646   11.2176   34.7065 C   0  0  2  0  0  0  0  0  0  0  0  0
   -3.5776   10.7481   34.1294 C   0  0  2  0  0  0  0  0  0  0  0  0
   -2.6623   10.5305   35.1916 O   0  0  0  0  0  0  0  0  0  0  0  0
   -3.0382   11.8458   33.1360 C   0  0  1  0  0  0  0  0  0  0  0  0
   -1.7140   11.4456   32.5697 N   0  0  0  0  0  0  0  0  0  0  0  0
   -0.6764   12.3661   33.0823 C   0  0  0  0  0  0  0  0  0  0  0  0
   -4.0810   12.0330   31.9922 C   0  0  2  0  0  0  0  0  0  0  0  0
   -4.2303   10.7932   31.3021 O   0  0  0  0  0  0  0  0  0  0  0  0
   -3.6355   13.0914   30.9864 C   0  0  0  0  0  0  0  0  0  0  0  0
   -5.4535   12.4471   32.6134 C   0  0  0  0  0  0  0  0  0  0  0  0
   -5.9125   11.4440   33.5970 O   0  0  0  0  0  0  0  0  0  0  0  0
  1  3  1  0  0  0  0
  1  2  1  1  0  0  0
  3  5  1  0  0  0  0
  3  4  1  1  0  0  0
  5  6  1  6  0  0  0
  7  8  1  1  0  0  0
  7  5  1  0  0  0  0
  9 10  1  6  0  0  0
  9  7  1  0  0  0  0
 10  1  1  0  0  0  0
 11 13  1  1  0  0  0
 11  9  1  0  0  0  0
 12 11  1  0  0  0  0
 14 15  1  6  0  0  0
 16 14  1  0  0  0  0
 17 18  1  1  0  0  0
 17 16  1  0  0  0  0
 19  2  1  1  0  0  0
 19 20  1  0  0  0  0
 19 17  1  0  0  0  0
 20 21  1  6  0  0  0
 20 22  1  0  0  0  0
 22 23  1  6  0  0  0
 22 14  1  0  0  0  0
 24 23  1  6  0  0  0
 24 25  1  0  0  0  0
 25 27  1  0  0  0  0
 25 26  1  1  0  0  0
 27 28  1  6  0  0  0
 28 29  1  0  0  0  0
 30 31  1  6  0  0  0
 30 32  1  0  0  0  0
 30 27  1  0  0  0  0
 33 30  1  0  0  0  0
 34 33  1  0  0  0  0
 34 24  1  0  0  0  0
M  END
>  <CHROM.1>
-144.05748081,-54.05601586,-164.17510968,61.36588025,-166.85437249,-112.62646135
-5.36387986,14.66828087,36.76631098,-1.94197021,-0.58428727,-2.57664531

>  <Name>
lig.pdb

>  <RI>
0

>  <Rbt.Current_Directory>
/home/itssahil/PROJECTS/Mol_Feturizer/New_Systems/rnas/4k32

>  <Rbt.Executable>
rbdock ($Id: //depot/dev/client3/rdock/2013.1/src/exe/rbdock.cxx#4 $)

>  <Rbt.Library>
libRbt.so (2013.1, Build901 2013/11/27)

>  <Rbt.Parameter_File>
/export/apps/rDock/src/rDock_2013.1_src/data/scripts/dock_solv.prm

>  <Rbt.Receptor>
prm/pocket_docking_6.prm

>  <SCORE>
-9.09261

>  <SCORE.INTER>
-4.77236

>  <SCORE.INTER.CONST>
1

>  <SCORE.INTER.POLAR>
0

>  <SCORE.INTER.ROT>
6

>  <SCORE.INTER.SOLV>
14.482

>  <SCORE.INTER.VDW>
-15.6089

>  <SCORE.INTER.norm>
-0.140363

>  <SCORE.INTRA>
-4.32025

>  <SCORE.INTRA.DIHEDRAL>
-9.94956

>  <SCORE.INTRA.DIHEDRAL.0>
18.0069

>  <SCORE.INTRA.POLAR>
0

>  <SCORE.INTRA.POLAR.0>
0

>  <SCORE.INTRA.REPUL>
0

>  <SCORE.INTRA.REPUL.0>
0

>  <SCORE.INTRA.SOLV>
0.0215538

>  <SCORE.INTRA.SOLV.lig_0>
-70.7393

>  <SCORE.INTRA.VDW>
0.643755

>  <SCORE.INTRA.VDW.0>
-3.23471

>  <SCORE.INTRA.norm>
-0.127066

>  <SCORE.RESTR>
0

>  <SCORE.RESTR.CAVITY>
0

>  <SCORE.RESTR.norm>
0

>  <SCORE.SYSTEM>
0

>  <SCORE.SYSTEM.CONST>
0

>  <SCORE.SYSTEM.DIHEDRAL>
0

>  <SCORE.SYSTEM.SOLV>
0

>  <SCORE.SYSTEM.norm>
0

>  <SCORE.heavy>
34

>  <SCORE.norm>
-0.26743

>  <RMSD>
6.616

$$$$
lig.pdb
 OpenBabel11021811503D
libRbt.so/2013.1/901 2013/11/27
 34 36  0  0  0  0  0  0  0  0999 V2000
   -7.3359   17.1443   41.0377 C   0  0  2  0  0  0  0  0  0  0  0  0
   -8.1893   16.2436   40.3231 O   0  0  0  0  0  0  0  0  0  0  0  0
   -8.0386   18.5671   41.0935 C   0  0  2  0  0  0  0  0  0  0  0  0
   -9.3463   18.5087   41.7873 N   0  0  0  0  0  0  0  0  0  0  0  0
   -8.2289   19.1044   39.6526 C   0  0  1  0  0  0  0  0  0  0  0  0
   -8.8546   20.3893   39.6828 O   0  0  0  0  0  0  0  0  0  0  0  0
   -6.8522   19.1679   38.9676 C   0  0  2  0  0  0  0  0  0  0  0  0
   -7.0128   19.6657   37.6383 O   0  0  0  0  0  0  0  0  0  0  0  0
   -6.1977   17.7334   38.9561 C   0  0  2  0  0  0  0  0  0  0  0  0
   -6.0519   17.2134   40.3324 O   0  0  0  0  0  0  0  0  0  0  0  0
   -4.7996   17.7502   38.2896 C   0  0  2  0  0  0  0  0  0  0  0  0
   -4.9151   18.1836   36.9330 O   0  0  0  0  0  0  0  0  0  0  0  0
   -4.1666   16.3675   38.3053 C   0  0  0  0  0  0  0  0  0  0  0  0
   -5.6319   12.8360   40.7285 C   0  0  2  0  0  0  0  0  0  0  0  0
   -5.1754   11.4478   40.8314 N   0  0  0  0  0  0  0  0  0  0  0  0
   -6.7534   13.0316   41.7857 C   0  0  0  0  0  0  0  0  0  0  0  0
   -7.2343   14.5060   41.7088 C   0  0  2  0  0  0  0  0  0  0  0  0
   -8.2964   14.7391   42.7000 N   0  0  0  0  0  0  0  0  0  0  0  0
   -7.7762   14.8403   40.2930 C   0  0  2  0  0  0  0  0  0  0  0  0
   -6.6468   14.5925   39.2438 C   0  0  2  0  0  0  0  0  0  0  0  0
   -7.1520   14.8907   37.9352 O   0  0  0  0  0  0  0  0  0  0  0  0
   -6.1874   13.1145   39.2685 C   0  0  1  0  0  0  0  0  0  0  0  0
   -5.1371   12.9721   38.2804 O   0  0  0  0  0  0  0  0  0  0  0  0
   -4.6225   11.6336   38.0877 C   0  0  2  0  0  0  0  0  0  0  0  0
   -3.5596   11.7355   36.9313 C   0  0  2  0  0  0  0  0  0  0  0  0
   -2.5139   12.6148   37.3140 O   0  0  0  0  0  0  0  0  0  0  0  0
   -4.2740   12.2443   35.6224 C   0  0  1  0  0  0  0  0  0  0  0  0
   -3.2978   12.3662   34.4971 N   0  0  0  0  0  0  0  0  0  0  0  0
   -3.0712   13.7997   34.2132 C   0  0  0  0  0  0  0  0  0  0  0  0
   -5.4034   11.2357   35.2514 C   0  0  2  0  0  0  0  0  0  0  0  0
   -4.8150    9.9583   35.0111 O   0  0  0  0  0  0  0  0  0  0  0  0
   -6.1540   11.6627   33.9925 C   0  0  0  0  0  0  0  0  0  0  0  0
   -6.4051   11.1267   36.4454 C   0  0  0  0  0  0  0  0  0  0  0  0
   -5.7089   10.7186   37.6837 O   0  0  0  0  0  0  0  0  0  0  0  0
  1  3  1  0  0  0  0
  1  2  1  6  0  0  0
  3  5  1  0  0  0  0
  3  4  1  6  0  0  0
  5  6  1  1  0  0  0
  7  8  1  6  0  0  0
  7  5  1  0  0  0  0
  9 10  1  1  0  0  0
  9  7  1  0  0  0  0
 10  1  1  0  0  0  0
 11 13  1  6  0  0  0
 11  9  1  0  0  0  0
 12 11  1  0  0  0  0
 14 15  1  6  0  0  0
 16 14  1  0  0  0  0
 17 18  1  1  0  0  0
 17 16  1  0  0  0  0
 19  2  1  1  0  0  0
 19 20  1  0  0  0  0
 19 17  1  0  0  0  0
 20 21  1  6  0  0  0
 20 22  1  0  0  0  0
 22 23  1  6  0  0  0
 22 14  1  0  0  0  0
 24 23  1  6  0  0  0
 24 25  1  0  0  0  0
 25 27  1  0  0  0  0
 25 26  1  1  0  0  0
 27 28  1  6  0  0  0
 28 29  1  0  0  0  0
 30 31  1  6  0  0  0
 30 32  1  0  0  0  0
 30 27  1  0  0  0  0
 33 30  1  0  0  0  0
 34 33  1  0  0  0  0
 34 24  1  0  0  0  0
M  END
>  <CHROM.1>
-173.56223398,-60.76180351,40.19771936,67.51281545,177.32096544,-109.00602412
-6.03955862,14.78143984,38.50903265,2.50682594,1.08747595,-0.31876229

>  <Name>
lig.pdb

>  <RI>
0

>  <Rbt.Current_Directory>
/home/itssahil/PROJECTS/Mol_Feturizer/New_Systems/rnas/4k32

>  <Rbt.Executable>
rbdock ($Id: //depot/dev/client3/rdock/2013.1/src/exe/rbdock.cxx#4 $)

>  <Rbt.Library>
libRbt.so (2013.1, Build901 2013/11/27)

>  <Rbt.Parameter_File>
/export/apps/rDock/src/rDock_2013.1_src/data/scripts/dock_solv.prm

>  <Rbt.Receptor>
prm/pocket_docking_6.prm

>  <SCORE>
-9.48884

>  <SCORE.INTER>
-3.65201

>  <SCORE.INTER.CONST>
1

>  <SCORE.INTER.POLAR>
0

>  <SCORE.INTER.ROT>
6

>  <SCORE.INTER.SOLV>
13.7313

>  <SCORE.INTER.VDW>
-14.6118

>  <SCORE.INTER.norm>
-0.107412

>  <SCORE.INTRA>
-5.83684

>  <SCORE.INTRA.DIHEDRAL>
-14.5559

>  <SCORE.INTRA.DIHEDRAL.0>
18.0069

>  <SCORE.INTRA.POLAR>
0

>  <SCORE.INTRA.POLAR.0>
0

>  <SCORE.INTRA.REPUL>
0

>  <SCORE.INTRA.REPUL.0>
0

>  <SCORE.INTRA.SOLV>
0.368691

>  <SCORE.INTRA.SOLV.lig_0>
-70.7393

>  <SCORE.INTRA.VDW>
1.25679

>  <SCORE.INTRA.VDW.0>
-3.23471

>  <SCORE.INTRA.norm>
-0.171672

>  <SCORE.RESTR>
0

>  <SCORE.RESTR.CAVITY>
0

>  <SCORE.RESTR.norm>
0

>  <SCORE.SYSTEM>
0

>  <SCORE.SYSTEM.CONST>
0

>  <SCORE.SYSTEM.DIHEDRAL>
0

>  <SCORE.SYSTEM.SOLV>
0

>  <SCORE.SYSTEM.norm>
0

>  <SCORE.heavy>
34

>  <SCORE.norm>
-0.279084

>  <RMSD>
6.618

$$$$
lig.pdb
 OpenBabel11021811503D
libRbt.so/2013.1/901 2013/11/27
 34 36  0  0  0  0  0  0  0  0999 V2000
   -5.7008   17.2489   37.6682 C   0  0  2  0  0  0  0  0  0  0  0  0
   -5.7737   15.9861   38.3393 O   0  0  0  0  0  0  0  0  0  0  0  0
   -4.4100   18.0183   38.1808 C   0  0  2  0  0  0  0  0  0  0  0  0
   -3.1684   17.2621   37.8953 N   0  0  0  0  0  0  0  0  0  0  0  0
   -4.5338   18.2741   39.7040 C   0  0  1  0  0  0  0  0  0  0  0  0
   -3.3825   18.9730   40.1832 O   0  0  0  0  0  0  0  0  0  0  0  0
   -5.8226   19.0743   39.9633 C   0  0  2  0  0  0  0  0  0  0  0  0
   -5.9474   19.3205   41.3648 O   0  0  0  0  0  0  0  0  0  0  0  0
   -7.0656   18.2702   39.4204 C   0  0  2  0  0  0  0  0  0  0  0  0
   -6.9230   17.9997   37.9738 O   0  0  0  0  0  0  0  0  0  0  0  0
   -8.3878   19.0452   39.6444 C   0  0  2  0  0  0  0  0  0  0  0  0
   -8.4577   19.5029   40.9961 O   0  0  0  0  0  0  0  0  0  0  0  0
   -9.5955   18.1634   39.3673 C   0  0  0  0  0  0  0  0  0  0  0  0
   -6.1818   11.9769   36.8984 C   0  0  2  0  0  0  0  0  0  0  0  0
   -6.7299   10.7865   36.2436 N   0  0  0  0  0  0  0  0  0  0  0  0
   -7.2742   12.5163   37.8626 C   0  0  0  0  0  0  0  0  0  0  0  0
   -6.7024   13.7661   38.5852 C   0  0  2  0  0  0  0  0  0  0  0  0
   -7.7044   14.3090   39.5159 N   0  0  0  0  0  0  0  0  0  0  0  0
   -6.3070   14.8660   37.5636 C   0  0  2  0  0  0  0  0  0  0  0  0
   -5.2435   14.2870   36.5780 C   0  0  2  0  0  0  0  0  0  0  0  0
   -4.8875   15.3003   35.6277 O   0  0  0  0  0  0  0  0  0  0  0  0
   -5.8112   13.0694   35.8090 C   0  0  1  0  0  0  0  0  0  0  0  0
   -4.7648   12.5878   34.9298 O   0  0  0  0  0  0  0  0  0  0  0  0
   -5.1169   11.4782   34.0705 C   0  0  2  0  0  0  0  0  0  0  0  0
   -3.7570   10.8512   33.5858 C   0  0  2  0  0  0  0  0  0  0  0  0
   -3.0127   10.3920   34.7032 O   0  0  0  0  0  0  0  0  0  0  0  0
   -2.9506   11.9381   32.7789 C   0  0  1  0  0  0  0  0  0  0  0  0
   -1.6435   11.3881   32.3064 N   0  0  0  0  0  0  0  0  0  0  0  0
   -0.5487   12.2128   32.8613 C   0  0  0  0  0  0  0  0  0  0  0  0
   -3.8153   12.3952   31.5649 C   0  0  2  0  0  0  0  0  0  0  0  0
   -4.0652   11.2655   30.7301 O   0  0  0  0  0  0  0  0  0  0  0  0
   -3.1056   13.4596   30.7320 C   0  0  0  0  0  0  0  0  0  0  0  0
   -5.1742   12.9614   32.0884 C   0  0  0  0  0  0  0  0  0  0  0  0
   -5.8866   11.9556   32.9041 O   0  0  0  0  0  0  0  0  0  0  0  0
  1  3  1  0  0  0  0
  1  2  1  1  0  0  0
  3  5  1  0  0  0  0
  3  4  1  1  0  0  0
  5  6  1  6  0  0  0
  7  8  1  1  0  0  0
  7  5  1  0  0  0  0
  9 10  1  6  0  0  0
  9  7  1  0  0  0  0
 10  1  1  0  0  0  0
 11 13  1  1  0  0  0
 11  9  1  0  0  0  0
 12 11  1  0  0  0  0
 14 15  1  6  0  0  0
 16 14  1  0  0  0  0
 17 18  1  1  0  0  0
 17 16  1  0  0  0  0
 19  2  1  1  0  0  0
 19 20  1  0  0  0  0
 19 17  1  0  0  0  0
 20 21  1  6  0  0  0
 20 22  1  0  0  0  0
 22 23  1  6  0  0  0
 22 14  1  0  0  0  0
 24 23  1  1  0  0  0
 24 25  1  0  0  0  0
 25 27  1  0  0  0  0
 25 26  1  1  0  0  0
 27 28  1  6  0  0  0
 28 29  1  0  0  0  0
 30 31  1  6  0  0  0
 30 32  1  0  0  0  0
 30 27  1  0  0  0  0
 33 30  1  0  0  0  0
 34 33  1  0  0  0  0
 34 24  1  0  0  0  0
M  END
>  <CHROM.1>
-145.18904110,-48.88727943,-162.62204071,66.56742333,-162.06278325,-121.06937397
-5.28315524,14.75360888,36.43001111,-1.92382643,-0.55268433,-2.51574563

>  <Name>
lig.pdb

>  <RI>
0

>  <Rbt.Current_Directory>
/home/itssahil/PROJECTS/Mol_Feturizer/New_Systems/rnas/4k32

>  <Rbt.Executable>
rbdock ($Id: //depot/dev/client3/rdock/2013.1/src/exe/rbdock.cxx#4 $)

>  <Rbt.Library>
libRbt.so (2013.1, Build901 2013/11/27)

>  <Rbt.Parameter_File>
/export/apps/rDock/src/rDock_2013.1_src/data/scripts/dock_solv.prm

>  <Rbt.Receptor>
prm/pocket_docking_7.prm

>  <SCORE>
-9.78515

>  <SCORE.INTER>
-5.94436

>  <SCORE.INTER.CONST>
1

>  <SCORE.INTER.POLAR>
0

>  <SCORE.INTER.ROT>
6

>  <SCORE.INTER.SOLV>
16.4093

>  <SCORE.INTER.VDW>
-17.0327

>  <SCORE.INTER.norm>
-0.174834

>  <SCORE.INTRA>
-3.84079

>  <SCORE.INTRA.DIHEDRAL>
-8.71534

>  <SCORE.INTRA.DIHEDRAL.0>
18.0069

>  <SCORE.INTRA.POLAR>
0

>  <SCORE.INTRA.POLAR.0>
0

>  <SCORE.INTRA.REPUL>
0

>  <SCORE.INTRA.REPUL.0>
0

>  <SCORE.INTRA.SOLV>
0.109511

>  <SCORE.INTRA.SOLV.lig_0>
-70.7393

>  <SCORE.INTRA.VDW>
0.462127

>  <SCORE.INTRA.VDW.0>
-3.23471

>  <SCORE.INTRA.norm>
-0.112964

>  <SCORE.RESTR>
0

>  <SCORE.RESTR.CAVITY>
0

>  <SCORE.RESTR.norm>
0

>  <SCORE.SYSTEM>
0

>  <SCORE.SYSTEM.CONST>
0

>  <SCORE.SYSTEM.DIHEDRAL>
0

>  <SCORE.SYSTEM.SOLV>
0

>  <SCORE.SYSTEM.norm>
0

>  <SCORE.heavy>
34

>  <SCORE.norm>
-0.287799

>  <RMSD>
6.633

$$$$
lig.pdb
 OpenBabel11021811503D
libRbt.so/2013.1/901 2013/11/27
 34 36  0  0  0  0  0  0  0  0999 V2000
   -1.1518   14.0195   36.2746 C   0  0  2  0  0  0  0  0  0  0  0  0
   -2.0539   12.9149   36.4026 O   0  0  0  0  0  0  0  0  0  0  0  0
   -0.5653   14.0227   34.7990 C   0  0  2  0  0  0  0  0  0  0  0  0
   -1.6330   14.1676   33.7822 N   0  0  0  0  0  0  0  0  0  0  0  0
    0.2217   12.7105   34.5548 C   0  0  1  0  0  0  0  0  0  0  0  0
    0.7640   12.6982   33.2322 O   0  0  0  0  0  0  0  0  0  0  0  0
    1.3311   12.5999   35.6158 C   0  0  2  0  0  0  0  0  0  0  0  0
    2.0676   11.3952   35.3997 O   0  0  0  0  0  0  0  0  0  0  0  0
    0.6917   12.6178   37.0570 C   0  0  2  0  0  0  0  0  0  0  0  0
   -0.0865   13.8569   37.2693 O   0  0  0  0  0  0  0  0  0  0  0  0
    1.7735   12.5251   38.1617 C   0  0  2  0  0  0  0  0  0  0  0  0
    2.4959   11.2993   38.0303 O   0  0  0  0  0  0  0  0  0  0  0  0
    1.1495   12.5748   39.5476 C   0  0  0  0  0  0  0  0  0  0  0  0
   -5.4308   12.5378   39.0047 C   0  0  2  0  0  0  0  0  0  0  0  0
   -6.2384   12.3323   40.2096 N   0  0  0  0  0  0  0  0  0  0  0  0
   -4.4707   11.3226   38.8809 C   0  0  0  0  0  0  0  0  0  0  0  0
   -3.6217   11.5103   37.5944 C   0  0  2  0  0  0  0  0  0  0  0  0
   -2.6987   10.3759   37.4333 N   0  0  0  0  0  0  0  0  0  0  0  0
   -2.8037   12.8281   37.6561 C   0  0  2  0  0  0  0  0  0  0  0  0
   -3.7859   14.0297   37.8265 C   0  0  2  0  0  0  0  0  0  0  0  0
   -3.0284   15.2455   37.8949 O   0  0  0  0  0  0  0  0  0  0  0  0
   -4.6074   13.8882   39.1310 C   0  0  1  0  0  0  0  0  0  0  0  0
   -5.4963   15.0300   39.2075 O   0  0  0  0  0  0  0  0  0  0  0  0
   -6.2231   15.1880   40.4486 C   0  0  2  0  0  0  0  0  0  0  0  0
   -7.0897   16.4917   40.2856 C   0  0  2  0  0  0  0  0  0  0  0  0
   -7.9929   16.3376   39.2021 O   0  0  0  0  0  0  0  0  0  0  0  0
   -6.1297   17.7187   40.0497 C   0  0  1  0  0  0  0  0  0  0  0  0
   -6.9123   18.9807   39.8788 N   0  0  0  0  0  0  0  0  0  0  0  0
   -6.9013   19.3609   38.4499 C   0  0  0  0  0  0  0  0  0  0  0  0
   -5.1708   17.8386   41.2730 C   0  0  2  0  0  0  0  0  0  0  0  0
   -5.9518   18.0593   42.4465 O   0  0  0  0  0  0  0  0  0  0  0  0
   -4.1974   19.0044   41.1183 C   0  0  0  0  0  0  0  0  0  0  0  0
   -4.3699   16.5062   41.4285 C   0  0  0  0  0  0  0  0  0  0  0  0
   -5.2842   15.3543   41.5763 O   0  0  0  0  0  0  0  0  0  0  0  0
  1  3  1  0  0  0  0
  1  2  1  6  0  0  0
  3  5  1  0  0  0  0
  3  4  1  6  0  0  0
  5  6  1  6  0  0  0
  7  8  1  6  0  0  0
  7  5  1  0  0  0  0
  9 10  1  1  0  0  0
  9  7  1  0  0  0  0
 10  1  1  0  0  0  0
 11 13  1  1  0  0  0
 11  9  1  0  0  0  0
 12 11  1  0  0  0  0
 14 15  1  1  0  0  0
 16 14  1  0  0  0  0
 17 18  1  1  0  0  0
 17 16  1  0  0  0  0
 19  2  1  6  0  0  0
 19 20  1  0  0  0  0
 19 17  1  0  0  0  0
 20 21  1  1  0  0  0
 20 22  1  0  0  0  0
 22 23  1  6  0  0  0
 22 14  1  0  0  0  0
 24 23  1  6  0  0  0
 24 25  1  0  0  0  0
 25 27  1  0  0  0  0
 25 26  1  6  0  0  0
 27 28  1  1  0  0  0
 28 29  1  0  0  0  0
 30 31  1  1  0  0  0
 30 32  1  0  0  0  0
 30 27  1  0  0  0  0
 33 30  1  0  0  0  0
 34 33  1  0  0  0  0
 34 24  1  0  0  0  0
M  END
>  <CHROM.1>
-173.81646969,-61.04859791,-176.01857530,72.23099536,179.27876923,-105.36699099
-3.02077538,14.34759008,38.27181482,-0.46614304,0.62588404,-0.11188930

>  <Name>
lig.pdb

>  <RI>
0

>  <Rbt.Current_Directory>
/home/itssahil/PROJECTS/Mol_Feturizer/New_Systems/rnas/4k32

>  <Rbt.Executable>
rbdock ($Id: //depot/dev/client3/rdock/2013.1/src/exe/rbdock.cxx#4 $)

>  <Rbt.Library>
libRbt.so (2013.1, Build901 2013/11/27)

>  <Rbt.Parameter_File>
/export/apps/rDock/src/rDock_2013.1_src/data/scripts/dock_solv.prm

>  <Rbt.Receptor>
prm/pocket_docking_7.prm

>  <SCORE>
-6.11956

>  <SCORE.INTER>
2.18472

>  <SCORE.INTER.CONST>
1

>  <SCORE.INTER.POLAR>
0

>  <SCORE.INTER.ROT>
6

>  <SCORE.INTER.SOLV>
10.9248

>  <SCORE.INTER.VDW>
-9.78513

>  <SCORE.INTER.norm>
0.0642564

>  <SCORE.INTRA>
-8.30428

>  <SCORE.INTRA.DIHEDRAL>
-15.9299

>  <SCORE.INTRA.DIHEDRAL.0>
18.0069

>  <SCORE.INTRA.POLAR>
0

>  <SCORE.INTRA.POLAR.0>
0

>  <SCORE.INTRA.REPUL>
0

>  <SCORE.INTRA.REPUL.0>
0

>  <SCORE.INTRA.SOLV>
-1.80703

>  <SCORE.INTRA.SOLV.lig_0>
-70.7393

>  <SCORE.INTRA.VDW>
0.56417

>  <SCORE.INTRA.VDW.0>
-3.23471

>  <SCORE.INTRA.norm>
-0.244243

>  <SCORE.RESTR>
0

>  <SCORE.RESTR.CAVITY>
0

>  <SCORE.RESTR.norm>
0

>  <SCORE.SYSTEM>
0

>  <SCORE.SYSTEM.CONST>
0

>  <SCORE.SYSTEM.DIHEDRAL>
0

>  <SCORE.SYSTEM.SOLV>
0

>  <SCORE.SYSTEM.norm>
0

>  <SCORE.heavy>
34

>  <SCORE.norm>
-0.179987

>  <RMSD>
6.650

$$$$
lig.pdb
 OpenBabel11021811503D
libRbt.so/2013.1/901 2013/11/27
 34 36  0  0  0  0  0  0  0  0999 V2000
   -1.9511   20.0289   34.5549 C   0  0  2  0  0  0  0  0  0  0  0  0
   -1.2401   19.5038   35.6813 O   0  0  0  0  0  0  0  0  0  0  0  0
   -0.9009   20.3924   33.4208 C   0  0  2  0  0  0  0  0  0  0  0  0
   -0.1333   19.2045   32.9798 N   0  0  0  0  0  0  0  0  0  0  0  0
    0.0678   21.4818   33.9460 C   0  0  1  0  0  0  0  0  0  0  0  0
    1.0176   21.8276   32.9351 O   0  0  0  0  0  0  0  0  0  0  0  0
   -0.7593   22.7053   34.3792 C   0  0  2  0  0  0  0  0  0  0  0  0
    0.1226   23.7198   34.8624 O   0  0  0  0  0  0  0  0  0  0  0  0
   -1.7927   22.2810   35.4921 C   0  0  2  0  0  0  0  0  0  0  0  0
   -2.6904   21.2167   34.9947 O   0  0  0  0  0  0  0  0  0  0  0  0
   -2.6617   23.4789   35.9492 C   0  0  2  0  0  0  0  0  0  0  0  0
   -3.5375   23.0683   37.0010 O   0  0  0  0  0  0  0  0  0  0  0  0
   -3.5009   24.0188   34.8016 C   0  0  0  0  0  0  0  0  0  0  0  0
    0.3304   15.5364   36.0133 C   0  0  2  0  0  0  0  0  0  0  0  0
    1.0908   14.3166   35.7304 N   0  0  0  0  0  0  0  0  0  0  0  0
   -0.4516   15.9017   34.7214 C   0  0  0  0  0  0  0  0  0  0  0  0
   -1.2840   17.1805   35.0092 C   0  0  2  0  0  0  0  0  0  0  0  0
   -2.0479   17.5613   33.8107 N   0  0  0  0  0  0  0  0  0  0  0  0
   -0.3643   18.3603   35.4236 C   0  0  2  0  0  0  0  0  0  0  0  0
    0.4443   17.9533   36.6957 C   0  0  2  0  0  0  0  0  0  0  0  0
    1.3019   19.0396   37.0709 O   0  0  0  0  0  0  0  0  0  0  0  0
    1.3212   16.7088   36.4153 C   0  0  1  0  0  0  0  0  0  0  0  0
    2.0258   16.3919   37.6413 O   0  0  0  0  0  0  0  0  0  0  0  0
    1.2041   16.2125   38.8187 C   0  0  2  0  0  0  0  0  0  0  0  0
    2.1979   15.9441   40.0094 C   0  0  2  0  0  0  0  0  0  0  0  0
    3.0616   17.0574   40.1765 O   0  0  0  0  0  0  0  0  0  0  0  0
    3.0188   14.6339   39.7059 C   0  0  1  0  0  0  0  0  0  0  0  0
    3.9855   14.3449   40.8088 N   0  0  0  0  0  0  0  0  0  0  0  0
    5.1766   15.2045   40.6386 C   0  0  0  0  0  0  0  0  0  0  0  0
    2.0177   13.4502   39.5406 C   0  0  2  0  0  0  0  0  0  0  0  0
    1.2928   13.2908   40.7591 O   0  0  0  0  0  0  0  0  0  0  0  0
    2.7360   12.1385   39.2345 C   0  0  0  0  0  0  0  0  0  0  0  0
    1.0195   13.7815   38.3852 C   0  0  0  0  0  0  0  0  0  0  0  0
    0.3089   15.0505   38.6483 O   0  0  0  0  0  0  0  0  0  0  0  0
  1  3  1  0  0  0  0
  1  2  1  1  0  0  0
  3  5  1  0  0  0  0
  3  4  1  1  0  0  0
  5  6  1  6  0  0  0
  7  8  1  1  0  0  0
  7  5  1  0  0  0  0
  9 10  1  6  0  0  0
  9  7  1  0  0  0  0
 10  1  1  0  0  0  0
 11 13  1  6  0  0  0
 11  9  1  0  0  0  0
 12 11  1  0  0  0  0
 14 15  1  6  0  0  0
 16 14  1  0  0  0  0
 17 18  1  6  0  0  0
 17 16  1  0  0  0  0
 19  2  1  1  0  0  0
 19 20  1  0  0  0  0
 19 17  1  0  0  0  0
 20 21  1  6  0  0  0
 20 22  1  0  0  0  0
 22 23  1  1  0  0  0
 22 14  1  0  0  0  0
 24 23  1  6  0  0  0
 24 25  1  0  0  0  0
 25 27  1  0  0  0  0
 25 26  1  6  0  0  0
 27 28  1  1  0  0  0
 28 29  1  0  0  0  0
 30 31  1  1  0  0  0
 30 32  1  0  0  0  0
 30 27  1  0  0  0  0
 33 30  1  0  0  0  0
 34 33  1  0  0  0  0
 34 24  1  0  0  0  0
M  END
>  <CHROM.1>
-55.23960587,-177.19696890,-65.70297292,-61.79313252,-177.59257538,-79.79277691
0.31229884,18.06114783,36.68094998,2.49150512,-1.02642991,0.28973327

>  <Name>
lig.pdb

>  <RI>
0

>  <Rbt.Current_Directory>
/home/itssahil/PROJECTS/Mol_Feturizer/New_Systems/rnas/4k32

>  <Rbt.Executable>
rbdock ($Id: //depot/dev/client3/rdock/2013.1/src/exe/rbdock.cxx#4 $)

>  <Rbt.Library>
libRbt.so (2013.1, Build901 2013/11/27)

>  <Rbt.Parameter_File>
/export/apps/rDock/src/rDock_2013.1_src/data/scripts/dock_solv.prm

>  <Rbt.Receptor>
prm/blind_docking_100.prm

>  <SCORE>
13.5584

>  <SCORE.INTER>
-0.032931

>  <SCORE.INTER.CONST>
1

>  <SCORE.INTER.POLAR>
0

>  <SCORE.INTER.ROT>
6

>  <SCORE.INTER.SOLV>
29.9667

>  <SCORE.INTER.VDW>
-17.6109

>  <SCORE.INTER.norm>
-0.000968558

>  <SCORE.INTRA>
2.27198

>  <SCORE.INTRA.DIHEDRAL>
-17.2939

>  <SCORE.INTRA.DIHEDRAL.0>
18.0069

>  <SCORE.INTRA.POLAR>
0

>  <SCORE.INTRA.POLAR.0>
0

>  <SCORE.INTRA.REPUL>
0

>  <SCORE.INTRA.REPUL.0>
0

>  <SCORE.INTRA.SOLV>
6.02081

>  <SCORE.INTRA.SOLV.lig_0>
-70.7393

>  <SCORE.INTRA.VDW>
7.90851

>  <SCORE.INTRA.VDW.0>
-3.23471

>  <SCORE.INTRA.norm>
0.0668229

>  <SCORE.RESTR>
11.3193

>  <SCORE.RESTR.CAVITY>
11.3193

>  <SCORE.RESTR.norm>
0.332921

>  <SCORE.SYSTEM>
0

>  <SCORE.SYSTEM.CONST>
0

>  <SCORE.SYSTEM.DIHEDRAL>
0

>  <SCORE.SYSTEM.SOLV>
0

>  <SCORE.SYSTEM.norm>
0

>  <SCORE.heavy>
34

>  <SCORE.norm>
0.398776

>  <RMSD>
6.689

$$$$
lig.pdb
 OpenBabel11021811503D
libRbt.so/2013.1/901 2013/11/27
 34 36  0  0  0  0  0  0  0  0999 V2000
   -3.1937   17.8326   40.2454 C   0  0  2  0  0  0  0  0  0  0  0  0
   -3.6691   16.5082   40.5102 O   0  0  0  0  0  0  0  0  0  0  0  0
   -4.3584   18.8610   40.5727 C   0  0  2  0  0  0  0  0  0  0  0  0
   -4.7759   18.7866   41.9922 N   0  0  0  0  0  0  0  0  0  0  0  0
   -5.5706   18.5769   39.6503 C   0  0  1  0  0  0  0  0  0  0  0  0
   -6.6280   19.4985   39.9258 O   0  0  0  0  0  0  0  0  0  0  0  0
   -5.1066   18.6784   38.1864 C   0  0  2  0  0  0  0  0  0  0  0  0
   -6.2164   18.4222   37.3243 O   0  0  0  0  0  0  0  0  0  0  0  0
   -3.9417   17.6481   37.9255 C   0  0  2  0  0  0  0  0  0  0  0  0
   -2.8033   17.9040   38.8335 O   0  0  0  0  0  0  0  0  0  0  0  0
   -3.4292   17.7250   36.4659 C   0  0  2  0  0  0  0  0  0  0  0  0
   -2.5124   16.6574   36.2178 O   0  0  0  0  0  0  0  0  0  0  0  0
   -2.7211   19.0445   36.2008 C   0  0  0  0  0  0  0  0  0  0  0  0
    0.2293   14.7932   40.9318 C   0  0  2  0  0  0  0  0  0  0  0  0
    1.3055   13.8607   41.2760 N   0  0  0  0  0  0  0  0  0  0  0  0
   -0.6004   15.0357   42.2228 C   0  0  0  0  0  0  0  0  0  0  0  0
   -1.7333   16.0420   41.8838 C   0  0  2  0  0  0  0  0  0  0  0  0
   -2.5440   16.3064   43.0828 N   0  0  0  0  0  0  0  0  0  0  0  0
   -2.6503   15.4882   40.7604 C   0  0  2  0  0  0  0  0  0  0  0  0
   -1.7872   15.2092   39.4896 C   0  0  2  0  0  0  0  0  0  0  0  0
   -2.6334   14.6869   38.4563 O   0  0  0  0  0  0  0  0  0  0  0  0
   -0.6818   14.1688   39.7927 C   0  0  1  0  0  0  0  0  0  0  0  0
    0.0760   13.9761   38.5727 O   0  0  0  0  0  0  0  0  0  0  0  0
    1.1720   13.0343   38.6470 C   0  0  2  0  0  0  0  0  0  0  0  0
    1.6897   12.8478   37.1723 C   0  0  2  0  0  0  0  0  0  0  0  0
    2.1424   14.0909   36.6597 O   0  0  0  0  0  0  0  0  0  0  0  0
    0.5219   12.2651   36.2894 C   0  0  1  0  0  0  0  0  0  0  0  0
    0.9666   12.0806   34.8744 N   0  0  0  0  0  0  0  0  0  0  0  0
    0.1791   12.9800   34.0041 C   0  0  0  0  0  0  0  0  0  0  0  0
    0.0752   10.9010   36.8979 C   0  0  2  0  0  0  0  0  0  0  0  0
    1.1855   10.0052   36.8767 O   0  0  0  0  0  0  0  0  0  0  0  0
   -1.0648   10.2711   36.1017 C   0  0  0  0  0  0  0  0  0  0  0  0
   -0.3803   11.1241   38.3757 C   0  0  0  0  0  0  0  0  0  0  0  0
    0.7008   11.7382   39.1750 O   0  0  0  0  0  0  0  0  0  0  0  0
  1  3  1  0  0  0  0
  1  2  1  6  0  0  0
  3  5  1  0  0  0  0
  3  4  1  1  0  0  0
  5  6  1  6  0  0  0
  7  8  1  6  0  0  0
  7  5  1  0  0  0  0
  9 10  1  1  0  0  0
  9  7  1  0  0  0  0
 10  1  1  0  0  0  0
 11 13  1  1  0  0  0
 11  9  1  0  0  0  0
 12 11  1  0  0  0  0
 14 15  1  1  0  0  0
 16 14  1  0  0  0  0
 17 18  1  1  0  0  0
 17 16  1  0  0  0  0
 19  2  1  6  0  0  0
 19 20  1  0  0  0  0
 19 17  1  0  0  0  0
 20 21  1  6  0  0  0
 20 22  1  0  0  0  0
 22 23  1  6  0  0  0
 22 14  1  0  0  0  0
 24 23  1  6  0  0  0
 24 25  1  0  0  0  0
 25 27  1  0  0  0  0
 25 26  1  6  0  0  0
 27 28  1  6  0  0  0
 28 29  1  0  0  0  0
 30 31  1  6  0  0  0
 30 32  1  0  0  0  0
 30 27  1  0  0  0  0
 33 30  1  0  0  0  0
 34 33  1  0  0  0  0
 34 24  1  0  0  0  0
M  END
>  <CHROM.1>
-157.70642350,-171.92791357,52.70287672,63.66546600,171.95070814,-115.77065005
-1.73534136,15.20269008,38.64973558,-2.74728363,0.84834660,-1.70411105

>  <Name>
lig.pdb

>  <RI>
0

>  <Rbt.Current_Directory>
/home/itssahil/PROJECTS/Mol_Feturizer/New_Systems/rnas/4k32

>  <Rbt.Executable>
rbdock ($Id: //depot/dev/client3/rdock/2013.1/src/exe/rbdock.cxx#4 $)

>  <Rbt.Library>
libRbt.so (2013.1, Build901 2013/11/27)

>  <Rbt.Parameter_File>
/export/apps/rDock/src/rDock_2013.1_src/data/scripts/dock_solv.prm

>  <Rbt.Receptor>
prm/pocket_docking_7.prm

>  <SCORE>
-4.27819

>  <SCORE.INTER>
0.731304

>  <SCORE.INTER.CONST>
1

>  <SCORE.INTER.POLAR>
0

>  <SCORE.INTER.ROT>
6

>  <SCORE.INTER.SOLV>
10.1919

>  <SCORE.INTER.VDW>
-10.5098

>  <SCORE.INTER.norm>
0.0215089

>  <SCORE.INTRA>
-5.00949

>  <SCORE.INTRA.DIHEDRAL>
-13.6783

>  <SCORE.INTRA.DIHEDRAL.0>
18.0069

>  <SCORE.INTRA.POLAR>
0

>  <SCORE.INTRA.POLAR.0>
0

>  <SCORE.INTRA.REPUL>
0

>  <SCORE.INTRA.REPUL.0>
0

>  <SCORE.INTRA.SOLV>
1.15547

>  <SCORE.INTRA.SOLV.lig_0>
-70.7393

>  <SCORE.INTRA.VDW>
1.2519

>  <SCORE.INTRA.VDW.0>
-3.23471

>  <SCORE.INTRA.norm>
-0.147338

>  <SCORE.RESTR>
0

>  <SCORE.RESTR.CAVITY>
0

>  <SCORE.RESTR.norm>
0

>  <SCORE.SYSTEM>
0

>  <SCORE.SYSTEM.CONST>
0

>  <SCORE.SYSTEM.DIHEDRAL>
0

>  <SCORE.SYSTEM.SOLV>
0

>  <SCORE.SYSTEM.norm>
0

>  <SCORE.heavy>
34

>  <SCORE.norm>
-0.125829

>  <RMSD>
6.689

$$$$
lig.pdb
 OpenBabel11021811503D
libRbt.so/2013.1/901 2013/11/27
 34 36  0  0  0  0  0  0  0  0999 V2000
    2.6817   21.3904   33.4606 C   0  0  2  0  0  0  0  0  0  0  0  0
    1.3455   21.7250   33.8514 O   0  0  0  0  0  0  0  0  0  0  0  0
    3.6301   22.6158   33.8075 C   0  0  2  0  0  0  0  0  0  0  0  0
    3.6271   22.9213   35.2572 N   0  0  0  0  0  0  0  0  0  0  0  0
    3.1771   23.8612   33.0046 C   0  0  1  0  0  0  0  0  0  0  0  0
    4.0245   24.9742   33.2989 O   0  0  0  0  0  0  0  0  0  0  0  0
    3.2076   23.5152   31.5053 C   0  0  2  0  0  0  0  0  0  0  0  0
    2.7954   24.6570   30.7524 O   0  0  0  0  0  0  0  0  0  0  0  0
    2.2624   22.2847   31.2245 C   0  0  2  0  0  0  0  0  0  0  0  0
    2.6801   21.1111   32.0208 O   0  0  0  0  0  0  0  0  0  0  0  0
    2.2729   21.8880   29.7273 C   0  0  2  0  0  0  0  0  0  0  0  0
    3.6160   21.8716   29.2401 O   0  0  0  0  0  0  0  0  0  0  0  0
    1.4656   22.8701   28.8928 C   0  0  0  0  0  0  0  0  0  0  0  0
   -1.5912   19.2090   35.6850 C   0  0  2  0  0  0  0  0  0  0  0  0
   -2.6247   18.1867   35.8664 N   0  0  0  0  0  0  0  0  0  0  0  0
   -2.0472   20.1223   34.5138 C   0  0  0  0  0  0  0  0  0  0  0  0
   -0.9748   21.2287   34.3217 C   0  0  2  0  0  0  0  0  0  0  0  0
   -1.3693   22.1235   33.2223 N   0  0  0  0  0  0  0  0  0  0  0  0
    0.4118   20.6086   34.0015 C   0  0  2  0  0  0  0  0  0  0  0  0
    0.8277   19.6602   35.1700 C   0  0  2  0  0  0  0  0  0  0  0  0
    2.1034   19.0791   34.8678 O   0  0  0  0  0  0  0  0  0  0  0  0
   -0.2033   18.5189   35.3459 C   0  0  1  0  0  0  0  0  0  0  0  0
    0.2478   17.6959   36.4500 O   0  0  0  0  0  0  0  0  0  0  0  0
    1.2494   16.7008   36.1336 C   0  0  2  0  0  0  0  0  0  0  0  0
    0.4613   15.4033   35.7178 C   0  0  2  0  0  0  0  0  0  0  0  0
   -0.3430   15.6717   34.5801 O   0  0  0  0  0  0  0  0  0  0  0  0
   -0.4216   14.9287   36.9335 C   0  0  1  0  0  0  0  0  0  0  0  0
   -1.1978   13.7013   36.5796 N   0  0  0  0  0  0  0  0  0  0  0  0
   -2.5910   14.0887   36.2705 C   0  0  0  0  0  0  0  0  0  0  0  0
    0.5173   14.6439   38.1451 C   0  0  2  0  0  0  0  0  0  0  0  0
    1.4306   13.6094   37.7828 O   0  0  0  0  0  0  0  0  0  0  0  0
   -0.2650   14.1850   39.3731 C   0  0  0  0  0  0  0  0  0  0  0  0
    1.3166   15.9414   38.4896 C   0  0  0  0  0  0  0  0  0  0  0  0
    2.0834   16.4162   37.3186 O   0  0  0  0  0  0  0  0  0  0  0  0
  1  3  1  0  0  0  0
  1  2  1  6  0  0  0
  3  5  1  0  0  0  0
  3  4  1  1  0  0  0
  5  6  1  6  0  0  0
  7  8  1  6  0  0  0
  7  5  1  0  0  0  0
  9 10  1  1  0  0  0
  9  7  1  0  0  0  0
 10  1  1  0  0  0  0
 11 13  1  6  0  0  0
 11  9  1  0  0  0  0
 12 11  1  0  0  0  0
 14 15  1  6  0  0  0
 16 14  1  0  0  0  0
 17 18  1  6  0  0  0
 17 16  1  0  0  0  0
 19  2  1  1  0  0  0
 19 20  1  0  0  0  0
 19 17  1  0  0  0  0
 20 21  1  6  0  0  0
 20 22  1  0  0  0  0
 22 23  1  1  0  0  0
 22 14  1  0  0  0  0
 24 23  1  1  0  0  0
 24 25  1  0  0  0  0
 25 27  1  0  0  0  0
 25 26  1  6  0  0  0
 27 28  1  6  0  0  0
 28 29  1  0  0  0  0
 30 31  1  6  0  0  0
 30 32  1  0  0  0  0
 30 27  1  0  0  0  0
 33 30  1  0  0  0  0
 34 33  1  0  0  0  0
 34 24  1  0  0  0  0
M  END
>  <CHROM.1>
-161.71965270,45.00341800,-175.91152179,161.25049601,-89.25731567,-101.25752508
1.02197710,19.33176685,34.47615387,-1.26047446,0.39990678,2.40943207

>  <Name>
lig.pdb

>  <RI>
0

>  <Rbt.Current_Directory>
/home/itssahil/PROJECTS/Mol_Feturizer/New_Systems/rnas/4k32

>  <Rbt.Executable>
rbdock ($Id: //depot/dev/client3/rdock/2013.1/src/exe/rbdock.cxx#4 $)

>  <Rbt.Library>
libRbt.so (2013.1, Build901 2013/11/27)

>  <Rbt.Parameter_File>
/export/apps/rDock/src/rDock_2013.1_src/data/scripts/dock_solv.prm

>  <Rbt.Receptor>
prm/pocket_docking_8.prm

>  <SCORE>
-11.927

>  <SCORE.INTER>
-7.56529

>  <SCORE.INTER.CONST>
1

>  <SCORE.INTER.POLAR>
0

>  <SCORE.INTER.ROT>
6

>  <SCORE.INTER.SOLV>
14.9886

>  <SCORE.INTER.VDW>
-17.6397

>  <SCORE.INTER.norm>
-0.222509

>  <SCORE.INTRA>
-4.36173

>  <SCORE.INTRA.DIHEDRAL>
-9.59306

>  <SCORE.INTRA.DIHEDRAL.0>
18.0069

>  <SCORE.INTRA.POLAR>
0

>  <SCORE.INTRA.POLAR.0>
0

>  <SCORE.INTRA.REPUL>
0

>  <SCORE.INTRA.REPUL.0>
0

>  <SCORE.INTRA.SOLV>
-1.041

>  <SCORE.INTRA.SOLV.lig_0>
-70.7393

>  <SCORE.INTRA.VDW>
0.955298

>  <SCORE.INTRA.VDW.0>
-3.23471

>  <SCORE.INTRA.norm>
-0.128286

>  <SCORE.RESTR>
0

>  <SCORE.RESTR.CAVITY>
0

>  <SCORE.RESTR.norm>
0

>  <SCORE.SYSTEM>
0

>  <SCORE.SYSTEM.CONST>
0

>  <SCORE.SYSTEM.DIHEDRAL>
0

>  <SCORE.SYSTEM.SOLV>
0

>  <SCORE.SYSTEM.norm>
0

>  <SCORE.heavy>
34

>  <SCORE.norm>
-0.350795

>  <RMSD>
6.720

$$$$
lig.pdb
 OpenBabel11021811503D
libRbt.so/2013.1/901 2013/11/27
 34 36  0  0  0  0  0  0  0  0999 V2000
   -1.1938   12.6143   36.1766 C   0  0  2  0  0  0  0  0  0  0  0  0
   -2.3591   12.2715   35.4184 O   0  0  0  0  0  0  0  0  0  0  0  0
   -0.1394   13.2917   35.2015 C   0  0  2  0  0  0  0  0  0  0  0  0
   -0.6762   14.5254   34.5813 N   0  0  0  0  0  0  0  0  0  0  0  0
    0.2670   12.2807   34.0998 C   0  0  1  0  0  0  0  0  0  0  0  0
    1.2223   12.8710   33.2153 O   0  0  0  0  0  0  0  0  0  0  0  0
    0.8345   11.0204   34.7767 C   0  0  2  0  0  0  0  0  0  0  0  0
    1.2170   10.0805   33.7713 O   0  0  0  0  0  0  0  0  0  0  0  0
   -0.2482   10.4024   35.7421 C   0  0  2  0  0  0  0  0  0  0  0  0
   -0.6563   11.3849   36.7687 O   0  0  0  0  0  0  0  0  0  0  0  0
    0.2843    9.1378   36.4607 C   0  0  2  0  0  0  0  0  0  0  0  0
    1.6069    9.3772   36.9456 O   0  0  0  0  0  0  0  0  0  0  0  0
    0.3213    7.9447   35.5184 C   0  0  0  0  0  0  0  0  0  0  0  0
   -6.3670   11.5959   36.7588 C   0  0  2  0  0  0  0  0  0  0  0  0
   -7.5359   10.9656   37.3773 N   0  0  0  0  0  0  0  0  0  0  0  0
   -5.7399   10.5543   35.7915 C   0  0  0  0  0  0  0  0  0  0  0  0
   -4.5117   11.2129   35.1069 C   0  0  2  0  0  0  0  0  0  0  0  0
   -3.8874   10.2611   34.1746 N   0  0  0  0  0  0  0  0  0  0  0  0
   -3.4615   11.6583   36.1597 C   0  0  2  0  0  0  0  0  0  0  0  0
   -4.1268   12.6685   37.1469 C   0  0  2  0  0  0  0  0  0  0  0  0
   -3.1590   13.0705   38.1258 O   0  0  0  0  0  0  0  0  0  0  0  0
   -5.3242   12.0151   37.8788 C   0  0  1  0  0  0  0  0  0  0  0  0
   -5.8889   13.0158   38.7617 O   0  0  0  0  0  0  0  0  0  0  0  0
   -6.8951   12.5491   39.6908 C   0  0  2  0  0  0  0  0  0  0  0  0
   -7.3514   13.8115   40.5126 C   0  0  2  0  0  0  0  0  0  0  0  0
   -7.9021   14.7831   39.6374 O   0  0  0  0  0  0  0  0  0  0  0  0
   -6.1104   14.3920   41.2908 C   0  0  1  0  0  0  0  0  0  0  0  0
   -6.4960   15.6018   42.0795 N   0  0  0  0  0  0  0  0  0  0  0  0
   -5.8878   16.7953   41.4531 C   0  0  0  0  0  0  0  0  0  0  0  0
   -5.5574   13.2834   42.2373 C   0  0  2  0  0  0  0  0  0  0  0  0
   -6.5794   12.9225   43.1650 O   0  0  0  0  0  0  0  0  0  0  0  0
   -4.3421   13.7652   43.0255 C   0  0  0  0  0  0  0  0  0  0  0  0
   -5.1664   12.0324   41.3869 C   0  0  0  0  0  0  0  0  0  0  0  0
   -6.3217   11.5421   40.6062 O   0  0  0  0  0  0  0  0  0  0  0  0
  1  3  1  0  0  0  0
  1  2  1  6  0  0  0
  3  5  1  0  0  0  0
  3  4  1  6  0  0  0
  5  6  1  6  0  0  0
  7  8  1  6  0  0  0
  7  5  1  0  0  0  0
  9 10  1  1  0  0  0
  9  7  1  0  0  0  0
 10  1  1  0  0  0  0
 11 13  1  6  0  0  0
 11  9  1  0  0  0  0
 12 11  1  0  0  0  0
 14 15  1  1  0  0  0
 16 14  1  0  0  0  0
 17 18  1  6  0  0  0
 17 16  1  0  0  0  0
 19  2  1  6  0  0  0
 19 20  1  0  0  0  0
 19 17  1  0  0  0  0
 20 21  1  1  0  0  0
 20 22  1  0  0  0  0
 22 23  1  1  0  0  0
 22 14  1  0  0  0  0
 24 23  1  6  0  0  0
 24 25  1  0  0  0  0
 25 27  1  0  0  0  0
 25 26  1  6  0  0  0
 27 28  1  1  0  0  0
 28 29  1  0  0  0  0
 30 31  1  1  0  0  0
 30 32  1  0  0  0  0
 30 27  1  0  0  0  0
 33 30  1  0  0  0  0
 34 33  1  0  0  0  0
 34 24  1  0  0  0  0
M  END
>  <CHROM.1>
-178.68381141,45.04173290,-172.65950928,72.98256820,-179.44799429,-109.62241524
-3.44929171,12.22713878,37.69374273,-0.79719904,0.11166838,1.03864420

>  <Name>
lig.pdb

>  <RI>
0

>  <Rbt.Current_Directory>
/home/itssahil/PROJECTS/Mol_Feturizer/New_Systems/rnas/4k32

>  <Rbt.Executable>
rbdock ($Id: //depot/dev/client3/rdock/2013.1/src/exe/rbdock.cxx#4 $)

>  <Rbt.Library>
libRbt.so (2013.1, Build901 2013/11/27)

>  <Rbt.Parameter_File>
/export/apps/rDock/src/rDock_2013.1_src/data/scripts/dock_solv.prm

>  <Rbt.Receptor>
prm/pocket_docking_8.prm

>  <SCORE>
-5.86517

>  <SCORE.INTER>
1.73134

>  <SCORE.INTER.CONST>
1

>  <SCORE.INTER.POLAR>
0

>  <SCORE.INTER.ROT>
6

>  <SCORE.INTER.SOLV>
17.2237

>  <SCORE.INTER.VDW>
-12.187

>  <SCORE.INTER.norm>
0.0509217

>  <SCORE.INTRA>
-7.59651

>  <SCORE.INTRA.DIHEDRAL>
-14.996

>  <SCORE.INTRA.DIHEDRAL.0>
18.0069

>  <SCORE.INTRA.POLAR>
0

>  <SCORE.INTRA.POLAR.0>
0

>  <SCORE.INTRA.REPUL>
0

>  <SCORE.INTRA.REPUL.0>
0

>  <SCORE.INTRA.SOLV>
-1.59551

>  <SCORE.INTRA.SOLV.lig_0>
-70.7393

>  <SCORE.INTRA.VDW>
0.699236

>  <SCORE.INTRA.VDW.0>
-3.23471

>  <SCORE.INTRA.norm>
-0.223427

>  <SCORE.RESTR>
0

>  <SCORE.RESTR.CAVITY>
0

>  <SCORE.RESTR.norm>
0

>  <SCORE.SYSTEM>
0

>  <SCORE.SYSTEM.CONST>
0

>  <SCORE.SYSTEM.DIHEDRAL>
0

>  <SCORE.SYSTEM.SOLV>
0

>  <SCORE.SYSTEM.norm>
0

>  <SCORE.heavy>
34

>  <SCORE.norm>
-0.172505

>  <RMSD>
6.757

$$$$
lig.pdb
 OpenBabel11021811503D
libRbt.so/2013.1/901 2013/11/27
 34 36  0  0  0  0  0  0  0  0999 V2000
   -1.5993   13.1398   34.5129 C   0  0  2  0  0  0  0  0  0  0  0  0
   -2.5184   12.0974   34.8576 O   0  0  0  0  0  0  0  0  0  0  0  0
   -1.4711   13.1961   32.9312 C   0  0  2  0  0  0  0  0  0  0  0  0
   -2.7720   13.4833   32.2831 N   0  0  0  0  0  0  0  0  0  0  0  0
   -0.9086   11.8489   32.4118 C   0  0  1  0  0  0  0  0  0  0  0  0
   -0.7794   11.8830   30.9886 O   0  0  0  0  0  0  0  0  0  0  0  0
    0.4479   11.5899   33.0912 C   0  0  2  0  0  0  0  0  0  0  0  0
    0.9800   10.3516   32.6180 O   0  0  0  0  0  0  0  0  0  0  0  0
    0.2612   11.5607   34.6566 C   0  0  2  0  0  0  0  0  0  0  0  0
   -0.3087   12.8365   35.1399 O   0  0  0  0  0  0  0  0  0  0  0  0
    1.6057   11.3187   35.3865 C   0  0  2  0  0  0  0  0  0  0  0  0
    1.3886   11.2701   36.7979 O   0  0  0  0  0  0  0  0  0  0  0  0
    2.6015   12.4282   35.0864 C   0  0  0  0  0  0  0  0  0  0  0  0
   -5.1080   11.7089   38.2428 C   0  0  2  0  0  0  0  0  0  0  0  0
   -5.5755   11.5124   39.6172 N   0  0  0  0  0  0  0  0  0  0  0  0
   -4.1832   10.5098   37.8950 C   0  0  0  0  0  0  0  0  0  0  0  0
   -3.6960   10.6876   36.4314 C   0  0  2  0  0  0  0  0  0  0  0  0
   -2.8186    9.5678   36.0559 N   0  0  0  0  0  0  0  0  0  0  0  0
   -2.9206   12.0216   36.2624 C   0  0  2  0  0  0  0  0  0  0  0  0
   -3.8544   13.2077   36.6611 C   0  0  2  0  0  0  0  0  0  0  0  0
   -3.1333   14.4387   36.5155 O   0  0  0  0  0  0  0  0  0  0  0  0
   -4.3115   13.0769   38.1343 C   0  0  1  0  0  0  0  0  0  0  0  0
   -5.1778   14.2030   38.4192 O   0  0  0  0  0  0  0  0  0  0  0  0
   -5.6308   14.3265   39.7879 C   0  0  2  0  0  0  0  0  0  0  0  0
   -6.5668   15.5913   39.8268 C   0  0  2  0  0  0  0  0  0  0  0  0
   -7.6719   15.4000   38.9576 O   0  0  0  0  0  0  0  0  0  0  0  0
   -5.7316   16.8596   39.4067 C   0  0  1  0  0  0  0  0  0  0  0  0
   -6.5854   18.0865   39.4197 N   0  0  0  0  0  0  0  0  0  0  0  0
   -6.5021   18.7415   38.0967 C   0  0  0  0  0  0  0  0  0  0  0  0
   -4.5409   17.0190   40.4004 C   0  0  2  0  0  0  0  0  0  0  0  0
   -5.0638   17.2029   41.7151 O   0  0  0  0  0  0  0  0  0  0  0  0
   -3.6728   18.2267   40.0561 C   0  0  0  0  0  0  0  0  0  0  0  0
   -3.6695   15.7226   40.3676 C   0  0  0  0  0  0  0  0  0  0  0  0
   -4.4819   14.5315   40.6928 O   0  0  0  0  0  0  0  0  0  0  0  0
  1  3  1  0  0  0  0
  1  2  1  6  0  0  0
  3  5  1  0  0  0  0
  3  4  1  6  0  0  0
  5  6  1  6  0  0  0
  7  8  1  6  0  0  0
  7  5  1  0  0  0  0
  9 10  1  1  0  0  0
  9  7  1  0  0  0  0
 10  1  1  0  0  0  0
 11 13  1  1  0  0  0
 11  9  1  0  0  0  0
 12 11  1  0  0  0  0
 14 15  1  1  0  0  0
 16 14  1  0  0  0  0
 17 18  1  1  0  0  0
 17 16  1  0  0  0  0
 19  2  1  6  0  0  0
 19 20  1  0  0  0  0
 19 17  1  0  0  0  0
 20 21  1  1  0  0  0
 20 22  1  0  0  0  0
 22 23  1  6  0  0  0
 22 14  1  0  0  0  0
 24 23  1  6  0  0  0
 24 25  1  0  0  0  0
 25 27  1  0  0  0  0
 25 26  1  6  0  0  0
 27 28  1  1  0  0  0
 28 29  1  0  0  0  0
 30 31  1  1  0  0  0
 30 32  1  0  0  0  0
 30 27  1  0  0  0  0
 33 30  1  0  0  0  0
 34 33  1  0  0  0  0
 34 24  1  0  0  0  0
M  END
>  <CHROM.1>
-171.17538258,-178.73492730,-170.06578724,68.69710278,-178.84299487,-125.21221858
-3.03954081,13.53797715,36.87437006,-0.49452292,0.84242791,-0.02761680

>  <Name>
lig.pdb

>  <RI>
0

>  <Rbt.Current_Directory>
/home/itssahil/PROJECTS/Mol_Feturizer/New_Systems/rnas/4k32

>  <Rbt.Executable>
rbdock ($Id: //depot/dev/client3/rdock/2013.1/src/exe/rbdock.cxx#4 $)

>  <Rbt.Library>
libRbt.so (2013.1, Build901 2013/11/27)

>  <Rbt.Parameter_File>
/export/apps/rDock/src/rDock_2013.1_src/data/scripts/dock_solv.prm

>  <Rbt.Receptor>
prm/pocket_docking_7.prm

>  <SCORE>
-7.31008

>  <SCORE.INTER>
0.30945

>  <SCORE.INTER.CONST>
1

>  <SCORE.INTER.POLAR>
0

>  <SCORE.INTER.ROT>
6

>  <SCORE.INTER.SOLV>
10.0011

>  <SCORE.INTER.VDW>
-10.7274

>  <SCORE.INTER.norm>
0.00910146

>  <SCORE.INTRA>
-7.62839

>  <SCORE.INTRA.DIHEDRAL>
-15.5288

>  <SCORE.INTRA.DIHEDRAL.0>
18.0069

>  <SCORE.INTRA.POLAR>
0

>  <SCORE.INTRA.POLAR.0>
0

>  <SCORE.INTRA.REPUL>
0

>  <SCORE.INTRA.REPUL.0>
0

>  <SCORE.INTRA.SOLV>
-1.79231

>  <SCORE.INTRA.SOLV.lig_0>
-70.7393

>  <SCORE.INTRA.VDW>
1.03214

>  <SCORE.INTRA.VDW.0>
-3.23471

>  <SCORE.INTRA.norm>
-0.224364

>  <SCORE.RESTR>
0.00885704

>  <SCORE.RESTR.CAVITY>
0.00885704

>  <SCORE.RESTR.norm>
0.000260501

>  <SCORE.SYSTEM>
0

>  <SCORE.SYSTEM.CONST>
0

>  <SCORE.SYSTEM.DIHEDRAL>
0

>  <SCORE.SYSTEM.SOLV>
0

>  <SCORE.SYSTEM.norm>
0

>  <SCORE.heavy>
34

>  <SCORE.norm>
-0.215002

>  <RMSD>
6.777

$$$$
lig.pdb
 OpenBabel11021811503D
libRbt.so/2013.1/901 2013/11/27
 34 36  0  0  0  0  0  0  0  0999 V2000
   -1.6232   19.7598   33.8819 C   0  0  2  0  0  0  0  0  0  0  0  0
   -0.3133   19.5656   34.4267 O   0  0  0  0  0  0  0  0  0  0  0  0
   -1.8777   21.3192   33.7251 C   0  0  2  0  0  0  0  0  0  0  0  0
   -0.8924   21.9493   32.8156 N   0  0  0  0  0  0  0  0  0  0  0  0
   -1.8165   21.9938   35.1187 C   0  0  1  0  0  0  0  0  0  0  0  0
   -2.0505   23.3989   34.9984 O   0  0  0  0  0  0  0  0  0  0  0  0
   -2.8617   21.3282   36.0315 C   0  0  2  0  0  0  0  0  0  0  0  0
   -2.8186   21.9438   37.3197 O   0  0  0  0  0  0  0  0  0  0  0  0
   -2.5682   19.7825   36.1362 C   0  0  2  0  0  0  0  0  0  0  0  0
   -2.5937   19.1528   34.7988 O   0  0  0  0  0  0  0  0  0  0  0  0
   -3.6067   19.0648   37.0338 C   0  0  2  0  0  0  0  0  0  0  0  0
   -3.4567   19.4960   38.3878 O   0  0  0  0  0  0  0  0  0  0  0  0
   -3.4279   17.5555   36.9824 C   0  0  0  0  0  0  0  0  0  0  0  0
   -0.5759   15.6291   36.0854 C   0  0  2  0  0  0  0  0  0  0  0  0
   -0.3188   14.2089   36.3366 N   0  0  0  0  0  0  0  0  0  0  0  0
   -0.8152   15.7908   34.5588 C   0  0  0  0  0  0  0  0  0  0  0  0
   -1.1140   17.2880   34.2754 C   0  0  2  0  0  0  0  0  0  0  0  0
   -1.3534   17.4877   32.8375 N   0  0  0  0  0  0  0  0  0  0  0  0
    0.0704   18.1854   34.7244 C   0  0  2  0  0  0  0  0  0  0  0  0
    0.3214   17.9715   36.2505 C   0  0  2  0  0  0  0  0  0  0  0  0
    1.4231   18.7924   36.6617 O   0  0  0  0  0  0  0  0  0  0  0  0
    0.6714   16.4934   36.5487 C   0  0  1  0  0  0  0  0  0  0  0  0
    0.8771   16.3784   37.9785 O   0  0  0  0  0  0  0  0  0  0  0  0
    2.2514   16.2622   38.4160 C   0  0  2  0  0  0  0  0  0  0  0  0
    2.7817   14.8985   37.8360 C   0  0  2  0  0  0  0  0  0  0  0  0
    2.7160   14.9195   36.4187 O   0  0  0  0  0  0  0  0  0  0  0  0
    1.9155   13.7207   38.4235 C   0  0  1  0  0  0  0  0  0  0  0  0
    2.3784   12.4032   37.8903 N   0  0  0  0  0  0  0  0  0  0  0  0
    1.7765   12.1884   36.5568 C   0  0  0  0  0  0  0  0  0  0  0  0
    2.0345   13.7469   39.9777 C   0  0  2  0  0  0  0  0  0  0  0  0
    3.4031   13.5603   40.3348 O   0  0  0  0  0  0  0  0  0  0  0  0
    1.2131   12.6366   40.6281 C   0  0  0  0  0  0  0  0  0  0  0  0
    1.5475   15.1346   40.5052 C   0  0  0  0  0  0  0  0  0  0  0  0
    2.3206   16.2344   39.8908 O   0  0  0  0  0  0  0  0  0  0  0  0
  1  3  1  0  0  0  0
  1  2  1  1  0  0  0
  3  5  1  0  0  0  0
  3  4  1  6  0  0  0
  5  6  1  6  0  0  0
  7  8  1  1  0  0  0
  7  5  1  0  0  0  0
  9 10  1  6  0  0  0
  9  7  1  0  0  0  0
 10  1  1  0  0  0  0
 11 13  1  1  0  0  0
 11  9  1  0  0  0  0
 12 11  1  0  0  0  0
 14 15  1  6  0  0  0
 16 14  1  0  0  0  0
 17 18  1  6  0  0  0
 17 16  1  0  0  0  0
 19  2  1  1  0  0  0
 19 20  1  0  0  0  0
 19 17  1  0  0  0  0
 20 21  1  6  0  0  0
 20 22  1  0  0  0  0
 22 23  1  1  0  0  0
 22 14  1  0  0  0  0
 24 23  1  1  0  0  0
 24 25  1  0  0  0  0
 25 27  1  0  0  0  0
 25 26  1  6  0  0  0
 27 28  1  6  0  0  0
 28 29  1  0  0  0  0
 30 31  1  1  0  0  0
 30 32  1  0  0  0  0
 30 27  1  0  0  0  0
 33 30  1  0  0  0  0
 34 33  1  0  0  0  0
 34 24  1  0  0  0  0
M  END
>  <CHROM.1>
176.20582003,-67.26874236,2.43711669,139.12491011,-64.66168939,-82.27026516
-0.17984100,17.37296679,36.64444993,-2.74854173,-1.03712849,1.52768868

>  <Name>
lig.pdb

>  <RI>
0

>  <Rbt.Current_Directory>
/home/itssahil/PROJECTS/Mol_Feturizer/New_Systems/rnas/4k32

>  <Rbt.Executable>
rbdock ($Id: //depot/dev/client3/rdock/2013.1/src/exe/rbdock.cxx#4 $)

>  <Rbt.Library>
libRbt.so (2013.1, Build901 2013/11/27)

>  <Rbt.Parameter_File>
/export/apps/rDock/src/rDock_2013.1_src/data/scripts/dock_solv.prm

>  <Rbt.Receptor>
prm/blind_docking_100.prm

>  <SCORE>
23.4964

>  <SCORE.INTER>
5.8585

>  <SCORE.INTER.CONST>
1

>  <SCORE.INTER.POLAR>
0

>  <SCORE.INTER.ROT>
6

>  <SCORE.INTER.SOLV>
29.4435

>  <SCORE.INTER.VDW>
-13.5088

>  <SCORE.INTER.norm>
0.172309

>  <SCORE.INTRA>
10.6046

>  <SCORE.INTRA.DIHEDRAL>
-4.58311

>  <SCORE.INTRA.DIHEDRAL.0>
18.0069

>  <SCORE.INTRA.POLAR>
0

>  <SCORE.INTRA.POLAR.0>
0

>  <SCORE.INTRA.REPUL>
0

>  <SCORE.INTRA.REPUL.0>
0

>  <SCORE.INTRA.SOLV>
3.89978

>  <SCORE.INTRA.SOLV.lig_0>
-70.7393

>  <SCORE.INTRA.VDW>
10.9463

>  <SCORE.INTRA.VDW.0>
-3.23471

>  <SCORE.INTRA.norm>
0.3119

>  <SCORE.RESTR>
7.0333

>  <SCORE.RESTR.CAVITY>
7.0333

>  <SCORE.RESTR.norm>
0.206862

>  <SCORE.SYSTEM>
0

>  <SCORE.SYSTEM.CONST>
0

>  <SCORE.SYSTEM.DIHEDRAL>
0

>  <SCORE.SYSTEM.SOLV>
0

>  <SCORE.SYSTEM.norm>
0

>  <SCORE.heavy>
34

>  <SCORE.norm>
0.691071

>  <RMSD>
6.797

$$$$
lig.pdb
 OpenBabel11021811503D
libRbt.so/2013.1/901 2013/11/27
 34 36  0  0  0  0  0  0  0  0999 V2000
   -1.5896   13.8790   38.8715 C   0  0  2  0  0  0  0  0  0  0  0  0
   -2.0625   14.2827   37.5817 O   0  0  0  0  0  0  0  0  0  0  0  0
   -1.9750   15.0035   39.9242 C   0  0  2  0  0  0  0  0  0  0  0  0
   -3.4406   15.2051   40.0030 N   0  0  0  0  0  0  0  0  0  0  0  0
   -1.2794   16.3326   39.5360 C   0  0  1  0  0  0  0  0  0  0  0  0
   -1.6093   17.3565   40.4774 O   0  0  0  0  0  0  0  0  0  0  0  0
    0.2397   16.0923   39.4795 C   0  0  2  0  0  0  0  0  0  0  0  0
    0.8942   17.3118   39.1260 O   0  0  0  0  0  0  0  0  0  0  0  0
    0.5596   14.9578   38.4322 C   0  0  2  0  0  0  0  0  0  0  0  0
   -0.1358   13.7032   38.7904 O   0  0  0  0  0  0  0  0  0  0  0  0
    2.0791   14.6682   38.3519 C   0  0  2  0  0  0  0  0  0  0  0  0
    2.6473   14.6966   39.6626 O   0  0  0  0  0  0  0  0  0  0  0  0
    2.7907   15.7009   37.4917 C   0  0  0  0  0  0  0  0  0  0  0  0
   -2.2631   12.0350   33.9451 C   0  0  2  0  0  0  0  0  0  0  0  0
   -1.8625   11.3385   32.7202 N   0  0  0  0  0  0  0  0  0  0  0  0
   -1.6543   13.4631   33.8830 C   0  0  0  0  0  0  0  0  0  0  0  0
   -2.0887   14.2265   35.1635 C   0  0  2  0  0  0  0  0  0  0  0  0
   -1.5376   15.5906   35.1448 N   0  0  0  0  0  0  0  0  0  0  0  0
   -1.5952   13.4950   36.4406 C   0  0  2  0  0  0  0  0  0  0  0  0
   -2.1821   12.0483   36.4577 C   0  0  2  0  0  0  0  0  0  0  0  0
   -1.7164   11.3696   37.6320 O   0  0  0  0  0  0  0  0  0  0  0  0
   -1.7193   11.2520   35.2135 C   0  0  1  0  0  0  0  0  0  0  0  0
   -2.3128    9.9328   35.2998 O   0  0  0  0  0  0  0  0  0  0  0  0
   -1.7464    9.0443   36.2914 C   0  0  2  0  0  0  0  0  0  0  0  0
   -0.3511    8.5875   35.7239 C   0  0  2  0  0  0  0  0  0  0  0  0
    0.4871    9.7173   35.5388 O   0  0  0  0  0  0  0  0  0  0  0  0
   -0.5765    7.8234   34.3645 C   0  0  1  0  0  0  0  0  0  0  0  0
    0.7265    7.3786   33.7825 N   0  0  0  0  0  0  0  0  0  0  0  0
    1.0473    8.2328   32.6188 C   0  0  0  0  0  0  0  0  0  0  0  0
   -1.4956    6.5935   34.6350 C   0  0  2  0  0  0  0  0  0  0  0  0
   -0.8443    5.7320   35.5673 O   0  0  0  0  0  0  0  0  0  0  0  0
   -1.7710    5.8002   33.3601 C   0  0  0  0  0  0  0  0  0  0  0  0
   -2.8463    7.0880   35.2449 C   0  0  0  0  0  0  0  0  0  0  0  0
   -2.6150    7.8651   36.4807 O   0  0  0  0  0  0  0  0  0  0  0  0
  1  3  1  0  0  0  0
  1  2  1  6  0  0  0
  3  5  1  0  0  0  0
  3  4  1  6  0  0  0
  5  6  1  1  0  0  0
  7  8  1  6  0  0  0
  7  5  1  0  0  0  0
  9 10  1  1  0  0  0
  9  7  1  0  0  0  0
 10  1  1  0  0  0  0
 11 13  1  6  0  0  0
 11  9  1  0  0  0  0
 12 11  1  0  0  0  0
 14 15  1  6  0  0  0
 16 14  1  0  0  0  0
 17 18  1  6  0  0  0
 17 16  1  0  0  0  0
 19  2  1  1  0  0  0
 19 20  1  0  0  0  0
 19 17  1  0  0  0  0
 20 21  1  1  0  0  0
 20 22  1  0  0  0  0
 22 23  1  1  0  0  0
 22 14  1  0  0  0  0
 24 23  1  6  0  0  0
 24 25  1  0  0  0  0
 25 27  1  0  0  0  0
 25 26  1  6  0  0  0
 27 28  1  1  0  0  0
 28 29  1  0  0  0  0
 30 31  1  1  0  0  0
 30 32  1  0  0  0  0
 30 27  1  0  0  0  0
 33 30  1  0  0  0  0
 34 33  1  0  0  0  0
 34 24  1  0  0  0  0
M  END
>  <CHROM.1>
169.35224146,40.26202349,-172.96071516,170.77097257,-73.67080707,-106.60394779
-0.91125586,11.98790794,36.59078762,1.47933544,0.02379220,0.50661163

>  <Name>
lig.pdb

>  <RI>
0

>  <Rbt.Current_Directory>
/home/itssahil/PROJECTS/Mol_Feturizer/New_Systems/rnas/4k32

>  <Rbt.Executable>
rbdock ($Id: //depot/dev/client3/rdock/2013.1/src/exe/rbdock.cxx#4 $)

>  <Rbt.Library>
libRbt.so (2013.1, Build901 2013/11/27)

>  <Rbt.Parameter_File>
/export/apps/rDock/src/rDock_2013.1_src/data/scripts/dock_solv.prm

>  <Rbt.Receptor>
prm/pocket_docking_8.prm

>  <SCORE>
-3.20862

>  <SCORE.INTER>
2.44598

>  <SCORE.INTER.CONST>
1

>  <SCORE.INTER.POLAR>
0

>  <SCORE.INTER.ROT>
6

>  <SCORE.INTER.SOLV>
8.4052

>  <SCORE.INTER.VDW>
-8.77108

>  <SCORE.INTER.norm>
0.0719406

>  <SCORE.INTRA>
-5.6546

>  <SCORE.INTRA.DIHEDRAL>
-13.5125

>  <SCORE.INTRA.DIHEDRAL.0>
18.0069

>  <SCORE.INTRA.POLAR>
0

>  <SCORE.INTRA.POLAR.0>
0

>  <SCORE.INTRA.REPUL>
0

>  <SCORE.INTRA.REPUL.0>
0

>  <SCORE.INTRA.SOLV>
-1.29346

>  <SCORE.INTRA.SOLV.lig_0>
-70.7393

>  <SCORE.INTRA.VDW>
1.7484

>  <SCORE.INTRA.VDW.0>
-3.23471

>  <SCORE.INTRA.norm>
-0.166312

>  <SCORE.RESTR>
0

>  <SCORE.RESTR.CAVITY>
0

>  <SCORE.RESTR.norm>
0

>  <SCORE.SYSTEM>
0

>  <SCORE.SYSTEM.CONST>
0

>  <SCORE.SYSTEM.DIHEDRAL>
0

>  <SCORE.SYSTEM.SOLV>
0

>  <SCORE.SYSTEM.norm>
0

>  <SCORE.heavy>
34

>  <SCORE.norm>
-0.0943711

>  <RMSD>
6.805

$$$$
lig.pdb
 OpenBabel11021811503D
libRbt.so/2013.1/901 2013/11/27
 34 36  0  0  0  0  0  0  0  0999 V2000
   -1.9435   19.6207   34.2088 C   0  0  2  0  0  0  0  0  0  0  0  0
   -0.5745   19.5213   34.6166 O   0  0  0  0  0  0  0  0  0  0  0  0
   -2.2833   21.1505   33.9530 C   0  0  2  0  0  0  0  0  0  0  0  0
   -1.4326   21.7333   32.8892 N   0  0  0  0  0  0  0  0  0  0  0  0
   -2.1005   21.9460   35.2701 C   0  0  1  0  0  0  0  0  0  0  0  0
   -2.4091   23.3261   35.0610 O   0  0  0  0  0  0  0  0  0  0  0  0
   -3.0088   21.3261   36.3469 C   0  0  2  0  0  0  0  0  0  0  0  0
   -2.8528   22.0530   37.5667 O   0  0  0  0  0  0  0  0  0  0  0  0
   -2.6366   19.8068   36.5456 C   0  0  2  0  0  0  0  0  0  0  0  0
   -2.7798   19.0622   35.2764 O   0  0  0  0  0  0  0  0  0  0  0  0
   -3.5375   19.1339   37.6109 C   0  0  2  0  0  0  0  0  0  0  0  0
   -2.7401   18.3271   38.4797 O   0  0  0  0  0  0  0  0  0  0  0  0
   -4.5921   18.2518   36.9611 C   0  0  0  0  0  0  0  0  0  0  0  0
   -0.4775   15.5285   36.1543 C   0  0  2  0  0  0  0  0  0  0  0  0
   -0.0927   14.1303   36.3623 N   0  0  0  0  0  0  0  0  0  0  0  0
   -0.7335   15.7144   34.6332 C   0  0  0  0  0  0  0  0  0  0  0  0
   -1.1667   17.1864   34.3954 C   0  0  2  0  0  0  0  0  0  0  0  0
   -1.4261   17.4074   32.9640 N   0  0  0  0  0  0  0  0  0  0  0  0
   -0.0672   18.1729   34.8724 C   0  0  2  0  0  0  0  0  0  0  0  0
    0.2052   17.9363   36.3914 C   0  0  2  0  0  0  0  0  0  0  0  0
    1.2291   18.8403   36.8283 O   0  0  0  0  0  0  0  0  0  0  0  0
    0.6877   16.4874   36.6447 C   0  0  1  0  0  0  0  0  0  0  0  0
    0.9058   16.3479   38.0705 O   0  0  0  0  0  0  0  0  0  0  0  0
    2.2839   16.2244   38.4939 C   0  0  2  0  0  0  0  0  0  0  0  0
    2.8041   14.8629   37.8997 C   0  0  2  0  0  0  0  0  0  0  0  0
    2.7249   14.8937   36.4833 O   0  0  0  0  0  0  0  0  0  0  0  0
    1.9397   13.6840   38.4877 C   0  0  1  0  0  0  0  0  0  0  0  0
    2.3933   12.3686   37.9413 N   0  0  0  0  0  0  0  0  0  0  0  0
    1.8250   12.1911   36.5877 C   0  0  0  0  0  0  0  0  0  0  0  0
    2.0737   13.6994   40.0408 C   0  0  2  0  0  0  0  0  0  0  0  0
    3.4451   13.5060   40.3835 O   0  0  0  0  0  0  0  0  0  0  0  0
    1.2551   12.5873   40.6916 C   0  0  0  0  0  0  0  0  0  0  0  0
    1.5964   15.0851   40.5822 C   0  0  0  0  0  0  0  0  0  0  0  0
    2.3671   16.1865   39.9678 O   0  0  0  0  0  0  0  0  0  0  0  0
  1  3  1  0  0  0  0
  1  2  1  1  0  0  0
  3  5  1  0  0  0  0
  3  4  1  6  0  0  0
  5  6  1  6  0  0  0
  7  8  1  1  0  0  0
  7  5  1  0  0  0  0
  9 10  1  6  0  0  0
  9  7  1  0  0  0  0
 10  1  1  0  0  0  0
 11 13  1  6  0  0  0
 11  9  1  0  0  0  0
 12 11  1  0  0  0  0
 14 15  1  6  0  0  0
 16 14  1  0  0  0  0
 17 18  1  6  0  0  0
 17 16  1  0  0  0  0
 19  2  1  1  0  0  0
 19 20  1  0  0  0  0
 19 17  1  0  0  0  0
 20 21  1  6  0  0  0
 20 22  1  0  0  0  0
 22 23  1  1  0  0  0
 22 14  1  0  0  0  0
 24 23  1  1  0  0  0
 24 25  1  0  0  0  0
 25 27  1  0  0  0  0
 25 26  1  6  0  0  0
 27 28  1  6  0  0  0
 28 29  1  0  0  0  0
 30 31  1  1  0  0  0
 30 32  1  0  0  0  0
 30 27  1  0  0  0  0
 33 30  1  0  0  0  0
 34 33  1  0  0  0  0
 34 24  1  0  0  0  0
M  END
>  <CHROM.1>
-178.74266072,-135.85619902,8.68108616,133.87126745,-65.29104719,-79.84092836
-0.25974360,17.31389136,36.78601520,-2.80986876,-1.01087125,1.47956765

>  <Name>
lig.pdb

>  <RI>
0

>  <Rbt.Current_Directory>
/home/itssahil/PROJECTS/Mol_Feturizer/New_Systems/rnas/4k32

>  <Rbt.Executable>
rbdock ($Id: //depot/dev/client3/rdock/2013.1/src/exe/rbdock.cxx#4 $)

>  <Rbt.Library>
libRbt.so (2013.1, Build901 2013/11/27)

>  <Rbt.Parameter_File>
/export/apps/rDock/src/rDock_2013.1_src/data/scripts/dock_solv.prm

>  <Rbt.Receptor>
prm/blind_docking_100.prm

>  <SCORE>
33.9105

>  <SCORE.INTER>
14.0804

>  <SCORE.INTER.CONST>
1

>  <SCORE.INTER.POLAR>
0

>  <SCORE.INTER.ROT>
6

>  <SCORE.INTER.SOLV>
30.4219

>  <SCORE.INTER.VDW>
-8.3537

>  <SCORE.INTER.norm>
0.41413

>  <SCORE.INTRA>
13.2252

>  <SCORE.INTRA.DIHEDRAL>
0.0610356

>  <SCORE.INTRA.DIHEDRAL.0>
18.0069

>  <SCORE.INTRA.POLAR>
0

>  <SCORE.INTRA.POLAR.0>
0

>  <SCORE.INTRA.REPUL>
0.0690679

>  <SCORE.INTRA.REPUL.0>
0

>  <SCORE.INTRA.SOLV>
3.84061

>  <SCORE.INTRA.SOLV.lig_0>
-70.7393

>  <SCORE.INTRA.VDW>
10.9291

>  <SCORE.INTRA.VDW.0>
-3.23471

>  <SCORE.INTRA.norm>
0.388978

>  <SCORE.RESTR>
6.60485

>  <SCORE.RESTR.CAVITY>
6.60485

>  <SCORE.RESTR.norm>
0.19426

>  <SCORE.SYSTEM>
0

>  <SCORE.SYSTEM.CONST>
0

>  <SCORE.SYSTEM.DIHEDRAL>
0

>  <SCORE.SYSTEM.SOLV>
0

>  <SCORE.SYSTEM.norm>
0

>  <SCORE.heavy>
34

>  <SCORE.norm>
0.997368

>  <RMSD>
6.837

$$$$
lig.pdb
 OpenBabel11021811503D
libRbt.so/2013.1/901 2013/11/27
 34 36  0  0  0  0  0  0  0  0999 V2000
   -1.9330   19.6189   34.2005 C   0  0  2  0  0  0  0  0  0  0  0  0
   -0.5629   19.5280   34.6067 O   0  0  0  0  0  0  0  0  0  0  0  0
   -2.2795   21.1454   33.9345 C   0  0  2  0  0  0  0  0  0  0  0  0
   -1.4330   21.7242   32.8652 N   0  0  0  0  0  0  0  0  0  0  0  0
   -2.0979   21.9509   35.2456 C   0  0  1  0  0  0  0  0  0  0  0  0
   -2.4125   23.3282   35.0274 O   0  0  0  0  0  0  0  0  0  0  0  0
   -3.0018   21.3348   36.3283 C   0  0  2  0  0  0  0  0  0  0  0  0
   -2.8468   22.0709   37.5426 O   0  0  0  0  0  0  0  0  0  0  0  0
   -2.6230   19.8185   36.5371 C   0  0  2  0  0  0  0  0  0  0  0  0
   -2.7652   19.0644   35.2733 O   0  0  0  0  0  0  0  0  0  0  0  0
   -3.5193   19.1495   37.6085 C   0  0  2  0  0  0  0  0  0  0  0  0
   -2.7302   18.2870   38.4301 O   0  0  0  0  0  0  0  0  0  0  0  0
   -4.6257   18.3283   36.9648 C   0  0  0  0  0  0  0  0  0  0  0  0
   -0.4386   15.5209   36.1049 C   0  0  2  0  0  0  0  0  0  0  0  0
   -0.0417   14.1246   36.3019 N   0  0  0  0  0  0  0  0  0  0  0  0
   -0.6843   15.7197   34.5837 C   0  0  0  0  0  0  0  0  0  0  0  0
   -1.1302   17.1897   34.3572 C   0  0  2  0  0  0  0  0  0  0  0  0
   -1.3803   17.4227   32.9261 N   0  0  0  0  0  0  0  0  0  0  0  0
   -0.0444   18.1821   34.8529 C   0  0  2  0  0  0  0  0  0  0  0  0
    0.2183   17.9328   36.3717 C   0  0  2  0  0  0  0  0  0  0  0  0
    1.2297   18.8424   36.8258 O   0  0  0  0  0  0  0  0  0  0  0  0
    0.7131   16.4862   36.6143 C   0  0  1  0  0  0  0  0  0  0  0  0
    0.9212   16.3344   38.0403 O   0  0  0  0  0  0  0  0  0  0  0  0
    2.2962   16.2062   38.4721 C   0  0  2  0  0  0  0  0  0  0  0  0
    2.8161   14.8440   37.8792 C   0  0  2  0  0  0  0  0  0  0  0  0
    2.7459   14.8771   36.4624 O   0  0  0  0  0  0  0  0  0  0  0  0
    1.9445   13.6668   38.4600 C   0  0  1  0  0  0  0  0  0  0  0  0
    2.3976   12.3509   37.9145 N   0  0  0  0  0  0  0  0  0  0  0  0
    1.8420   12.1797   36.5548 C   0  0  0  0  0  0  0  0  0  0  0  0
    2.0688   13.6795   40.0140 C   0  0  2  0  0  0  0  0  0  0  0  0
    3.4375   13.4815   40.3650 O   0  0  0  0  0  0  0  0  0  0  0  0
    1.2428   12.5690   40.6580 C   0  0  0  0  0  0  0  0  0  0  0  0
    1.5922   15.0658   40.5544 C   0  0  0  0  0  0  0  0  0  0  0  0
    2.3701   16.1658   39.9465 O   0  0  0  0  0  0  0  0  0  0  0  0
  1  3  1  0  0  0  0
  1  2  1  1  0  0  0
  3  5  1  0  0  0  0
  3  4  1  6  0  0  0
  5  6  1  6  0  0  0
  7  8  1  1  0  0  0
  7  5  1  0  0  0  0
  9 10  1  6  0  0  0
  9  7  1  0  0  0  0
 10  1  1  0  0  0  0
 11 13  1  6  0  0  0
 11  9  1  0  0  0  0
 12 11  1  0  0  0  0
 14 15  1  6  0  0  0
 16 14  1  0  0  0  0
 17 18  1  6  0  0  0
 17 16  1  0  0  0  0
 19  2  1  1  0  0  0
 19 20  1  0  0  0  0
 19 17  1  0  0  0  0
 20 21  1  6  0  0  0
 20 22  1  0  0  0  0
 22 23  1  1  0  0  0
 22 14  1  0  0  0  0
 24 23  1  1  0  0  0
 24 25  1  0  0  0  0
 25 27  1  0  0  0  0
 25 26  1  6  0  0  0
 27 28  1  6  0  0  0
 28 29  1  0  0  0  0
 30 31  1  1  0  0  0
 30 32  1  0  0  0  0
 30 27  1  0  0  0  0
 33 30  1  0  0  0  0
 34 33  1  0  0  0  0
 34 24  1  0  0  0  0
M  END
>  <CHROM.1>
-177.91525912,-139.43523165,9.22296498,133.24946324,-65.71336737,-79.59964658
-0.24821706,17.31061514,36.76145256,-2.79067354,-1.00717097,1.50554478

>  <Name>
lig.pdb

>  <RI>
0

>  <Rbt.Current_Directory>
/home/itssahil/PROJECTS/Mol_Feturizer/New_Systems/rnas/4k32

>  <Rbt.Executable>
rbdock ($Id: //depot/dev/client3/rdock/2013.1/src/exe/rbdock.cxx#4 $)

>  <Rbt.Library>
libRbt.so (2013.1, Build901 2013/11/27)

>  <Rbt.Parameter_File>
/export/apps/rDock/src/rDock_2013.1_src/data/scripts/dock_solv.prm

>  <Rbt.Receptor>
prm/blind_docking_100.prm

>  <SCORE>
34.2337

>  <SCORE.INTER>
14.8913

>  <SCORE.INTER.CONST>
1

>  <SCORE.INTER.POLAR>
0

>  <SCORE.INTER.ROT>
6

>  <SCORE.INTER.SOLV>
30.6528

>  <SCORE.INTER.VDW>
-7.89008

>  <SCORE.INTER.norm>
0.437979

>  <SCORE.INTRA>
12.8205

>  <SCORE.INTRA.DIHEDRAL>
-0.278513

>  <SCORE.INTRA.DIHEDRAL.0>
18.0069

>  <SCORE.INTRA.POLAR>
0

>  <SCORE.INTRA.POLAR.0>
0

>  <SCORE.INTRA.REPUL>
0.079614

>  <SCORE.INTRA.REPUL.0>
0

>  <SCORE.INTRA.SOLV>
3.87093

>  <SCORE.INTRA.SOLV.lig_0>
-70.7393

>  <SCORE.INTRA.VDW>
10.6263

>  <SCORE.INTRA.VDW.0>
-3.23471

>  <SCORE.INTRA.norm>
0.377075

>  <SCORE.RESTR>
6.52181

>  <SCORE.RESTR.CAVITY>
6.52181

>  <SCORE.RESTR.norm>
0.191818

>  <SCORE.SYSTEM>
0

>  <SCORE.SYSTEM.CONST>
0

>  <SCORE.SYSTEM.DIHEDRAL>
0

>  <SCORE.SYSTEM.SOLV>
0

>  <SCORE.SYSTEM.norm>
0

>  <SCORE.heavy>
34

>  <SCORE.norm>
1.00687

>  <RMSD>
6.843

$$$$
lig.pdb
 OpenBabel11021811503D
libRbt.so/2013.1/901 2013/11/27
 34 36  0  0  0  0  0  0  0  0999 V2000
   -1.9061   17.7076   36.9143 C   0  0  2  0  0  0  0  0  0  0  0  0
   -2.0849   16.5954   36.0304 O   0  0  0  0  0  0  0  0  0  0  0  0
   -2.8014   18.9122   36.3960 C   0  0  2  0  0  0  0  0  0  0  0  0
   -4.2398   18.5583   36.3711 N   0  0  0  0  0  0  0  0  0  0  0  0
   -2.3353   19.3274   34.9778 C   0  0  1  0  0  0  0  0  0  0  0  0
   -3.1262   20.4167   34.4967 O   0  0  0  0  0  0  0  0  0  0  0  0
   -0.8444   19.7038   35.0427 C   0  0  2  0  0  0  0  0  0  0  0  0
   -0.4022   20.0926   33.7413 O   0  0  0  0  0  0  0  0  0  0  0  0
   -0.0097   18.4777   35.5777 C   0  0  2  0  0  0  0  0  0  0  0  0
   -0.4838   18.0654   36.9161 O   0  0  0  0  0  0  0  0  0  0  0  0
    1.4989   18.8148   35.6764 C   0  0  2  0  0  0  0  0  0  0  0  0
    1.7289   19.6854   36.7858 O   0  0  0  0  0  0  0  0  0  0  0  0
    1.9930   19.4992   34.4115 C   0  0  0  0  0  0  0  0  0  0  0  0
    0.2661   13.0280   35.7784 C   0  0  2  0  0  0  0  0  0  0  0  0
    1.3596   12.1060   35.4617 N   0  0  0  0  0  0  0  0  0  0  0  0
   -0.1581   13.7130   34.4500 C   0  0  0  0  0  0  0  0  0  0  0  0
   -1.3343   14.6777   34.7613 C   0  0  2  0  0  0  0  0  0  0  0  0
   -1.7739   15.3467   33.5267 N   0  0  0  0  0  0  0  0  0  0  0  0
   -0.9122   15.7513   35.8000 C   0  0  2  0  0  0  0  0  0  0  0  0
   -0.4469   15.0384   37.1088 C   0  0  2  0  0  0  0  0  0  0  0  0
   -0.0463   16.0306   38.0635 O   0  0  0  0  0  0  0  0  0  0  0  0
    0.7593   14.1089   36.8302 C   0  0  1  0  0  0  0  0  0  0  0  0
    1.1198   13.4812   38.0855 O   0  0  0  0  0  0  0  0  0  0  0  0
    2.5315   13.4566   38.4018 C   0  0  2  0  0  0  0  0  0  0  0  0
    2.6275   13.4041   39.9719 C   0  0  2  0  0  0  0  0  0  0  0  0
    1.9941   12.2297   40.4545 O   0  0  0  0  0  0  0  0  0  0  0  0
    1.9517   14.6959   40.5698 C   0  0  1  0  0  0  0  0  0  0  0  0
    2.0108   14.6838   42.0634 N   0  0  0  0  0  0  0  0  0  0  0  0
    0.7690   14.0749   42.5865 C   0  0  0  0  0  0  0  0  0  0  0  0
    2.6944   15.9469   40.0095 C   0  0  2  0  0  0  0  0  0  0  0  0
    4.0606   15.8881   40.4165 O   0  0  0  0  0  0  0  0  0  0  0  0
    2.0922   17.2470   40.5365 C   0  0  0  0  0  0  0  0  0  0  0  0
    2.6189   15.9309   38.4490 C   0  0  0  0  0  0  0  0  0  0  0  0
    3.1908   14.6811   37.9052 O   0  0  0  0  0  0  0  0  0  0  0  0
  1  3  1  0  0  0  0
  1  2  1  6  0  0  0
  3  5  1  0  0  0  0
  3  4  1  6  0  0  0
  5  6  1  1  0  0  0
  7  8  1  6  0  0  0
  7  5  1  0  0  0  0
  9 10  1  1  0  0  0
  9  7  1  0  0  0  0
 10  1  1  0  0  0  0
 11 13  1  6  0  0  0
 11  9  1  0  0  0  0
 12 11  1  0  0  0  0
 14 15  1  6  0  0  0
 16 14  1  0  0  0  0
 17 18  1  6  0  0  0
 17 16  1  0  0  0  0
 19  2  1  1  0  0  0
 19 20  1  0  0  0  0
 19 17  1  0  0  0  0
 20 21  1  1  0  0  0
 20 22  1  0  0  0  0
 22 23  1  1  0  0  0
 22 14  1  0  0  0  0
 24 23  1  1  0  0  0
 24 25  1  0  0  0  0
 25 27  1  0  0  0  0
 25 26  1  1  0  0  0
 27 28  1  1  0  0  0
 28 29  1  0  0  0  0
 30 31  1  1  0  0  0
 30 32  1  0  0  0  0
 30 27  1  0  0  0  0
 33 30  1  0  0  0  0
 34 33  1  0  0  0  0
 34 24  1  0  0  0  0
M  END
>  <CHROM.1>
145.15444491,73.40504803,-176.95935892,109.48325299,153.41335695,-92.70405523
0.38392801,16.24306147,37.21223863,-2.58423495,0.97049760,-3.02810521

>  <Name>
lig.pdb

>  <RI>
0

>  <Rbt.Current_Directory>
/home/itssahil/PROJECTS/Mol_Feturizer/New_Systems/rnas/4k32

>  <Rbt.Executable>
rbdock ($Id: //depot/dev/client3/rdock/2013.1/src/exe/rbdock.cxx#4 $)

>  <Rbt.Library>
libRbt.so (2013.1, Build901 2013/11/27)

>  <Rbt.Parameter_File>
/export/apps/rDock/src/rDock_2013.1_src/data/scripts/dock_solv.prm

>  <Rbt.Receptor>
prm/blind_docking_100.prm

>  <SCORE>
28.3267

>  <SCORE.INTER>
10.7956

>  <SCORE.INTER.CONST>
1

>  <SCORE.INTER.POLAR>
0

>  <SCORE.INTER.ROT>
6

>  <SCORE.INTER.SOLV>
26.6003

>  <SCORE.INTER.VDW>
-9.26972

>  <SCORE.INTER.norm>
0.317518

>  <SCORE.INTRA>
6.8138

>  <SCORE.INTRA.DIHEDRAL>
-2.52037

>  <SCORE.INTRA.DIHEDRAL.0>
18.0069

>  <SCORE.INTRA.POLAR>
0

>  <SCORE.INTRA.POLAR.0>
0

>  <SCORE.INTRA.REPUL>
0

>  <SCORE.INTRA.REPUL.0>
0

>  <SCORE.INTRA.SOLV>
-1.11871

>  <SCORE.INTRA.SOLV.lig_0>
-70.7393

>  <SCORE.INTRA.VDW>
8.63334

>  <SCORE.INTRA.VDW.0>
-3.23471

>  <SCORE.INTRA.norm>
0.200406

>  <SCORE.RESTR>
10.7173

>  <SCORE.RESTR.CAVITY>
10.7173

>  <SCORE.RESTR.norm>
0.315216

>  <SCORE.SYSTEM>
0

>  <SCORE.SYSTEM.CONST>
0

>  <SCORE.SYSTEM.DIHEDRAL>
0

>  <SCORE.SYSTEM.SOLV>
0

>  <SCORE.SYSTEM.norm>
0

>  <SCORE.heavy>
34

>  <SCORE.norm>
0.833139

>  <RMSD>
6.848

$$$$
lig.pdb
 OpenBabel11021811503D
libRbt.so/2013.1/901 2013/11/27
 34 36  0  0  0  0  0  0  0  0999 V2000
   -1.2960   22.1837   32.7428 C   0  0  2  0  0  0  0  0  0  0  0  0
   -0.2633   21.1991   32.6234 O   0  0  0  0  0  0  0  0  0  0  0  0
   -1.7228   22.6457   31.2848 C   0  0  2  0  0  0  0  0  0  0  0  0
   -2.2415   21.5160   30.4788 N   0  0  0  0  0  0  0  0  0  0  0  0
   -0.5066   23.2884   30.5715 C   0  0  1  0  0  0  0  0  0  0  0  0
   -0.8738   23.7176   29.2583 O   0  0  0  0  0  0  0  0  0  0  0  0
   -0.0040   24.4662   31.4253 C   0  0  2  0  0  0  0  0  0  0  0  0
    1.1159   25.0708   30.7768 O   0  0  0  0  0  0  0  0  0  0  0  0
    0.3888   23.9508   32.8628 C   0  0  2  0  0  0  0  0  0  0  0  0
   -0.7674   23.3077   33.5227 O   0  0  0  0  0  0  0  0  0  0  0  0
    0.8863   25.1063   33.7664 C   0  0  2  0  0  0  0  0  0  0  0  0
    0.0287   26.2397   33.6191 O   0  0  0  0  0  0  0  0  0  0  0  0
    2.3035   25.5191   33.4005 C   0  0  0  0  0  0  0  0  0  0  0  0
    1.6833   18.3221   35.1234 C   0  0  2  0  0  0  0  0  0  0  0  0
    2.0952   17.5664   36.3090 N   0  0  0  0  0  0  0  0  0  0  0  0
    1.9135   19.8270   35.4336 C   0  0  0  0  0  0  0  0  0  0  0  0
    1.5049   20.6441   34.1781 C   0  0  2  0  0  0  0  0  0  0  0  0
    1.7123   22.0797   34.4252 N   0  0  0  0  0  0  0  0  0  0  0  0
    0.0153   20.3992   33.8165 C   0  0  2  0  0  0  0  0  0  0  0  0
   -0.2012   18.8754   33.5543 C   0  0  2  0  0  0  0  0  0  0  0  0
   -1.5800   18.6487   33.2316 O   0  0  0  0  0  0  0  0  0  0  0  0
    0.1523   18.0450   34.8120 C   0  0  1  0  0  0  0  0  0  0  0  0
   -0.0637   16.6503   34.4834 O   0  0  0  0  0  0  0  0  0  0  0  0
   -1.1596   15.9983   35.1672 C   0  0  2  0  0  0  0  0  0  0  0  0
   -0.6617   15.7304   36.6362 C   0  0  2  0  0  0  0  0  0  0  0  0
   -0.3475   16.9602   37.2703 O   0  0  0  0  0  0  0  0  0  0  0  0
    0.5969   14.7839   36.5857 C   0  0  1  0  0  0  0  0  0  0  0  0
    1.1114   14.5098   37.9621 N   0  0  0  0  0  0  0  0  0  0  0  0
    2.4510   15.1200   38.1026 C   0  0  0  0  0  0  0  0  0  0  0  0
    0.1864   13.4521   35.8869 C   0  0  2  0  0  0  0  0  0  0  0  0
   -0.8480   12.8345   36.6513 O   0  0  0  0  0  0  0  0  0  0  0  0
    1.3580   12.4782   35.7898 C   0  0  0  0  0  0  0  0  0  0  0  0
   -0.3494   13.7697   34.4540 C   0  0  0  0  0  0  0  0  0  0  0  0
   -1.4838   14.7154   34.5117 O   0  0  0  0  0  0  0  0  0  0  0  0
  1  3  1  0  0  0  0
  1  2  1  6  0  0  0
  3  5  1  0  0  0  0
  3  4  1  6  0  0  0
  5  6  1  6  0  0  0
  7  8  1  6  0  0  0
  7  5  1  0  0  0  0
  9 10  1  1  0  0  0
  9  7  1  0  0  0  0
 10  1  1  0  0  0  0
 11 13  1  6  0  0  0
 11  9  1  0  0  0  0
 12 11  1  0  0  0  0
 14 15  1  1  0  0  0
 16 14  1  0  0  0  0
 17 18  1  1  0  0  0
 17 16  1  0  0  0  0
 19  2  1  6  0  0  0
 19 20  1  0  0  0  0
 19 17  1  0  0  0  0
 20 21  1  1  0  0  0
 20 22  1  0  0  0  0
 22 23  1  6  0  0  0
 22 14  1  0  0  0  0
 24 23  1  6  0  0  0
 24 25  1  0  0  0  0
 25 27  1  0  0  0  0
 25 26  1  6  0  0  0
 27 28  1  1  0  0  0
 28 29  1  0  0  0  0
 30 31  1  1  0  0  0
 30 32  1  0  0  0  0
 30 27  1  0  0  0  0
 33 30  1  0  0  0  0
 34 33  1  0  0  0  0
 34 24  1  0  0  0  0
M  END
>  <CHROM.1>
-164.35193361,44.17095892,-120.59635883,131.86275388,-75.41749085,-113.85683171
0.14072412,19.40994206,34.13063183,1.60446171,-0.86605356,-0.38879289

>  <Name>
lig.pdb

>  <RI>
0

>  <Rbt.Current_Directory>
/home/itssahil/PROJECTS/Mol_Feturizer/New_Systems/rnas/4k32

>  <Rbt.Executable>
rbdock ($Id: //depot/dev/client3/rdock/2013.1/src/exe/rbdock.cxx#4 $)

>  <Rbt.Library>
libRbt.so (2013.1, Build901 2013/11/27)

>  <Rbt.Parameter_File>
/export/apps/rDock/src/rDock_2013.1_src/data/scripts/dock_solv.prm

>  <Rbt.Receptor>
prm/pocket_docking_7.prm

>  <SCORE>
-5.76988

>  <SCORE.INTER>
-8.46369

>  <SCORE.INTER.CONST>
1

>  <SCORE.INTER.POLAR>
0

>  <SCORE.INTER.ROT>
6

>  <SCORE.INTER.SOLV>
23.4154

>  <SCORE.INTER.VDW>
-21.0476

>  <SCORE.INTER.norm>
-0.248932

>  <SCORE.INTRA>
2.69381

>  <SCORE.INTRA.DIHEDRAL>
-0.0341932

>  <SCORE.INTRA.DIHEDRAL.0>
18.0069

>  <SCORE.INTRA.POLAR>
0

>  <SCORE.INTRA.POLAR.0>
0

>  <SCORE.INTRA.REPUL>
0

>  <SCORE.INTRA.REPUL.0>
0

>  <SCORE.INTRA.SOLV>
5.32098

>  <SCORE.INTRA.SOLV.lig_0>
-70.7393

>  <SCORE.INTRA.VDW>
0.0504206

>  <SCORE.INTRA.VDW.0>
-3.23471

>  <SCORE.INTRA.norm>
0.0792298

>  <SCORE.RESTR>
0

>  <SCORE.RESTR.CAVITY>
0

>  <SCORE.RESTR.norm>
0

>  <SCORE.SYSTEM>
0

>  <SCORE.SYSTEM.CONST>
0

>  <SCORE.SYSTEM.DIHEDRAL>
0

>  <SCORE.SYSTEM.SOLV>
0

>  <SCORE.SYSTEM.norm>
0

>  <SCORE.heavy>
34

>  <SCORE.norm>
-0.169702

>  <RMSD>
6.856

$$$$
lig.pdb
 OpenBabel11021811503D
libRbt.so/2013.1/901 2013/11/27
 34 36  0  0  0  0  0  0  0  0999 V2000
   -1.9998   19.6148   34.2831 C   0  0  2  0  0  0  0  0  0  0  0  0
   -0.6275   19.5397   34.6846 O   0  0  0  0  0  0  0  0  0  0  0  0
   -2.6064   20.9824   34.8151 C   0  0  2  0  0  0  0  0  0  0  0  0
   -1.8899   22.1550   34.2615 N   0  0  0  0  0  0  0  0  0  0  0  0
   -2.5419   21.0068   36.3630 C   0  0  1  0  0  0  0  0  0  0  0  0
   -3.0907   22.2291   36.8615 O   0  0  0  0  0  0  0  0  0  0  0  0
   -3.3083   19.7870   36.9046 C   0  0  2  0  0  0  0  0  0  0  0  0
   -3.2599   19.7993   38.3322 O   0  0  0  0  0  0  0  0  0  0  0  0
   -2.6727   18.4627   36.3313 C   0  0  2  0  0  0  0  0  0  0  0  0
   -2.7062   18.4630   34.8532 O   0  0  0  0  0  0  0  0  0  0  0  0
   -3.4228   17.2053   36.8367 C   0  0  2  0  0  0  0  0  0  0  0  0
   -4.8300   17.4528   36.8479 O   0  0  0  0  0  0  0  0  0  0  0  0
   -2.9842   16.8323   38.2443 C   0  0  0  0  0  0  0  0  0  0  0  0
   -0.4309   15.4891   36.0523 C   0  0  2  0  0  0  0  0  0  0  0  0
   -0.0055   14.0959   36.2080 N   0  0  0  0  0  0  0  0  0  0  0  0
   -0.6649   15.7325   34.5358 C   0  0  0  0  0  0  0  0  0  0  0  0
   -1.1406   17.1992   34.3525 C   0  0  2  0  0  0  0  0  0  0  0  0
   -1.3806   17.4736   32.9270 N   0  0  0  0  0  0  0  0  0  0  0  0
   -0.0821   18.1979   34.8925 C   0  0  2  0  0  0  0  0  0  0  0  0
    0.1700   17.9045   36.4052 C   0  0  2  0  0  0  0  0  0  0  0  0
    1.1563   18.8202   36.9002 O   0  0  0  0  0  0  0  0  0  0  0  0
    0.6939   16.4617   36.6059 C   0  0  1  0  0  0  0  0  0  0  0  0
    0.8902   16.2676   38.0284 O   0  0  0  0  0  0  0  0  0  0  0  0
    2.2636   16.1682   38.4731 C   0  0  2  0  0  0  0  0  0  0  0  0
    2.8063   14.8000   37.9154 C   0  0  2  0  0  0  0  0  0  0  0  0
    2.7463   14.7996   36.4977 O   0  0  0  0  0  0  0  0  0  0  0  0
    1.9464   13.6246   38.5168 C   0  0  1  0  0  0  0  0  0  0  0  0
    2.4213   12.3029   38.0050 N   0  0  0  0  0  0  0  0  0  0  0  0
    1.7900   12.0427   36.6934 C   0  0  0  0  0  0  0  0  0  0  0  0
    2.0588   13.6746   40.0709 C   0  0  2  0  0  0  0  0  0  0  0  0
    3.4273   13.5034   40.4363 O   0  0  0  0  0  0  0  0  0  0  0  0
    1.2430   12.5679   40.7343 C   0  0  0  0  0  0  0  0  0  0  0  0
    1.5594   15.0663   40.5759 C   0  0  0  0  0  0  0  0  0  0  0  0
    2.3269   16.1626   39.9484 O   0  0  0  0  0  0  0  0  0  0  0  0
  1  3  1  0  0  0  0
  1  2  1  1  0  0  0
  3  5  1  0  0  0  0
  3  4  1  6  0  0  0
  5  6  1  1  0  0  0
  7  8  1  1  0  0  0
  7  5  1  0  0  0  0
  9 10  1  6  0  0  0
  9  7  1  0  0  0  0
 10  1  1  0  0  0  0
 11 13  1  1  0  0  0
 11  9  1  0  0  0  0
 12 11  1  0  0  0  0
 14 15  1  6  0  0  0
 16 14  1  0  0  0  0
 17 18  1  6  0  0  0
 17 16  1  0  0  0  0
 19  2  1  1  0  0  0
 19 20  1  0  0  0  0
 19 17  1  0  0  0  0
 20 21  1  6  0  0  0
 20 22  1  0  0  0  0
 22 23  1  1  0  0  0
 22 14  1  0  0  0  0
 24 23  1  1  0  0  0
 24 25  1  0  0  0  0
 25 27  1  0  0  0  0
 25 26  1  6  0  0  0
 27 28  1  6  0  0  0
 28 29  1  0  0  0  0
 30 31  1  1  0  0  0
 30 32  1  0  0  0  0
 30 27  1  0  0  0  0
 33 30  1  0  0  0  0
 34 33  1  0  0  0  0
 34 24  1  0  0  0  0
M  END
>  <CHROM.1>
151.08070874,40.01554241,10.00943062,133.83649732,-69.16386354,-84.20089803
-0.35547779,16.94282211,36.92571831,-2.74860817,-0.91614503,1.56236140

>  <Name>
lig.pdb

>  <RI>
0

>  <Rbt.Current_Directory>
/home/itssahil/PROJECTS/Mol_Feturizer/New_Systems/rnas/4k32

>  <Rbt.Executable>
rbdock ($Id: //depot/dev/client3/rdock/2013.1/src/exe/rbdock.cxx#4 $)

>  <Rbt.Library>
libRbt.so (2013.1, Build901 2013/11/27)

>  <Rbt.Parameter_File>
/export/apps/rDock/src/rDock_2013.1_src/data/scripts/dock_solv.prm

>  <Rbt.Receptor>
prm/blind_docking_100.prm

>  <SCORE>
39.4871

>  <SCORE.INTER>
6.55166

>  <SCORE.INTER.CONST>
1

>  <SCORE.INTER.POLAR>
0

>  <SCORE.INTER.ROT>
6

>  <SCORE.INTER.SOLV>
30.0166

>  <SCORE.INTER.VDW>
-13.2378

>  <SCORE.INTER.norm>
0.192696

>  <SCORE.INTRA>
26.1074

>  <SCORE.INTRA.DIHEDRAL>
0.524715

>  <SCORE.INTRA.DIHEDRAL.0>
18.0069

>  <SCORE.INTRA.POLAR>
0

>  <SCORE.INTRA.POLAR.0>
0

>  <SCORE.INTRA.REPUL>
0

>  <SCORE.INTRA.REPUL.0>
0

>  <SCORE.INTRA.SOLV>
5.17046

>  <SCORE.INTRA.SOLV.lig_0>
-70.7393

>  <SCORE.INTRA.VDW>
23.2598

>  <SCORE.INTRA.VDW.0>
-3.23471

>  <SCORE.INTRA.norm>
0.767866

>  <SCORE.RESTR>
6.82802

>  <SCORE.RESTR.CAVITY>
6.82802

>  <SCORE.RESTR.norm>
0.200824

>  <SCORE.SYSTEM>
0

>  <SCORE.SYSTEM.CONST>
0

>  <SCORE.SYSTEM.DIHEDRAL>
0

>  <SCORE.SYSTEM.SOLV>
0

>  <SCORE.SYSTEM.norm>
0

>  <SCORE.heavy>
34

>  <SCORE.norm>
1.16139

>  <RMSD>
6.862

$$$$
lig.pdb
 OpenBabel11021811503D
libRbt.so/2013.1/901 2013/11/27
 34 36  0  0  0  0  0  0  0  0999 V2000
   -1.6912   19.8411   33.8573 C   0  0  2  0  0  0  0  0  0  0  0  0
   -0.3805   19.6029   34.3821 O   0  0  0  0  0  0  0  0  0  0  0  0
   -1.9158   21.4097   33.7552 C   0  0  2  0  0  0  0  0  0  0  0  0
   -0.9265   22.0503   32.8574 N   0  0  0  0  0  0  0  0  0  0  0  0
   -1.8280   22.0358   35.1698 C   0  0  1  0  0  0  0  0  0  0  0  0
   -2.0348   23.4485   35.0989 O   0  0  0  0  0  0  0  0  0  0  0  0
   -2.8778   21.3607   36.0703 C   0  0  2  0  0  0  0  0  0  0  0  0
   -2.8103   21.9317   37.3779 O   0  0  0  0  0  0  0  0  0  0  0  0
   -2.6145   19.8068   36.1205 C   0  0  2  0  0  0  0  0  0  0  0  0
   -2.6651   19.2231   34.7631 O   0  0  0  0  0  0  0  0  0  0  0  0
   -3.6588   19.0801   37.0040 C   0  0  2  0  0  0  0  0  0  0  0  0
   -3.5186   19.4987   38.3629 O   0  0  0  0  0  0  0  0  0  0  0  0
   -3.4786   17.5714   36.9396 C   0  0  0  0  0  0  0  0  0  0  0  0
   -0.8080   15.6269   35.9072 C   0  0  2  0  0  0  0  0  0  0  0  0
   -0.5871   14.1968   36.1355 N   0  0  0  0  0  0  0  0  0  0  0  0
   -0.9383   15.8337   34.3728 C   0  0  0  0  0  0  0  0  0  0  0  0
   -1.1975   17.3422   34.1116 C   0  0  2  0  0  0  0  0  0  0  0  0
   -1.3335   17.5844   32.6668 N   0  0  0  0  0  0  0  0  0  0  0  0
   -0.0360   18.2096   34.6667 C   0  0  2  0  0  0  0  0  0  0  0  0
    0.1053   17.9507   36.1999 C   0  0  2  0  0  0  0  0  0  0  0  0
    1.1860   18.7438   36.7095 O   0  0  0  0  0  0  0  0  0  0  0  0
    0.4149   16.4600   36.4800 C   0  0  1  0  0  0  0  0  0  0  0  0
    0.5189   16.3031   37.9168 O   0  0  0  0  0  0  0  0  0  0  0  0
    0.6233   14.9440   38.4021 C   0  0  2  0  0  0  0  0  0  0  0  0
    0.8869   15.0510   39.9502 C   0  0  2  0  0  0  0  0  0  0  0  0
   -0.1972   15.7166   40.5788 O   0  0  0  0  0  0  0  0  0  0  0  0
    2.2384   15.8256   40.1872 C   0  0  1  0  0  0  0  0  0  0  0  0
    2.5247   15.9602   41.6481 N   0  0  0  0  0  0  0  0  0  0  0  0
    2.1293   17.3146   42.0905 C   0  0  0  0  0  0  0  0  0  0  0  0
    3.3872   15.0433   39.4810 C   0  0  2  0  0  0  0  0  0  0  0  0
    3.4739   13.7404   40.0557 O   0  0  0  0  0  0  0  0  0  0  0  0
    4.7362   15.7360   39.6565 C   0  0  0  0  0  0  0  0  0  0  0  0
    3.0594   14.9158   37.9587 C   0  0  0  0  0  0  0  0  0  0  0  0
    1.7548   14.2521   37.7529 O   0  0  0  0  0  0  0  0  0  0  0  0
  1  3  1  0  0  0  0
  1  2  1  1  0  0  0
  3  5  1  0  0  0  0
  3  4  1  6  0  0  0
  5  6  1  6  0  0  0
  7  8  1  1  0  0  0
  7  5  1  0  0  0  0
  9 10  1  6  0  0  0
  9  7  1  0  0  0  0
 10  1  1  0  0  0  0
 11 13  1  1  0  0  0
 11  9  1  0  0  0  0
 12 11  1  0  0  0  0
 14 15  1  6  0  0  0
 16 14  1  0  0  0  0
 17 18  1  6  0  0  0
 17 16  1  0  0  0  0
 19  2  1  1  0  0  0
 19 20  1  0  0  0  0
 19 17  1  0  0  0  0
 20 21  1  6  0  0  0
 20 22  1  0  0  0  0
 22 23  1  1  0  0  0
 22 14  1  0  0  0  0
 24 23  1  6  0  0  0
 24 25  1  0  0  0  0
 25 27  1  0  0  0  0
 25 26  1  1  0  0  0
 27 28  1  1  0  0  0
 28 29  1  0  0  0  0
 30 31  1  1  0  0  0
 30 32  1  0  0  0  0
 30 27  1  0  0  0  0
 33 30  1  0  0  0  0
 34 33  1  0  0  0  0
 34 24  1  0  0  0  0
M  END
>  <CHROM.1>
174.46720448,-65.21363018,7.50449700,55.68868054,173.71105776,-99.82305513
-0.24578250,17.76590363,36.94309858,-2.90871060,-1.00621193,1.12965329

>  <Name>
lig.pdb

>  <RI>
0

>  <Rbt.Current_Directory>
/home/itssahil/PROJECTS/Mol_Feturizer/New_Systems/rnas/4k32

>  <Rbt.Executable>
rbdock ($Id: //depot/dev/client3/rdock/2013.1/src/exe/rbdock.cxx#4 $)

>  <Rbt.Library>
libRbt.so (2013.1, Build901 2013/11/27)

>  <Rbt.Parameter_File>
/export/apps/rDock/src/rDock_2013.1_src/data/scripts/dock_solv.prm

>  <Rbt.Receptor>
prm/blind_docking_100.prm

>  <SCORE>
24.7364

>  <SCORE.INTER>
9.2696

>  <SCORE.INTER.CONST>
1

>  <SCORE.INTER.POLAR>
0

>  <SCORE.INTER.ROT>
6

>  <SCORE.INTER.SOLV>
29.4531

>  <SCORE.INTER.VDW>
-11.238

>  <SCORE.INTER.norm>
0.272635

>  <SCORE.INTRA>
4.51001

>  <SCORE.INTRA.DIHEDRAL>
-9.595

>  <SCORE.INTRA.DIHEDRAL.0>
18.0069

>  <SCORE.INTRA.POLAR>
0

>  <SCORE.INTRA.POLAR.0>
0

>  <SCORE.INTRA.REPUL>
0

>  <SCORE.INTRA.REPUL.0>
0

>  <SCORE.INTRA.SOLV>
1.31345

>  <SCORE.INTRA.SOLV.lig_0>
-70.7393

>  <SCORE.INTRA.VDW>
8.65079

>  <SCORE.INTRA.VDW.0>
-3.23471

>  <SCORE.INTRA.norm>
0.132647

>  <SCORE.RESTR>
10.9568

>  <SCORE.RESTR.CAVITY>
10.9568

>  <SCORE.RESTR.norm>
0.322258

>  <SCORE.SYSTEM>
0

>  <SCORE.SYSTEM.CONST>
0

>  <SCORE.SYSTEM.DIHEDRAL>
0

>  <SCORE.SYSTEM.SOLV>
0

>  <SCORE.SYSTEM.norm>
0

>  <SCORE.heavy>
34

>  <SCORE.norm>
0.727541

>  <RMSD>
6.867

$$$$
lig.pdb
 OpenBabel11021811503D
libRbt.so/2013.1/901 2013/11/27
 34 36  0  0  0  0  0  0  0  0999 V2000
   -1.3965   12.6834   37.6845 C   0  0  2  0  0  0  0  0  0  0  0  0
   -2.0689   13.7871   37.0680 O   0  0  0  0  0  0  0  0  0  0  0  0
   -0.3381   13.2537   38.7217 C   0  0  2  0  0  0  0  0  0  0  0  0
   -0.9857   14.0609   39.7818 N   0  0  0  0  0  0  0  0  0  0  0  0
    0.7090   14.1130   37.9692 C   0  0  1  0  0  0  0  0  0  0  0  0
    1.6756   14.6301   38.8867 O   0  0  0  0  0  0  0  0  0  0  0  0
    1.3730   13.2412   36.8886 C   0  0  2  0  0  0  0  0  0  0  0  0
    2.3442   14.0208   36.1891 O   0  0  0  0  0  0  0  0  0  0  0  0
    0.2743   12.6917   35.9001 C   0  0  2  0  0  0  0  0  0  0  0  0
   -0.7400   11.9024   36.6309 O   0  0  0  0  0  0  0  0  0  0  0  0
    0.8943   11.7927   34.8016 C   0  0  2  0  0  0  0  0  0  0  0  0
    1.8718   12.5312   34.0662 O   0  0  0  0  0  0  0  0  0  0  0  0
   -0.1681   11.2957   33.8337 C   0  0  0  0  0  0  0  0  0  0  0  0
   -5.2967   11.4390   35.5240 C   0  0  2  0  0  0  0  0  0  0  0  0
   -6.5951   11.0676   34.9561 N   0  0  0  0  0  0  0  0  0  0  0  0
   -5.5751   12.3260   36.7688 C   0  0  0  0  0  0  0  0  0  0  0  0
   -4.2095   12.7104   37.3999 C   0  0  2  0  0  0  0  0  0  0  0  0
   -4.4254   13.5489   38.5894 N   0  0  0  0  0  0  0  0  0  0  0  0
   -3.3266   13.4843   36.3843 C   0  0  2  0  0  0  0  0  0  0  0  0
   -3.0988   12.5917   35.1237 C   0  0  2  0  0  0  0  0  0  0  0  0
   -2.2927   13.3120   34.1814 O   0  0  0  0  0  0  0  0  0  0  0  0
   -4.4465   12.2384   34.4489 C   0  0  1  0  0  0  0  0  0  0  0  0
   -4.1494   11.4047   33.3016 O   0  0  0  0  0  0  0  0  0  0  0  0
   -5.2761   11.0457   32.4676 C   0  0  2  0  0  0  0  0  0  0  0  0
   -4.7035   10.1142   31.3355 C   0  0  2  0  0  0  0  0  0  0  0  0
   -4.1277    8.9526   31.9123 O   0  0  0  0  0  0  0  0  0  0  0  0
   -3.6355   10.9186   30.5017 C   0  0  1  0  0  0  0  0  0  0  0  0
   -3.0560   10.0674   29.4183 N   0  0  0  0  0  0  0  0  0  0  0  0
   -1.7810    9.4891   29.8944 C   0  0  0  0  0  0  0  0  0  0  0  0
   -4.3289   12.1740   29.8903 C   0  0  2  0  0  0  0  0  0  0  0  0
   -5.3822   11.7415   29.0305 O   0  0  0  0  0  0  0  0  0  0  0  0
   -3.3553   13.0164   29.0700 C   0  0  0  0  0  0  0  0  0  0  0  0
   -4.9270   13.0414   31.0439 C   0  0  0  0  0  0  0  0  0  0  0  0
   -5.8725   12.2532   31.8621 O   0  0  0  0  0  0  0  0  0  0  0  0
  1  3  1  0  0  0  0
  1  2  1  6  0  0  0
  3  5  1  0  0  0  0
  3  4  1  1  0  0  0
  5  6  1  1  0  0  0
  7  8  1  6  0  0  0
  7  5  1  0  0  0  0
  9 10  1  1  0  0  0
  9  7  1  0  0  0  0
 10  1  1  0  0  0  0
 11 13  1  6  0  0  0
 11  9  1  0  0  0  0
 12 11  1  0  0  0  0
 14 15  1  6  0  0  0
 16 14  1  0  0  0  0
 17 18  1  1  0  0  0
 17 16  1  0  0  0  0
 19  2  1  1  0  0  0
 19 20  1  0  0  0  0
 19 17  1  0  0  0  0
 20 21  1  6  0  0  0
 20 22  1  0  0  0  0
 22 23  1  6  0  0  0
 22 14  1  0  0  0  0
 24 23  1  1  0  0  0
 24 25  1  0  0  0  0
 25 27  1  0  0  0  0
 25 26  1  1  0  0  0
 27 28  1  6  0  0  0
 28 29  1  0  0  0  0
 30 31  1  6  0  0  0
 30 32  1  0  0  0  0
 30 27  1  0  0  0  0
 33 30  1  0  0  0  0
 34 33  1  0  0  0  0
 34 24  1  0  0  0  0
M  END
>  <CHROM.1>
-162.81393240,-58.36730167,52.15679994,68.44159901,-178.22170387,-96.44241506
-2.50840888,12.26358194,34.42099825,1.03159266,0.09099132,1.29852901

>  <Name>
lig.pdb

>  <RI>
0

>  <Rbt.Current_Directory>
/home/itssahil/PROJECTS/Mol_Feturizer/New_Systems/rnas/4k32

>  <Rbt.Executable>
rbdock ($Id: //depot/dev/client3/rdock/2013.1/src/exe/rbdock.cxx#4 $)

>  <Rbt.Library>
libRbt.so (2013.1, Build901 2013/11/27)

>  <Rbt.Parameter_File>
/export/apps/rDock/src/rDock_2013.1_src/data/scripts/dock_solv.prm

>  <Rbt.Receptor>
prm/pocket_docking_8.prm

>  <SCORE>
-5.20441

>  <SCORE.INTER>
1.14469

>  <SCORE.INTER.CONST>
1

>  <SCORE.INTER.POLAR>
0

>  <SCORE.INTER.ROT>
6

>  <SCORE.INTER.SOLV>
10.3218

>  <SCORE.INTER.VDW>
-10.2775

>  <SCORE.INTER.norm>
0.0336674

>  <SCORE.INTRA>
-6.3491

>  <SCORE.INTRA.DIHEDRAL>
-15.108

>  <SCORE.INTRA.DIHEDRAL.0>
18.0069

>  <SCORE.INTRA.POLAR>
0

>  <SCORE.INTRA.POLAR.0>
0

>  <SCORE.INTRA.REPUL>
0

>  <SCORE.INTRA.REPUL.0>
0

>  <SCORE.INTRA.SOLV>
0.579319

>  <SCORE.INTRA.SOLV.lig_0>
-70.7393

>  <SCORE.INTRA.VDW>
0.915256

>  <SCORE.INTRA.VDW.0>
-3.23471

>  <SCORE.INTRA.norm>
-0.186738

>  <SCORE.RESTR>
0

>  <SCORE.RESTR.CAVITY>
0

>  <SCORE.RESTR.norm>
0

>  <SCORE.SYSTEM>
0

>  <SCORE.SYSTEM.CONST>
0

>  <SCORE.SYSTEM.DIHEDRAL>
0

>  <SCORE.SYSTEM.SOLV>
0

>  <SCORE.SYSTEM.norm>
0

>  <SCORE.heavy>
34

>  <SCORE.norm>
-0.153071

>  <RMSD>
6.896

$$$$
lig.pdb
 OpenBabel11021811503D
libRbt.so/2013.1/901 2013/11/27
 34 36  0  0  0  0  0  0  0  0999 V2000
   -2.8215   13.6366   36.6693 C   0  0  2  0  0  0  0  0  0  0  0  0
   -3.4799   14.2573   35.5596 O   0  0  0  0  0  0  0  0  0  0  0  0
   -1.8886   12.4764   36.1171 C   0  0  2  0  0  0  0  0  0  0  0  0
   -0.8570   12.9942   35.1883 N   0  0  0  0  0  0  0  0  0  0  0  0
   -2.7584   11.4132   35.4002 C   0  0  1  0  0  0  0  0  0  0  0  0
   -1.9357   10.3558   34.9017 O   0  0  0  0  0  0  0  0  0  0  0  0
   -3.8065   10.8853   36.3960 C   0  0  2  0  0  0  0  0  0  0  0  0
   -4.6137    9.9006   35.7486 O   0  0  0  0  0  0  0  0  0  0  0  0
   -4.6903   12.0810   36.9209 C   0  0  2  0  0  0  0  0  0  0  0  0
   -3.8489   13.1075   37.5723 O   0  0  0  0  0  0  0  0  0  0  0  0
   -5.7517   11.6000   37.9413 C   0  0  2  0  0  0  0  0  0  0  0  0
   -5.1409   10.7429   38.9077 O   0  0  0  0  0  0  0  0  0  0  0  0
   -6.8701   10.8345   37.2515 C   0  0  0  0  0  0  0  0  0  0  0  0
   -4.4499   17.8560   37.6632 C   0  0  2  0  0  0  0  0  0  0  0  0
   -4.9090   19.2185   37.9443 N   0  0  0  0  0  0  0  0  0  0  0  0
   -3.4168   17.9475   36.5064 C   0  0  0  0  0  0  0  0  0  0  0  0
   -2.8996   16.5138   36.2097 C   0  0  2  0  0  0  0  0  0  0  0  0
   -1.9111   16.5531   35.1205 N   0  0  0  0  0  0  0  0  0  0  0  0
   -4.0673   15.5748   35.8045 C   0  0  2  0  0  0  0  0  0  0  0  0
   -5.1140   15.5349   36.9624 C   0  0  2  0  0  0  0  0  0  0  0  0
   -6.1978   14.6762   36.5823 O   0  0  0  0  0  0  0  0  0  0  0  0
   -5.6808   16.9482   37.2407 C   0  0  1  0  0  0  0  0  0  0  0  0
   -6.6301   16.8262   38.3288 O   0  0  0  0  0  0  0  0  0  0  0  0
   -6.1397   16.1895   39.5320 C   0  0  2  0  0  0  0  0  0  0  0  0
   -7.4074   15.8849   40.4139 C   0  0  2  0  0  0  0  0  0  0  0  0
   -8.2816   15.0120   39.7159 O   0  0  0  0  0  0  0  0  0  0  0  0
   -8.1264   17.2427   40.7633 C   0  0  1  0  0  0  0  0  0  0  0  0
   -9.3453   17.0003   41.5939 N   0  0  0  0  0  0  0  0  0  0  0  0
  -10.5437   17.3274   40.7918 C   0  0  0  0  0  0  0  0  0  0  0  0
   -7.1200   18.1515   41.5326 C   0  0  2  0  0  0  0  0  0  0  0  0
   -6.7337   17.4897   42.7361 O   0  0  0  0  0  0  0  0  0  0  0  0
   -7.7393   19.4969   41.9025 C   0  0  0  0  0  0  0  0  0  0  0  0
   -5.8570   18.3845   40.6428 C   0  0  0  0  0  0  0  0  0  0  0  0
   -5.2343   17.0992   40.2624 O   0  0  0  0  0  0  0  0  0  0  0  0
  1  3  1  0  0  0  0
  1  2  1  6  0  0  0
  3  5  1  0  0  0  0
  3  4  1  6  0  0  0
  5  6  1  1  0  0  0
  7  8  1  6  0  0  0
  7  5  1  0  0  0  0
  9 10  1  1  0  0  0
  9  7  1  0  0  0  0
 10  1  1  0  0  0  0
 11 13  1  6  0  0  0
 11  9  1  0  0  0  0
 12 11  1  0  0  0  0
 14 15  1  6  0  0  0
 16 14  1  0  0  0  0
 17 18  1  6  0  0  0
 17 16  1  0  0  0  0
 19  2  1  1  0  0  0
 19 20  1  0  0  0  0
 19 17  1  0  0  0  0
 20 21  1  6  0  0  0
 20 22  1  0  0  0  0
 22 23  1  1  0  0  0
 22 14  1  0  0  0  0
 24 23  1  6  0  0  0
 24 25  1  0  0  0  0
 25 27  1  0  0  0  0
 25 26  1  6  0  0  0
 27 28  1  1  0  0  0
 28 29  1  0  0  0  0
 30 31  1  1  0  0  0
 30 32  1  0  0  0  0
 30 27  1  0  0  0  0
 33 30  1  0  0  0  0
 34 33  1  0  0  0  0
 34 24  1  0  0  0  0
M  END
>  <CHROM.1>
-162.69704597,47.23662921,61.18649633,-62.37334596,-167.49262129,-111.56697736
-5.21203531,14.99722297,38.03957316,-0.85731615,0.69766710,0.19625769

>  <Name>
lig.pdb

>  <RI>
0

>  <Rbt.Current_Directory>
/home/itssahil/PROJECTS/Mol_Feturizer/New_Systems/rnas/4k32

>  <Rbt.Executable>
rbdock ($Id: //depot/dev/client3/rdock/2013.1/src/exe/rbdock.cxx#4 $)

>  <Rbt.Library>
libRbt.so (2013.1, Build901 2013/11/27)

>  <Rbt.Parameter_File>
/export/apps/rDock/src/rDock_2013.1_src/data/scripts/dock_solv.prm

>  <Rbt.Receptor>
prm/pocket_docking_6.prm

>  <SCORE>
-4.17506

>  <SCORE.INTER>
0.354847

>  <SCORE.INTER.CONST>
1

>  <SCORE.INTER.POLAR>
0

>  <SCORE.INTER.ROT>
6

>  <SCORE.INTER.SOLV>
12.3842

>  <SCORE.INTER.VDW>
-11.4915

>  <SCORE.INTER.norm>
0.0104367

>  <SCORE.INTRA>
-4.52991

>  <SCORE.INTRA.DIHEDRAL>
-14.075

>  <SCORE.INTRA.DIHEDRAL.0>
18.0069

>  <SCORE.INTRA.POLAR>
0

>  <SCORE.INTRA.POLAR.0>
0

>  <SCORE.INTRA.REPUL>
0

>  <SCORE.INTRA.REPUL.0>
0

>  <SCORE.INTRA.SOLV>
1.43376

>  <SCORE.INTRA.SOLV.lig_0>
-70.7393

>  <SCORE.INTRA.VDW>
1.79073

>  <SCORE.INTRA.VDW.0>
-3.23471

>  <SCORE.INTRA.norm>
-0.133233

>  <SCORE.RESTR>
0

>  <SCORE.RESTR.CAVITY>
0

>  <SCORE.RESTR.norm>
0

>  <SCORE.SYSTEM>
0

>  <SCORE.SYSTEM.CONST>
0

>  <SCORE.SYSTEM.DIHEDRAL>
0

>  <SCORE.SYSTEM.SOLV>
0

>  <SCORE.SYSTEM.norm>
0

>  <SCORE.heavy>
34

>  <SCORE.norm>
-0.122796

>  <RMSD>
6.904

$$$$
lig.pdb
 OpenBabel11021811503D
libRbt.so/2013.1/901 2013/11/27
 34 36  0  0  0  0  0  0  0  0999 V2000
   -4.2563   17.0581   39.7302 C   0  0  2  0  0  0  0  0  0  0  0  0
   -3.9943   16.0916   40.7537 O   0  0  0  0  0  0  0  0  0  0  0  0
   -4.0520   18.5087   40.3426 C   0  0  2  0  0  0  0  0  0  0  0  0
   -2.6691   18.7089   40.8350 N   0  0  0  0  0  0  0  0  0  0  0  0
   -5.0606   18.7266   41.4985 C   0  0  1  0  0  0  0  0  0  0  0  0
   -4.8964   20.0315   42.0585 O   0  0  0  0  0  0  0  0  0  0  0  0
   -6.4848   18.5279   40.9499 C   0  0  2  0  0  0  0  0  0  0  0  0
   -7.4259   18.7298   42.0054 O   0  0  0  0  0  0  0  0  0  0  0  0
   -6.6229   17.0795   40.3422 C   0  0  2  0  0  0  0  0  0  0  0  0
   -5.6337   16.8676   39.2640 O   0  0  0  0  0  0  0  0  0  0  0  0
   -8.0382   16.8378   39.7611 C   0  0  2  0  0  0  0  0  0  0  0  0
   -9.0231   17.0860   40.7660 O   0  0  0  0  0  0  0  0  0  0  0  0
   -8.1942   15.4065   39.2714 C   0  0  0  0  0  0  0  0  0  0  0  0
   -3.1392   11.9274   40.2588 C   0  0  2  0  0  0  0  0  0  0  0  0
   -3.3184   10.4911   40.0328 N   0  0  0  0  0  0  0  0  0  0  0  0
   -4.1091   12.3385   41.4009 C   0  0  0  0  0  0  0  0  0  0  0  0
   -3.9164   13.8552   41.6722 C   0  0  2  0  0  0  0  0  0  0  0  0
   -4.8141   14.2887   42.7543 N   0  0  0  0  0  0  0  0  0  0  0  0
   -4.2144   14.6896   40.3976 C   0  0  2  0  0  0  0  0  0  0  0  0
   -3.2599   14.2276   39.2517 C   0  0  2  0  0  0  0  0  0  0  0  0
   -3.5439   14.9912   38.0715 O   0  0  0  0  0  0  0  0  0  0  0  0
   -3.4718   12.7283   38.9300 C   0  0  1  0  0  0  0  0  0  0  0  0
   -2.5463   12.3789   37.8711 O   0  0  0  0  0  0  0  0  0  0  0  0
   -2.7552   11.0922   37.2429 C   0  0  2  0  0  0  0  0  0  0  0  0
   -1.5936   10.9233   36.1943 C   0  0  2  0  0  0  0  0  0  0  0  0
   -0.3390   10.9503   36.8564 O   0  0  0  0  0  0  0  0  0  0  0  0
   -1.6940   12.0792   35.1282 C   0  0  1  0  0  0  0  0  0  0  0  0
   -0.6010   11.9642   34.1151 N   0  0  0  0  0  0  0  0  0  0  0  0
    0.4208   12.9960   34.3942 C   0  0  0  0  0  0  0  0  0  0  0  0
   -3.0867   11.9914   34.4332 C   0  0  2  0  0  0  0  0  0  0  0  0
   -3.1936   10.7269   33.7812 O   0  0  0  0  0  0  0  0  0  0  0  0
   -3.2683   13.0878   33.3866 C   0  0  0  0  0  0  0  0  0  0  0  0
   -4.2074   12.1112   35.5153 C   0  0  0  0  0  0  0  0  0  0  0  0
   -4.0582   11.0649   36.5486 O   0  0  0  0  0  0  0  0  0  0  0  0
  1  3  1  0  0  0  0
  1  2  1  1  0  0  0
  3  5  1  0  0  0  0
  3  4  1  1  0  0  0
  5  6  1  6  0  0  0
  7  8  1  1  0  0  0
  7  5  1  0  0  0  0
  9 10  1  6  0  0  0
  9  7  1  0  0  0  0
 10  1  1  0  0  0  0
 11 13  1  1  0  0  0
 11  9  1  0  0  0  0
 12 11  1  0  0  0  0
 14 15  1  6  0  0  0
 16 14  1  0  0  0  0
 17 18  1  1  0  0  0
 17 16  1  0  0  0  0
 19  2  1  1  0  0  0
 19 20  1  0  0  0  0
 19 17  1  0  0  0  0
 20 21  1  6  0  0  0
 20 22  1  0  0  0  0
 22 23  1  6  0  0  0
 22 14  1  0  0  0  0
 24 23  1  6  0  0  0
 24 25  1  0  0  0  0
 25 27  1  0  0  0  0
 25 26  1  1  0  0  0
 27 28  1  6  0  0  0
 28 29  1  0  0  0  0
 30 31  1  6  0  0  0
 30 32  1  0  0  0  0
 30 27  1  0  0  0  0
 33 30  1  0  0  0  0
 34 33  1  0  0  0  0
 34 24  1  0  0  0  0
M  END
>  <CHROM.1>
176.28435564,-55.54251275,-177.96847863,75.39445400,-177.22206078,-104.74538228
-4.04643993,14.44072701,38.68259935,2.88860189,-1.10898820,2.02838271

>  <Name>
lig.pdb

>  <RI>
0

>  <Rbt.Current_Directory>
/home/itssahil/PROJECTS/Mol_Feturizer/New_Systems/rnas/4k32

>  <Rbt.Executable>
rbdock ($Id: //depot/dev/client3/rdock/2013.1/src/exe/rbdock.cxx#4 $)

>  <Rbt.Library>
libRbt.so (2013.1, Build901 2013/11/27)

>  <Rbt.Parameter_File>
/export/apps/rDock/src/rDock_2013.1_src/data/scripts/dock_solv.prm

>  <Rbt.Receptor>
prm/pocket_docking_5.prm

>  <SCORE>
-2.47226

>  <SCORE.INTER>
5.71913

>  <SCORE.INTER.CONST>
1

>  <SCORE.INTER.POLAR>
0

>  <SCORE.INTER.ROT>
6

>  <SCORE.INTER.SOLV>
9.11207

>  <SCORE.INTER.VDW>
-6.8246

>  <SCORE.INTER.norm>
0.16821

>  <SCORE.INTRA>
-8.19139

>  <SCORE.INTRA.DIHEDRAL>
-15.6196

>  <SCORE.INTRA.DIHEDRAL.0>
18.0069

>  <SCORE.INTRA.POLAR>
0

>  <SCORE.INTRA.POLAR.0>
0

>  <SCORE.INTRA.REPUL>
0

>  <SCORE.INTRA.REPUL.0>
0

>  <SCORE.INTRA.SOLV>
-1.86865

>  <SCORE.INTRA.SOLV.lig_0>
-70.7393

>  <SCORE.INTRA.VDW>
0.55273

>  <SCORE.INTRA.VDW.0>
-3.23471

>  <SCORE.INTRA.norm>
-0.240923

>  <SCORE.RESTR>
0

>  <SCORE.RESTR.CAVITY>
0

>  <SCORE.RESTR.norm>
0

>  <SCORE.SYSTEM>
0

>  <SCORE.SYSTEM.CONST>
0

>  <SCORE.SYSTEM.DIHEDRAL>
0

>  <SCORE.SYSTEM.SOLV>
0

>  <SCORE.SYSTEM.norm>
0

>  <SCORE.heavy>
34

>  <SCORE.norm>
-0.0727136

>  <RMSD>
6.919

$$$$
lig.pdb
 OpenBabel11021811503D
libRbt.so/2013.1/901 2013/11/27
 34 36  0  0  0  0  0  0  0  0999 V2000
   -1.3171   19.3411   33.9145 C   0  0  2  0  0  0  0  0  0  0  0  0
   -0.0770   19.1558   34.6058 O   0  0  0  0  0  0  0  0  0  0  0  0
   -1.5229   20.8942   33.6561 C   0  0  2  0  0  0  0  0  0  0  0  0
   -0.4340   21.4640   32.8287 N   0  0  0  0  0  0  0  0  0  0  0  0
   -1.5979   21.6367   35.0140 C   0  0  1  0  0  0  0  0  0  0  0  0
   -1.7903   23.0372   34.8017 O   0  0  0  0  0  0  0  0  0  0  0  0
   -2.7474   21.0325   35.8400 C   0  0  2  0  0  0  0  0  0  0  0  0
   -2.8303   21.7111   37.0942 O   0  0  0  0  0  0  0  0  0  0  0  0
   -2.4970   19.4900   36.0502 C   0  0  2  0  0  0  0  0  0  0  0  0
   -2.3917   18.7946   34.7497 O   0  0  0  0  0  0  0  0  0  0  0  0
   -3.6393   18.8329   36.8642 C   0  0  2  0  0  0  0  0  0  0  0  0
   -3.7733   19.4885   38.1267 O   0  0  0  0  0  0  0  0  0  0  0  0
   -3.3610   17.3582   37.1101 C   0  0  0  0  0  0  0  0  0  0  0  0
    0.2232   15.1350   36.0410 C   0  0  2  0  0  0  0  0  0  0  0  0
    0.5784   13.7167   36.1317 N   0  0  0  0  0  0  0  0  0  0  0  0
   -0.4171   15.3610   34.6435 C   0  0  0  0  0  0  0  0  0  0  0  0
   -0.8233   16.8559   34.5372 C   0  0  2  0  0  0  0  0  0  0  0  0
   -1.4412   17.1154   33.2274 N   0  0  0  0  0  0  0  0  0  0  0  0
    0.4115   17.7806   34.7103 C   0  0  2  0  0  0  0  0  0  0  0  0
    1.0645   17.5032   36.1012 C   0  0  2  0  0  0  0  0  0  0  0  0
    2.2117   18.3498   36.2552 O   0  0  0  0  0  0  0  0  0  0  0  0
    1.5234   16.0287   36.2094 C   0  0  1  0  0  0  0  0  0  0  0  0
    2.1042   15.8527   37.5252 O   0  0  0  0  0  0  0  0  0  0  0  0
    1.1729   15.5944   38.6020 C   0  0  2  0  0  0  0  0  0  0  0  0
    1.9319   15.9544   39.9331 C   0  0  2  0  0  0  0  0  0  0  0  0
    2.3031   17.3238   39.9209 O   0  0  0  0  0  0  0  0  0  0  0  0
    3.1990   15.0275   40.0669 C   0  0  1  0  0  0  0  0  0  0  0  0
    3.9582   15.3420   41.3154 N   0  0  0  0  0  0  0  0  0  0  0  0
    5.3804   15.5539   40.9701 C   0  0  0  0  0  0  0  0  0  0  0  0
    2.7258   13.5421   40.0817 C   0  0  2  0  0  0  0  0  0  0  0  0
    1.8677   13.3466   41.2047 O   0  0  0  0  0  0  0  0  0  0  0  0
    3.9001   12.5740   40.2009 C   0  0  0  0  0  0  0  0  0  0  0  0
    1.9338   13.2439   38.7683 C   0  0  0  0  0  0  0  0  0  0  0  0
    0.7902   14.1683   38.6194 O   0  0  0  0  0  0  0  0  0  0  0  0
  1  3  1  0  0  0  0
  1  2  1  1  0  0  0
  3  5  1  0  0  0  0
  3  4  1  6  0  0  0
  5  6  1  6  0  0  0
  7  8  1  1  0  0  0
  7  5  1  0  0  0  0
  9 10  1  6  0  0  0
  9  7  1  0  0  0  0
 10  1  1  0  0  0  0
 11 13  1  1  0  0  0
 11  9  1  0  0  0  0
 12 11  1  0  0  0  0
 14 15  1  6  0  0  0
 16 14  1  0  0  0  0
 17 18  1  6  0  0  0
 17 16  1  0  0  0  0
 19  2  1  1  0  0  0
 19 20  1  0  0  0  0
 19 17  1  0  0  0  0
 20 21  1  6  0  0  0
 20 22  1  0  0  0  0
 22 23  1  1  0  0  0
 22 14  1  0  0  0  0
 24 23  1  6  0  0  0
 24 25  1  0  0  0  0
 25 27  1  0  0  0  0
 25 26  1  6  0  0  0
 27 28  1  1  0  0  0
 28 29  1  0  0  0  0
 30 31  1  1  0  0  0
 30 32  1  0  0  0  0
 30 27  1  0  0  0  0
 33 30  1  0  0  0  0
 34 33  1  0  0  0  0
 34 24  1  0  0  0  0
M  END
>  <CHROM.1>
-168.80042294,-57.44850770,-22.39258739,-32.77657716,-160.08222058,-128.80853002
0.19607094,17.30016365,36.97006427,3.11821430,-1.00833537,0.85994229

>  <Name>
lig.pdb

>  <RI>
0

>  <Rbt.Current_Directory>
/home/itssahil/PROJECTS/Mol_Feturizer/New_Systems/rnas/4k32

>  <Rbt.Executable>
rbdock ($Id: //depot/dev/client3/rdock/2013.1/src/exe/rbdock.cxx#4 $)

>  <Rbt.Library>
libRbt.so (2013.1, Build901 2013/11/27)

>  <Rbt.Parameter_File>
/export/apps/rDock/src/rDock_2013.1_src/data/scripts/dock_solv.prm

>  <Rbt.Receptor>
prm/blind_docking_100.prm

>  <SCORE>
22.7206

>  <SCORE.INTER>
1.31349

>  <SCORE.INTER.CONST>
1

>  <SCORE.INTER.POLAR>
0

>  <SCORE.INTER.ROT>
6

>  <SCORE.INTER.SOLV>
27.4463

>  <SCORE.INTER.VDW>
-15.8731

>  <SCORE.INTER.norm>
0.038632

>  <SCORE.INTRA>
11.944

>  <SCORE.INTRA.DIHEDRAL>
-6.35769

>  <SCORE.INTRA.DIHEDRAL.0>
18.0069

>  <SCORE.INTRA.POLAR>
0

>  <SCORE.INTRA.POLAR.0>
0

>  <SCORE.INTRA.REPUL>
0

>  <SCORE.INTRA.REPUL.0>
0

>  <SCORE.INTRA.SOLV>
2.61916

>  <SCORE.INTRA.SOLV.lig_0>
-70.7393

>  <SCORE.INTRA.VDW>
13.8133

>  <SCORE.INTRA.VDW.0>
-3.23471

>  <SCORE.INTRA.norm>
0.351294

>  <SCORE.RESTR>
9.46313

>  <SCORE.RESTR.CAVITY>
9.46313

>  <SCORE.RESTR.norm>
0.278327

>  <SCORE.SYSTEM>
0

>  <SCORE.SYSTEM.CONST>
0

>  <SCORE.SYSTEM.DIHEDRAL>
0

>  <SCORE.SYSTEM.SOLV>
0

>  <SCORE.SYSTEM.norm>
0

>  <SCORE.heavy>
34

>  <SCORE.norm>
0.668253

>  <RMSD>
7.055

$$$$
lig.pdb
 OpenBabel11021811503D
libRbt.so/2013.1/901 2013/11/27
 34 36  0  0  0  0  0  0  0  0999 V2000
   -3.5160   14.0065   36.4035 C   0  0  2  0  0  0  0  0  0  0  0  0
   -2.8873   13.8615   37.6817 O   0  0  0  0  0  0  0  0  0  0  0  0
   -3.3378   15.5090   35.9218 C   0  0  2  0  0  0  0  0  0  0  0  0
   -1.9093   15.8786   35.7876 N   0  0  0  0  0  0  0  0  0  0  0  0
   -4.0364   16.4586   36.9274 C   0  0  1  0  0  0  0  0  0  0  0  0
   -3.8925   17.8171   36.5063 O   0  0  0  0  0  0  0  0  0  0  0  0
   -5.5190   16.0583   37.0302 C   0  0  2  0  0  0  0  0  0  0  0  0
   -6.1765   16.9290   37.9521 O   0  0  0  0  0  0  0  0  0  0  0  0
   -5.6327   14.5561   37.4958 C   0  0  2  0  0  0  0  0  0  0  0  0
   -4.9336   13.6603   36.5499 O   0  0  0  0  0  0  0  0  0  0  0  0
   -7.1098   14.1014   37.5981 C   0  0  2  0  0  0  0  0  0  0  0  0
   -7.7930   14.8910   38.5736 O   0  0  0  0  0  0  0  0  0  0  0  0
   -7.2079   12.6386   38.0023 C   0  0  0  0  0  0  0  0  0  0  0  0
   -1.6995   10.2615   39.6683 C   0  0  2  0  0  0  0  0  0  0  0  0
   -1.7617    9.0086   40.4249 N   0  0  0  0  0  0  0  0  0  0  0  0
   -2.4397   11.3417   40.5046 C   0  0  0  0  0  0  0  0  0  0  0  0
   -2.3636   12.6850   39.7294 C   0  0  2  0  0  0  0  0  0  0  0  0
   -3.0493   13.7417   40.4896 N   0  0  0  0  0  0  0  0  0  0  0  0
   -3.0210   12.5561   38.3291 C   0  0  2  0  0  0  0  0  0  0  0  0
   -2.2909   11.4345   37.5250 C   0  0  2  0  0  0  0  0  0  0  0  0
   -2.9064   11.3086   36.2358 O   0  0  0  0  0  0  0  0  0  0  0  0
   -2.3983   10.0743   38.2562 C   0  0  1  0  0  0  0  0  0  0  0  0
   -1.6902    9.0963   37.4551 O   0  0  0  0  0  0  0  0  0  0  0  0
   -1.8852    7.7108   37.8240 C   0  0  2  0  0  0  0  0  0  0  0  0
   -0.9805    6.8672   36.8507 C   0  0  2  0  0  0  0  0  0  0  0  0
    0.3798    7.2345   37.0174 O   0  0  0  0  0  0  0  0  0  0  0  0
   -1.4540    7.1141   35.3683 C   0  0  1  0  0  0  0  0  0  0  0  0
   -0.6139    6.3382   34.4057 N   0  0  0  0  0  0  0  0  0  0  0  0
    0.3906    7.2445   33.8088 C   0  0  0  0  0  0  0  0  0  0  0  0
   -2.9483    6.6860   35.2486 C   0  0  2  0  0  0  0  0  0  0  0  0
   -3.0527    5.2977   35.5606 O   0  0  0  0  0  0  0  0  0  0  0  0
   -3.4890    6.9026   33.8375 C   0  0  0  0  0  0  0  0  0  0  0  0
   -3.8001    7.5098   36.2669 C   0  0  0  0  0  0  0  0  0  0  0  0
   -3.2996    7.3257   37.6454 O   0  0  0  0  0  0  0  0  0  0  0  0
  1  3  1  0  0  0  0
  1  2  1  1  0  0  0
  3  5  1  0  0  0  0
  3  4  1  1  0  0  0
  5  6  1  6  0  0  0
  7  8  1  1  0  0  0
  7  5  1  0  0  0  0
  9 10  1  6  0  0  0
  9  7  1  0  0  0  0
 10  1  1  0  0  0  0
 11 13  1  1  0  0  0
 11  9  1  0  0  0  0
 12 11  1  0  0  0  0
 14 15  1  1  0  0  0
 16 14  1  0  0  0  0
 17 18  1  1  0  0  0
 17 16  1  0  0  0  0
 19  2  1  6  0  0  0
 19 20  1  0  0  0  0
 19 17  1  0  0  0  0
 20 21  1  6  0  0  0
 20 22  1  0  0  0  0
 22 23  1  6  0  0  0
 22 14  1  0  0  0  0
 24 23  1  6  0  0  0
 24 25  1  0  0  0  0
 25 27  1  0  0  0  0
 25 26  1  6  0  0  0
 27 28  1  6  0  0  0
 28 29  1  0  0  0  0
 30 31  1  1  0  0  0
 30 32  1  0  0  0  0
 30 27  1  0  0  0  0
 33 30  1  0  0  0  0
 34 33  1  0  0  0  0
 34 24  1  0  0  0  0
M  END
>  <CHROM.1>
176.28330240,-61.67745262,-175.56504976,75.42278017,-177.96077164,-100.20341505
-3.20540132,11.29637951,37.18605843,2.49409675,-1.10561850,1.03887181

>  <Name>
lig.pdb

>  <RI>
0

>  <Rbt.Current_Directory>
/home/itssahil/PROJECTS/Mol_Feturizer/New_Systems/rnas/4k32

>  <Rbt.Executable>
rbdock ($Id: //depot/dev/client3/rdock/2013.1/src/exe/rbdock.cxx#4 $)

>  <Rbt.Library>
libRbt.so (2013.1, Build901 2013/11/27)

>  <Rbt.Parameter_File>
/export/apps/rDock/src/rDock_2013.1_src/data/scripts/dock_solv.prm

>  <Rbt.Receptor>
prm/pocket_docking_8.prm

>  <SCORE>
-7.88603

>  <SCORE.INTER>
0.435356

>  <SCORE.INTER.CONST>
1

>  <SCORE.INTER.POLAR>
0

>  <SCORE.INTER.ROT>
6

>  <SCORE.INTER.SOLV>
9.80018

>  <SCORE.INTER.VDW>
-10.5765

>  <SCORE.INTER.norm>
0.0128046

>  <SCORE.INTRA>
-8.32138

>  <SCORE.INTRA.DIHEDRAL>
-15.7412

>  <SCORE.INTRA.DIHEDRAL.0>
18.0069

>  <SCORE.INTRA.POLAR>
0

>  <SCORE.INTRA.POLAR.0>
0

>  <SCORE.INTRA.REPUL>
0

>  <SCORE.INTRA.REPUL.0>
0

>  <SCORE.INTRA.SOLV>
-1.8461

>  <SCORE.INTRA.SOLV.lig_0>
-70.7393

>  <SCORE.INTRA.VDW>
0.472259

>  <SCORE.INTRA.VDW.0>
-3.23471

>  <SCORE.INTRA.norm>
-0.244747

>  <SCORE.RESTR>
0

>  <SCORE.RESTR.CAVITY>
0

>  <SCORE.RESTR.norm>
0

>  <SCORE.SYSTEM>
0

>  <SCORE.SYSTEM.CONST>
0

>  <SCORE.SYSTEM.DIHEDRAL>
0

>  <SCORE.SYSTEM.SOLV>
0

>  <SCORE.SYSTEM.norm>
0

>  <SCORE.heavy>
34

>  <SCORE.norm>
-0.231942

>  <RMSD>
7.098

$$$$
lig.pdb
 OpenBabel11021811503D
libRbt.so/2013.1/901 2013/11/27
 34 36  0  0  0  0  0  0  0  0999 V2000
   -2.0305   18.9873   34.6693 C   0  0  2  0  0  0  0  0  0  0  0  0
   -0.6601   18.9337   35.0811 O   0  0  0  0  0  0  0  0  0  0  0  0
   -2.3355   20.4462   34.1218 C   0  0  2  0  0  0  0  0  0  0  0  0
   -1.4821   20.7880   32.9600 N   0  0  0  0  0  0  0  0  0  0  0  0
   -2.1195   21.4781   35.2572 C   0  0  1  0  0  0  0  0  0  0  0  0
   -2.3964   22.7985   34.7846 O   0  0  0  0  0  0  0  0  0  0  0  0
   -3.0312   21.1039   36.4394 C   0  0  2  0  0  0  0  0  0  0  0  0
   -2.8446   22.0503   37.4929 O   0  0  0  0  0  0  0  0  0  0  0  0
   -2.6941   19.6433   36.9287 C   0  0  2  0  0  0  0  0  0  0  0  0
   -2.8689   18.6696   35.8300 O   0  0  0  0  0  0  0  0  0  0  0  0
   -3.5999   19.2147   38.1098 C   0  0  2  0  0  0  0  0  0  0  0  0
   -2.9915   18.1339   38.8193 O   0  0  0  0  0  0  0  0  0  0  0  0
   -4.9671   18.7646   37.6188 C   0  0  0  0  0  0  0  0  0  0  0  0
   -0.1693   14.7806   35.9908 C   0  0  2  0  0  0  0  0  0  0  0  0
    0.3314   13.4041   35.9657 N   0  0  0  0  0  0  0  0  0  0  0  0
   -0.5315   15.1657   34.5299 C   0  0  0  0  0  0  0  0  0  0  0  0
   -1.0878   16.6153   34.5390 C   0  0  2  0  0  0  0  0  0  0  0  0
   -1.4505   17.0215   33.1721 N   0  0  0  0  0  0  0  0  0  0  0  0
   -0.0383   17.6094   35.1046 C   0  0  2  0  0  0  0  0  0  0  0  0
    0.3439   17.1760   36.5550 C   0  0  2  0  0  0  0  0  0  0  0  0
    1.3220   18.0884   37.0723 O   0  0  0  0  0  0  0  0  0  0  0  0
    0.9486   15.7510   36.5622 C   0  0  1  0  0  0  0  0  0  0  0  0
    1.2637   15.4225   37.9379 O   0  0  0  0  0  0  0  0  0  0  0  0
    2.1993   14.3363   38.1340 C   0  0  2  0  0  0  0  0  0  0  0  0
    1.9341   13.7866   39.5848 C   0  0  2  0  0  0  0  0  0  0  0  0
    0.6006   13.3119   39.6840 O   0  0  0  0  0  0  0  0  0  0  0  0
    2.2018   14.9387   40.6259 C   0  0  1  0  0  0  0  0  0  0  0  0
    1.9517   14.4632   42.0208 N   0  0  0  0  0  0  0  0  0  0  0  0
    0.5562   14.7815   42.3920 C   0  0  0  0  0  0  0  0  0  0  0  0
    3.6797   15.4104   40.4723 C   0  0  2  0  0  0  0  0  0  0  0  0
    4.5426   14.3074   40.7451 O   0  0  0  0  0  0  0  0  0  0  0  0
    4.0192   16.5371   41.4448 C   0  0  0  0  0  0  0  0  0  0  0  0
    3.9119   15.8978   39.0062 C   0  0  0  0  0  0  0  0  0  0  0  0
    3.5876   14.8303   38.0368 O   0  0  0  0  0  0  0  0  0  0  0  0
  1  3  1  0  0  0  0
  1  2  1  1  0  0  0
  3  5  1  0  0  0  0
  3  4  1  6  0  0  0
  5  6  1  6  0  0  0
  7  8  1  1  0  0  0
  7  5  1  0  0  0  0
  9 10  1  6  0  0  0
  9  7  1  0  0  0  0
 10  1  1  0  0  0  0
 11 13  1  6  0  0  0
 11  9  1  0  0  0  0
 12 11  1  0  0  0  0
 14 15  1  6  0  0  0
 16 14  1  0  0  0  0
 17 18  1  6  0  0  0
 17 16  1  0  0  0  0
 19  2  1  1  0  0  0
 19 20  1  0  0  0  0
 19 17  1  0  0  0  0
 20 21  1  6  0  0  0
 20 22  1  0  0  0  0
 22 23  1  1  0  0  0
 22 14  1  0  0  0  0
 24 23  1  1  0  0  0
 24 25  1  0  0  0  0
 25 27  1  0  0  0  0
 25 26  1  6  0  0  0
 27 28  1  1  0  0  0
 28 29  1  0  0  0  0
 30 31  1  1  0  0  0
 30 32  1  0  0  0  0
 30 27  1  0  0  0  0
 33 30  1  0  0  0  0
 34 33  1  0  0  0  0
 34 24  1  0  0  0  0
M  END
>  <CHROM.1>
-156.28702032,-159.80729633,4.40140796,82.37813812,-157.19854912,-93.10278490
-0.11146502,17.20800174,37.32218798,-2.73814625,-0.88846522,1.37941666

>  <Name>
lig.pdb

>  <RI>
0

>  <Rbt.Current_Directory>
/home/itssahil/PROJECTS/Mol_Feturizer/New_Systems/rnas/4k32

>  <Rbt.Executable>
rbdock ($Id: //depot/dev/client3/rdock/2013.1/src/exe/rbdock.cxx#4 $)

>  <Rbt.Library>
libRbt.so (2013.1, Build901 2013/11/27)

>  <Rbt.Parameter_File>
/export/apps/rDock/src/rDock_2013.1_src/data/scripts/dock_solv.prm

>  <Rbt.Receptor>
prm/blind_docking_100.prm

>  <SCORE>
34.2242

>  <SCORE.INTER>
17.0804

>  <SCORE.INTER.CONST>
1

>  <SCORE.INTER.POLAR>
0

>  <SCORE.INTER.ROT>
6

>  <SCORE.INTER.SOLV>
31.0477

>  <SCORE.INTER.VDW>
-6.56233

>  <SCORE.INTER.norm>
0.502364

>  <SCORE.INTRA>
6.21568

>  <SCORE.INTRA.DIHEDRAL>
-1.87105

>  <SCORE.INTRA.DIHEDRAL.0>
18.0069

>  <SCORE.INTRA.POLAR>
0

>  <SCORE.INTRA.POLAR.0>
0

>  <SCORE.INTRA.REPUL>
0

>  <SCORE.INTRA.REPUL.0>
0

>  <SCORE.INTRA.SOLV>
0.618543

>  <SCORE.INTRA.SOLV.lig_0>
-70.7393

>  <SCORE.INTRA.VDW>
6.84194

>  <SCORE.INTRA.VDW.0>
-3.23471

>  <SCORE.INTRA.norm>
0.182814

>  <SCORE.RESTR>
10.9282

>  <SCORE.RESTR.CAVITY>
10.9282

>  <SCORE.RESTR.norm>
0.321417

>  <SCORE.SYSTEM>
0

>  <SCORE.SYSTEM.CONST>
0

>  <SCORE.SYSTEM.DIHEDRAL>
0

>  <SCORE.SYSTEM.SOLV>
0

>  <SCORE.SYSTEM.norm>
0

>  <SCORE.heavy>
34

>  <SCORE.norm>
1.0066

>  <RMSD>
7.100

$$$$
lig.pdb
 OpenBabel11021811503D
libRbt.so/2013.1/901 2013/11/27
 34 36  0  0  0  0  0  0  0  0999 V2000
    2.7631   21.5763   34.5095 C   0  0  2  0  0  0  0  0  0  0  0  0
    1.4212   21.3232   34.0787 O   0  0  0  0  0  0  0  0  0  0  0  0
    2.8725   23.0978   34.9502 C   0  0  2  0  0  0  0  0  0  0  0  0
    1.9526   23.4151   36.0674 N   0  0  0  0  0  0  0  0  0  0  0  0
    2.5625   24.0093   33.7361 C   0  0  1  0  0  0  0  0  0  0  0  0
    2.6630   25.3848   34.1122 O   0  0  0  0  0  0  0  0  0  0  0  0
    3.5447   23.6656   32.6021 C   0  0  2  0  0  0  0  0  0  0  0  0
    3.2723   24.5021   31.4767 O   0  0  0  0  0  0  0  0  0  0  0  0
    3.4022   22.1427   32.2190 C   0  0  2  0  0  0  0  0  0  0  0  0
    3.6650   21.2810   33.3913 O   0  0  0  0  0  0  0  0  0  0  0  0
    4.3851   21.7447   31.0900 C   0  0  2  0  0  0  0  0  0  0  0  0
    4.0539   20.4457   30.5953 O   0  0  0  0  0  0  0  0  0  0  0  0
    5.8199   21.7211   31.5934 C   0  0  0  0  0  0  0  0  0  0  0  0
   -1.0467   17.8858   34.7189 C   0  0  2  0  0  0  0  0  0  0  0  0
   -1.5860   16.5271   34.6226 N   0  0  0  0  0  0  0  0  0  0  0  0
   -0.9377   18.4417   33.2722 C   0  0  0  0  0  0  0  0  0  0  0  0
   -0.3898   19.8922   33.3550 C   0  0  2  0  0  0  0  0  0  0  0  0
   -0.2750   20.4624   32.0035 N   0  0  0  0  0  0  0  0  0  0  0  0
    1.0025   19.9218   34.0406 C   0  0  2  0  0  0  0  0  0  0  0  0
    0.8772   19.3167   35.4744 C   0  0  2  0  0  0  0  0  0  0  0  0
    2.1663   19.3339   36.1025 O   0  0  0  0  0  0  0  0  0  0  0  0
    0.3802   17.8520   35.4120 C   0  0  1  0  0  0  0  0  0  0  0  0
    0.2809   17.3712   36.7754 O   0  0  0  0  0  0  0  0  0  0  0  0
    0.0266   15.9556   36.9336 C   0  0  2  0  0  0  0  0  0  0  0  0
   -0.1632   15.7147   38.4774 C   0  0  2  0  0  0  0  0  0  0  0  0
   -1.2677   16.4694   38.9506 O   0  0  0  0  0  0  0  0  0  0  0  0
    1.1616   16.1232   39.2262 C   0  0  1  0  0  0  0  0  0  0  0  0
    1.0230   15.9200   40.7006 N   0  0  0  0  0  0  0  0  0  0  0  0
    0.9925   17.2407   41.3649 C   0  0  0  0  0  0  0  0  0  0  0  0
    2.3319   15.2570   38.6688 C   0  0  2  0  0  0  0  0  0  0  0  0
    2.0433   13.8825   38.9196 O   0  0  0  0  0  0  0  0  0  0  0  0
    3.6598   15.5988   39.3398 C   0  0  0  0  0  0  0  0  0  0  0  0
    2.4504   15.4872   37.1280 C   0  0  0  0  0  0  0  0  0  0  0  0
    1.1779   15.1692   36.4467 O   0  0  0  0  0  0  0  0  0  0  0  0
  1  3  1  0  0  0  0
  1  2  1  6  0  0  0
  3  5  1  0  0  0  0
  3  4  1  1  0  0  0
  5  6  1  1  0  0  0
  7  8  1  6  0  0  0
  7  5  1  0  0  0  0
  9 10  1  1  0  0  0
  9  7  1  0  0  0  0
 10  1  1  0  0  0  0
 11 13  1  1  0  0  0
 11  9  1  0  0  0  0
 12 11  1  0  0  0  0
 14 15  1  6  0  0  0
 16 14  1  0  0  0  0
 17 18  1  6  0  0  0
 17 16  1  0  0  0  0
 19  2  1  1  0  0  0
 19 20  1  0  0  0  0
 19 17  1  0  0  0  0
 20 21  1  6  0  0  0
 20 22  1  0  0  0  0
 22 23  1  1  0  0  0
 22 14  1  0  0  0  0
 24 23  1  1  0  0  0
 24 25  1  0  0  0  0
 25 27  1  0  0  0  0
 25 26  1  1  0  0  0
 27 28  1  1  0  0  0
 28 29  1  0  0  0  0
 30 31  1  1  0  0  0
 30 32  1  0  0  0  0
 30 27  1  0  0  0  0
 33 30  1  0  0  0  0
 34 33  1  0  0  0  0
 34 24  1  0  0  0  0
M  END
>  <CHROM.1>
-161.12742947,-168.86887439,-171.89310820,72.95075666,-175.08433642,-110.70148082
1.68002331,19.24064132,35.36850730,-1.21908986,0.81802060,2.17455415

>  <Name>
lig.pdb

>  <RI>
0

>  <Rbt.Current_Directory>
/home/itssahil/PROJECTS/Mol_Feturizer/New_Systems/rnas/4k32

>  <Rbt.Executable>
rbdock ($Id: //depot/dev/client3/rdock/2013.1/src/exe/rbdock.cxx#4 $)

>  <Rbt.Library>
libRbt.so (2013.1, Build901 2013/11/27)

>  <Rbt.Parameter_File>
/export/apps/rDock/src/rDock_2013.1_src/data/scripts/dock_solv.prm

>  <Rbt.Receptor>
prm/pocket_docking_8.prm

>  <SCORE>
-17.1877

>  <SCORE.INTER>
-10.3739

>  <SCORE.INTER.CONST>
1

>  <SCORE.INTER.POLAR>
0

>  <SCORE.INTER.ROT>
6

>  <SCORE.INTER.SOLV>
24.4919

>  <SCORE.INTER.VDW>
-22.6799

>  <SCORE.INTER.norm>
-0.305116

>  <SCORE.INTRA>
-6.8687

>  <SCORE.INTRA.DIHEDRAL>
-13.5053

>  <SCORE.INTRA.DIHEDRAL.0>
18.0069

>  <SCORE.INTRA.POLAR>
0

>  <SCORE.INTRA.POLAR.0>
0

>  <SCORE.INTRA.REPUL>
0

>  <SCORE.INTRA.REPUL.0>
0

>  <SCORE.INTRA.SOLV>
-1.73546

>  <SCORE.INTRA.SOLV.lig_0>
-70.7393

>  <SCORE.INTRA.VDW>
0.751692

>  <SCORE.INTRA.VDW.0>
-3.23471

>  <SCORE.INTRA.norm>
-0.202021

>  <SCORE.RESTR>
0.0549559

>  <SCORE.RESTR.CAVITY>
0.0549559

>  <SCORE.RESTR.norm>
0.00161635

>  <SCORE.SYSTEM>
0

>  <SCORE.SYSTEM.CONST>
0

>  <SCORE.SYSTEM.DIHEDRAL>
0

>  <SCORE.SYSTEM.SOLV>
0

>  <SCORE.SYSTEM.norm>
0

>  <SCORE.heavy>
34

>  <SCORE.norm>
-0.50552

>  <RMSD>
7.163

$$$$
lig.pdb
 OpenBabel11021811503D
libRbt.so/2013.1/901 2013/11/27
 34 36  0  0  0  0  0  0  0  0999 V2000
    2.8087   21.7033   34.4780 C   0  0  2  0  0  0  0  0  0  0  0  0
    1.4887   21.4716   33.9737 O   0  0  0  0  0  0  0  0  0  0  0  0
    2.8799   23.1862   35.0412 C   0  0  2  0  0  0  0  0  0  0  0  0
    1.9116   23.4048   36.1410 N   0  0  0  0  0  0  0  0  0  0  0  0
    2.6070   24.1877   33.8908 C   0  0  1  0  0  0  0  0  0  0  0  0
    2.6739   25.5301   34.3776 O   0  0  0  0  0  0  0  0  0  0  0  0
    3.6386   23.9448   32.7747 C   0  0  2  0  0  0  0  0  0  0  0  0
    3.4006   24.8649   31.7083 O   0  0  0  0  0  0  0  0  0  0  0  0
    3.5320   22.4556   32.2675 C   0  0  2  0  0  0  0  0  0  0  0  0
    3.7588   21.5066   33.3783 O   0  0  0  0  0  0  0  0  0  0  0  0
    4.5648   22.1581   31.1522 C   0  0  2  0  0  0  0  0  0  0  0  0
    4.4209   23.1067   30.0934 O   0  0  0  0  0  0  0  0  0  0  0  0
    4.3715   20.7614   30.5824 C   0  0  0  0  0  0  0  0  0  0  0  0
   -1.0469   18.0870   34.6310 C   0  0  2  0  0  0  0  0  0  0  0  0
   -1.6157   16.7402   34.5381 N   0  0  0  0  0  0  0  0  0  0  0  0
   -0.9370   18.6414   33.1838 C   0  0  0  0  0  0  0  0  0  0  0  0
   -0.3578   20.0799   33.2631 C   0  0  2  0  0  0  0  0  0  0  0  0
   -0.2411   20.6484   31.9110 N   0  0  0  0  0  0  0  0  0  0  0  0
    1.0401   20.0793   33.9381 C   0  0  2  0  0  0  0  0  0  0  0  0
    0.9127   19.4762   35.3726 C   0  0  2  0  0  0  0  0  0  0  0  0
    2.2066   19.4655   35.9909 O   0  0  0  0  0  0  0  0  0  0  0  0
    0.3842   18.0224   35.3132 C   0  0  1  0  0  0  0  0  0  0  0  0
    0.2850   17.5430   36.6771 O   0  0  0  0  0  0  0  0  0  0  0  0
   -0.0345   16.1408   36.8366 C   0  0  2  0  0  0  0  0  0  0  0  0
   -0.2751   15.9190   38.3762 C   0  0  2  0  0  0  0  0  0  0  0  0
   -1.3578   16.7239   38.8156 O   0  0  0  0  0  0  0  0  0  0  0  0
    1.0461   16.2750   39.1575 C   0  0  1  0  0  0  0  0  0  0  0  0
    0.8602   16.0881   40.6289 N   0  0  0  0  0  0  0  0  0  0  0  0
    0.8994   17.4112   41.2880 C   0  0  0  0  0  0  0  0  0  0  0  0
    2.1919   15.3552   38.6363 C   0  0  2  0  0  0  0  0  0  0  0  0
    1.8376   13.9962   38.8873 O   0  0  0  0  0  0  0  0  0  0  0  0
    3.5154   15.6439   39.3403 C   0  0  0  0  0  0  0  0  0  0  0  0
    2.3608   15.5695   37.0979 C   0  0  0  0  0  0  0  0  0  0  0  0
    1.0939   15.3021   36.3850 O   0  0  0  0  0  0  0  0  0  0  0  0
  1  3  1  0  0  0  0
  1  2  1  6  0  0  0
  3  5  1  0  0  0  0
  3  4  1  1  0  0  0
  5  6  1  1  0  0  0
  7  8  1  6  0  0  0
  7  5  1  0  0  0  0
  9 10  1  1  0  0  0
  9  7  1  0  0  0  0
 10  1  1  0  0  0  0
 11 13  1  6  0  0  0
 11  9  1  0  0  0  0
 12 11  1  0  0  0  0
 14 15  1  6  0  0  0
 16 14  1  0  0  0  0
 17 18  1  6  0  0  0
 17 16  1  0  0  0  0
 19  2  1  1  0  0  0
 19 20  1  0  0  0  0
 19 17  1  0  0  0  0
 20 21  1  6  0  0  0
 20 22  1  0  0  0  0
 22 23  1  1  0  0  0
 22 14  1  0  0  0  0
 24 23  1  1  0  0  0
 24 25  1  0  0  0  0
 25 27  1  0  0  0  0
 25 26  1  1  0  0  0
 27 28  1  1  0  0  0
 28 29  1  0  0  0  0
 30 31  1  1  0  0  0
 30 32  1  0  0  0  0
 30 27  1  0  0  0  0
 33 30  1  0  0  0  0
 34 33  1  0  0  0  0
 34 24  1  0  0  0  0
M  END
>  <CHROM.1>
-155.02393997,-54.62343888,-175.88318074,71.31213178,-172.52845062,-111.93559743
1.63540554,19.46399387,35.29998007,-1.13530941,0.96145699,2.07771787

>  <Name>
lig.pdb

>  <RI>
0

>  <Rbt.Current_Directory>
/home/itssahil/PROJECTS/Mol_Feturizer/New_Systems/rnas/4k32

>  <Rbt.Executable>
rbdock ($Id: //depot/dev/client3/rdock/2013.1/src/exe/rbdock.cxx#4 $)

>  <Rbt.Library>
libRbt.so (2013.1, Build901 2013/11/27)

>  <Rbt.Parameter_File>
/export/apps/rDock/src/rDock_2013.1_src/data/scripts/dock_solv.prm

>  <Rbt.Receptor>
prm/pocket_docking_8.prm

>  <SCORE>
-16.9955

>  <SCORE.INTER>
-10.5456

>  <SCORE.INTER.CONST>
1

>  <SCORE.INTER.POLAR>
0

>  <SCORE.INTER.ROT>
6

>  <SCORE.INTER.SOLV>
23.845

>  <SCORE.INTER.VDW>
-22.5787

>  <SCORE.INTER.norm>
-0.310163

>  <SCORE.INTRA>
-6.55656

>  <SCORE.INTRA.DIHEDRAL>
-13.053

>  <SCORE.INTRA.DIHEDRAL.0>
18.0069

>  <SCORE.INTRA.POLAR>
0

>  <SCORE.INTRA.POLAR.0>
0

>  <SCORE.INTRA.REPUL>
0

>  <SCORE.INTRA.REPUL.0>
0

>  <SCORE.INTRA.SOLV>
-1.29713

>  <SCORE.INTRA.SOLV.lig_0>
-70.7393

>  <SCORE.INTRA.VDW>
0.618513

>  <SCORE.INTRA.VDW.0>
-3.23471

>  <SCORE.INTRA.norm>
-0.19284

>  <SCORE.RESTR>
0.10661

>  <SCORE.RESTR.CAVITY>
0.10661

>  <SCORE.RESTR.norm>
0.0031356

>  <SCORE.SYSTEM>
0

>  <SCORE.SYSTEM.CONST>
0

>  <SCORE.SYSTEM.DIHEDRAL>
0

>  <SCORE.SYSTEM.SOLV>
0

>  <SCORE.SYSTEM.norm>
0

>  <SCORE.heavy>
34

>  <SCORE.norm>
-0.499868

>  <RMSD>
7.208

$$$$
lig.pdb
 OpenBabel11021811503D
libRbt.so/2013.1/901 2013/11/27
 34 36  0  0  0  0  0  0  0  0999 V2000
    2.8776   21.7055   34.4620 C   0  0  2  0  0  0  0  0  0  0  0  0
    1.5581   21.4910   33.9490 O   0  0  0  0  0  0  0  0  0  0  0  0
    2.9695   23.1928   35.0104 C   0  0  2  0  0  0  0  0  0  0  0  0
    1.9961   23.4393   36.0997 N   0  0  0  0  0  0  0  0  0  0  0  0
    2.7232   24.1867   33.8474 C   0  0  1  0  0  0  0  0  0  0  0  0
    2.8091   25.5328   34.3210 O   0  0  0  0  0  0  0  0  0  0  0  0
    3.7597   23.9147   32.7427 C   0  0  2  0  0  0  0  0  0  0  0  0
    3.5462   24.8275   31.6649 O   0  0  0  0  0  0  0  0  0  0  0  0
    3.6318   22.4223   32.2500 C   0  0  2  0  0  0  0  0  0  0  0  0
    3.8332   21.4812   33.3723 O   0  0  0  0  0  0  0  0  0  0  0  0
    4.6685   22.0956   31.1465 C   0  0  2  0  0  0  0  0  0  0  0  0
    4.5778   23.0599   30.0960 O   0  0  0  0  0  0  0  0  0  0  0  0
    4.4289   20.7136   30.5590 C   0  0  0  0  0  0  0  0  0  0  0  0
   -1.0335   18.1497   34.6096 C   0  0  2  0  0  0  0  0  0  0  0  0
   -1.6225   16.8113   34.5208 N   0  0  0  0  0  0  0  0  0  0  0  0
   -0.9061   18.6940   33.1600 C   0  0  0  0  0  0  0  0  0  0  0  0
   -0.3053   20.1238   33.2347 C   0  0  2  0  0  0  0  0  0  0  0  0
   -0.1714   20.6826   31.8802 N   0  0  0  0  0  0  0  0  0  0  0  0
    1.0882   20.1057   33.9185 C   0  0  2  0  0  0  0  0  0  0  0  0
    0.9427   19.5128   35.3555 C   0  0  2  0  0  0  0  0  0  0  0  0
    2.2324   19.4859   35.9820 O   0  0  0  0  0  0  0  0  0  0  0  0
    0.3922   18.0670   35.3012 C   0  0  1  0  0  0  0  0  0  0  0  0
    0.2772   17.5971   36.6671 O   0  0  0  0  0  0  0  0  0  0  0  0
   -0.1049   16.2114   36.8328 C   0  0  2  0  0  0  0  0  0  0  0  0
   -0.3300   16.0009   38.3763 C   0  0  2  0  0  0  0  0  0  0  0  0
   -1.3665   16.8556   38.8331 O   0  0  0  0  0  0  0  0  0  0  0  0
    1.0191   16.2947   39.1354 C   0  0  1  0  0  0  0  0  0  0  0  0
    0.8491   16.1165   40.6098 N   0  0  0  0  0  0  0  0  0  0  0  0
    0.8606   17.4461   41.2569 C   0  0  0  0  0  0  0  0  0  0  0  0
    2.1119   15.3224   38.5959 C   0  0  2  0  0  0  0  0  0  0  0  0
    1.6986   13.9814   38.8537 O   0  0  0  0  0  0  0  0  0  0  0  0
    3.4589   15.5488   39.2777 C   0  0  0  0  0  0  0  0  0  0  0  0
    2.2650   15.5287   37.0548 C   0  0  0  0  0  0  0  0  0  0  0  0
    0.9754   15.3209   36.3631 O   0  0  0  0  0  0  0  0  0  0  0  0
  1  3  1  0  0  0  0
  1  2  1  6  0  0  0
  3  5  1  0  0  0  0
  3  4  1  1  0  0  0
  5  6  1  1  0  0  0
  7  8  1  6  0  0  0
  7  5  1  0  0  0  0
  9 10  1  1  0  0  0
  9  7  1  0  0  0  0
 10  1  1  0  0  0  0
 11 13  1  6  0  0  0
 11  9  1  0  0  0  0
 12 11  1  0  0  0  0
 14 15  1  6  0  0  0
 16 14  1  0  0  0  0
 17 18  1  6  0  0  0
 17 16  1  0  0  0  0
 19  2  1  1  0  0  0
 19 20  1  0  0  0  0
 19 17  1  0  0  0  0
 20 21  1  6  0  0  0
 20 22  1  0  0  0  0
 22 23  1  1  0  0  0
 22 14  1  0  0  0  0
 24 23  1  1  0  0  0
 24 25  1  0  0  0  0
 25 27  1  0  0  0  0
 25 26  1  1  0  0  0
 27 28  1  1  0  0  0
 28 29  1  0  0  0  0
 30 31  1  1  0  0  0
 30 32  1  0  0  0  0
 30 27  1  0  0  0  0
 33 30  1  0  0  0  0
 34 33  1  0  0  0  0
 34 24  1  0  0  0  0
M  END
>  <CHROM.1>
-155.28441840,-52.83247286,-175.96513872,69.49150745,-173.26642698,-107.78006324
1.66145791,19.47631887,35.27686350,-1.10224655,0.96190854,2.04630371

>  <Name>
lig.pdb

>  <RI>
0

>  <Rbt.Current_Directory>
/home/itssahil/PROJECTS/Mol_Feturizer/New_Systems/rnas/4k32

>  <Rbt.Executable>
rbdock ($Id: //depot/dev/client3/rdock/2013.1/src/exe/rbdock.cxx#4 $)

>  <Rbt.Library>
libRbt.so (2013.1, Build901 2013/11/27)

>  <Rbt.Parameter_File>
/export/apps/rDock/src/rDock_2013.1_src/data/scripts/dock_solv.prm

>  <Rbt.Receptor>
prm/pocket_docking_8.prm

>  <SCORE>
-17.1275

>  <SCORE.INTER>
-10.7058

>  <SCORE.INTER.CONST>
1

>  <SCORE.INTER.POLAR>
0

>  <SCORE.INTER.ROT>
6

>  <SCORE.INTER.SOLV>
23.3699

>  <SCORE.INTER.VDW>
-22.5272

>  <SCORE.INTER.norm>
-0.314877

>  <SCORE.INTRA>
-6.55412

>  <SCORE.INTRA.DIHEDRAL>
-13.3116

>  <SCORE.INTRA.DIHEDRAL.0>
18.0069

>  <SCORE.INTRA.POLAR>
0

>  <SCORE.INTRA.POLAR.0>
0

>  <SCORE.INTRA.REPUL>
0

>  <SCORE.INTRA.REPUL.0>
0

>  <SCORE.INTRA.SOLV>
-1.25276

>  <SCORE.INTRA.SOLV.lig_0>
-70.7393

>  <SCORE.INTRA.VDW>
0.728073

>  <SCORE.INTRA.VDW.0>
-3.23471

>  <SCORE.INTRA.norm>
-0.192768

>  <SCORE.RESTR>
0.132385

>  <SCORE.RESTR.CAVITY>
0.132385

>  <SCORE.RESTR.norm>
0.00389366

>  <SCORE.SYSTEM>
0

>  <SCORE.SYSTEM.CONST>
0

>  <SCORE.SYSTEM.DIHEDRAL>
0

>  <SCORE.SYSTEM.SOLV>
0

>  <SCORE.SYSTEM.norm>
0

>  <SCORE.heavy>
34

>  <SCORE.norm>
-0.503751

>  <RMSD>
7.219

$$$$
lig.pdb
 OpenBabel11021811503D
libRbt.so/2013.1/901 2013/11/27
 34 36  0  0  0  0  0  0  0  0999 V2000
   -6.3532   12.6155   36.0735 C   0  0  2  0  0  0  0  0  0  0  0  0
   -5.2198   13.3409   36.5627 O   0  0  0  0  0  0  0  0  0  0  0  0
   -6.3379   11.1636   36.7162 C   0  0  2  0  0  0  0  0  0  0  0  0
   -6.4152   11.2150   38.1948 N   0  0  0  0  0  0  0  0  0  0  0  0
   -5.0496   10.4210   36.2805 C   0  0  1  0  0  0  0  0  0  0  0  0
   -5.0214    9.1077   36.8444 O   0  0  0  0  0  0  0  0  0  0  0  0
   -5.0093   10.3710   34.7428 C   0  0  2  0  0  0  0  0  0  0  0  0
   -3.8273    9.6850   34.3271 O   0  0  0  0  0  0  0  0  0  0  0  0
   -5.0427   11.8368   34.1625 C   0  0  2  0  0  0  0  0  0  0  0  0
   -6.2574   12.5502   34.6115 O   0  0  0  0  0  0  0  0  0  0  0  0
   -5.0205   11.8373   32.6137 C   0  0  2  0  0  0  0  0  0  0  0  0
   -3.9498   11.0156   32.1446 O   0  0  0  0  0  0  0  0  0  0  0  0
   -4.8287   13.2435   32.0672 C   0  0  0  0  0  0  0  0  0  0  0  0
   -4.8486   17.1752   38.4274 C   0  0  2  0  0  0  0  0  0  0  0  0
   -4.8949   18.6233   38.6444 N   0  0  0  0  0  0  0  0  0  0  0  0
   -4.0684   16.9322   37.1060 C   0  0  0  0  0  0  0  0  0  0  0  0
   -3.9874   15.3995   36.8708 C   0  0  2  0  0  0  0  0  0  0  0  0
   -3.2494   15.1214   35.6287 N   0  0  0  0  0  0  0  0  0  0  0  0
   -5.4060   14.7772   36.7710 C   0  0  2  0  0  0  0  0  0  0  0  0
   -6.1862   15.0735   38.0906 C   0  0  2  0  0  0  0  0  0  0  0  0
   -7.5004   14.5081   37.9926 O   0  0  0  0  0  0  0  0  0  0  0  0
   -6.3228   16.5986   38.3184 C   0  0  1  0  0  0  0  0  0  0  0  0
   -7.0442   16.7866   39.5610 O   0  0  0  0  0  0  0  0  0  0  0  0
   -8.4829   16.6515   39.4877 C   0  0  2  0  0  0  0  0  0  0  0  0
   -9.0728   17.6866   40.5162 C   0  0  2  0  0  0  0  0  0  0  0  0
   -8.6826   19.0018   40.1539 O   0  0  0  0  0  0  0  0  0  0  0  0
   -8.5586   17.3233   41.9606 C   0  0  1  0  0  0  0  0  0  0  0  0
   -9.0873   18.2890   42.9716 N   0  0  0  0  0  0  0  0  0  0  0  0
   -8.0318   19.2746   43.2896 C   0  0  0  0  0  0  0  0  0  0  0  0
   -9.0240   15.8749   42.3014 C   0  0  2  0  0  0  0  0  0  0  0  0
  -10.4499   15.8347   42.2757 O   0  0  0  0  0  0  0  0  0  0  0  0
   -8.5566   15.4408   43.6884 C   0  0  0  0  0  0  0  0  0  0  0  0
   -8.4599   14.8898   41.2278 C   0  0  0  0  0  0  0  0  0  0  0  0
   -8.8908   15.2847   39.8702 O   0  0  0  0  0  0  0  0  0  0  0  0
  1  3  1  0  0  0  0
  1  2  1  1  0  0  0
  3  5  1  0  0  0  0
  3  4  1  1  0  0  0
  5  6  1  1  0  0  0
  7  8  1  1  0  0  0
  7  5  1  0  0  0  0
  9 10  1  6  0  0  0
  9  7  1  0  0  0  0
 10  1  1  0  0  0  0
 11 13  1  1  0  0  0
 11  9  1  0  0  0  0
 12 11  1  0  0  0  0
 14 15  1  6  0  0  0
 16 14  1  0  0  0  0
 17 18  1  6  0  0  0
 17 16  1  0  0  0  0
 19  2  1  1  0  0  0
 19 20  1  0  0  0  0
 19 17  1  0  0  0  0
 20 21  1  6  0  0  0
 20 22  1  0  0  0  0
 22 23  1  1  0  0  0
 22 14  1  0  0  0  0
 24 23  1  1  0  0  0
 24 25  1  0  0  0  0
 25 27  1  0  0  0  0
 25 26  1  6  0  0  0
 27 28  1  1  0  0  0
 28 29  1  0  0  0  0
 30 31  1  6  0  0  0
 30 32  1  0  0  0  0
 30 27  1  0  0  0  0
 33 30  1  0  0  0  0
 34 33  1  0  0  0  0
 34 24  1  0  0  0  0
M  END
>  <CHROM.1>
-145.50570873,-50.67771606,-163.12789147,163.47994979,-145.38193120,-100.51333077
-6.45816507,14.53623277,37.94857465,0.87207640,-0.95102230,-2.84867154

>  <Name>
lig.pdb

>  <RI>
0

>  <Rbt.Current_Directory>
/home/itssahil/PROJECTS/Mol_Feturizer/New_Systems/rnas/4k32

>  <Rbt.Executable>
rbdock ($Id: //depot/dev/client3/rdock/2013.1/src/exe/rbdock.cxx#4 $)

>  <Rbt.Library>
libRbt.so (2013.1, Build901 2013/11/27)

>  <Rbt.Parameter_File>
/export/apps/rDock/src/rDock_2013.1_src/data/scripts/dock_solv.prm

>  <Rbt.Receptor>
prm/pocket_docking_6.prm

>  <SCORE>
-5.25935

>  <SCORE.INTER>
-3.00781

>  <SCORE.INTER.CONST>
1

>  <SCORE.INTER.POLAR>
0

>  <SCORE.INTER.ROT>
6

>  <SCORE.INTER.SOLV>
14.3635

>  <SCORE.INTER.VDW>
-14.393

>  <SCORE.INTER.norm>
-0.0884649

>  <SCORE.INTRA>
-2.25154

>  <SCORE.INTRA.DIHEDRAL>
-5.24087

>  <SCORE.INTRA.DIHEDRAL.0>
18.0069

>  <SCORE.INTRA.POLAR>
0

>  <SCORE.INTRA.POLAR.0>
0

>  <SCORE.INTRA.REPUL>
0

>  <SCORE.INTRA.REPUL.0>
0

>  <SCORE.INTRA.SOLV>
-1.09692

>  <SCORE.INTRA.SOLV.lig_0>
-70.7393

>  <SCORE.INTRA.VDW>
0.917355

>  <SCORE.INTRA.VDW.0>
-3.23471

>  <SCORE.INTRA.norm>
-0.0662218

>  <SCORE.RESTR>
0

>  <SCORE.RESTR.CAVITY>
0

>  <SCORE.RESTR.norm>
0

>  <SCORE.SYSTEM>
0

>  <SCORE.SYSTEM.CONST>
0

>  <SCORE.SYSTEM.DIHEDRAL>
0

>  <SCORE.SYSTEM.SOLV>
0

>  <SCORE.SYSTEM.norm>
0

>  <SCORE.heavy>
34

>  <SCORE.norm>
-0.154687

>  <RMSD>
7.273

$$$$
lig.pdb
 OpenBabel11021811503D
libRbt.so/2013.1/901 2013/11/27
 34 36  0  0  0  0  0  0  0  0999 V2000
   -4.9072   16.0222   39.9010 C   0  0  2  0  0  0  0  0  0  0  0  0
   -4.9863   16.7885   38.6941 O   0  0  0  0  0  0  0  0  0  0  0  0
   -6.3826   15.6852   40.3817 C   0  0  2  0  0  0  0  0  0  0  0  0
   -7.1241   14.8952   39.3712 N   0  0  0  0  0  0  0  0  0  0  0  0
   -7.1403   17.0032   40.6813 C   0  0  1  0  0  0  0  0  0  0  0  0
   -8.4701   16.7196   41.1226 O   0  0  0  0  0  0  0  0  0  0  0  0
   -6.3533   17.7900   41.7445 C   0  0  2  0  0  0  0  0  0  0  0  0
   -7.0435   19.0068   42.0331 O   0  0  0  0  0  0  0  0  0  0  0  0
   -4.8953   18.0808   41.2191 C   0  0  2  0  0  0  0  0  0  0  0  0
   -4.1916   16.8198   40.9023 O   0  0  0  0  0  0  0  0  0  0  0  0
   -4.0575   18.8584   42.2644 C   0  0  2  0  0  0  0  0  0  0  0  0
   -4.6515   20.1348   42.5085 O   0  0  0  0  0  0  0  0  0  0  0  0
   -2.6323   19.0712   41.7782 C   0  0  0  0  0  0  0  0  0  0  0  0
   -2.2205   17.3642   35.4792 C   0  0  2  0  0  0  0  0  0  0  0  0
   -1.0216   17.7537   34.7328 N   0  0  0  0  0  0  0  0  0  0  0  0
   -2.7154   18.6222   36.2449 C   0  0  0  0  0  0  0  0  0  0  0  0
   -4.0014   18.2352   37.0242 C   0  0  2  0  0  0  0  0  0  0  0  0
   -4.5102   19.4019   37.7624 N   0  0  0  0  0  0  0  0  0  0  0  0
   -3.7188   17.0826   38.0249 C   0  0  2  0  0  0  0  0  0  0  0  0
   -3.1797   15.8462   37.2386 C   0  0  2  0  0  0  0  0  0  0  0  0
   -2.9081   14.7860   38.1653 O   0  0  0  0  0  0  0  0  0  0  0  0
   -1.8683   16.1965   36.4943 C   0  0  1  0  0  0  0  0  0  0  0  0
   -1.4431   15.0065   35.7852 O   0  0  0  0  0  0  0  0  0  0  0  0
   -0.2273   15.1283   35.0103 C   0  0  2  0  0  0  0  0  0  0  0  0
   -0.0008   13.7281   34.3281 C   0  0  2  0  0  0  0  0  0  0  0  0
   -1.0966   13.4222   33.4802 O   0  0  0  0  0  0  0  0  0  0  0  0
    0.1680   12.6336   35.4489 C   0  0  1  0  0  0  0  0  0  0  0  0
    0.3760   11.2821   34.8451 N   0  0  0  0  0  0  0  0  0  0  0  0
   -0.8529   10.4808   35.0307 C   0  0  0  0  0  0  0  0  0  0  0  0
    1.3877   13.0215   36.3391 C   0  0  2  0  0  0  0  0  0  0  0  0
    2.5572   13.0563   35.5226 O   0  0  0  0  0  0  0  0  0  0  0  0
    1.6154   12.0109   37.4605 C   0  0  0  0  0  0  0  0  0  0  0  0
    1.1439   14.4373   36.9530 C   0  0  0  0  0  0  0  0  0  0  0  0
    0.9150   15.4409   35.8924 O   0  0  0  0  0  0  0  0  0  0  0  0
  1  3  1  0  0  0  0
  1  2  1  6  0  0  0
  3  5  1  0  0  0  0
  3  4  1  6  0  0  0
  5  6  1  1  0  0  0
  7  8  1  6  0  0  0
  7  5  1  0  0  0  0
  9 10  1  1  0  0  0
  9  7  1  0  0  0  0
 10  1  1  0  0  0  0
 11 13  1  6  0  0  0
 11  9  1  0  0  0  0
 12 11  1  0  0  0  0
 14 15  1  1  0  0  0
 16 14  1  0  0  0  0
 17 18  1  1  0  0  0
 17 16  1  0  0  0  0
 19  2  1  6  0  0  0
 19 20  1  0  0  0  0
 19 17  1  0  0  0  0
 20 21  1  1  0  0  0
 20 22  1  0  0  0  0
 22 23  1  6  0  0  0
 22 14  1  0  0  0  0
 24 23  1  1  0  0  0
 24 25  1  0  0  0  0
 25 27  1  0  0  0  0
 25 26  1  6  0  0  0
 27 28  1  6  0  0  0
 28 29  1  0  0  0  0
 30 31  1  6  0  0  0
 30 32  1  0  0  0  0
 30 27  1  0  0  0  0
 33 30  1  0  0  0  0
 34 33  1  0  0  0  0
 34 24  1  0  0  0  0
M  END
>  <CHROM.1>
-174.14943453,-62.70122818,-163.66972903,63.48009679,-179.02912679,-107.20552828
-2.77522306,15.92860823,37.95575264,2.52815123,0.65997307,0.16951450

>  <Name>
lig.pdb

>  <RI>
0

>  <Rbt.Current_Directory>
/home/itssahil/PROJECTS/Mol_Feturizer/New_Systems/rnas/4k32

>  <Rbt.Executable>
rbdock ($Id: //depot/dev/client3/rdock/2013.1/src/exe/rbdock.cxx#4 $)

>  <Rbt.Library>
libRbt.so (2013.1, Build901 2013/11/27)

>  <Rbt.Parameter_File>
/export/apps/rDock/src/rDock_2013.1_src/data/scripts/dock_solv.prm

>  <Rbt.Receptor>
prm/pocket_docking_7.prm

>  <SCORE>
-7.073

>  <SCORE.INTER>
0.594674

>  <SCORE.INTER.CONST>
1

>  <SCORE.INTER.POLAR>
0

>  <SCORE.INTER.ROT>
6

>  <SCORE.INTER.SOLV>
14.5937

>  <SCORE.INTER.VDW>
-12.0681

>  <SCORE.INTER.norm>
0.0174904

>  <SCORE.INTRA>
-7.66767

>  <SCORE.INTRA.DIHEDRAL>
-15.3746

>  <SCORE.INTRA.DIHEDRAL.0>
18.0069

>  <SCORE.INTRA.POLAR>
0

>  <SCORE.INTRA.POLAR.0>
0

>  <SCORE.INTRA.REPUL>
0

>  <SCORE.INTRA.REPUL.0>
0

>  <SCORE.INTRA.SOLV>
-0.897004

>  <SCORE.INTRA.SOLV.lig_0>
-70.7393

>  <SCORE.INTRA.VDW>
0.468113

>  <SCORE.INTRA.VDW.0>
-3.23471

>  <SCORE.INTRA.norm>
-0.22552

>  <SCORE.RESTR>
0

>  <SCORE.RESTR.CAVITY>
0

>  <SCORE.RESTR.norm>
0

>  <SCORE.SYSTEM>
0

>  <SCORE.SYSTEM.CONST>
0

>  <SCORE.SYSTEM.DIHEDRAL>
0

>  <SCORE.SYSTEM.SOLV>
0

>  <SCORE.SYSTEM.norm>
0

>  <SCORE.heavy>
34

>  <SCORE.norm>
-0.208029

>  <RMSD>
7.277

$$$$
lig.pdb
 OpenBabel11021811503D
libRbt.so/2013.1/901 2013/11/27
 34 36  0  0  0  0  0  0  0  0999 V2000
   -4.7811   15.8704   40.1009 C   0  0  2  0  0  0  0  0  0  0  0  0
   -4.9627   16.4988   38.8272 O   0  0  0  0  0  0  0  0  0  0  0  0
   -6.2106   15.5520   40.7143 C   0  0  2  0  0  0  0  0  0  0  0  0
   -6.9912   14.6391   39.8469 N   0  0  0  0  0  0  0  0  0  0  0  0
   -6.9883   16.8760   40.9223 C   0  0  1  0  0  0  0  0  0  0  0  0
   -8.2769   16.6098   41.4811 O   0  0  0  0  0  0  0  0  0  0  0  0
   -6.1588   17.7925   41.8392 C   0  0  2  0  0  0  0  0  0  0  0  0
   -6.8666   19.0165   42.0425 O   0  0  0  0  0  0  0  0  0  0  0  0
   -4.7480   18.0598   41.1876 C   0  0  2  0  0  0  0  0  0  0  0  0
   -4.0271   16.7892   40.9601 O   0  0  0  0  0  0  0  0  0  0  0  0
   -3.8688   18.9665   42.0842 C   0  0  2  0  0  0  0  0  0  0  0  0
   -2.6406   19.2627   41.4167 O   0  0  0  0  0  0  0  0  0  0  0  0
   -3.5508   18.2884   43.4077 C   0  0  0  0  0  0  0  0  0  0  0  0
   -2.3677   17.0757   35.4731 C   0  0  2  0  0  0  0  0  0  0  0  0
   -1.2292   17.5041   34.6568 N   0  0  0  0  0  0  0  0  0  0  0  0
   -2.9251   18.3391   36.1853 C   0  0  0  0  0  0  0  0  0  0  0  0
   -4.1494   17.9090   37.0379 C   0  0  2  0  0  0  0  0  0  0  0  0
   -4.7150   19.0787   37.7284 N   0  0  0  0  0  0  0  0  0  0  0  0
   -3.7459   16.8417   38.0905 C   0  0  2  0  0  0  0  0  0  0  0  0
   -3.1468   15.6018   37.3547 C   0  0  2  0  0  0  0  0  0  0  0  0
   -2.7639   14.6213   38.3286 O   0  0  0  0  0  0  0  0  0  0  0  0
   -1.8933   15.9993   36.5380 C   0  0  1  0  0  0  0  0  0  0  0  0
   -1.4083   14.8021   35.8813 O   0  0  0  0  0  0  0  0  0  0  0  0
   -0.2345   14.9636   35.0507 C   0  0  2  0  0  0  0  0  0  0  0  0
   -0.0480   13.6002   34.2866 C   0  0  2  0  0  0  0  0  0  0  0  0
   -1.1877   13.3382   33.4831 O   0  0  0  0  0  0  0  0  0  0  0  0
    0.1766   12.4496   35.3394 C   0  0  1  0  0  0  0  0  0  0  0  0
    0.3489   11.1309   34.6570 N   0  0  0  0  0  0  0  0  0  0  0  0
   -0.9541   10.4322   34.6300 C   0  0  0  0  0  0  0  0  0  0  0  0
    1.4425   12.7913   36.1829 C   0  0  2  0  0  0  0  0  0  0  0  0
    2.5675   12.8680   35.3088 O   0  0  0  0  0  0  0  0  0  0  0  0
    1.7260   11.7245   37.2374 C   0  0  0  0  0  0  0  0  0  0  0  0
    1.2351   14.1738   36.8806 C   0  0  0  0  0  0  0  0  0  0  0  0
    0.9535   15.2305   35.8862 O   0  0  0  0  0  0  0  0  0  0  0  0
  1  3  1  0  0  0  0
  1  2  1  6  0  0  0
  3  5  1  0  0  0  0
  3  4  1  6  0  0  0
  5  6  1  1  0  0  0
  7  8  1  6  0  0  0
  7  5  1  0  0  0  0
  9 10  1  1  0  0  0
  9  7  1  0  0  0  0
 10  1  1  0  0  0  0
 11 13  1  1  0  0  0
 11  9  1  0  0  0  0
 12 11  1  0  0  0  0
 14 15  1  1  0  0  0
 16 14  1  0  0  0  0
 17 18  1  1  0  0  0
 17 16  1  0  0  0  0
 19  2  1  6  0  0  0
 19 20  1  0  0  0  0
 19 17  1  0  0  0  0
 20 21  1  1  0  0  0
 20 22  1  0  0  0  0
 22 23  1  6  0  0  0
 22 14  1  0  0  0  0
 24 23  1  1  0  0  0
 24 25  1  0  0  0  0
 25 27  1  0  0  0  0
 25 26  1  1  0  0  0
 27 28  1  6  0  0  0
 28 29  1  0  0  0  0
 30 31  1  6  0  0  0
 30 32  1  0  0  0  0
 30 27  1  0  0  0  0
 33 30  1  0  0  0  0
 34 33  1  0  0  0  0
 34 24  1  0  0  0  0
M  END
>  <CHROM.1>
-178.65933694,-175.84518713,-160.83366629,63.45600787,-171.38168988,-95.98037085
-2.70820616,15.71644220,37.98920145,2.60320536,0.75174595,0.06512440

>  <Name>
lig.pdb

>  <RI>
0

>  <Rbt.Current_Directory>
/home/itssahil/PROJECTS/Mol_Feturizer/New_Systems/rnas/4k32

>  <Rbt.Executable>
rbdock ($Id: //depot/dev/client3/rdock/2013.1/src/exe/rbdock.cxx#4 $)

>  <Rbt.Library>
libRbt.so (2013.1, Build901 2013/11/27)

>  <Rbt.Parameter_File>
/export/apps/rDock/src/rDock_2013.1_src/data/scripts/dock_solv.prm

>  <Rbt.Receptor>
prm/pocket_docking_8.prm

>  <SCORE>
-6.14645

>  <SCORE.INTER>
0.954873

>  <SCORE.INTER.CONST>
1

>  <SCORE.INTER.POLAR>
0

>  <SCORE.INTER.ROT>
6

>  <SCORE.INTER.SOLV>
13.4138

>  <SCORE.INTER.VDW>
-11.4347

>  <SCORE.INTER.norm>
0.0280845

>  <SCORE.INTRA>
-7.10132

>  <SCORE.INTRA.DIHEDRAL>
-14.9907

>  <SCORE.INTRA.DIHEDRAL.0>
18.0069

>  <SCORE.INTRA.POLAR>
0

>  <SCORE.INTRA.POLAR.0>
0

>  <SCORE.INTRA.REPUL>
0

>  <SCORE.INTRA.REPUL.0>
0

>  <SCORE.INTRA.SOLV>
-1.10268

>  <SCORE.INTRA.SOLV.lig_0>
-70.7393

>  <SCORE.INTRA.VDW>
0.945361

>  <SCORE.INTRA.VDW.0>
-3.23471

>  <SCORE.INTRA.norm>
-0.208862

>  <SCORE.RESTR>
0

>  <SCORE.RESTR.CAVITY>
0

>  <SCORE.RESTR.norm>
0

>  <SCORE.SYSTEM>
0

>  <SCORE.SYSTEM.CONST>
0

>  <SCORE.SYSTEM.DIHEDRAL>
0

>  <SCORE.SYSTEM.SOLV>
0

>  <SCORE.SYSTEM.norm>
0

>  <SCORE.heavy>
34

>  <SCORE.norm>
-0.180778

>  <RMSD>
7.295

$$$$
lig.pdb
 OpenBabel11021811503D
libRbt.so/2013.1/901 2013/11/27
 34 36  0  0  0  0  0  0  0  0999 V2000
    2.2961   21.6837   33.8435 C   0  0  2  0  0  0  0  0  0  0  0  0
    0.9328   21.2489   33.8938 O   0  0  0  0  0  0  0  0  0  0  0  0
    2.3569   23.2050   34.2941 C   0  0  2  0  0  0  0  0  0  0  0  0
    1.8551   23.3907   35.6757 N   0  0  0  0  0  0  0  0  0  0  0  0
    1.5261   24.0671   33.3105 C   0  0  1  0  0  0  0  0  0  0  0  0
    1.5747   25.4427   33.6964 O   0  0  0  0  0  0  0  0  0  0  0  0
    2.0832   23.8640   31.8902 C   0  0  2  0  0  0  0  0  0  0  0  0
    1.3280   24.6568   30.9729 O   0  0  0  0  0  0  0  0  0  0  0  0
    2.0121   22.3366   31.5050 C   0  0  2  0  0  0  0  0  0  0  0  0
    2.7780   21.5174   32.4684 O   0  0  0  0  0  0  0  0  0  0  0  0
    2.5785   22.0796   30.0865 C   0  0  2  0  0  0  0  0  0  0  0  0
    2.4020   20.7057   29.7361 O   0  0  0  0  0  0  0  0  0  0  0  0
    4.0611   22.4114   30.0183 C   0  0  0  0  0  0  0  0  0  0  0  0
   -0.8780   17.6107   35.2360 C   0  0  2  0  0  0  0  0  0  0  0  0
   -1.2319   16.1930   35.3412 N   0  0  0  0  0  0  0  0  0  0  0  0
   -1.1092   18.0348   33.7593 C   0  0  0  0  0  0  0  0  0  0  0  0
   -0.7622   19.5430   33.6327 C   0  0  2  0  0  0  0  0  0  0  0  0
   -0.9726   19.9909   32.2470 N   0  0  0  0  0  0  0  0  0  0  0  0
    0.7129   19.8093   34.0360 C   0  0  2  0  0  0  0  0  0  0  0  0
    0.9326   19.3335   35.5067 C   0  0  2  0  0  0  0  0  0  0  0  0
    2.2985   19.5695   35.8744 O   0  0  0  0  0  0  0  0  0  0  0  0
    0.6409   17.8195   35.6446 C   0  0  1  0  0  0  0  0  0  0  0  0
    0.8560   17.4629   37.0325 O   0  0  0  0  0  0  0  0  0  0  0  0
    0.4973   16.1114   37.4048 C   0  0  2  0  0  0  0  0  0  0  0  0
    0.4060   16.0998   38.9761 C   0  0  2  0  0  0  0  0  0  0  0  0
   -0.5925   17.0110   39.4076 O   0  0  0  0  0  0  0  0  0  0  0  0
    1.8133   16.4804   39.5738 C   0  0  1  0  0  0  0  0  0  0  0  0
    1.7708   16.4918   41.0679 N   0  0  0  0  0  0  0  0  0  0  0  0
    1.8023   17.8939   41.5368 C   0  0  0  0  0  0  0  0  0  0  0  0
    2.8615   15.4418   39.0707 C   0  0  2  0  0  0  0  0  0  0  0  0
    2.4792   14.1465   39.5310 O   0  0  0  0  0  0  0  0  0  0  0  0
    4.2605   15.7457   39.6007 C   0  0  0  0  0  0  0  0  0  0  0  0
    2.8813   15.4499   37.5084 C   0  0  0  0  0  0  0  0  0  0  0  0
    1.5385   15.1628   36.9614 O   0  0  0  0  0  0  0  0  0  0  0  0
  1  3  1  0  0  0  0
  1  2  1  6  0  0  0
  3  5  1  0  0  0  0
  3  4  1  1  0  0  0
  5  6  1  1  0  0  0
  7  8  1  6  0  0  0
  7  5  1  0  0  0  0
  9 10  1  1  0  0  0
  9  7  1  0  0  0  0
 10  1  1  0  0  0  0
 11 13  1  1  0  0  0
 11  9  1  0  0  0  0
 12 11  1  0  0  0  0
 14 15  1  6  0  0  0
 16 14  1  0  0  0  0
 17 18  1  6  0  0  0
 17 16  1  0  0  0  0
 19  2  1  1  0  0  0
 19 20  1  0  0  0  0
 19 17  1  0  0  0  0
 20 21  1  6  0  0  0
 20 22  1  0  0  0  0
 22 23  1  1  0  0  0
 22 14  1  0  0  0  0
 24 23  1  1  0  0  0
 24 25  1  0  0  0  0
 25 27  1  0  0  0  0
 25 26  1  6  0  0  0
 27 28  1  1  0  0  0
 28 29  1  0  0  0  0
 30 31  1  1  0  0  0
 30 32  1  0  0  0  0
 30 27  1  0  0  0  0
 33 30  1  0  0  0  0
 34 33  1  0  0  0  0
 34 24  1  0  0  0  0
M  END
>  <CHROM.1>
-156.64076791,-175.56248035,-162.96324197,57.52991344,-163.46613625,-106.63899785
1.43130718,19.36032558,35.30452403,-1.49155389,1.11207117,2.26679856

>  <Name>
lig.pdb

>  <RI>
0

>  <Rbt.Current_Directory>
/home/itssahil/PROJECTS/Mol_Feturizer/New_Systems/rnas/4k32

>  <Rbt.Executable>
rbdock ($Id: //depot/dev/client3/rdock/2013.1/src/exe/rbdock.cxx#4 $)

>  <Rbt.Library>
libRbt.so (2013.1, Build901 2013/11/27)

>  <Rbt.Parameter_File>
/export/apps/rDock/src/rDock_2013.1_src/data/scripts/dock_solv.prm

>  <Rbt.Receptor>
prm/pocket_docking_6.prm

>  <SCORE>
-16.6912

>  <SCORE.INTER>
-11.7299

>  <SCORE.INTER.CONST>
1

>  <SCORE.INTER.POLAR>
0

>  <SCORE.INTER.ROT>
6

>  <SCORE.INTER.SOLV>
24.5784

>  <SCORE.INTER.VDW>
-23.6127

>  <SCORE.INTER.norm>
-0.344997

>  <SCORE.INTRA>
-4.96128

>  <SCORE.INTRA.DIHEDRAL>
-11.7928

>  <SCORE.INTRA.DIHEDRAL.0>
18.0069

>  <SCORE.INTRA.POLAR>
0

>  <SCORE.INTRA.POLAR.0>
0

>  <SCORE.INTRA.REPUL>
0

>  <SCORE.INTRA.REPUL.0>
0

>  <SCORE.INTRA.SOLV>
-0.765265

>  <SCORE.INTRA.SOLV.lig_0>
-70.7393

>  <SCORE.INTRA.VDW>
1.31773

>  <SCORE.INTRA.VDW.0>
-3.23471

>  <SCORE.INTRA.norm>
-0.14592

>  <SCORE.RESTR>
0

>  <SCORE.RESTR.CAVITY>
0

>  <SCORE.RESTR.norm>
0

>  <SCORE.SYSTEM>
0

>  <SCORE.SYSTEM.CONST>
0

>  <SCORE.SYSTEM.DIHEDRAL>
0

>  <SCORE.SYSTEM.SOLV>
0

>  <SCORE.SYSTEM.norm>
0

>  <SCORE.heavy>
34

>  <SCORE.norm>
-0.490917

>  <RMSD>
7.318

$$$$
lig.pdb
 OpenBabel11021811503D
libRbt.so/2013.1/901 2013/11/27
 34 36  0  0  0  0  0  0  0  0999 V2000
   -3.3174   16.0294   38.7764 C   0  0  2  0  0  0  0  0  0  0  0  0
   -3.9787   16.9377   39.6640 O   0  0  0  0  0  0  0  0  0  0  0  0
   -3.8952   14.5715   39.0248 C   0  0  2  0  0  0  0  0  0  0  0  0
   -5.3523   14.5050   38.7653 N   0  0  0  0  0  0  0  0  0  0  0  0
   -3.5987   14.1415   40.4836 C   0  0  1  0  0  0  0  0  0  0  0  0
   -4.1059   12.8269   40.7243 O   0  0  0  0  0  0  0  0  0  0  0  0
   -2.0783   14.2059   40.7138 C   0  0  2  0  0  0  0  0  0  0  0  0
   -1.7903   13.8079   42.0551 O   0  0  0  0  0  0  0  0  0  0  0  0
   -1.5605   15.6694   40.4375 C   0  0  2  0  0  0  0  0  0  0  0  0
   -1.8785   16.0850   39.0547 O   0  0  0  0  0  0  0  0  0  0  0  0
   -0.0290   15.7800   40.6408 C   0  0  2  0  0  0  0  0  0  0  0  0
    0.3096   15.4124   41.9794 O   0  0  0  0  0  0  0  0  0  0  0  0
    0.4580   17.1985   40.3889 C   0  0  0  0  0  0  0  0  0  0  0  0
   -7.2650   19.6176   39.0852 C   0  0  2  0  0  0  0  0  0  0  0  0
   -8.5320   20.1773   38.6082 N   0  0  0  0  0  0  0  0  0  0  0  0
   -6.4524   19.1847   37.8338 C   0  0  0  0  0  0  0  0  0  0  0  0
   -5.0937   18.6102   38.3183 C   0  0  2  0  0  0  0  0  0  0  0  0
   -4.2859   18.1911   37.1621 N   0  0  0  0  0  0  0  0  0  0  0  0
   -5.3084   17.3934   39.2579 C   0  0  2  0  0  0  0  0  0  0  0  0
   -6.1653   17.8416   40.4838 C   0  0  2  0  0  0  0  0  0  0  0  0
   -6.3727   16.7140   41.3453 O   0  0  0  0  0  0  0  0  0  0  0  0
   -7.5460   18.3711   40.0260 C   0  0  1  0  0  0  0  0  0  0  0  0
   -8.2697   18.7741   41.2149 O   0  0  0  0  0  0  0  0  0  0  0  0
   -9.5987   19.3050   41.0009 C   0  0  2  0  0  0  0  0  0  0  0  0
  -10.2451   19.4553   42.4282 C   0  0  2  0  0  0  0  0  0  0  0  0
   -9.4765   20.3532   43.2132 O   0  0  0  0  0  0  0  0  0  0  0  0
  -10.3221   18.0357   43.1076 C   0  0  1  0  0  0  0  0  0  0  0  0
  -10.9220   18.1319   44.4733 N   0  0  0  0  0  0  0  0  0  0  0  0
   -9.8625   17.9007   45.4787 C   0  0  0  0  0  0  0  0  0  0  0  0
  -11.1824   17.1009   42.2039 C   0  0  2  0  0  0  0  0  0  0  0  0
  -12.4939   17.6518   42.0936 O   0  0  0  0  0  0  0  0  0  0  0  0
  -11.2996   15.6963   42.7902 C   0  0  0  0  0  0  0  0  0  0  0  0
  -10.5340   17.0224   40.7845 C   0  0  0  0  0  0  0  0  0  0  0  0
  -10.4015   18.3686   40.1889 O   0  0  0  0  0  0  0  0  0  0  0  0
  1  3  1  0  0  0  0
  1  2  1  1  0  0  0
  3  5  1  0  0  0  0
  3  4  1  1  0  0  0
  5  6  1  6  0  0  0
  7  8  1  1  0  0  0
  7  5  1  0  0  0  0
  9 10  1  6  0  0  0
  9  7  1  0  0  0  0
 10  1  1  0  0  0  0
 11 13  1  1  0  0  0
 11  9  1  0  0  0  0
 12 11  1  0  0  0  0
 14 15  1  6  0  0  0
 16 14  1  0  0  0  0
 17 18  1  6  0  0  0
 17 16  1  0  0  0  0
 19  2  1  1  0  0  0
 19 20  1  0  0  0  0
 19 17  1  0  0  0  0
 20 21  1  1  0  0  0
 20 22  1  0  0  0  0
 22 23  1  1  0  0  0
 22 14  1  0  0  0  0
 24 23  1  1  0  0  0
 24 25  1  0  0  0  0
 25 27  1  0  0  0  0
 25 26  1  1  0  0  0
 27 28  1  1  0  0  0
 28 29  1  0  0  0  0
 30 31  1  6  0  0  0
 30 32  1  0  0  0  0
 30 27  1  0  0  0  0
 33 30  1  0  0  0  0
 34 33  1  0  0  0  0
 34 24  1  0  0  0  0
M  END
>  <CHROM.1>
-80.32620939,-59.05747074,-85.35889167,63.84961481,171.53900022,-108.72734372
-6.23921152,17.07338836,40.73880606,-0.02779484,0.38379555,-0.88049740

>  <Name>
lig.pdb

>  <RI>
0

>  <Rbt.Current_Directory>
/home/itssahil/PROJECTS/Mol_Feturizer/New_Systems/rnas/4k32

>  <Rbt.Executable>
rbdock ($Id: //depot/dev/client3/rdock/2013.1/src/exe/rbdock.cxx#4 $)

>  <Rbt.Library>
libRbt.so (2013.1, Build901 2013/11/27)

>  <Rbt.Parameter_File>
/export/apps/rDock/src/rDock_2013.1_src/data/scripts/dock_solv.prm

>  <Rbt.Receptor>
prm/pocket_docking_8.prm

>  <SCORE>
-1.79968

>  <SCORE.INTER>
2.29718

>  <SCORE.INTER.CONST>
1

>  <SCORE.INTER.POLAR>
0

>  <SCORE.INTER.ROT>
6

>  <SCORE.INTER.SOLV>
12.6762

>  <SCORE.INTER.VDW>
-10.2939

>  <SCORE.INTER.norm>
0.067564

>  <SCORE.INTRA>
-4.10223

>  <SCORE.INTRA.DIHEDRAL>
-11.8296

>  <SCORE.INTRA.DIHEDRAL.0>
18.0069

>  <SCORE.INTRA.POLAR>
0

>  <SCORE.INTRA.POLAR.0>
0

>  <SCORE.INTRA.REPUL>
0

>  <SCORE.INTRA.REPUL.0>
0

>  <SCORE.INTRA.SOLV>
1.98455

>  <SCORE.INTRA.SOLV.lig_0>
-70.7393

>  <SCORE.INTRA.VDW>
0.82031

>  <SCORE.INTRA.VDW.0>
-3.23471

>  <SCORE.INTRA.norm>
-0.120654

>  <SCORE.RESTR>
0.00536959

>  <SCORE.RESTR.CAVITY>
0.00536959

>  <SCORE.RESTR.norm>
0.000157929

>  <SCORE.SYSTEM>
0

>  <SCORE.SYSTEM.CONST>
0

>  <SCORE.SYSTEM.DIHEDRAL>
0

>  <SCORE.SYSTEM.SOLV>
0

>  <SCORE.SYSTEM.norm>
0

>  <SCORE.heavy>
34

>  <SCORE.norm>
-0.0529318

>  <RMSD>
7.355

$$$$
lig.pdb
 OpenBabel11021811503D
libRbt.so/2013.1/901 2013/11/27
 34 36  0  0  0  0  0  0  0  0999 V2000
   -5.2041   18.1833   39.9720 C   0  0  2  0  0  0  0  0  0  0  0  0
   -5.5466   16.8160   40.2235 O   0  0  0  0  0  0  0  0  0  0  0  0
   -5.0231   18.9221   41.3658 C   0  0  2  0  0  0  0  0  0  0  0  0
   -3.9459   18.3097   42.1779 N   0  0  0  0  0  0  0  0  0  0  0  0
   -6.3606   18.8829   42.1470 C   0  0  1  0  0  0  0  0  0  0  0  0
   -6.2190   19.5501   43.4033 O   0  0  0  0  0  0  0  0  0  0  0  0
   -7.4518   19.5405   41.2836 C   0  0  2  0  0  0  0  0  0  0  0  0
   -8.6907   19.5144   41.9942 O   0  0  0  0  0  0  0  0  0  0  0  0
   -7.5748   18.7762   39.9099 C   0  0  2  0  0  0  0  0  0  0  0  0
   -6.2852   18.7880   39.1868 O   0  0  0  0  0  0  0  0  0  0  0  0
   -8.6521   19.4136   38.9976 C   0  0  2  0  0  0  0  0  0  0  0  0
   -8.4720   20.8303   38.9526 O   0  0  0  0  0  0  0  0  0  0  0  0
  -10.0525   19.1182   39.5118 C   0  0  0  0  0  0  0  0  0  0  0  0
   -5.1973   13.4127   37.6520 C   0  0  2  0  0  0  0  0  0  0  0  0
   -5.4466   12.4639   36.5640 N   0  0  0  0  0  0  0  0  0  0  0  0
   -6.5447   13.6252   38.3957 C   0  0  0  0  0  0  0  0  0  0  0  0
   -6.2954   14.6108   39.5694 C   0  0  2  0  0  0  0  0  0  0  0  0
   -7.5477   14.8378   40.3077 N   0  0  0  0  0  0  0  0  0  0  0  0
   -5.7575   15.9704   39.0481 C   0  0  2  0  0  0  0  0  0  0  0  0
   -4.4286   15.7262   38.2657 C   0  0  2  0  0  0  0  0  0  0  0  0
   -3.9387   16.9815   37.7749 O   0  0  0  0  0  0  0  0  0  0  0  0
   -4.6652   14.7852   37.0596 C   0  0  1  0  0  0  0  0  0  0  0  0
   -3.3891   14.6020   36.3980 O   0  0  0  0  0  0  0  0  0  0  0  0
   -3.1113   15.4949   35.2937 C   0  0  2  0  0  0  0  0  0  0  0  0
   -2.0378   14.7673   34.4018 C   0  0  2  0  0  0  0  0  0  0  0  0
   -2.5620   13.5391   33.9223 O   0  0  0  0  0  0  0  0  0  0  0  0
   -0.7367   14.5294   35.2582 C   0  0  1  0  0  0  0  0  0  0  0  0
    0.3097   13.8297   34.4520 N   0  0  0  0  0  0  0  0  0  0  0  0
    0.4413   12.4405   34.9413 C   0  0  0  0  0  0  0  0  0  0  0  0
   -0.2074   15.9117   35.7478 C   0  0  2  0  0  0  0  0  0  0  0  0
    0.1076   16.7105   34.6085 O   0  0  0  0  0  0  0  0  0  0  0  0
    1.0535   15.7678   36.5964 C   0  0  0  0  0  0  0  0  0  0  0  0
   -1.3216   16.6199   36.5833 C   0  0  0  0  0  0  0  0  0  0  0  0
   -2.5602   16.7714   35.7912 O   0  0  0  0  0  0  0  0  0  0  0  0
  1  3  1  0  0  0  0
  1  2  1  1  0  0  0
  3  5  1  0  0  0  0
  3  4  1  1  0  0  0
  5  6  1  1  0  0  0
  7  8  1  1  0  0  0
  7  5  1  0  0  0  0
  9 10  1  6  0  0  0
  9  7  1  0  0  0  0
 10  1  1  0  0  0  0
 11 13  1  1  0  0  0
 11  9  1  0  0  0  0
 12 11  1  0  0  0  0
 14 15  1  6  0  0  0
 16 14  1  0  0  0  0
 17 18  1  6  0  0  0
 17 16  1  0  0  0  0
 19  2  1  1  0  0  0
 19 20  1  0  0  0  0
 19 17  1  0  0  0  0
 20 21  1  6  0  0  0
 20 22  1  0  0  0  0
 22 23  1  1  0  0  0
 22 14  1  0  0  0  0
 24 23  1  1  0  0  0
 24 25  1  0  0  0  0
 25 27  1  0  0  0  0
 25 26  1  1  0  0  0
 27 28  1  6  0  0  0
 28 29  1  0  0  0  0
 30 31  1  6  0  0  0
 30 32  1  0  0  0  0
 30 27  1  0  0  0  0
 33 30  1  0  0  0  0
 34 33  1  0  0  0  0
 34 24  1  0  0  0  0
M  END
>  <CHROM.1>
179.88808109,47.79878249,-172.61093382,149.94038282,-157.23466228,-108.46527990
-4.50739035,16.50338007,38.16227710,-2.36128678,-0.35689605,-2.56663002

>  <Name>
lig.pdb

>  <RI>
0

>  <Rbt.Current_Directory>
/home/itssahil/PROJECTS/Mol_Feturizer/New_Systems/rnas/4k32

>  <Rbt.Executable>
rbdock ($Id: //depot/dev/client3/rdock/2013.1/src/exe/rbdock.cxx#4 $)

>  <Rbt.Library>
libRbt.so (2013.1, Build901 2013/11/27)

>  <Rbt.Parameter_File>
/export/apps/rDock/src/rDock_2013.1_src/data/scripts/dock_solv.prm

>  <Rbt.Receptor>
prm/pocket_docking_7.prm

>  <SCORE>
-7.14275

>  <SCORE.INTER>
-2.51728

>  <SCORE.INTER.CONST>
1

>  <SCORE.INTER.POLAR>
0

>  <SCORE.INTER.ROT>
6

>  <SCORE.INTER.SOLV>
12.8972

>  <SCORE.INTER.VDW>
-13.5773

>  <SCORE.INTER.norm>
-0.0740376

>  <SCORE.INTRA>
-4.62547

>  <SCORE.INTRA.DIHEDRAL>
-10.2351

>  <SCORE.INTRA.DIHEDRAL.0>
18.0069

>  <SCORE.INTRA.POLAR>
0

>  <SCORE.INTRA.POLAR.0>
0

>  <SCORE.INTRA.REPUL>
0

>  <SCORE.INTRA.REPUL.0>
0

>  <SCORE.INTRA.SOLV>
-2.36109

>  <SCORE.INTRA.SOLV.lig_0>
-70.7393

>  <SCORE.INTRA.VDW>
1.67261

>  <SCORE.INTRA.VDW.0>
-3.23471

>  <SCORE.INTRA.norm>
-0.136043

>  <SCORE.RESTR>
0

>  <SCORE.RESTR.CAVITY>
0

>  <SCORE.RESTR.norm>
0

>  <SCORE.SYSTEM>
0

>  <SCORE.SYSTEM.CONST>
0

>  <SCORE.SYSTEM.DIHEDRAL>
0

>  <SCORE.SYSTEM.SOLV>
0

>  <SCORE.SYSTEM.norm>
0

>  <SCORE.heavy>
34

>  <SCORE.norm>
-0.210081

>  <RMSD>
7.372

$$$$
lig.pdb
 OpenBabel11021811503D
libRbt.so/2013.1/901 2013/11/27
 34 36  0  0  0  0  0  0  0  0999 V2000
   -6.9567   16.6807   39.0489 C   0  0  2  0  0  0  0  0  0  0  0  0
   -6.3728   15.6054   39.7925 O   0  0  0  0  0  0  0  0  0  0  0  0
   -6.1082   17.9963   39.3144 C   0  0  2  0  0  0  0  0  0  0  0  0
   -4.6990   17.8388   38.8849 N   0  0  0  0  0  0  0  0  0  0  0  0
   -6.1641   18.3498   40.8220 C   0  0  1  0  0  0  0  0  0  0  0  0
   -5.4106   19.5369   41.0797 O   0  0  0  0  0  0  0  0  0  0  0  0
   -7.6379   18.5224   41.2304 C   0  0  2  0  0  0  0  0  0  0  0  0
   -7.7039   18.8525   42.6186 O   0  0  0  0  0  0  0  0  0  0  0  0
   -8.4317   17.1936   40.9296 C   0  0  2  0  0  0  0  0  0  0  0  0
   -8.3440   16.8444   39.4956 O   0  0  0  0  0  0  0  0  0  0  0  0
   -9.9275   17.3248   41.3097 C   0  0  2  0  0  0  0  0  0  0  0  0
  -10.0462   17.7589   42.6659 O   0  0  0  0  0  0  0  0  0  0  0  0
  -10.6513   15.9957   41.1603 C   0  0  0  0  0  0  0  0  0  0  0  0
   -5.9343   11.4224   39.0009 C   0  0  2  0  0  0  0  0  0  0  0  0
   -6.2581   10.0229   38.7136 N   0  0  0  0  0  0  0  0  0  0  0  0
   -6.7683   11.8426   40.2426 C   0  0  0  0  0  0  0  0  0  0  0  0
   -6.4202   13.3181   40.5782 C   0  0  2  0  0  0  0  0  0  0  0  0
   -7.1855   13.7583   41.7552 N   0  0  0  0  0  0  0  0  0  0  0  0
   -6.7447   14.2515   39.3811 C   0  0  2  0  0  0  0  0  0  0  0  0
   -5.9308   13.7821   38.1341 C   0  0  2  0  0  0  0  0  0  0  0  0
   -6.2401   14.6380   37.0258 O   0  0  0  0  0  0  0  0  0  0  0  0
   -6.3004   12.3285   37.7509 C   0  0  1  0  0  0  0  0  0  0  0  0
   -5.4983   11.9683   36.5992 O   0  0  0  0  0  0  0  0  0  0  0  0
   -5.7220   10.6455   36.0571 C   0  0  2  0  0  0  0  0  0  0  0  0
   -4.3976   10.2515   35.3034 C   0  0  2  0  0  0  0  0  0  0  0  0
   -3.3112   10.2325   36.2160 O   0  0  0  0  0  0  0  0  0  0  0  0
   -4.1415   11.2860   34.1429 C   0  0  1  0  0  0  0  0  0  0  0  0
   -2.8848   10.9558   33.4042 N   0  0  0  0  0  0  0  0  0  0  0  0
   -1.8105   11.8657   33.8566 C   0  0  0  0  0  0  0  0  0  0  0  0
   -5.3624   11.2543   33.1739 C   0  0  2  0  0  0  0  0  0  0  0  0
   -5.4796    9.9410   32.6287 O   0  0  0  0  0  0  0  0  0  0  0  0
   -5.1962   12.2398   32.0199 C   0  0  0  0  0  0  0  0  0  0  0  0
   -6.6597   11.5995   33.9732 C   0  0  0  0  0  0  0  0  0  0  0  0
   -6.8488   10.6651   35.1027 O   0  0  0  0  0  0  0  0  0  0  0  0
  1  3  1  0  0  0  0
  1  2  1  1  0  0  0
  3  5  1  0  0  0  0
  3  4  1  1  0  0  0
  5  6  1  6  0  0  0
  7  8  1  1  0  0  0
  7  5  1  0  0  0  0
  9 10  1  6  0  0  0
  9  7  1  0  0  0  0
 10  1  1  0  0  0  0
 11 13  1  1  0  0  0
 11  9  1  0  0  0  0
 12 11  1  0  0  0  0
 14 15  1  6  0  0  0
 16 14  1  0  0  0  0
 17 18  1  1  0  0  0
 17 16  1  0  0  0  0
 19  2  1  1  0  0  0
 19 20  1  0  0  0  0
 19 17  1  0  0  0  0
 20 21  1  6  0  0  0
 20 22  1  0  0  0  0
 22 23  1  6  0  0  0
 22 14  1  0  0  0  0
 24 23  1  6  0  0  0
 24 25  1  0  0  0  0
 25 27  1  0  0  0  0
 25 26  1  1  0  0  0
 27 28  1  6  0  0  0
 28 29  1  0  0  0  0
 30 31  1  6  0  0  0
 30 32  1  0  0  0  0
 30 27  1  0  0  0  0
 33 30  1  0  0  0  0
 34 33  1  0  0  0  0
 34 24  1  0  0  0  0
M  END
>  <CHROM.1>
-162.14837833,-53.53466276,-160.72204262,65.51004362,-155.70345775,-101.85039451
-6.28635596,14.03928408,38.03677798,-2.10562193,-0.90195825,-2.77653995

>  <Name>
lig.pdb

>  <RI>
0

>  <Rbt.Current_Directory>
/home/itssahil/PROJECTS/Mol_Feturizer/New_Systems/rnas/4k32

>  <Rbt.Executable>
rbdock ($Id: //depot/dev/client3/rdock/2013.1/src/exe/rbdock.cxx#4 $)

>  <Rbt.Library>
libRbt.so (2013.1, Build901 2013/11/27)

>  <Rbt.Parameter_File>
/export/apps/rDock/src/rDock_2013.1_src/data/scripts/dock_solv.prm

>  <Rbt.Receptor>
prm/pocket_docking_7.prm

>  <SCORE>
-7.88335

>  <SCORE.INTER>
-2.64622

>  <SCORE.INTER.CONST>
1

>  <SCORE.INTER.POLAR>
0

>  <SCORE.INTER.ROT>
6

>  <SCORE.INTER.SOLV>
15.4605

>  <SCORE.INTER.VDW>
-14.5176

>  <SCORE.INTER.norm>
-0.0778301

>  <SCORE.INTRA>
-5.23713

>  <SCORE.INTRA.DIHEDRAL>
-10.9988

>  <SCORE.INTRA.DIHEDRAL.0>
18.0069

>  <SCORE.INTRA.POLAR>
0

>  <SCORE.INTRA.POLAR.0>
0

>  <SCORE.INTRA.REPUL>
0

>  <SCORE.INTRA.REPUL.0>
0

>  <SCORE.INTRA.SOLV>
-0.116839

>  <SCORE.INTRA.SOLV.lig_0>
-70.7393

>  <SCORE.INTRA.VDW>
0.320702

>  <SCORE.INTRA.VDW.0>
-3.23471

>  <SCORE.INTRA.norm>
-0.154033

>  <SCORE.RESTR>
0

>  <SCORE.RESTR.CAVITY>
0

>  <SCORE.RESTR.norm>
0

>  <SCORE.SYSTEM>
0

>  <SCORE.SYSTEM.CONST>
0

>  <SCORE.SYSTEM.DIHEDRAL>
0

>  <SCORE.SYSTEM.SOLV>
0

>  <SCORE.SYSTEM.norm>
0

>  <SCORE.heavy>
34

>  <SCORE.norm>
-0.231863

>  <RMSD>
7.377

$$$$
lig.pdb
 OpenBabel11021811503D
libRbt.so/2013.1/901 2013/11/27
 34 36  0  0  0  0  0  0  0  0999 V2000
    2.1572   13.7742   37.7994 C   0  0  2  0  0  0  0  0  0  0  0  0
    0.8253   13.3800   38.1473 O   0  0  0  0  0  0  0  0  0  0  0  0
    2.9167   14.2083   39.1245 C   0  0  2  0  0  0  0  0  0  0  0  0
    2.9955   13.0984   40.1028 N   0  0  0  0  0  0  0  0  0  0  0  0
    2.1918   15.4214   39.7598 C   0  0  1  0  0  0  0  0  0  0  0  0
    2.8660   15.8315   40.9518 O   0  0  0  0  0  0  0  0  0  0  0  0
    2.1422   16.5595   38.7249 C   0  0  2  0  0  0  0  0  0  0  0  0
    1.4791   17.6867   39.2994 O   0  0  0  0  0  0  0  0  0  0  0  0
    1.3926   16.0662   37.4282 C   0  0  2  0  0  0  0  0  0  0  0  0
    2.0703   14.8872   36.8482 O   0  0  0  0  0  0  0  0  0  0  0  0
    1.3319   17.1750   36.3484 C   0  0  2  0  0  0  0  0  0  0  0  0
    2.6550   17.5991   36.0149 O   0  0  0  0  0  0  0  0  0  0  0  0
    0.5457   18.3799   36.8414 C   0  0  0  0  0  0  0  0  0  0  0  0
   -0.9602   14.9012   34.5676 C   0  0  2  0  0  0  0  0  0  0  0  0
   -1.9199   15.1320   33.4850 N   0  0  0  0  0  0  0  0  0  0  0  0
   -0.7516   13.3657   34.6787 C   0  0  0  0  0  0  0  0  0  0  0  0
    0.2825   13.1017   35.8065 C   0  0  2  0  0  0  0  0  0  0  0  0
    0.5160   11.6555   35.9438 N   0  0  0  0  0  0  0  0  0  0  0  0
   -0.2176   13.6682   37.1624 C   0  0  2  0  0  0  0  0  0  0  0  0
   -0.4639   15.2028   37.0134 C   0  0  2  0  0  0  0  0  0  0  0  0
   -0.9368   15.7230   38.2634 O   0  0  0  0  0  0  0  0  0  0  0  0
   -1.5304   15.4862   35.9278 C   0  0  1  0  0  0  0  0  0  0  0  0
   -1.6907   16.9239   35.8449 O   0  0  0  0  0  0  0  0  0  0  0  0
   -2.7182   17.3982   34.9432 C   0  0  2  0  0  0  0  0  0  0  0  0
   -1.9698   18.1707   33.7941 C   0  0  2  0  0  0  0  0  0  0  0  0
   -1.0878   17.2899   33.1162 O   0  0  0  0  0  0  0  0  0  0  0  0
   -1.1838   19.3843   34.4204 C   0  0  1  0  0  0  0  0  0  0  0  0
   -0.4476   20.1430   33.3637 N   0  0  0  0  0  0  0  0  0  0  0  0
    0.9775   20.2367   33.7470 C   0  0  0  0  0  0  0  0  0  0  0  0
   -2.2051   20.3154   35.1419 C   0  0  2  0  0  0  0  0  0  0  0  0
   -3.1437   20.7963   34.1810 O   0  0  0  0  0  0  0  0  0  0  0  0
   -1.5195   21.5176   35.7863 C   0  0  0  0  0  0  0  0  0  0  0  0
   -2.9606   19.4958   36.2367 C   0  0  0  0  0  0  0  0  0  0  0  0
   -3.6333   18.3197   35.6461 O   0  0  0  0  0  0  0  0  0  0  0  0
  1  3  1  0  0  0  0
  1  2  1  1  0  0  0
  3  5  1  0  0  0  0
  3  4  1  1  0  0  0
  5  6  1  1  0  0  0
  7  8  1  1  0  0  0
  7  5  1  0  0  0  0
  9 10  1  6  0  0  0
  9  7  1  0  0  0  0
 10  1  1  0  0  0  0
 11 13  1  1  0  0  0
 11  9  1  0  0  0  0
 12 11  1  0  0  0  0
 14 15  1  6  0  0  0
 16 14  1  0  0  0  0
 17 18  1  1  0  0  0
 17 16  1  0  0  0  0
 19  2  1  1  0  0  0
 19 20  1  0  0  0  0
 19 17  1  0  0  0  0
 20 21  1  1  0  0  0
 20 22  1  0  0  0  0
 22 23  1  6  0  0  0
 22 14  1  0  0  0  0
 24 23  1  1  0  0  0
 24 25  1  0  0  0  0
 25 27  1  0  0  0  0
 25 26  1  1  0  0  0
 27 28  1  6  0  0  0
 28 29  1  0  0  0  0
 30 31  1  6  0  0  0
 30 32  1  0  0  0  0
 30 27  1  0  0  0  0
 33 30  1  0  0  0  0
 34 33  1  0  0  0  0
 34 24  1  0  0  0  0
M  END
>  <CHROM.1>
146.43777774,57.83073067,51.07954490,67.96660679,-114.21979861,-125.81487949
-0.05819616,16.57997007,36.37730962,0.71253401,0.85994915,-3.07413350

>  <Name>
lig.pdb

>  <RI>
0

>  <Rbt.Current_Directory>
/home/itssahil/PROJECTS/Mol_Feturizer/New_Systems/rnas/4k32

>  <Rbt.Executable>
rbdock ($Id: //depot/dev/client3/rdock/2013.1/src/exe/rbdock.cxx#4 $)

>  <Rbt.Library>
libRbt.so (2013.1, Build901 2013/11/27)

>  <Rbt.Parameter_File>
/export/apps/rDock/src/rDock_2013.1_src/data/scripts/dock_solv.prm

>  <Rbt.Receptor>
prm/blind_docking_100.prm

>  <SCORE>
63.3434

>  <SCORE.INTER>
33.2351

>  <SCORE.INTER.CONST>
1

>  <SCORE.INTER.POLAR>
0

>  <SCORE.INTER.ROT>
6

>  <SCORE.INTER.SOLV>
24.3194

>  <SCORE.INTER.VDW>
6.4503

>  <SCORE.INTER.norm>
0.977504

>  <SCORE.INTRA>
23.5243

>  <SCORE.INTRA.DIHEDRAL>
-4.76818

>  <SCORE.INTRA.DIHEDRAL.0>
18.0069

>  <SCORE.INTRA.POLAR>
0

>  <SCORE.INTRA.POLAR.0>
0

>  <SCORE.INTRA.REPUL>
0

>  <SCORE.INTRA.REPUL.0>
0

>  <SCORE.INTRA.SOLV>
3.28222

>  <SCORE.INTRA.SOLV.lig_0>
-70.7393

>  <SCORE.INTRA.VDW>
24.2673

>  <SCORE.INTRA.VDW.0>
-3.23471

>  <SCORE.INTRA.norm>
0.691893

>  <SCORE.RESTR>
6.58393

>  <SCORE.RESTR.CAVITY>
6.58393

>  <SCORE.RESTR.norm>
0.193645

>  <SCORE.SYSTEM>
0

>  <SCORE.SYSTEM.CONST>
0

>  <SCORE.SYSTEM.DIHEDRAL>
0

>  <SCORE.SYSTEM.SOLV>
0

>  <SCORE.SYSTEM.norm>
0

>  <SCORE.heavy>
34

>  <SCORE.norm>
1.86304

>  <RMSD>
7.418

$$$$
lig.pdb
 OpenBabel11021811503D
libRbt.so/2013.1/901 2013/11/27
 34 36  0  0  0  0  0  0  0  0999 V2000
    3.0382   21.8283   34.3852 C   0  0  2  0  0  0  0  0  0  0  0  0
    1.6776   21.5865   34.0106 O   0  0  0  0  0  0  0  0  0  0  0  0
    3.1553   23.3170   34.9251 C   0  0  2  0  0  0  0  0  0  0  0  0
    2.2946   23.5424   36.1097 N   0  0  0  0  0  0  0  0  0  0  0  0
    2.7697   24.3061   33.7965 C   0  0  1  0  0  0  0  0  0  0  0  0
    2.8759   25.6534   34.2622 O   0  0  0  0  0  0  0  0  0  0  0  0
    3.6920   24.0564   32.5899 C   0  0  2  0  0  0  0  0  0  0  0  0
    3.3495   24.9651   31.5424 O   0  0  0  0  0  0  0  0  0  0  0  0
    3.5450   22.5619   32.1091 C   0  0  2  0  0  0  0  0  0  0  0  0
    3.8808   21.6247   33.2021 O   0  0  0  0  0  0  0  0  0  0  0  0
    4.4690   22.2576   30.9037 C   0  0  2  0  0  0  0  0  0  0  0  0
    4.1314   23.1098   29.8076 O   0  0  0  0  0  0  0  0  0  0  0  0
    4.3289   20.8112   30.4552 C   0  0  0  0  0  0  0  0  0  0  0  0
   -0.7710   18.1720   34.8243 C   0  0  2  0  0  0  0  0  0  0  0  0
   -1.3297   16.8190   34.7654 N   0  0  0  0  0  0  0  0  0  0  0  0
   -0.7633   18.7307   33.3746 C   0  0  0  0  0  0  0  0  0  0  0  0
   -0.1963   20.1755   33.4196 C   0  0  2  0  0  0  0  0  0  0  0  0
   -0.1756   20.7481   32.0644 N   0  0  0  0  0  0  0  0  0  0  0  0
    1.2431   20.1893   34.0007 C   0  0  2  0  0  0  0  0  0  0  0  0
    1.2177   19.5817   35.4387 C   0  0  2  0  0  0  0  0  0  0  0  0
    2.5497   19.5844   35.9700 O   0  0  0  0  0  0  0  0  0  0  0  0
    0.7027   18.1221   35.4102 C   0  0  1  0  0  0  0  0  0  0  0  0
    0.6993   17.6387   36.7763 O   0  0  0  0  0  0  0  0  0  0  0  0
    0.3344   16.2504   36.9587 C   0  0  2  0  0  0  0  0  0  0  0  0
    0.0878   16.0617   38.5017 C   0  0  2  0  0  0  0  0  0  0  0  0
   -0.9678   16.9086   38.9282 O   0  0  0  0  0  0  0  0  0  0  0  0
    1.4204   16.3871   39.2769 C   0  0  1  0  0  0  0  0  0  0  0  0
    1.2296   16.2303   40.7511 N   0  0  0  0  0  0  0  0  0  0  0  0
    1.1869   17.5711   41.3733 C   0  0  0  0  0  0  0  0  0  0  0  0
    2.5353   15.4221   38.7705 C   0  0  2  0  0  0  0  0  0  0  0  0
    2.1370   14.0796   39.0437 O   0  0  0  0  0  0  0  0  0  0  0  0
    3.8680   15.6789   39.4695 C   0  0  0  0  0  0  0  0  0  0  0  0
    2.7099   15.6056   37.2288 C   0  0  0  0  0  0  0  0  0  0  0  0
    1.4345   15.3681   36.5205 O   0  0  0  0  0  0  0  0  0  0  0  0
  1  3  1  0  0  0  0
  1  2  1  6  0  0  0
  3  5  1  0  0  0  0
  3  4  1  1  0  0  0
  5  6  1  1  0  0  0
  7  8  1  6  0  0  0
  7  5  1  0  0  0  0
  9 10  1  1  0  0  0
  9  7  1  0  0  0  0
 10  1  1  0  0  0  0
 11 13  1  6  0  0  0
 11  9  1  0  0  0  0
 12 11  1  0  0  0  0
 14 15  1  6  0  0  0
 16 14  1  0  0  0  0
 17 18  1  6  0  0  0
 17 16  1  0  0  0  0
 19  2  1  1  0  0  0
 19 20  1  0  0  0  0
 19 17  1  0  0  0  0
 20 21  1  6  0  0  0
 20 22  1  0  0  0  0
 22 23  1  1  0  0  0
 22 14  1  0  0  0  0
 24 23  1  1  0  0  0
 24 25  1  0  0  0  0
 25 27  1  0  0  0  0
 25 26  1  1  0  0  0
 27 28  1  1  0  0  0
 28 29  1  0  0  0  0
 30 31  1  1  0  0  0
 30 32  1  0  0  0  0
 30 27  1  0  0  0  0
 33 30  1  0  0  0  0
 34 33  1  0  0  0  0
 34 24  1  0  0  0  0
M  END
>  <CHROM.1>
-156.39717394,-60.25584274,-173.91544468,68.01447570,-167.48766469,-106.74397904
1.85553026,19.56532412,35.32289771,-1.18003012,1.00440958,2.08552686

>  <Name>
lig.pdb

>  <RI>
0

>  <Rbt.Current_Directory>
/home/itssahil/PROJECTS/Mol_Feturizer/New_Systems/rnas/4k32

>  <Rbt.Executable>
rbdock ($Id: //depot/dev/client3/rdock/2013.1/src/exe/rbdock.cxx#4 $)

>  <Rbt.Library>
libRbt.so (2013.1, Build901 2013/11/27)

>  <Rbt.Parameter_File>
/export/apps/rDock/src/rDock_2013.1_src/data/scripts/dock_solv.prm

>  <Rbt.Receptor>
prm/pocket_docking_7.prm

>  <SCORE>
-18.1936

>  <SCORE.INTER>
-11.6834

>  <SCORE.INTER.CONST>
1

>  <SCORE.INTER.POLAR>
0

>  <SCORE.INTER.ROT>
6

>  <SCORE.INTER.SOLV>
23.6923

>  <SCORE.INTER.VDW>
-23.2864

>  <SCORE.INTER.norm>
-0.34363

>  <SCORE.INTRA>
-6.51018

>  <SCORE.INTRA.DIHEDRAL>
-13.226

>  <SCORE.INTRA.DIHEDRAL.0>
18.0069

>  <SCORE.INTRA.POLAR>
0

>  <SCORE.INTRA.POLAR.0>
0

>  <SCORE.INTRA.REPUL>
0

>  <SCORE.INTRA.REPUL.0>
0

>  <SCORE.INTRA.SOLV>
-1.15579

>  <SCORE.INTRA.SOLV.lig_0>
-70.7393

>  <SCORE.INTRA.VDW>
0.680733

>  <SCORE.INTRA.VDW.0>
-3.23471

>  <SCORE.INTRA.norm>
-0.191476

>  <SCORE.RESTR>
0

>  <SCORE.RESTR.CAVITY>
0

>  <SCORE.RESTR.norm>
0

>  <SCORE.SYSTEM>
0

>  <SCORE.SYSTEM.CONST>
0

>  <SCORE.SYSTEM.DIHEDRAL>
0

>  <SCORE.SYSTEM.SOLV>
0

>  <SCORE.SYSTEM.norm>
0

>  <SCORE.heavy>
34

>  <SCORE.norm>
-0.535106

>  <RMSD>
7.436

$$$$
lig.pdb
 OpenBabel11021811503D
libRbt.so/2013.1/901 2013/11/27
 34 36  0  0  0  0  0  0  0  0999 V2000
    2.5595   13.4032   38.4511 C   0  0  2  0  0  0  0  0  0  0  0  0
    1.2463   12.8717   38.6589 O   0  0  0  0  0  0  0  0  0  0  0  0
    3.2973   13.4867   39.8546 C   0  0  2  0  0  0  0  0  0  0  0  0
    3.4247   12.1544   40.4900 N   0  0  0  0  0  0  0  0  0  0  0  0
    2.5180   14.4453   40.7899 C   0  0  1  0  0  0  0  0  0  0  0  0
    3.1718   14.5389   42.0577 O   0  0  0  0  0  0  0  0  0  0  0  0
    2.4186   15.8216   40.1082 C   0  0  2  0  0  0  0  0  0  0  0  0
    1.7050   16.7170   40.9622 O   0  0  0  0  0  0  0  0  0  0  0  0
    1.6934   15.6737   38.7159 C   0  0  2  0  0  0  0  0  0  0  0  0
    2.4240   14.7307   37.8425 O   0  0  0  0  0  0  0  0  0  0  0  0
    1.5844   17.0339   37.9829 C   0  0  2  0  0  0  0  0  0  0  0  0
    0.4201   17.7321   38.4285 O   0  0  0  0  0  0  0  0  0  0  0  0
    1.4882   16.8408   36.4775 C   0  0  0  0  0  0  0  0  0  0  0  0
   -0.3342   14.2487   34.9276 C   0  0  2  0  0  0  0  0  0  0  0  0
   -1.1726   14.3580   33.7312 N   0  0  0  0  0  0  0  0  0  0  0  0
    0.1677   12.7804   35.0056 C   0  0  0  0  0  0  0  0  0  0  0  0
    1.0792   12.6501   36.2559 C   0  0  2  0  0  0  0  0  0  0  0  0
    1.5836   11.2723   36.3669 N   0  0  0  0  0  0  0  0  0  0  0  0
    0.3027   13.0144   37.5497 C   0  0  2  0  0  0  0  0  0  0  0  0
   -0.2306   14.4768   37.4289 C   0  0  2  0  0  0  0  0  0  0  0  0
   -0.9575   14.8083   38.6199 O   0  0  0  0  0  0  0  0  0  0  0  0
   -1.1830   14.6168   36.2166 C   0  0  1  0  0  0  0  0  0  0  0  0
   -1.6217   15.9971   36.1693 O   0  0  0  0  0  0  0  0  0  0  0  0
   -2.2851   16.4121   34.9522 C   0  0  2  0  0  0  0  0  0  0  0  0
   -1.3853   17.5416   34.3264 C   0  0  2  0  0  0  0  0  0  0  0  0
   -0.0969   17.0244   34.0333 O   0  0  0  0  0  0  0  0  0  0  0  0
   -1.2932   18.7439   35.3407 C   0  0  1  0  0  0  0  0  0  0  0  0
   -0.4373   19.8390   34.7906 N   0  0  0  0  0  0  0  0  0  0  0  0
    0.9616   19.6103   35.2116 C   0  0  0  0  0  0  0  0  0  0  0  0
   -2.7346   19.2706   35.6155 C   0  0  2  0  0  0  0  0  0  0  0  0
   -3.2986   19.7228   34.3855 O   0  0  0  0  0  0  0  0  0  0  0  0
   -2.7339   20.4368   36.6006 C   0  0  0  0  0  0  0  0  0  0  0  0
   -3.6054   18.1054   36.1857 C   0  0  0  0  0  0  0  0  0  0  0  0
   -3.6239   16.9560   35.2566 O   0  0  0  0  0  0  0  0  0  0  0  0
  1  3  1  0  0  0  0
  1  2  1  1  0  0  0
  3  5  1  0  0  0  0
  3  4  1  1  0  0  0
  5  6  1  1  0  0  0
  7  8  1  1  0  0  0
  7  5  1  0  0  0  0
  9 10  1  6  0  0  0
  9  7  1  0  0  0  0
 10  1  1  0  0  0  0
 11 13  1  6  0  0  0
 11  9  1  0  0  0  0
 12 11  1  0  0  0  0
 14 15  1  6  0  0  0
 16 14  1  0  0  0  0
 17 18  1  1  0  0  0
 17 16  1  0  0  0  0
 19  2  1  1  0  0  0
 19 20  1  0  0  0  0
 19 17  1  0  0  0  0
 20 21  1  1  0  0  0
 20 22  1  0  0  0  0
 22 23  1  6  0  0  0
 22 14  1  0  0  0  0
 24 23  1  1  0  0  0
 24 25  1  0  0  0  0
 25 27  1  0  0  0  0
 25 26  1  1  0  0  0
 27 28  1  6  0  0  0
 28 29  1  0  0  0  0
 30 31  1  6  0  0  0
 30 32  1  0  0  0  0
 30 27  1  0  0  0  0
 33 30  1  0  0  0  0
 34 33  1  0  0  0  0
 34 24  1  0  0  0  0
M  END
>  <CHROM.1>
165.82394499,-85.33427557,43.71182016,50.99975432,-117.71318266,-90.35562332
0.13645318,15.84220721,37.06813848,0.34432640,0.92737425,-2.74082621

>  <Name>
lig.pdb

>  <RI>
0

>  <Rbt.Current_Directory>
/home/itssahil/PROJECTS/Mol_Feturizer/New_Systems/rnas/4k32

>  <Rbt.Executable>
rbdock ($Id: //depot/dev/client3/rdock/2013.1/src/exe/rbdock.cxx#4 $)

>  <Rbt.Library>
libRbt.so (2013.1, Build901 2013/11/27)

>  <Rbt.Parameter_File>
/export/apps/rDock/src/rDock_2013.1_src/data/scripts/dock_solv.prm

>  <Rbt.Receptor>
prm/blind_docking_100.prm

>  <SCORE>
31.4925

>  <SCORE.INTER>
13.2853

>  <SCORE.INTER.CONST>
1

>  <SCORE.INTER.POLAR>
0

>  <SCORE.INTER.ROT>
6

>  <SCORE.INTER.SOLV>
20.4966

>  <SCORE.INTER.VDW>
-5.57536

>  <SCORE.INTER.norm>
0.390744

>  <SCORE.INTRA>
7.32753

>  <SCORE.INTRA.DIHEDRAL>
-5.58431

>  <SCORE.INTRA.DIHEDRAL.0>
18.0069

>  <SCORE.INTRA.POLAR>
0

>  <SCORE.INTRA.POLAR.0>
0

>  <SCORE.INTRA.REPUL>
0

>  <SCORE.INTRA.REPUL.0>
0

>  <SCORE.INTRA.SOLV>
2.86337

>  <SCORE.INTRA.SOLV.lig_0>
-70.7393

>  <SCORE.INTRA.VDW>
8.688

>  <SCORE.INTRA.VDW.0>
-3.23471

>  <SCORE.INTRA.norm>
0.215516

>  <SCORE.RESTR>
10.8797

>  <SCORE.RESTR.CAVITY>
10.8797

>  <SCORE.RESTR.norm>
0.319991

>  <SCORE.SYSTEM>
0

>  <SCORE.SYSTEM.CONST>
0

>  <SCORE.SYSTEM.DIHEDRAL>
0

>  <SCORE.SYSTEM.SOLV>
0

>  <SCORE.SYSTEM.norm>
0

>  <SCORE.heavy>
34

>  <SCORE.norm>
0.926251

>  <RMSD>
7.504

$$$$
lig.pdb
 OpenBabel11021811503D
libRbt.so/2013.1/901 2013/11/27
 34 36  0  0  0  0  0  0  0  0999 V2000
   -8.9570   16.7700   39.9492 C   0  0  2  0  0  0  0  0  0  0  0  0
   -7.7911   17.3856   39.3905 O   0  0  0  0  0  0  0  0  0  0  0  0
  -10.0330   17.9005   40.2412 C   0  0  2  0  0  0  0  0  0  0  0  0
  -10.4266   18.6183   39.0064 N   0  0  0  0  0  0  0  0  0  0  0  0
   -9.4596   18.9028   41.2744 C   0  0  1  0  0  0  0  0  0  0  0  0
  -10.4180   19.9254   41.5557 O   0  0  0  0  0  0  0  0  0  0  0  0
   -9.0772   18.1282   42.5482 C   0  0  2  0  0  0  0  0  0  0  0  0
   -8.5501   19.0418   43.5116 O   0  0  0  0  0  0  0  0  0  0  0  0
   -8.0211   17.0120   42.1944 C   0  0  2  0  0  0  0  0  0  0  0  0
   -8.5629   16.0805   41.1822 O   0  0  0  0  0  0  0  0  0  0  0  0
   -7.6170   16.1928   43.4453 C   0  0  2  0  0  0  0  0  0  0  0  0
   -6.5891   15.2612   43.1027 O   0  0  0  0  0  0  0  0  0  0  0  0
   -8.8031   15.4230   44.0050 C   0  0  0  0  0  0  0  0  0  0  0  0
   -4.4770   15.4096   37.5389 C   0  0  2  0  0  0  0  0  0  0  0  0
   -3.2222   14.6747   37.3612 N   0  0  0  0  0  0  0  0  0  0  0  0
   -4.1751   16.6191   38.4661 C   0  0  0  0  0  0  0  0  0  0  0  0
   -5.4896   17.4255   38.6472 C   0  0  2  0  0  0  0  0  0  0  0  0
   -5.2487   18.5876   39.5169 N   0  0  0  0  0  0  0  0  0  0  0  0
   -6.6014   16.5419   39.2737 C   0  0  2  0  0  0  0  0  0  0  0  0
   -6.8549   15.3101   38.3483 C   0  0  2  0  0  0  0  0  0  0  0  0
   -7.8742   14.4885   38.9338 O   0  0  0  0  0  0  0  0  0  0  0  0
   -5.5684   14.4630   38.1951 C   0  0  1  0  0  0  0  0  0  0  0  0
   -5.8840   13.3533   37.3183 O   0  0  0  0  0  0  0  0  0  0  0  0
   -6.7219   12.3166   37.8812 C   0  0  2  0  0  0  0  0  0  0  0  0
   -5.8176   11.5274   38.8993 C   0  0  2  0  0  0  0  0  0  0  0  0
   -5.3643   12.4025   39.9200 O   0  0  0  0  0  0  0  0  0  0  0  0
   -4.6040   10.8921   38.1207 C   0  0  1  0  0  0  0  0  0  0  0  0
   -3.7102   10.1391   39.0526 N   0  0  0  0  0  0  0  0  0  0  0  0
   -2.5082   10.9556   39.3271 C   0  0  0  0  0  0  0  0  0  0  0  0
   -5.1656    9.9390   37.0222 C   0  0  2  0  0  0  0  0  0  0  0  0
   -5.9224    8.9080   37.6546 O   0  0  0  0  0  0  0  0  0  0  0  0
   -4.0481    9.2861   36.2126 C   0  0  0  0  0  0  0  0  0  0  0  0
   -6.0971   10.7516   36.0667 C   0  0  0  0  0  0  0  0  0  0  0  0
   -7.1897   11.4017   36.8206 O   0  0  0  0  0  0  0  0  0  0  0  0
  1  3  1  0  0  0  0
  1  2  1  1  0  0  0
  3  5  1  0  0  0  0
  3  4  1  6  0  0  0
  5  6  1  1  0  0  0
  7  8  1  1  0  0  0
  7  5  1  0  0  0  0
  9 10  1  6  0  0  0
  9  7  1  0  0  0  0
 10  1  1  0  0  0  0
 11 13  1  6  0  0  0
 11  9  1  0  0  0  0
 12 11  1  0  0  0  0
 14 15  1  1  0  0  0
 16 14  1  0  0  0  0
 17 18  1  1  0  0  0
 17 16  1  0  0  0  0
 19  2  1  6  0  0  0
 19 20  1  0  0  0  0
 19 17  1  0  0  0  0
 20 21  1  1  0  0  0
 20 22  1  0  0  0  0
 22 23  1  6  0  0  0
 22 14  1  0  0  0  0
 24 23  1  6  0  0  0
 24 25  1  0  0  0  0
 25 27  1  0  0  0  0
 25 26  1  1  0  0  0
 27 28  1  1  0  0  0
 28 29  1  0  0  0  0
 30 31  1  1  0  0  0
 30 32  1  0  0  0  0
 30 27  1  0  0  0  0
 33 30  1  0  0  0  0
 34 33  1  0  0  0  0
 34 24  1  0  0  0  0
M  END
>  <CHROM.1>
169.51687261,-175.72772013,179.91741227,171.46360675,-72.82897513,-102.84775584
-6.68682966,14.74498563,39.49365111,-2.63873532,-1.05482266,2.63976364

>  <Name>
lig.pdb

>  <RI>
0

>  <Rbt.Current_Directory>
/home/itssahil/PROJECTS/Mol_Feturizer/New_Systems/rnas/4k32

>  <Rbt.Executable>
rbdock ($Id: //depot/dev/client3/rdock/2013.1/src/exe/rbdock.cxx#4 $)

>  <Rbt.Library>
libRbt.so (2013.1, Build901 2013/11/27)

>  <Rbt.Parameter_File>
/export/apps/rDock/src/rDock_2013.1_src/data/scripts/dock_solv.prm

>  <Rbt.Receptor>
prm/pocket_docking_6.prm

>  <SCORE>
-6.78564

>  <SCORE.INTER>
-0.738881

>  <SCORE.INTER.CONST>
1

>  <SCORE.INTER.POLAR>
0

>  <SCORE.INTER.ROT>
6

>  <SCORE.INTER.SOLV>
14.934

>  <SCORE.INTER.VDW>
-13.0706

>  <SCORE.INTER.norm>
-0.0217318

>  <SCORE.INTRA>
-6.04676

>  <SCORE.INTRA.DIHEDRAL>
-15.2306

>  <SCORE.INTRA.DIHEDRAL.0>
18.0069

>  <SCORE.INTRA.POLAR>
0

>  <SCORE.INTRA.POLAR.0>
0

>  <SCORE.INTRA.REPUL>
0

>  <SCORE.INTRA.REPUL.0>
0

>  <SCORE.INTRA.SOLV>
-1.83208

>  <SCORE.INTRA.SOLV.lig_0>
-70.7393

>  <SCORE.INTRA.VDW>
2.48456

>  <SCORE.INTRA.VDW.0>
-3.23471

>  <SCORE.INTRA.norm>
-0.177846

>  <SCORE.RESTR>
0

>  <SCORE.RESTR.CAVITY>
0

>  <SCORE.RESTR.norm>
0

>  <SCORE.SYSTEM>
0

>  <SCORE.SYSTEM.CONST>
0

>  <SCORE.SYSTEM.DIHEDRAL>
0

>  <SCORE.SYSTEM.SOLV>
0

>  <SCORE.SYSTEM.norm>
0

>  <SCORE.heavy>
34

>  <SCORE.norm>
-0.199578

>  <RMSD>
7.510

$$$$
lig.pdb
 OpenBabel11021811503D
libRbt.so/2013.1/901 2013/11/27
 34 36  0  0  0  0  0  0  0  0999 V2000
   -6.4070   15.9589   39.2327 C   0  0  2  0  0  0  0  0  0  0  0  0
   -5.0438   15.8274   39.6504 O   0  0  0  0  0  0  0  0  0  0  0  0
   -7.3404   15.8304   40.5108 C   0  0  2  0  0  0  0  0  0  0  0  0
   -7.0519   16.8839   41.5117 N   0  0  0  0  0  0  0  0  0  0  0  0
   -7.1512   14.4307   41.1482 C   0  0  1  0  0  0  0  0  0  0  0  0
   -7.9897   14.2936   42.2977 O   0  0  0  0  0  0  0  0  0  0  0  0
   -7.4743   13.3622   40.0887 C   0  0  2  0  0  0  0  0  0  0  0  0
   -7.3073   12.0657   40.6646 O   0  0  0  0  0  0  0  0  0  0  0  0
   -6.5296   13.5492   38.8401 C   0  0  2  0  0  0  0  0  0  0  0  0
   -6.6906   14.8993   38.2592 O   0  0  0  0  0  0  0  0  0  0  0  0
   -6.8294   12.5040   37.7370 C   0  0  2  0  0  0  0  0  0  0  0  0
   -6.5826   11.1883   38.2367 O   0  0  0  0  0  0  0  0  0  0  0  0
   -5.9555   12.7304   36.5132 C   0  0  0  0  0  0  0  0  0  0  0  0
   -3.3770   17.1094   35.9228 C   0  0  2  0  0  0  0  0  0  0  0  0
   -2.4342   17.6312   34.9305 N   0  0  0  0  0  0  0  0  0  0  0  0
   -3.4459   18.1430   37.0808 C   0  0  0  0  0  0  0  0  0  0  0  0
   -4.4602   17.6186   38.1331 C   0  0  2  0  0  0  0  0  0  0  0  0
   -4.5622   18.5718   39.2492 N   0  0  0  0  0  0  0  0  0  0  0  0
   -4.0239   16.2342   38.6834 C   0  0  2  0  0  0  0  0  0  0  0  0
   -3.9172   15.2251   37.4968 C   0  0  2  0  0  0  0  0  0  0  0  0
   -3.5030   13.9496   38.0048 O   0  0  0  0  0  0  0  0  0  0  0  0
   -2.8727   15.7039   36.4595 C   0  0  1  0  0  0  0  0  0  0  0  0
   -2.8432   14.7240   35.3924 O   0  0  0  0  0  0  0  0  0  0  0  0
   -1.9540   15.0129   34.2881 C   0  0  2  0  0  0  0  0  0  0  0  0
   -2.0691   13.7914   33.3022 C   0  0  2  0  0  0  0  0  0  0  0  0
   -3.4050   13.6694   32.8399 O   0  0  0  0  0  0  0  0  0  0  0  0
   -1.6097   12.4836   34.0513 C   0  0  1  0  0  0  0  0  0  0  0  0
   -1.7123   11.2929   33.1536 N   0  0  0  0  0  0  0  0  0  0  0  0
   -2.9530   10.5558   33.4762 C   0  0  0  0  0  0  0  0  0  0  0  0
   -0.1375   12.6771   34.5264 C   0  0  2  0  0  0  0  0  0  0  0  0
    0.6881   12.8897   33.3823 O   0  0  0  0  0  0  0  0  0  0  0  0
    0.3833   11.4514   35.2727 C   0  0  0  0  0  0  0  0  0  0  0  0
   -0.0606   13.9284   35.4588 C   0  0  0  0  0  0  0  0  0  0  0  0
   -0.5625   15.1344   34.7671 O   0  0  0  0  0  0  0  0  0  0  0  0
  1  3  1  0  0  0  0
  1  2  1  1  0  0  0
  3  5  1  0  0  0  0
  3  4  1  1  0  0  0
  5  6  1  1  0  0  0
  7  8  1  1  0  0  0
  7  5  1  0  0  0  0
  9 10  1  6  0  0  0
  9  7  1  0  0  0  0
 10  1  1  0  0  0  0
 11 13  1  6  0  0  0
 11  9  1  0  0  0  0
 12 11  1  0  0  0  0
 14 15  1  6  0  0  0
 16 14  1  0  0  0  0
 17 18  1  1  0  0  0
 17 16  1  0  0  0  0
 19  2  1  1  0  0  0
 19 20  1  0  0  0  0
 19 17  1  0  0  0  0
 20 21  1  1  0  0  0
 20 22  1  0  0  0  0
 22 23  1  6  0  0  0
 22 14  1  0  0  0  0
 24 23  1  1  0  0  0
 24 25  1  0  0  0  0
 25 27  1  0  0  0  0
 25 26  1  1  0  0  0
 27 28  1  6  0  0  0
 28 29  1  0  0  0  0
 30 31  1  6  0  0  0
 30 32  1  0  0  0  0
 30 27  1  0  0  0  0
 33 30  1  0  0  0  0
 34 33  1  0  0  0  0
 34 24  1  0  0  0  0
M  END
>  <CHROM.1>
-165.73532758,-62.24869914,47.42477938,61.82297402,178.15163109,-100.27540456
-4.03559809,14.40230367,37.07047738,-2.72203328,-0.75914849,-2.82887908

>  <Name>
lig.pdb

>  <RI>
0

>  <Rbt.Current_Directory>
/home/itssahil/PROJECTS/Mol_Feturizer/New_Systems/rnas/4k32

>  <Rbt.Executable>
rbdock ($Id: //depot/dev/client3/rdock/2013.1/src/exe/rbdock.cxx#4 $)

>  <Rbt.Library>
libRbt.so (2013.1, Build901 2013/11/27)

>  <Rbt.Parameter_File>
/export/apps/rDock/src/rDock_2013.1_src/data/scripts/dock_solv.prm

>  <Rbt.Receptor>
prm/pocket_docking_6.prm

>  <SCORE>
-8.10002

>  <SCORE.INTER>
-2.07812

>  <SCORE.INTER.CONST>
1

>  <SCORE.INTER.POLAR>
0

>  <SCORE.INTER.ROT>
6

>  <SCORE.INTER.SOLV>
13.533

>  <SCORE.INTER.VDW>
-13.4964

>  <SCORE.INTER.norm>
-0.0611212

>  <SCORE.INTRA>
-6.0219

>  <SCORE.INTRA.DIHEDRAL>
-15.2699

>  <SCORE.INTRA.DIHEDRAL.0>
18.0069

>  <SCORE.INTRA.POLAR>
0

>  <SCORE.INTRA.POLAR.0>
0

>  <SCORE.INTRA.REPUL>
0

>  <SCORE.INTRA.REPUL.0>
0

>  <SCORE.INTRA.SOLV>
0.800482

>  <SCORE.INTRA.SOLV.lig_0>
-70.7393

>  <SCORE.INTRA.VDW>
1.21284

>  <SCORE.INTRA.VDW.0>
-3.23471

>  <SCORE.INTRA.norm>
-0.177115

>  <SCORE.RESTR>
0

>  <SCORE.RESTR.CAVITY>
0

>  <SCORE.RESTR.norm>
0

>  <SCORE.SYSTEM>
0

>  <SCORE.SYSTEM.CONST>
0

>  <SCORE.SYSTEM.DIHEDRAL>
0

>  <SCORE.SYSTEM.SOLV>
0

>  <SCORE.SYSTEM.norm>
0

>  <SCORE.heavy>
34

>  <SCORE.norm>
-0.238236

>  <RMSD>
7.530

$$$$
lig.pdb
 OpenBabel11021811503D
libRbt.so/2013.1/901 2013/11/27
 34 36  0  0  0  0  0  0  0  0999 V2000
   -0.4328   14.0585   37.9404 C   0  0  2  0  0  0  0  0  0  0  0  0
   -1.0194   14.8769   36.9224 O   0  0  0  0  0  0  0  0  0  0  0  0
    0.4363   14.9848   38.8932 C   0  0  2  0  0  0  0  0  0  0  0  0
   -0.3868   16.0294   39.5462 N   0  0  0  0  0  0  0  0  0  0  0  0
    1.5732   15.6447   38.0730 C   0  0  1  0  0  0  0  0  0  0  0  0
    2.3717   16.4781   38.9163 O   0  0  0  0  0  0  0  0  0  0  0  0
    2.4169   14.5336   37.4231 C   0  0  2  0  0  0  0  0  0  0  0  0
    3.4721   15.1286   36.6661 O   0  0  0  0  0  0  0  0  0  0  0  0
    1.4999   13.6390   36.5037 C   0  0  2  0  0  0  0  0  0  0  0  0
    0.3974   13.0415   37.2868 O   0  0  0  0  0  0  0  0  0  0  0  0
    2.3035   12.4938   35.8390 C   0  0  2  0  0  0  0  0  0  0  0  0
    3.4131   13.0351   35.1196 O   0  0  0  0  0  0  0  0  0  0  0  0
    1.4364   11.7035   34.8715 C   0  0  0  0  0  0  0  0  0  0  0  0
   -4.2240   17.7048   36.6997 C   0  0  2  0  0  0  0  0  0  0  0  0
   -5.2808   18.6389   37.0959 N   0  0  0  0  0  0  0  0  0  0  0  0
   -4.4858   16.3688   37.4483 C   0  0  0  0  0  0  0  0  0  0  0  0
   -3.3883   15.3564   37.0221 C   0  0  2  0  0  0  0  0  0  0  0  0
   -3.6005   14.0704   37.7048 N   0  0  0  0  0  0  0  0  0  0  0  0
   -1.9735   15.8914   37.3713 C   0  0  2  0  0  0  0  0  0  0  0  0
   -1.7512   17.2555   36.6451 C   0  0  2  0  0  0  0  0  0  0  0  0
   -0.4484   17.7543   36.9775 O   0  0  0  0  0  0  0  0  0  0  0  0
   -2.8055   18.2962   37.0943 C   0  0  1  0  0  0  0  0  0  0  0  0
   -2.5376   19.5225   36.3703 O   0  0  0  0  0  0  0  0  0  0  0  0
   -2.7430   19.4736   34.9389 C   0  0  2  0  0  0  0  0  0  0  0  0
   -1.5402   18.6453   34.3520 C   0  0  2  0  0  0  0  0  0  0  0  0
   -1.5470   17.3346   34.8956 O   0  0  0  0  0  0  0  0  0  0  0  0
   -0.1929   19.3891   34.6898 C   0  0  1  0  0  0  0  0  0  0  0  0
    0.9806   18.6307   34.1588 N   0  0  0  0  0  0  0  0  0  0  0  0
    1.8250   18.1996   35.2935 C   0  0  0  0  0  0  0  0  0  0  0  0
   -0.2443   20.8150   34.0614 C   0  0  2  0  0  0  0  0  0  0  0  0
   -0.3799   20.6868   32.6469 O   0  0  0  0  0  0  0  0  0  0  0  0
    1.0271   21.6086   34.3515 C   0  0  0  0  0  0  0  0  0  0  0  0
   -1.4805   21.5816   34.6316 C   0  0  0  0  0  0  0  0  0  0  0  0
   -2.7303   20.8368   34.3711 O   0  0  0  0  0  0  0  0  0  0  0  0
  1  3  1  0  0  0  0
  1  2  1  6  0  0  0
  3  5  1  0  0  0  0
  3  4  1  6  0  0  0
  5  6  1  1  0  0  0
  7  8  1  6  0  0  0
  7  5  1  0  0  0  0
  9 10  1  1  0  0  0
  9  7  1  0  0  0  0
 10  1  1  0  0  0  0
 11 13  1  6  0  0  0
 11  9  1  0  0  0  0
 12 11  1  0  0  0  0
 14 15  1  1  0  0  0
 16 14  1  0  0  0  0
 17 18  1  1  0  0  0
 17 16  1  0  0  0  0
 19  2  1  6  0  0  0
 19 20  1  0  0  0  0
 19 17  1  0  0  0  0
 20 21  1  1  0  0  0
 20 22  1  0  0  0  0
 22 23  1  6  0  0  0
 22 14  1  0  0  0  0
 24 23  1  1  0  0  0
 24 25  1  0  0  0  0
 25 27  1  0  0  0  0
 25 26  1  1  0  0  0
 27 28  1  6  0  0  0
 28 29  1  0  0  0  0
 30 31  1  6  0  0  0
 30 32  1  0  0  0  0
 30 27  1  0  0  0  0
 33 30  1  0  0  0  0
 34 33  1  0  0  0  0
 34 24  1  0  0  0  0
M  END
>  <CHROM.1>
-63.94451834,-55.33227217,-104.08528035,-49.75550545,-73.84830614,-116.89969037
-0.54450707,16.87752422,36.23750933,1.07216794,-0.30404701,2.67034783

>  <Name>
lig.pdb

>  <RI>
0

>  <Rbt.Current_Directory>
/home/itssahil/PROJECTS/Mol_Feturizer/New_Systems/rnas/4k32

>  <Rbt.Executable>
rbdock ($Id: //depot/dev/client3/rdock/2013.1/src/exe/rbdock.cxx#4 $)

>  <Rbt.Library>
libRbt.so (2013.1, Build901 2013/11/27)

>  <Rbt.Parameter_File>
/export/apps/rDock/src/rDock_2013.1_src/data/scripts/dock_solv.prm

>  <Rbt.Receptor>
prm/blind_docking_100.prm

>  <SCORE>
26.498

>  <SCORE.INTER>
-0.943976

>  <SCORE.INTER.CONST>
1

>  <SCORE.INTER.POLAR>
0

>  <SCORE.INTER.ROT>
6

>  <SCORE.INTER.SOLV>
24.2999

>  <SCORE.INTER.VDW>
-16.3293

>  <SCORE.INTER.norm>
-0.027764

>  <SCORE.INTRA>
17.9426

>  <SCORE.INTRA.DIHEDRAL>
-9.16191

>  <SCORE.INTRA.DIHEDRAL.0>
18.0069

>  <SCORE.INTRA.POLAR>
0

>  <SCORE.INTRA.POLAR.0>
0

>  <SCORE.INTRA.REPUL>
0

>  <SCORE.INTRA.REPUL.0>
0

>  <SCORE.INTRA.SOLV>
3.91894

>  <SCORE.INTRA.SOLV.lig_0>
-70.7393

>  <SCORE.INTRA.VDW>
20.5641

>  <SCORE.INTRA.VDW.0>
-3.23471

>  <SCORE.INTRA.norm>
0.527724

>  <SCORE.RESTR>
9.49935

>  <SCORE.RESTR.CAVITY>
9.49935

>  <SCORE.RESTR.norm>
0.279393

>  <SCORE.SYSTEM>
0

>  <SCORE.SYSTEM.CONST>
0

>  <SCORE.SYSTEM.DIHEDRAL>
0

>  <SCORE.SYSTEM.SOLV>
0

>  <SCORE.SYSTEM.norm>
0

>  <SCORE.heavy>
34

>  <SCORE.norm>
0.779353

>  <RMSD>
7.531

$$$$
lig.pdb
 OpenBabel11021811503D
libRbt.so/2013.1/901 2013/11/27
 34 36  0  0  0  0  0  0  0  0999 V2000
   -3.8298    9.9515   36.0684 C   0  0  2  0  0  0  0  0  0  0  0  0
   -2.7599   10.8695   35.8180 O   0  0  0  0  0  0  0  0  0  0  0  0
   -3.2285    8.4835   36.1377 C   0  0  2  0  0  0  0  0  0  0  0  0
   -2.2294    8.3483   37.2234 N   0  0  0  0  0  0  0  0  0  0  0  0
   -2.5799    8.1278   34.7762 C   0  0  1  0  0  0  0  0  0  0  0  0
   -2.0384    6.8054   34.8170 O   0  0  0  0  0  0  0  0  0  0  0  0
   -3.6470    8.2621   33.6753 C   0  0  2  0  0  0  0  0  0  0  0  0
   -3.0629    7.9330   32.4140 O   0  0  0  0  0  0  0  0  0  0  0  0
   -4.2176    9.7320   33.6649 C   0  0  2  0  0  0  0  0  0  0  0  0
   -4.8030   10.0758   34.9783 O   0  0  0  0  0  0  0  0  0  0  0  0
   -5.3097    9.9118   32.5813 C   0  0  2  0  0  0  0  0  0  0  0  0
   -4.7543    9.6642   31.2883 O   0  0  0  0  0  0  0  0  0  0  0  0
   -5.8790   11.3218   32.6033 C   0  0  0  0  0  0  0  0  0  0  0  0
   -2.4125   15.0332   36.7452 C   0  0  2  0  0  0  0  0  0  0  0  0
   -2.6255   16.4824   36.7231 N   0  0  0  0  0  0  0  0  0  0  0  0
   -2.1222   14.5881   35.2852 C   0  0  0  0  0  0  0  0  0  0  0  0
   -1.8694   13.0561   35.2913 C   0  0  2  0  0  0  0  0  0  0  0  0
   -1.5838   12.5898   33.9254 N   0  0  0  0  0  0  0  0  0  0  0  0
   -3.1026   12.2918   35.8434 C   0  0  2  0  0  0  0  0  0  0  0  0
   -3.4026   12.7883   37.2929 C   0  0  2  0  0  0  0  0  0  0  0  0
   -4.5489   12.0899   37.7975 O   0  0  0  0  0  0  0  0  0  0  0  0
   -3.7079   14.3059   37.3025 C   0  0  1  0  0  0  0  0  0  0  0  0
   -3.9626   14.6864   38.6774 O   0  0  0  0  0  0  0  0  0  0  0  0
   -4.4527   16.0320   38.8843 C   0  0  2  0  0  0  0  0  0  0  0  0
   -4.5642   16.2224   40.4428 C   0  0  2  0  0  0  0  0  0  0  0  0
   -3.2866   16.0662   41.0400 O   0  0  0  0  0  0  0  0  0  0  0  0
   -5.5872   15.1696   41.0155 C   0  0  1  0  0  0  0  0  0  0  0  0
   -5.7175   15.3073   42.4981 N   0  0  0  0  0  0  0  0  0  0  0  0
   -5.2376   14.0638   43.1383 C   0  0  0  0  0  0  0  0  0  0  0  0
   -6.9678   15.3971   40.3280 C   0  0  2  0  0  0  0  0  0  0  0  0
   -7.4176   16.7168   40.6307 O   0  0  0  0  0  0  0  0  0  0  0  0
   -8.0182   14.4066   40.8239 C   0  0  0  0  0  0  0  0  0  0  0  0
   -6.8001   15.2504   38.7815 C   0  0  0  0  0  0  0  0  0  0  0  0
   -5.7849   16.1941   38.2682 O   0  0  0  0  0  0  0  0  0  0  0  0
  1  3  1  0  0  0  0
  1  2  1  6  0  0  0
  3  5  1  0  0  0  0
  3  4  1  1  0  0  0
  5  6  1  1  0  0  0
  7  8  1  6  0  0  0
  7  5  1  0  0  0  0
  9 10  1  1  0  0  0
  9  7  1  0  0  0  0
 10  1  1  0  0  0  0
 11 13  1  6  0  0  0
 11  9  1  0  0  0  0
 12 11  1  0  0  0  0
 14 15  1  6  0  0  0
 16 14  1  0  0  0  0
 17 18  1  6  0  0  0
 17 16  1  0  0  0  0
 19  2  1  1  0  0  0
 19 20  1  0  0  0  0
 19 17  1  0  0  0  0
 20 21  1  6  0  0  0
 20 22  1  0  0  0  0
 22 23  1  1  0  0  0
 22 14  1  0  0  0  0
 24 23  1  1  0  0  0
 24 25  1  0  0  0  0
 25 27  1  0  0  0  0
 25 26  1  1  0  0  0
 27 28  1  1  0  0  0
 28 29  1  0  0  0  0
 30 31  1  1  0  0  0
 30 32  1  0  0  0  0
 30 27  1  0  0  0  0
 33 30  1  0  0  0  0
 34 33  1  0  0  0  0
 34 24  1  0  0  0  0
M  END
>  <CHROM.1>
-174.52820775,-61.23910249,-169.66071689,72.23294503,-176.69248220,-116.41505693
-4.18097468,12.58199304,36.96210032,0.90133427,-1.21180166,-2.98020004

>  <Name>
lig.pdb

>  <RI>
0

>  <Rbt.Current_Directory>
/home/itssahil/PROJECTS/Mol_Feturizer/New_Systems/rnas/4k32

>  <Rbt.Executable>
rbdock ($Id: //depot/dev/client3/rdock/2013.1/src/exe/rbdock.cxx#4 $)

>  <Rbt.Library>
libRbt.so (2013.1, Build901 2013/11/27)

>  <Rbt.Parameter_File>
/export/apps/rDock/src/rDock_2013.1_src/data/scripts/dock_solv.prm

>  <Rbt.Receptor>
prm/pocket_docking_6.prm

>  <SCORE>
-4.97993

>  <SCORE.INTER>
3.28606

>  <SCORE.INTER.CONST>
1

>  <SCORE.INTER.POLAR>
0

>  <SCORE.INTER.ROT>
6

>  <SCORE.INTER.SOLV>
5.52911

>  <SCORE.INTER.VDW>
-7.25233

>  <SCORE.INTER.norm>
0.0966488

>  <SCORE.INTRA>
-8.26599

>  <SCORE.INTRA.DIHEDRAL>
-15.3238

>  <SCORE.INTRA.DIHEDRAL.0>
18.0069

>  <SCORE.INTRA.POLAR>
0

>  <SCORE.INTRA.POLAR.0>
0

>  <SCORE.INTRA.REPUL>
0

>  <SCORE.INTRA.REPUL.0>
0

>  <SCORE.INTRA.SOLV>
-1.61762

>  <SCORE.INTRA.SOLV.lig_0>
-70.7393

>  <SCORE.INTRA.VDW>
0.204717

>  <SCORE.INTRA.VDW.0>
-3.23471

>  <SCORE.INTRA.norm>
-0.243117

>  <SCORE.RESTR>
0

>  <SCORE.RESTR.CAVITY>
0

>  <SCORE.RESTR.norm>
0

>  <SCORE.SYSTEM>
0

>  <SCORE.SYSTEM.CONST>
0

>  <SCORE.SYSTEM.DIHEDRAL>
0

>  <SCORE.SYSTEM.SOLV>
0

>  <SCORE.SYSTEM.norm>
0

>  <SCORE.heavy>
34

>  <SCORE.norm>
-0.146469

>  <RMSD>
7.547

$$$$
lig.pdb
 OpenBabel11021811503D
libRbt.so/2013.1/901 2013/11/27
 34 36  0  0  0  0  0  0  0  0999 V2000
   -2.1342   11.1703   39.0124 C   0  0  2  0  0  0  0  0  0  0  0  0
   -2.2513   12.2193   38.0449 O   0  0  0  0  0  0  0  0  0  0  0  0
   -0.7095   10.4890   38.8472 C   0  0  2  0  0  0  0  0  0  0  0  0
    0.3918   11.4554   39.0663 N   0  0  0  0  0  0  0  0  0  0  0  0
   -0.5954    9.8707   37.4310 C   0  0  1  0  0  0  0  0  0  0  0  0
    0.6796    9.2458   37.2657 O   0  0  0  0  0  0  0  0  0  0  0  0
   -1.7422    8.8616   37.2432 C   0  0  2  0  0  0  0  0  0  0  0  0
   -1.6466    8.2807   35.9417 O   0  0  0  0  0  0  0  0  0  0  0  0
   -3.1276    9.5900   37.4340 C   0  0  2  0  0  0  0  0  0  0  0  0
   -3.2144   10.2071   38.7747 O   0  0  0  0  0  0  0  0  0  0  0  0
   -4.3147    8.6087   37.2702 C   0  0  2  0  0  0  0  0  0  0  0  0
   -4.2251    7.9467   36.0071 O   0  0  0  0  0  0  0  0  0  0  0  0
   -5.6462    9.3400   37.3417 C   0  0  0  0  0  0  0  0  0  0  0  0
   -4.9837   15.5125   37.9696 C   0  0  2  0  0  0  0  0  0  0  0  0
   -6.2152   16.2908   37.8157 N   0  0  0  0  0  0  0  0  0  0  0  0
   -4.7797   14.7085   36.6559 C   0  0  0  0  0  0  0  0  0  0  0  0
   -3.4643   13.8944   36.7902 C   0  0  2  0  0  0  0  0  0  0  0  0
   -3.2272   13.1192   35.5624 N   0  0  0  0  0  0  0  0  0  0  0  0
   -3.5326   12.9244   38.0002 C   0  0  2  0  0  0  0  0  0  0  0  0
   -3.7837   13.7500   39.3014 C   0  0  2  0  0  0  0  0  0  0  0  0
   -3.8581   12.8519   40.4169 O   0  0  0  0  0  0  0  0  0  0  0  0
   -5.1173   14.5307   39.2089 C   0  0  1  0  0  0  0  0  0  0  0  0
   -5.2687   15.2746   40.4432 O   0  0  0  0  0  0  0  0  0  0  0  0
   -6.5811   15.8298   40.6942 C   0  0  2  0  0  0  0  0  0  0  0  0
   -6.4496   16.6880   42.0070 C   0  0  2  0  0  0  0  0  0  0  0  0
   -5.5043   17.7277   41.8105 O   0  0  0  0  0  0  0  0  0  0  0  0
   -6.0142   15.7464   43.1930 C   0  0  1  0  0  0  0  0  0  0  0  0
   -5.8668   16.5229   44.4616 N   0  0  0  0  0  0  0  0  0  0  0  0
   -4.4497   16.9140   44.6214 C   0  0  0  0  0  0  0  0  0  0  0  0
   -7.0929   14.6336   43.3625 C   0  0  2  0  0  0  0  0  0  0  0  0
   -8.3413   15.2504   43.6733 O   0  0  0  0  0  0  0  0  0  0  0  0
   -6.7399   13.6691   44.4920 C   0  0  0  0  0  0  0  0  0  0  0  0
   -7.2271   13.8421   42.0222 C   0  0  0  0  0  0  0  0  0  0  0  0
   -7.5647   14.7486   40.9047 O   0  0  0  0  0  0  0  0  0  0  0  0
  1  3  1  0  0  0  0
  1  2  1  6  0  0  0
  3  5  1  0  0  0  0
  3  4  1  6  0  0  0
  5  6  1  1  0  0  0
  7  8  1  6  0  0  0
  7  5  1  0  0  0  0
  9 10  1  1  0  0  0
  9  7  1  0  0  0  0
 10  1  1  0  0  0  0
 11 13  1  6  0  0  0
 11  9  1  0  0  0  0
 12 11  1  0  0  0  0
 14 15  1  6  0  0  0
 16 14  1  0  0  0  0
 17 18  1  6  0  0  0
 17 16  1  0  0  0  0
 19  2  1  1  0  0  0
 19 20  1  0  0  0  0
 19 17  1  0  0  0  0
 20 21  1  1  0  0  0
 20 22  1  0  0  0  0
 22 23  1  1  0  0  0
 22 14  1  0  0  0  0
 24 23  1  1  0  0  0
 24 25  1  0  0  0  0
 25 27  1  0  0  0  0
 25 26  1  6  0  0  0
 27 28  1  1  0  0  0
 28 29  1  0  0  0  0
 30 31  1  1  0  0  0
 30 32  1  0  0  0  0
 30 27  1  0  0  0  0
 33 30  1  0  0  0  0
 34 33  1  0  0  0  0
 34 24  1  0  0  0  0
M  END
>  <CHROM.1>
177.07085424,-55.07807381,-174.12474891,77.45899185,-174.92719235,-94.73931186
-4.25875408,12.97056805,39.51396464,-0.54049946,-0.99281135,1.67846542

>  <Name>
lig.pdb

>  <RI>
0

>  <Rbt.Current_Directory>
/home/itssahil/PROJECTS/Mol_Feturizer/New_Systems/rnas/4k32

>  <Rbt.Executable>
rbdock ($Id: //depot/dev/client3/rdock/2013.1/src/exe/rbdock.cxx#4 $)

>  <Rbt.Library>
libRbt.so (2013.1, Build901 2013/11/27)

>  <Rbt.Parameter_File>
/export/apps/rDock/src/rDock_2013.1_src/data/scripts/dock_solv.prm

>  <Rbt.Receptor>
prm/pocket_docking_7.prm

>  <SCORE>
-5.88607

>  <SCORE.INTER>
2.27377

>  <SCORE.INTER.CONST>
1

>  <SCORE.INTER.POLAR>
0

>  <SCORE.INTER.ROT>
6

>  <SCORE.INTER.SOLV>
9.05285

>  <SCORE.INTER.VDW>
-9.10177

>  <SCORE.INTER.norm>
0.0668756

>  <SCORE.INTRA>
-8.15984

>  <SCORE.INTRA.DIHEDRAL>
-15.3726

>  <SCORE.INTRA.DIHEDRAL.0>
18.0069

>  <SCORE.INTRA.POLAR>
0

>  <SCORE.INTRA.POLAR.0>
0

>  <SCORE.INTRA.REPUL>
0

>  <SCORE.INTRA.REPUL.0>
0

>  <SCORE.INTRA.SOLV>
-1.82545

>  <SCORE.INTRA.SOLV.lig_0>
-70.7393

>  <SCORE.INTRA.VDW>
0.439167

>  <SCORE.INTRA.VDW.0>
-3.23471

>  <SCORE.INTRA.norm>
-0.239995

>  <SCORE.RESTR>
0

>  <SCORE.RESTR.CAVITY>
0

>  <SCORE.RESTR.norm>
0

>  <SCORE.SYSTEM>
0

>  <SCORE.SYSTEM.CONST>
0

>  <SCORE.SYSTEM.DIHEDRAL>
0

>  <SCORE.SYSTEM.SOLV>
0

>  <SCORE.SYSTEM.norm>
0

>  <SCORE.heavy>
34

>  <SCORE.norm>
-0.17312

>  <RMSD>
7.572

$$$$
lig.pdb
 OpenBabel11021811503D
libRbt.so/2013.1/901 2013/11/27
 34 36  0  0  0  0  0  0  0  0999 V2000
   -6.2523   12.2507   34.5692 C   0  0  2  0  0  0  0  0  0  0  0  0
   -6.5775   11.3735   35.6532 O   0  0  0  0  0  0  0  0  0  0  0  0
   -6.3124   11.4229   33.2156 C   0  0  2  0  0  0  0  0  0  0  0  0
   -7.6607   10.8581   32.9748 N   0  0  0  0  0  0  0  0  0  0  0  0
   -5.2634   10.2835   33.2617 C   0  0  1  0  0  0  0  0  0  0  0  0
   -5.2977    9.5304   32.0471 O   0  0  0  0  0  0  0  0  0  0  0  0
   -3.8750   10.9049   33.4960 C   0  0  2  0  0  0  0  0  0  0  0  0
   -2.8969    9.8647   33.5369 O   0  0  0  0  0  0  0  0  0  0  0  0
   -3.8806   11.7255   34.8425 C   0  0  2  0  0  0  0  0  0  0  0  0
   -4.9080   12.7880   34.8040 O   0  0  0  0  0  0  0  0  0  0  0  0
   -2.5057   12.3852   35.1136 C   0  0  2  0  0  0  0  0  0  0  0  0
   -2.0305   13.0202   33.9251 O   0  0  0  0  0  0  0  0  0  0  0  0
   -1.4792   11.3543   35.5568 C   0  0  0  0  0  0  0  0  0  0  0  0
   -6.8285   12.2941   39.8253 C   0  0  2  0  0  0  0  0  0  0  0  0
   -6.4417   12.5924   41.2064 N   0  0  0  0  0  0  0  0  0  0  0  0
   -6.0943   10.9884   39.4131 C   0  0  0  0  0  0  0  0  0  0  0  0
   -6.5110   10.6419   37.9580 C   0  0  2  0  0  0  0  0  0  0  0  0
   -5.8416    9.4049   37.5261 N   0  0  0  0  0  0  0  0  0  0  0  0
   -6.1358   11.7911   36.9842 C   0  0  2  0  0  0  0  0  0  0  0  0
   -6.8480   13.1019   37.4448 C   0  0  2  0  0  0  0  0  0  0  0  0
   -6.4916   14.1654   36.5512 O   0  0  0  0  0  0  0  0  0  0  0  0
   -6.4073   13.4938   38.8761 C   0  0  1  0  0  0  0  0  0  0  0  0
   -7.1177   14.7063   39.2298 O   0  0  0  0  0  0  0  0  0  0  0  0
   -6.6464   15.3981   40.4100 C   0  0  2  0  0  0  0  0  0  0  0  0
   -7.6767   16.5572   40.6788 C   0  0  2  0  0  0  0  0  0  0  0  0
   -8.9661   16.0120   40.9095 O   0  0  0  0  0  0  0  0  0  0  0  0
   -7.6888   17.5293   39.4388 C   0  0  1  0  0  0  0  0  0  0  0  0
   -8.6636   18.6434   39.6463 N   0  0  0  0  0  0  0  0  0  0  0  0
  -10.0170   18.1681   39.2871 C   0  0  0  0  0  0  0  0  0  0  0  0
   -6.2508   18.0988   39.2427 C   0  0  2  0  0  0  0  0  0  0  0  0
   -5.8815   18.8221   40.4157 O   0  0  0  0  0  0  0  0  0  0  0  0
   -6.1747   19.0482   38.0497 C   0  0  0  0  0  0  0  0  0  0  0  0
   -5.2550   16.9135   39.0317 C   0  0  0  0  0  0  0  0  0  0  0  0
   -5.3068   15.9710   40.1691 O   0  0  0  0  0  0  0  0  0  0  0  0
  1  3  1  0  0  0  0
  1  2  1  1  0  0  0
  3  5  1  0  0  0  0
  3  4  1  1  0  0  0
  5  6  1  6  0  0  0
  7  8  1  1  0  0  0
  7  5  1  0  0  0  0
  9 10  1  6  0  0  0
  9  7  1  0  0  0  0
 10  1  1  0  0  0  0
 11 13  1  6  0  0  0
 11  9  1  0  0  0  0
 12 11  1  0  0  0  0
 14 15  1  1  0  0  0
 16 14  1  0  0  0  0
 17 18  1  6  0  0  0
 17 16  1  0  0  0  0
 19  2  1  6  0  0  0
 19 20  1  0  0  0  0
 19 17  1  0  0  0  0
 20 21  1  6  0  0  0
 20 22  1  0  0  0  0
 22 23  1  1  0  0  0
 22 14  1  0  0  0  0
 24 23  1  6  0  0  0
 24 25  1  0  0  0  0
 25 27  1  0  0  0  0
 25 26  1  6  0  0  0
 27 28  1  1  0  0  0
 28 29  1  0  0  0  0
 30 31  1  1  0  0  0
 30 32  1  0  0  0  0
 30 27  1  0  0  0  0
 33 30  1  0  0  0  0
 34 33  1  0  0  0  0
 34 24  1  0  0  0  0
M  END
>  <CHROM.1>
159.31066286,46.25538305,-175.99916553,76.45043066,-173.08945420,-82.51888701
-5.92938211,13.61214511,37.19866784,-1.00889252,0.94025909,0.27609012

>  <Name>
lig.pdb

>  <RI>
0

>  <Rbt.Current_Directory>
/home/itssahil/PROJECTS/Mol_Feturizer/New_Systems/rnas/4k32

>  <Rbt.Executable>
rbdock ($Id: //depot/dev/client3/rdock/2013.1/src/exe/rbdock.cxx#4 $)

>  <Rbt.Library>
libRbt.so (2013.1, Build901 2013/11/27)

>  <Rbt.Parameter_File>
/export/apps/rDock/src/rDock_2013.1_src/data/scripts/dock_solv.prm

>  <Rbt.Receptor>
prm/pocket_docking_6.prm

>  <SCORE>
-10.1488

>  <SCORE.INTER>
-4.92677

>  <SCORE.INTER.CONST>
1

>  <SCORE.INTER.POLAR>
0

>  <SCORE.INTER.ROT>
6

>  <SCORE.INTER.SOLV>
24.8637

>  <SCORE.INTER.VDW>
-19.1724

>  <SCORE.INTER.norm>
-0.144905

>  <SCORE.INTRA>
-5.22207

>  <SCORE.INTRA.DIHEDRAL>
-13.454

>  <SCORE.INTRA.DIHEDRAL.0>
18.0069

>  <SCORE.INTRA.POLAR>
0

>  <SCORE.INTRA.POLAR.0>
0

>  <SCORE.INTRA.REPUL>
0

>  <SCORE.INTRA.REPUL.0>
0

>  <SCORE.INTRA.SOLV>
-1.35284

>  <SCORE.INTRA.SOLV.lig_0>
-70.7393

>  <SCORE.INTRA.VDW>
2.18137

>  <SCORE.INTRA.VDW.0>
-3.23471

>  <SCORE.INTRA.norm>
-0.15359

>  <SCORE.RESTR>
0

>  <SCORE.RESTR.CAVITY>
0

>  <SCORE.RESTR.norm>
0

>  <SCORE.SYSTEM>
0

>  <SCORE.SYSTEM.CONST>
0

>  <SCORE.SYSTEM.DIHEDRAL>
0

>  <SCORE.SYSTEM.SOLV>
0

>  <SCORE.SYSTEM.norm>
0

>  <SCORE.heavy>
34

>  <SCORE.norm>
-0.298495

>  <RMSD>
7.639

$$$$
lig.pdb
 OpenBabel11021811503D
libRbt.so/2013.1/901 2013/11/27
 34 36  0  0  0  0  0  0  0  0999 V2000
   -3.7470   11.5287   37.2351 C   0  0  2  0  0  0  0  0  0  0  0  0
   -2.5788   12.1803   36.7244 O   0  0  0  0  0  0  0  0  0  0  0  0
   -3.3276   10.0983   37.7821 C   0  0  2  0  0  0  0  0  0  0  0  0
   -2.3298   10.1966   38.8728 N   0  0  0  0  0  0  0  0  0  0  0  0
   -2.7562    9.2491   36.6188 C   0  0  1  0  0  0  0  0  0  0  0  0
   -2.3791    7.9537   37.0912 O   0  0  0  0  0  0  0  0  0  0  0  0
   -3.8220    9.1534   35.5127 C   0  0  2  0  0  0  0  0  0  0  0  0
   -3.3092    8.3691   34.4345 O   0  0  0  0  0  0  0  0  0  0  0  0
   -4.2094   10.6007   35.0213 C   0  0  2  0  0  0  0  0  0  0  0  0
   -4.7206   11.4156   36.1441 O   0  0  0  0  0  0  0  0  0  0  0  0
   -5.2941   10.5563   33.9165 C   0  0  2  0  0  0  0  0  0  0  0  0
   -4.8255    9.7852   32.8086 O   0  0  0  0  0  0  0  0  0  0  0  0
   -5.6358   11.9543   33.4251 C   0  0  0  0  0  0  0  0  0  0  0  0
   -1.7554   16.3722   36.4656 C   0  0  2  0  0  0  0  0  0  0  0  0
   -1.7797   17.7662   36.0157 N   0  0  0  0  0  0  0  0  0  0  0  0
   -1.4416   15.4929   35.2237 C   0  0  0  0  0  0  0  0  0  0  0  0
   -1.3874   14.0114   35.6854 C   0  0  2  0  0  0  0  0  0  0  0  0
   -1.0863   13.1398   34.5388 N   0  0  0  0  0  0  0  0  0  0  0  0
   -2.7376   13.5762   36.3155 C   0  0  2  0  0  0  0  0  0  0  0  0
   -3.0539   14.5024   37.5320 C   0  0  2  0  0  0  0  0  0  0  0  0
   -4.3071   14.1069   38.1063 O   0  0  0  0  0  0  0  0  0  0  0  0
   -3.1628   15.9804   37.0847 C   0  0  1  0  0  0  0  0  0  0  0  0
   -3.4448   16.7697   38.2667 O   0  0  0  0  0  0  0  0  0  0  0  0
   -3.6960   18.1775   38.0463 C   0  0  2  0  0  0  0  0  0  0  0  0
   -4.0562   18.7835   39.4535 C   0  0  2  0  0  0  0  0  0  0  0  0
   -2.9664   18.6115   40.3456 O   0  0  0  0  0  0  0  0  0  0  0  0
   -5.3512   18.0723   40.0011 C   0  0  1  0  0  0  0  0  0  0  0  0
   -5.7257   18.6109   41.3443 N   0  0  0  0  0  0  0  0  0  0  0  0
   -5.2769   17.6594   42.3835 C   0  0  0  0  0  0  0  0  0  0  0  0
   -6.5099   18.3033   38.9839 C   0  0  2  0  0  0  0  0  0  0  0  0
   -6.7450   19.7058   38.8692 O   0  0  0  0  0  0  0  0  0  0  0  0
   -7.8051   17.6352   39.4386 C   0  0  0  0  0  0  0  0  0  0  0  0
   -6.0894   17.7342   37.5909 C   0  0  0  0  0  0  0  0  0  0  0  0
   -4.8339   18.3579   37.1225 O   0  0  0  0  0  0  0  0  0  0  0  0
  1  3  1  0  0  0  0
  1  2  1  6  0  0  0
  3  5  1  0  0  0  0
  3  4  1  1  0  0  0
  5  6  1  1  0  0  0
  7  8  1  6  0  0  0
  7  5  1  0  0  0  0
  9 10  1  1  0  0  0
  9  7  1  0  0  0  0
 10  1  1  0  0  0  0
 11 13  1  6  0  0  0
 11  9  1  0  0  0  0
 12 11  1  0  0  0  0
 14 15  1  6  0  0  0
 16 14  1  0  0  0  0
 17 18  1  6  0  0  0
 17 16  1  0  0  0  0
 19  2  1  1  0  0  0
 19 20  1  0  0  0  0
 19 17  1  0  0  0  0
 20 21  1  6  0  0  0
 20 22  1  0  0  0  0
 22 23  1  1  0  0  0
 22 14  1  0  0  0  0
 24 23  1  1  0  0  0
 24 25  1  0  0  0  0
 25 27  1  0  0  0  0
 25 26  1  1  0  0  0
 27 28  1  1  0  0  0
 28 29  1  0  0  0  0
 30 31  1  6  0  0  0
 30 32  1  0  0  0  0
 30 27  1  0  0  0  0
 33 30  1  0  0  0  0
 34 33  1  0  0  0  0
 34 24  1  0  0  0  0
M  END
>  <CHROM.1>
-173.15171176,-58.35459869,-174.92392265,68.88402857,176.68298425,-101.09549005
-3.90835668,14.29483133,37.18860264,1.26178409,-0.98875154,-2.96270101

>  <Name>
lig.pdb

>  <RI>
0

>  <Rbt.Current_Directory>
/home/itssahil/PROJECTS/Mol_Feturizer/New_Systems/rnas/4k32

>  <Rbt.Executable>
rbdock ($Id: //depot/dev/client3/rdock/2013.1/src/exe/rbdock.cxx#4 $)

>  <Rbt.Library>
libRbt.so (2013.1, Build901 2013/11/27)

>  <Rbt.Parameter_File>
/export/apps/rDock/src/rDock_2013.1_src/data/scripts/dock_solv.prm

>  <Rbt.Receptor>
prm/pocket_docking_8.prm

>  <SCORE>
-8.70127

>  <SCORE.INTER>
-0.508597

>  <SCORE.INTER.CONST>
1

>  <SCORE.INTER.POLAR>
0

>  <SCORE.INTER.ROT>
6

>  <SCORE.INTER.SOLV>
10.3387

>  <SCORE.INTER.VDW>
-11.3853

>  <SCORE.INTER.norm>
-0.0149587

>  <SCORE.INTRA>
-8.19268

>  <SCORE.INTRA.DIHEDRAL>
-16.2076

>  <SCORE.INTRA.DIHEDRAL.0>
18.0069

>  <SCORE.INTRA.POLAR>
0

>  <SCORE.INTRA.POLAR.0>
0

>  <SCORE.INTRA.REPUL>
0

>  <SCORE.INTRA.REPUL.0>
0

>  <SCORE.INTRA.SOLV>
-1.57362

>  <SCORE.INTRA.SOLV.lig_0>
-70.7393

>  <SCORE.INTRA.VDW>
0.697941

>  <SCORE.INTRA.VDW.0>
-3.23471

>  <SCORE.INTRA.norm>
-0.240961

>  <SCORE.RESTR>
0

>  <SCORE.RESTR.CAVITY>
0

>  <SCORE.RESTR.norm>
0

>  <SCORE.SYSTEM>
0

>  <SCORE.SYSTEM.CONST>
0

>  <SCORE.SYSTEM.DIHEDRAL>
0

>  <SCORE.SYSTEM.SOLV>
0

>  <SCORE.SYSTEM.norm>
0

>  <SCORE.heavy>
34

>  <SCORE.norm>
-0.25592

>  <RMSD>
7.642

$$$$
lig.pdb
 OpenBabel11021811503D
libRbt.so/2013.1/901 2013/11/27
 34 36  0  0  0  0  0  0  0  0999 V2000
    4.0521   22.0145   34.1842 C   0  0  2  0  0  0  0  0  0  0  0  0
    2.8567   22.7802   34.3709 O   0  0  0  0  0  0  0  0  0  0  0  0
    5.2902   22.8901   34.6549 C   0  0  2  0  0  0  0  0  0  0  0  0
    5.1893   23.2626   36.0853 N   0  0  0  0  0  0  0  0  0  0  0  0
    5.3794   24.1672   33.7819 C   0  0  1  0  0  0  0  0  0  0  0  0
    6.4937   24.9659   34.1867 O   0  0  0  0  0  0  0  0  0  0  0  0
    5.4998   23.7448   32.3068 C   0  0  2  0  0  0  0  0  0  0  0  0
    5.5868   24.9136   31.4904 O   0  0  0  0  0  0  0  0  0  0  0  0
    4.2539   22.8670   31.9022 C   0  0  2  0  0  0  0  0  0  0  0  0
    4.1558   21.6688   32.7627 O   0  0  0  0  0  0  0  0  0  0  0  0
    4.3387   22.4031   30.4268 C   0  0  2  0  0  0  0  0  0  0  0  0
    4.3875   23.5407   29.5635 O   0  0  0  0  0  0  0  0  0  0  0  0
    3.1339   21.5566   30.0467 C   0  0  0  0  0  0  0  0  0  0  0  0
   -1.1765   21.3647   34.5858 C   0  0  2  0  0  0  0  0  0  0  0  0
   -2.4921   20.8569   34.1891 N   0  0  0  0  0  0  0  0  0  0  0  0
   -0.8974   22.6347   33.7355 C   0  0  0  0  0  0  0  0  0  0  0  0
    0.4843   23.2025   34.1593 C   0  0  2  0  0  0  0  0  0  0  0  0
    0.7885   24.4134   33.3809 N   0  0  0  0  0  0  0  0  0  0  0  0
    1.6080   22.1556   33.9332 C   0  0  2  0  0  0  0  0  0  0  0  0
    1.2825   20.8723   34.7608 C   0  0  2  0  0  0  0  0  0  0  0  0
    2.3153   19.9017   34.5422 O   0  0  0  0  0  0  0  0  0  0  0  0
   -0.0689   20.2604   34.3185 C   0  0  1  0  0  0  0  0  0  0  0  0
   -0.3006   19.0876   35.1375 O   0  0  0  0  0  0  0  0  0  0  0  0
    0.5060   17.9268   34.8283 C   0  0  2  0  0  0  0  0  0  0  0  0
   -0.4767   16.6972   34.8326 C   0  0  2  0  0  0  0  0  0  0  0  0
   -1.4789   16.8779   33.8445 O   0  0  0  0  0  0  0  0  0  0  0  0
   -1.1161   16.5576   36.2658 C   0  0  1  0  0  0  0  0  0  0  0  0
   -2.0670   15.4052   36.3137 N   0  0  0  0  0  0  0  0  0  0  0  0
   -3.4436   15.9127   36.1292 C   0  0  0  0  0  0  0  0  0  0  0  0
    0.0313   16.3550   37.3017 C   0  0  2  0  0  0  0  0  0  0  0  0
    0.7382   15.1601   36.9732 O   0  0  0  0  0  0  0  0  0  0  0  0
   -0.5063   16.2190   38.7240 C   0  0  0  0  0  0  0  0  0  0  0  0
    1.0093   17.5711   37.2267 C   0  0  0  0  0  0  0  0  0  0  0  0
    1.5458   17.7343   35.8591 O   0  0  0  0  0  0  0  0  0  0  0  0
  1  3  1  0  0  0  0
  1  2  1  6  0  0  0
  3  5  1  0  0  0  0
  3  4  1  1  0  0  0
  5  6  1  1  0  0  0
  7  8  1  6  0  0  0
  7  5  1  0  0  0  0
  9 10  1  1  0  0  0
  9  7  1  0  0  0  0
 10  1  1  0  0  0  0
 11 13  1  6  0  0  0
 11  9  1  0  0  0  0
 12 11  1  0  0  0  0
 14 15  1  6  0  0  0
 16 14  1  0  0  0  0
 17 18  1  6  0  0  0
 17 16  1  0  0  0  0
 19  2  1  1  0  0  0
 19 20  1  0  0  0  0
 19 17  1  0  0  0  0
 20 21  1  6  0  0  0
 20 22  1  0  0  0  0
 22 23  1  1  0  0  0
 22 14  1  0  0  0  0
 24 23  1  1  0  0  0
 24 25  1  0  0  0  0
 25 27  1  0  0  0  0
 25 26  1  6  0  0  0
 27 28  1  6  0  0  0
 28 29  1  0  0  0  0
 30 31  1  6  0  0  0
 30 32  1  0  0  0  0
 30 27  1  0  0  0  0
 33 30  1  0  0  0  0
 34 33  1  0  0  0  0
 34 24  1  0  0  0  0
M  END
>  <CHROM.1>
177.33559872,-59.81845538,-176.68912152,170.11314953,-135.11370018,-97.72487314
1.69414139,20.51378581,34.30262404,-0.90896497,0.34108748,2.39616963

>  <Name>
lig.pdb

>  <RI>
0

>  <Rbt.Current_Directory>
/home/itssahil/PROJECTS/Mol_Feturizer/New_Systems/rnas/4k32

>  <Rbt.Executable>
rbdock ($Id: //depot/dev/client3/rdock/2013.1/src/exe/rbdock.cxx#4 $)

>  <Rbt.Library>
libRbt.so (2013.1, Build901 2013/11/27)

>  <Rbt.Parameter_File>
/export/apps/rDock/src/rDock_2013.1_src/data/scripts/dock_solv.prm

>  <Rbt.Receptor>
prm/pocket_docking_8.prm

>  <SCORE>
-10.2681

>  <SCORE.INTER>
-5.02356

>  <SCORE.INTER.CONST>
1

>  <SCORE.INTER.POLAR>
0

>  <SCORE.INTER.ROT>
6

>  <SCORE.INTER.SOLV>
16.9848

>  <SCORE.INTER.VDW>
-16.6106

>  <SCORE.INTER.norm>
-0.147752

>  <SCORE.INTRA>
-5.24458

>  <SCORE.INTRA.DIHEDRAL>
-10.4239

>  <SCORE.INTRA.DIHEDRAL.0>
18.0069

>  <SCORE.INTRA.POLAR>
0

>  <SCORE.INTRA.POLAR.0>
0

>  <SCORE.INTRA.REPUL>
0

>  <SCORE.INTRA.REPUL.0>
0

>  <SCORE.INTRA.SOLV>
-2.8023

>  <SCORE.INTRA.SOLV.lig_0>
-70.7393

>  <SCORE.INTRA.VDW>
1.36853

>  <SCORE.INTRA.VDW.0>
-3.23471

>  <SCORE.INTRA.norm>
-0.154252

>  <SCORE.RESTR>
0

>  <SCORE.RESTR.CAVITY>
0

>  <SCORE.RESTR.norm>
0

>  <SCORE.SYSTEM>
0

>  <SCORE.SYSTEM.CONST>
0

>  <SCORE.SYSTEM.DIHEDRAL>
0

>  <SCORE.SYSTEM.SOLV>
0

>  <SCORE.SYSTEM.norm>
0

>  <SCORE.heavy>
34

>  <SCORE.norm>
-0.302004

>  <RMSD>
7.691

$$$$
lig.pdb
 OpenBabel11021811503D
libRbt.so/2013.1/901 2013/11/27
 34 36  0  0  0  0  0  0  0  0999 V2000
   -2.0524   12.1288   41.2541 C   0  0  2  0  0  0  0  0  0  0  0  0
   -3.4177   11.6992   41.2143 O   0  0  0  0  0  0  0  0  0  0  0  0
   -1.5473   12.0641   42.7580 C   0  0  2  0  0  0  0  0  0  0  0  0
   -1.6236   10.6897   43.3059 N   0  0  0  0  0  0  0  0  0  0  0  0
   -2.3943   13.0269   43.6278 C   0  0  1  0  0  0  0  0  0  0  0  0
   -1.9491   12.9875   44.9856 O   0  0  0  0  0  0  0  0  0  0  0  0
   -2.2798   14.4454   43.0419 C   0  0  2  0  0  0  0  0  0  0  0  0
   -3.0537   15.3448   43.8372 O   0  0  0  0  0  0  0  0  0  0  0  0
   -2.7791   14.4445   41.5462 C   0  0  2  0  0  0  0  0  0  0  0  0
   -1.9889   13.4975   40.7309 O   0  0  0  0  0  0  0  0  0  0  0  0
   -2.6670   15.8509   40.9070 C   0  0  2  0  0  0  0  0  0  0  0  0
   -3.4308   16.7900   41.6661 O   0  0  0  0  0  0  0  0  0  0  0  0
   -3.1841   15.8475   39.4769 C   0  0  0  0  0  0  0  0  0  0  0  0
   -5.7203   10.0389   38.0115 C   0  0  2  0  0  0  0  0  0  0  0  0
   -6.4555    9.9134   36.7506 N   0  0  0  0  0  0  0  0  0  0  0  0
   -6.3038   11.2662   38.7646 C   0  0  0  0  0  0  0  0  0  0  0  0
   -5.5528   11.4016   40.1169 C   0  0  2  0  0  0  0  0  0  0  0  0
   -6.0783   12.5519   40.8689 N   0  0  0  0  0  0  0  0  0  0  0  0
   -4.0294   11.5944   39.8893 C   0  0  2  0  0  0  0  0  0  0  0  0
   -3.4749   10.3721   39.0917 C   0  0  2  0  0  0  0  0  0  0  0  0
   -2.0698   10.5568   38.8720 O   0  0  0  0  0  0  0  0  0  0  0  0
   -4.1754   10.2487   37.7167 C   0  0  1  0  0  0  0  0  0  0  0  0
   -3.6152    9.0910   37.0490 O   0  0  0  0  0  0  0  0  0  0  0  0
   -4.0249    8.8887   35.6761 C   0  0  2  0  0  0  0  0  0  0  0  0
   -3.3163    7.5670   35.1981 C   0  0  2  0  0  0  0  0  0  0  0  0
   -3.7362    6.4767   36.0033 O   0  0  0  0  0  0  0  0  0  0  0  0
   -1.7552    7.7632   35.2836 C   0  0  1  0  0  0  0  0  0  0  0  0
   -1.0393    6.5256   34.8474 N   0  0  0  0  0  0  0  0  0  0  0  0
   -0.2776    5.9842   35.9934 C   0  0  0  0  0  0  0  0  0  0  0  0
   -1.3575    8.9663   34.3754 C   0  0  2  0  0  0  0  0  0  0  0  0
   -1.7305    8.6675   33.0311 O   0  0  0  0  0  0  0  0  0  0  0  0
    0.1459    9.2295   34.4090 C   0  0  0  0  0  0  0  0  0  0  0  0
   -2.1222   10.2426   34.8523 C   0  0  0  0  0  0  0  0  0  0  0  0
   -3.5834   10.0200   34.8361 O   0  0  0  0  0  0  0  0  0  0  0  0
  1  3  1  0  0  0  0
  1  2  1  1  0  0  0
  3  5  1  0  0  0  0
  3  4  1  1  0  0  0
  5  6  1  1  0  0  0
  7  8  1  1  0  0  0
  7  5  1  0  0  0  0
  9 10  1  6  0  0  0
  9  7  1  0  0  0  0
 10  1  1  0  0  0  0
 11 13  1  6  0  0  0
 11  9  1  0  0  0  0
 12 11  1  0  0  0  0
 14 15  1  6  0  0  0
 16 14  1  0  0  0  0
 17 18  1  6  0  0  0
 17 16  1  0  0  0  0
 19  2  1  1  0  0  0
 19 20  1  0  0  0  0
 19 17  1  0  0  0  0
 20 21  1  6  0  0  0
 20 22  1  0  0  0  0
 22 23  1  1  0  0  0
 22 14  1  0  0  0  0
 24 23  1  1  0  0  0
 24 25  1  0  0  0  0
 25 27  1  0  0  0  0
 25 26  1  1  0  0  0
 27 28  1  6  0  0  0
 28 29  1  0  0  0  0
 30 31  1  6  0  0  0
 30 32  1  0  0  0  0
 30 27  1  0  0  0  0
 33 30  1  0  0  0  0
 34 33  1  0  0  0  0
 34 24  1  0  0  0  0
M  END
>  <CHROM.1>
-175.51316000,-58.29971949,-168.75543529,70.90436434,-178.65787400,-116.29311042
-2.99977859,11.07673078,38.82220158,-1.63254497,0.45147652,-2.22073080

>  <Name>
lig.pdb

>  <RI>
0

>  <Rbt.Current_Directory>
/home/itssahil/PROJECTS/Mol_Feturizer/New_Systems/rnas/4k32

>  <Rbt.Executable>
rbdock ($Id: //depot/dev/client3/rdock/2013.1/src/exe/rbdock.cxx#4 $)

>  <Rbt.Library>
libRbt.so (2013.1, Build901 2013/11/27)

>  <Rbt.Parameter_File>
/export/apps/rDock/src/rDock_2013.1_src/data/scripts/dock_solv.prm

>  <Rbt.Receptor>
prm/pocket_docking_7.prm

>  <SCORE>
-5.82233

>  <SCORE.INTER>
2.43754

>  <SCORE.INTER.CONST>
1

>  <SCORE.INTER.POLAR>
0

>  <SCORE.INTER.ROT>
6

>  <SCORE.INTER.SOLV>
13.5032

>  <SCORE.INTER.VDW>
-10.476

>  <SCORE.INTER.norm>
0.0716922

>  <SCORE.INTRA>
-8.25987

>  <SCORE.INTRA.DIHEDRAL>
-15.4574

>  <SCORE.INTRA.DIHEDRAL.0>
18.0069

>  <SCORE.INTRA.POLAR>
0

>  <SCORE.INTRA.POLAR.0>
0

>  <SCORE.INTRA.REPUL>
0

>  <SCORE.INTRA.REPUL.0>
0

>  <SCORE.INTRA.SOLV>
-1.48216

>  <SCORE.INTRA.SOLV.lig_0>
-70.7393

>  <SCORE.INTRA.VDW>
0.209921

>  <SCORE.INTRA.VDW.0>
-3.23471

>  <SCORE.INTRA.norm>
-0.242937

>  <SCORE.RESTR>
0

>  <SCORE.RESTR.CAVITY>
0

>  <SCORE.RESTR.norm>
0

>  <SCORE.SYSTEM>
0

>  <SCORE.SYSTEM.CONST>
0

>  <SCORE.SYSTEM.DIHEDRAL>
0

>  <SCORE.SYSTEM.SOLV>
0

>  <SCORE.SYSTEM.norm>
0

>  <SCORE.heavy>
34

>  <SCORE.norm>
-0.171245

>  <RMSD>
7.703

$$$$
lig.pdb
 OpenBabel11021811503D
libRbt.so/2013.1/901 2013/11/27
 34 36  0  0  0  0  0  0  0  0999 V2000
   -1.9801   12.1233   41.3448 C   0  0  2  0  0  0  0  0  0  0  0  0
   -3.3538   11.7220   41.2974 O   0  0  0  0  0  0  0  0  0  0  0  0
   -1.4857   12.0513   42.8519 C   0  0  2  0  0  0  0  0  0  0  0  0
   -1.5938   10.6799   43.4021 N   0  0  0  0  0  0  0  0  0  0  0  0
   -2.3179   13.0332   43.7146 C   0  0  1  0  0  0  0  0  0  0  0  0
   -1.8820   12.9875   45.0752 O   0  0  0  0  0  0  0  0  0  0  0  0
   -2.1704   14.4479   43.1266 C   0  0  2  0  0  0  0  0  0  0  0  0
   -2.9304   15.3647   43.9153 O   0  0  0  0  0  0  0  0  0  0  0  0
   -2.6604   14.4541   41.6279 C   0  0  2  0  0  0  0  0  0  0  0  0
   -1.8850   13.4893   40.8193 O   0  0  0  0  0  0  0  0  0  0  0  0
   -2.5152   15.8566   40.9866 C   0  0  2  0  0  0  0  0  0  0  0  0
   -3.2848   16.8082   41.7241 O   0  0  0  0  0  0  0  0  0  0  0  0
   -2.9983   15.8544   39.5447 C   0  0  0  0  0  0  0  0  0  0  0  0
   -5.6695   10.0736   38.0979 C   0  0  2  0  0  0  0  0  0  0  0  0
   -6.3953    9.9478   36.8316 N   0  0  0  0  0  0  0  0  0  0  0  0
   -6.2264   11.3284   38.8253 C   0  0  0  0  0  0  0  0  0  0  0  0
   -5.4853   11.4651   40.1830 C   0  0  2  0  0  0  0  0  0  0  0  0
   -5.9863   12.6413   40.9112 N   0  0  0  0  0  0  0  0  0  0  0  0
   -3.9550   11.6125   39.9680 C   0  0  2  0  0  0  0  0  0  0  0  0
   -3.4265   10.3628   39.1957 C   0  0  2  0  0  0  0  0  0  0  0  0
   -2.0148   10.5055   38.9876 O   0  0  0  0  0  0  0  0  0  0  0  0
   -4.1166   10.2363   37.8157 C   0  0  1  0  0  0  0  0  0  0  0  0
   -3.5818    9.0531   37.1724 O   0  0  0  0  0  0  0  0  0  0  0  0
   -3.9913    8.8345   35.8019 C   0  0  2  0  0  0  0  0  0  0  0  0
   -3.2914    7.5014   35.3432 C   0  0  2  0  0  0  0  0  0  0  0  0
   -3.7197    6.4254   36.1630 O   0  0  0  0  0  0  0  0  0  0  0  0
   -1.7291    7.6879   35.4279 C   0  0  1  0  0  0  0  0  0  0  0  0
   -1.0213    6.4395   35.0098 N   0  0  0  0  0  0  0  0  0  0  0  0
   -0.2188    5.9406   36.1472 C   0  0  0  0  0  0  0  0  0  0  0  0
   -1.3220    8.8755   34.5035 C   0  0  2  0  0  0  0  0  0  0  0  0
   -1.6956    8.5605   33.1630 O   0  0  0  0  0  0  0  0  0  0  0  0
    0.1831    9.1286   34.5352 C   0  0  0  0  0  0  0  0  0  0  0  0
   -2.0784   10.1635   34.9616 C   0  0  0  0  0  0  0  0  0  0  0  0
   -3.5410    9.9509   34.9467 O   0  0  0  0  0  0  0  0  0  0  0  0
  1  3  1  0  0  0  0
  1  2  1  1  0  0  0
  3  5  1  0  0  0  0
  3  4  1  1  0  0  0
  5  6  1  1  0  0  0
  7  8  1  1  0  0  0
  7  5  1  0  0  0  0
  9 10  1  6  0  0  0
  9  7  1  0  0  0  0
 10  1  1  0  0  0  0
 11 13  1  6  0  0  0
 11  9  1  0  0  0  0
 12 11  1  0  0  0  0
 14 15  1  6  0  0  0
 16 14  1  0  0  0  0
 17 18  1  6  0  0  0
 17 16  1  0  0  0  0
 19  2  1  1  0  0  0
 19 20  1  0  0  0  0
 19 17  1  0  0  0  0
 20 21  1  6  0  0  0
 20 22  1  0  0  0  0
 22 23  1  1  0  0  0
 22 14  1  0  0  0  0
 24 23  1  1  0  0  0
 24 25  1  0  0  0  0
 25 27  1  0  0  0  0
 25 26  1  1  0  0  0
 27 28  1  6  0  0  0
 28 29  1  0  0  0  0
 30 31  1  6  0  0  0
 30 32  1  0  0  0  0
 30 27  1  0  0  0  0
 33 30  1  0  0  0  0
 34 33  1  0  0  0  0
 34 24  1  0  0  0  0
M  END
>  <CHROM.1>
-174.84544262,-59.41118144,-168.35752160,70.45718335,-179.68008828,-118.68383619
-2.93185343,11.05922918,38.92336011,-1.62457658,0.47626464,-2.23384588

>  <Name>
lig.pdb

>  <RI>
0

>  <Rbt.Current_Directory>
/home/itssahil/PROJECTS/Mol_Feturizer/New_Systems/rnas/4k32

>  <Rbt.Executable>
rbdock ($Id: //depot/dev/client3/rdock/2013.1/src/exe/rbdock.cxx#4 $)

>  <Rbt.Library>
libRbt.so (2013.1, Build901 2013/11/27)

>  <Rbt.Parameter_File>
/export/apps/rDock/src/rDock_2013.1_src/data/scripts/dock_solv.prm

>  <Rbt.Receptor>
prm/pocket_docking_7.prm

>  <SCORE>
-5.83817

>  <SCORE.INTER>
2.38931

>  <SCORE.INTER.CONST>
1

>  <SCORE.INTER.POLAR>
0

>  <SCORE.INTER.ROT>
6

>  <SCORE.INTER.SOLV>
13.1017

>  <SCORE.INTER.VDW>
-10.3744

>  <SCORE.INTER.norm>
0.0702738

>  <SCORE.INTRA>
-8.22748

>  <SCORE.INTRA.DIHEDRAL>
-15.4373

>  <SCORE.INTRA.DIHEDRAL.0>
18.0069

>  <SCORE.INTRA.POLAR>
0

>  <SCORE.INTRA.POLAR.0>
0

>  <SCORE.INTRA.REPUL>
0

>  <SCORE.INTRA.REPUL.0>
0

>  <SCORE.INTRA.SOLV>
-1.45786

>  <SCORE.INTRA.SOLV.lig_0>
-70.7393

>  <SCORE.INTRA.VDW>
0.220097

>  <SCORE.INTRA.VDW.0>
-3.23471

>  <SCORE.INTRA.norm>
-0.241985

>  <SCORE.RESTR>
0

>  <SCORE.RESTR.CAVITY>
0

>  <SCORE.RESTR.norm>
0

>  <SCORE.SYSTEM>
0

>  <SCORE.SYSTEM.CONST>
0

>  <SCORE.SYSTEM.DIHEDRAL>
0

>  <SCORE.SYSTEM.SOLV>
0

>  <SCORE.SYSTEM.norm>
0

>  <SCORE.heavy>
34

>  <SCORE.norm>
-0.171711

>  <RMSD>
7.715

$$$$
lig.pdb
 OpenBabel11021811503D
libRbt.so/2013.1/901 2013/11/27
 34 36  0  0  0  0  0  0  0  0999 V2000
   -4.3315   18.7242   40.9077 C   0  0  2  0  0  0  0  0  0  0  0  0
   -4.2709   17.4633   41.5834 O   0  0  0  0  0  0  0  0  0  0  0  0
   -4.3791   19.8782   41.9974 C   0  0  2  0  0  0  0  0  0  0  0  0
   -3.1778   19.8669   42.8643 N   0  0  0  0  0  0  0  0  0  0  0  0
   -5.6552   19.7182   42.8615 C   0  0  1  0  0  0  0  0  0  0  0  0
   -5.7192   20.7537   43.8451 O   0  0  0  0  0  0  0  0  0  0  0  0
   -6.8826   19.7508   41.9335 C   0  0  2  0  0  0  0  0  0  0  0  0
   -8.0675   19.6080   42.7185 O   0  0  0  0  0  0  0  0  0  0  0  0
   -6.7723   18.5958   40.8658 C   0  0  2  0  0  0  0  0  0  0  0  0
   -5.5347   18.7356   40.0691 O   0  0  0  0  0  0  0  0  0  0  0  0
   -7.9802   18.5986   39.8963 C   0  0  2  0  0  0  0  0  0  0  0  0
   -7.9203   17.4528   39.0447 O   0  0  0  0  0  0  0  0  0  0  0  0
   -7.9862   19.8480   39.0293 C   0  0  0  0  0  0  0  0  0  0  0  0
   -2.9893   13.6508   40.1210 C   0  0  2  0  0  0  0  0  0  0  0  0
   -2.9653   12.3810   39.3907 N   0  0  0  0  0  0  0  0  0  0  0  0
   -4.3420   13.7188   40.8822 C   0  0  0  0  0  0  0  0  0  0  0  0
   -4.3762   15.0487   41.6830 C   0  0  2  0  0  0  0  0  0  0  0  0
   -5.6415   15.1535   42.4265 N   0  0  0  0  0  0  0  0  0  0  0  0
   -4.2388   16.2710   40.7360 C   0  0  2  0  0  0  0  0  0  0  0  0
   -2.8951   16.1570   39.9491 C   0  0  2  0  0  0  0  0  0  0  0  0
   -2.7746   17.2807   39.0662 O   0  0  0  0  0  0  0  0  0  0  0  0
   -2.8611   14.8611   39.1030 C   0  0  1  0  0  0  0  0  0  0  0  0
   -1.5850   14.8264   38.4173 O   0  0  0  0  0  0  0  0  0  0  0  0
   -1.4471   15.7167   37.2851 C   0  0  2  0  0  0  0  0  0  0  0  0
   -0.6416   14.9168   36.1948 C   0  0  2  0  0  0  0  0  0  0  0  0
   -1.3617   13.7527   35.8212 O   0  0  0  0  0  0  0  0  0  0  0  0
    0.7741   14.5421   36.7762 C   0  0  1  0  0  0  0  0  0  0  0  0
    1.5724   13.7703   35.7755 N   0  0  0  0  0  0  0  0  0  0  0  0
    1.6436   12.3577   36.2069 C   0  0  0  0  0  0  0  0  0  0  0  0
    1.5155   15.8589   37.1596 C   0  0  2  0  0  0  0  0  0  0  0  0
    1.6742   16.6531   35.9850 O   0  0  0  0  0  0  0  0  0  0  0  0
    2.8992   15.5816   37.7418 C   0  0  0  0  0  0  0  0  0  0  0  0
    0.6575   16.6446   38.2025 C   0  0  0  0  0  0  0  0  0  0  0  0
   -0.6927   16.9261   37.6712 O   0  0  0  0  0  0  0  0  0  0  0  0
  1  3  1  0  0  0  0
  1  2  1  1  0  0  0
  3  5  1  0  0  0  0
  3  4  1  1  0  0  0
  5  6  1  1  0  0  0
  7  8  1  1  0  0  0
  7  5  1  0  0  0  0
  9 10  1  6  0  0  0
  9  7  1  0  0  0  0
 10  1  1  0  0  0  0
 11 13  1  6  0  0  0
 11  9  1  0  0  0  0
 12 11  1  0  0  0  0
 14 15  1  6  0  0  0
 16 14  1  0  0  0  0
 17 18  1  6  0  0  0
 17 16  1  0  0  0  0
 19  2  1  1  0  0  0
 19 20  1  0  0  0  0
 19 17  1  0  0  0  0
 20 21  1  6  0  0  0
 20 22  1  0  0  0  0
 22 23  1  1  0  0  0
 22 14  1  0  0  0  0
 24 23  1  1  0  0  0
 24 25  1  0  0  0  0
 25 27  1  0  0  0  0
 25 26  1  1  0  0  0
 27 28  1  6  0  0  0
 28 29  1  0  0  0  0
 30 31  1  6  0  0  0
 30 32  1  0  0  0  0
 30 27  1  0  0  0  0
 33 30  1  0  0  0  0
 34 33  1  0  0  0  0
 34 24  1  0  0  0  0
M  END
>  <CHROM.1>
179.19599016,-173.50483698,-172.23397828,168.50816333,-140.77119706,-107.30164180
-3.14429988,16.64038367,39.51486742,-2.51420605,-0.43167053,-2.83773111

>  <Name>
lig.pdb

>  <RI>
0

>  <Rbt.Current_Directory>
/home/itssahil/PROJECTS/Mol_Feturizer/New_Systems/rnas/4k32

>  <Rbt.Executable>
rbdock ($Id: //depot/dev/client3/rdock/2013.1/src/exe/rbdock.cxx#4 $)

>  <Rbt.Library>
libRbt.so (2013.1, Build901 2013/11/27)

>  <Rbt.Parameter_File>
/export/apps/rDock/src/rDock_2013.1_src/data/scripts/dock_solv.prm

>  <Rbt.Receptor>
prm/pocket_docking_7.prm

>  <SCORE>
-7.04059

>  <SCORE.INTER>
-1.92865

>  <SCORE.INTER.CONST>
1

>  <SCORE.INTER.POLAR>
0

>  <SCORE.INTER.ROT>
6

>  <SCORE.INTER.SOLV>
12.0664

>  <SCORE.INTER.VDW>
-12.9079

>  <SCORE.INTER.norm>
-0.0567249

>  <SCORE.INTRA>
-5.11194

>  <SCORE.INTRA.DIHEDRAL>
-10.5157

>  <SCORE.INTRA.DIHEDRAL.0>
18.0069

>  <SCORE.INTRA.POLAR>
0

>  <SCORE.INTRA.POLAR.0>
0

>  <SCORE.INTRA.REPUL>
0

>  <SCORE.INTRA.REPUL.0>
0

>  <SCORE.INTRA.SOLV>
-2.94421

>  <SCORE.INTRA.SOLV.lig_0>
-70.7393

>  <SCORE.INTRA.VDW>
1.61803

>  <SCORE.INTRA.VDW.0>
-3.23471

>  <SCORE.INTRA.norm>
-0.150351

>  <SCORE.RESTR>
0

>  <SCORE.RESTR.CAVITY>
0

>  <SCORE.RESTR.norm>
0

>  <SCORE.SYSTEM>
0

>  <SCORE.SYSTEM.CONST>
0

>  <SCORE.SYSTEM.DIHEDRAL>
0

>  <SCORE.SYSTEM.SOLV>
0

>  <SCORE.SYSTEM.norm>
0

>  <SCORE.heavy>
34

>  <SCORE.norm>
-0.207076

>  <RMSD>
7.764

$$$$
lig.pdb
 OpenBabel11021811503D
libRbt.so/2013.1/901 2013/11/27
 34 36  0  0  0  0  0  0  0  0999 V2000
   -4.2461   13.2853   37.2347 C   0  0  2  0  0  0  0  0  0  0  0  0
   -4.9895   14.0868   36.3099 O   0  0  0  0  0  0  0  0  0  0  0  0
   -3.9338   11.8864   36.5515 C   0  0  2  0  0  0  0  0  0  0  0  0
   -3.1318   12.0438   35.3158 N   0  0  0  0  0  0  0  0  0  0  0  0
   -5.2650   11.1624   36.2282 C   0  0  1  0  0  0  0  0  0  0  0  0
   -5.0037    9.8963   35.6182 O   0  0  0  0  0  0  0  0  0  0  0  0
   -6.0643   11.0007   37.5335 C   0  0  2  0  0  0  0  0  0  0  0  0
   -7.2936   10.3306   37.2502 O   0  0  0  0  0  0  0  0  0  0  0  0
   -6.3299   12.4174   38.1729 C   0  0  2  0  0  0  0  0  0  0  0  0
   -5.0557   13.1159   38.4458 O   0  0  0  0  0  0  0  0  0  0  0  0
   -7.1191   12.3044   39.5008 C   0  0  2  0  0  0  0  0  0  0  0  0
   -7.4081   13.6097   40.0050 O   0  0  0  0  0  0  0  0  0  0  0  0
   -6.3234   11.5439   40.5502 C   0  0  0  0  0  0  0  0  0  0  0  0
   -3.8486   17.8288   38.0455 C   0  0  2  0  0  0  0  0  0  0  0  0
   -3.6884   19.2698   38.2557 N   0  0  0  0  0  0  0  0  0  0  0  0
   -3.3545   17.5157   36.6061 C   0  0  0  0  0  0  0  0  0  0  0  0
   -3.4938   15.9870   36.3724 C   0  0  2  0  0  0  0  0  0  0  0  0
   -3.0305   15.6427   35.0190 N   0  0  0  0  0  0  0  0  0  0  0  0
   -4.9688   15.5321   36.5372 C   0  0  2  0  0  0  0  0  0  0  0  0
   -5.4572   15.8983   37.9743 C   0  0  2  0  0  0  0  0  0  0  0  0
   -6.8234   15.4879   38.1216 O   0  0  0  0  0  0  0  0  0  0  0  0
   -5.3743   17.4258   38.2110 C   0  0  1  0  0  0  0  0  0  0  0  0
   -5.8317   17.6788   39.5626 O   0  0  0  0  0  0  0  0  0  0  0  0
   -5.9657   19.0695   39.9387 C   0  0  2  0  0  0  0  0  0  0  0  0
   -6.5239   19.0732   41.4103 C   0  0  2  0  0  0  0  0  0  0  0  0
   -5.6103   18.4152   42.2739 O   0  0  0  0  0  0  0  0  0  0  0  0
   -7.9290   18.3605   41.4269 C   0  0  1  0  0  0  0  0  0  0  0  0
   -8.4941   18.3317   42.8104 N   0  0  0  0  0  0  0  0  0  0  0  0
   -8.3277   16.9719   43.3671 C   0  0  0  0  0  0  0  0  0  0  0  0
   -8.8861   19.1319   40.4680 C   0  0  2  0  0  0  0  0  0  0  0  0
   -9.0223   20.4720   40.9383 O   0  0  0  0  0  0  0  0  0  0  0  0
  -10.2735   18.4969   40.4200 C   0  0  0  0  0  0  0  0  0  0  0  0
   -8.2689   19.1483   39.0327 C   0  0  0  0  0  0  0  0  0  0  0  0
   -6.9207   19.7540   39.0442 O   0  0  0  0  0  0  0  0  0  0  0  0
  1  3  1  0  0  0  0
  1  2  1  6  0  0  0
  3  5  1  0  0  0  0
  3  4  1  6  0  0  0
  5  6  1  1  0  0  0
  7  8  1  6  0  0  0
  7  5  1  0  0  0  0
  9 10  1  1  0  0  0
  9  7  1  0  0  0  0
 10  1  1  0  0  0  0
 11 13  1  1  0  0  0
 11  9  1  0  0  0  0
 12 11  1  0  0  0  0
 14 15  1  6  0  0  0
 16 14  1  0  0  0  0
 17 18  1  6  0  0  0
 17 16  1  0  0  0  0
 19  2  1  1  0  0  0
 19 20  1  0  0  0  0
 19 17  1  0  0  0  0
 20 21  1  6  0  0  0
 20 22  1  0  0  0  0
 22 23  1  1  0  0  0
 22 14  1  0  0  0  0
 24 23  1  6  0  0  0
 24 25  1  0  0  0  0
 25 27  1  0  0  0  0
 25 26  1  1  0  0  0
 27 28  1  1  0  0  0
 28 29  1  0  0  0  0
 30 31  1  1  0  0  0
 30 32  1  0  0  0  0
 30 27  1  0  0  0  0
 33 30  1  0  0  0  0
 34 33  1  0  0  0  0
 34 24  1  0  0  0  0
M  END
>  <CHROM.1>
-159.04775749,-176.54299923,63.09718703,70.17684749,177.78650681,-103.36683148
-6.04186522,15.63918092,38.68996511,-1.11670458,0.79611803,0.19440615

>  <Name>
lig.pdb

>  <RI>
0

>  <Rbt.Current_Directory>
/home/itssahil/PROJECTS/Mol_Feturizer/New_Systems/rnas/4k32

>  <Rbt.Executable>
rbdock ($Id: //depot/dev/client3/rdock/2013.1/src/exe/rbdock.cxx#4 $)

>  <Rbt.Library>
libRbt.so (2013.1, Build901 2013/11/27)

>  <Rbt.Parameter_File>
/export/apps/rDock/src/rDock_2013.1_src/data/scripts/dock_solv.prm

>  <Rbt.Receptor>
prm/pocket_docking_8.prm

>  <SCORE>
-10.1173

>  <SCORE.INTER>
-4.17004

>  <SCORE.INTER.CONST>
1

>  <SCORE.INTER.POLAR>
0

>  <SCORE.INTER.ROT>
6

>  <SCORE.INTER.SOLV>
16.3122

>  <SCORE.INTER.VDW>
-15.8174

>  <SCORE.INTER.norm>
-0.122648

>  <SCORE.INTRA>
-5.9473

>  <SCORE.INTRA.DIHEDRAL>
-14.3803

>  <SCORE.INTRA.DIHEDRAL.0>
18.0069

>  <SCORE.INTRA.POLAR>
0

>  <SCORE.INTRA.POLAR.0>
0

>  <SCORE.INTRA.REPUL>
0.00832967

>  <SCORE.INTRA.REPUL.0>
0

>  <SCORE.INTRA.SOLV>
0.63262

>  <SCORE.INTRA.SOLV.lig_0>
-70.7393

>  <SCORE.INTRA.VDW>
0.884905

>  <SCORE.INTRA.VDW.0>
-3.23471

>  <SCORE.INTRA.norm>
-0.174921

>  <SCORE.RESTR>
0

>  <SCORE.RESTR.CAVITY>
0

>  <SCORE.RESTR.norm>
0

>  <SCORE.SYSTEM>
0

>  <SCORE.SYSTEM.CONST>
0

>  <SCORE.SYSTEM.DIHEDRAL>
0

>  <SCORE.SYSTEM.SOLV>
0

>  <SCORE.SYSTEM.norm>
0

>  <SCORE.heavy>
34

>  <SCORE.norm>
-0.297569

>  <RMSD>
7.836

$$$$
lig.pdb
 OpenBabel11021811503D
libRbt.so/2013.1/901 2013/11/27
 34 36  0  0  0  0  0  0  0  0999 V2000
   -6.6605   12.6343   36.9288 C   0  0  2  0  0  0  0  0  0  0  0  0
   -5.5263   13.4379   37.2724 O   0  0  0  0  0  0  0  0  0  0  0  0
   -6.5600   11.2583   37.7148 C   0  0  2  0  0  0  0  0  0  0  0  0
   -6.5552   11.4613   39.1824 N   0  0  0  0  0  0  0  0  0  0  0  0
   -5.2742   10.5102   37.2812 C   0  0  1  0  0  0  0  0  0  0  0  0
   -5.1698    9.2641   37.9740 O   0  0  0  0  0  0  0  0  0  0  0  0
   -5.3192   10.3014   35.7571 C   0  0  2  0  0  0  0  0  0  0  0  0
   -4.1402    9.6088   35.3440 O   0  0  0  0  0  0  0  0  0  0  0  0
   -5.4349   11.6972   35.0327 C   0  0  2  0  0  0  0  0  0  0  0  0
   -6.6455   12.4196   35.4781 O   0  0  0  0  0  0  0  0  0  0  0  0
   -5.5003   11.5369   33.4935 C   0  0  2  0  0  0  0  0  0  0  0  0
   -5.4706   12.8227   32.8710 O   0  0  0  0  0  0  0  0  0  0  0  0
   -6.7733   10.8213   33.0691 C   0  0  0  0  0  0  0  0  0  0  0  0
   -5.1943   17.4946   38.5951 C   0  0  2  0  0  0  0  0  0  0  0  0
   -5.2628   18.9578   38.6152 N   0  0  0  0  0  0  0  0  0  0  0  0
   -4.4304   17.0870   37.3050 C   0  0  0  0  0  0  0  0  0  0  0  0
   -4.3259   15.5380   37.2778 C   0  0  2  0  0  0  0  0  0  0  0  0
   -3.6023   15.1056   36.0718 N   0  0  0  0  0  0  0  0  0  0  0  0
   -5.7347   14.8860   37.2880 C   0  0  2  0  0  0  0  0  0  0  0  0
   -6.4995   15.3463   38.5690 C   0  0  2  0  0  0  0  0  0  0  0  0
   -7.8049   14.7526   38.5716 O   0  0  0  0  0  0  0  0  0  0  0  0
   -6.6596   16.8858   38.5910 C   0  0  1  0  0  0  0  0  0  0  0  0
   -7.3649   17.2293   39.8093 O   0  0  0  0  0  0  0  0  0  0  0  0
   -7.6864   18.6291   39.9849 C   0  0  2  0  0  0  0  0  0  0  0  0
   -8.1653   18.7846   41.4762 C   0  0  2  0  0  0  0  0  0  0  0  0
   -7.1221   18.4042   42.3595 O   0  0  0  0  0  0  0  0  0  0  0  0
   -9.4457   17.8936   41.6984 C   0  0  1  0  0  0  0  0  0  0  0  0
   -9.9310   18.0026   43.1080 N   0  0  0  0  0  0  0  0  0  0  0  0
   -9.7144   16.7086   43.7901 C   0  0  0  0  0  0  0  0  0  0  0  0
  -10.5535   18.3639   40.7074 C   0  0  2  0  0  0  0  0  0  0  0  0
  -10.8649   19.7285   40.9836 O   0  0  0  0  0  0  0  0  0  0  0  0
  -11.8312   17.5412   40.8532 C   0  0  0  0  0  0  0  0  0  0  0  0
  -10.0175   18.2420   39.2449 C   0  0  0  0  0  0  0  0  0  0  0  0
   -8.7760   19.0248   39.0701 O   0  0  0  0  0  0  0  0  0  0  0  0
  1  3  1  0  0  0  0
  1  2  1  6  0  0  0
  3  5  1  0  0  0  0
  3  4  1  1  0  0  0
  5  6  1  1  0  0  0
  7  8  1  6  0  0  0
  7  5  1  0  0  0  0
  9 10  1  1  0  0  0
  9  7  1  0  0  0  0
 10  1  1  0  0  0  0
 11 13  1  1  0  0  0
 11  9  1  0  0  0  0
 12 11  1  0  0  0  0
 14 15  1  6  0  0  0
 16 14  1  0  0  0  0
 17 18  1  6  0  0  0
 17 16  1  0  0  0  0
 19  2  1  1  0  0  0
 19 20  1  0  0  0  0
 19 17  1  0  0  0  0
 20 21  1  6  0  0  0
 20 22  1  0  0  0  0
 22 23  1  1  0  0  0
 22 14  1  0  0  0  0
 24 23  1  6  0  0  0
 24 25  1  0  0  0  0
 25 27  1  0  0  0  0
 25 26  1  1  0  0  0
 27 28  1  1  0  0  0
 28 29  1  0  0  0  0
 30 31  1  1  0  0  0
 30 32  1  0  0  0  0
 30 27  1  0  0  0  0
 33 30  1  0  0  0  0
 34 33  1  0  0  0  0
 34 24  1  0  0  0  0
M  END
>  <CHROM.1>
-148.00537139,-174.29361685,-164.19186821,67.36727925,-168.62702621,-111.61816718
-6.95836859,15.05528699,38.27181204,0.93600398,-0.86226266,-2.97137828

>  <Name>
lig.pdb

>  <RI>
0

>  <Rbt.Current_Directory>
/home/itssahil/PROJECTS/Mol_Feturizer/New_Systems/rnas/4k32

>  <Rbt.Executable>
rbdock ($Id: //depot/dev/client3/rdock/2013.1/src/exe/rbdock.cxx#4 $)

>  <Rbt.Library>
libRbt.so (2013.1, Build901 2013/11/27)

>  <Rbt.Parameter_File>
/export/apps/rDock/src/rDock_2013.1_src/data/scripts/dock_solv.prm

>  <Rbt.Receptor>
prm/pocket_docking_7.prm

>  <SCORE>
-10.1486

>  <SCORE.INTER>
-5.16199

>  <SCORE.INTER.CONST>
1

>  <SCORE.INTER.POLAR>
0

>  <SCORE.INTER.ROT>
6

>  <SCORE.INTER.SOLV>
16.7056

>  <SCORE.INTER.VDW>
-16.6099

>  <SCORE.INTER.norm>
-0.151823

>  <SCORE.INTRA>
-4.98665

>  <SCORE.INTRA.DIHEDRAL>
-10.6493

>  <SCORE.INTRA.DIHEDRAL.0>
18.0069

>  <SCORE.INTRA.POLAR>
0

>  <SCORE.INTRA.POLAR.0>
0

>  <SCORE.INTRA.REPUL>
0

>  <SCORE.INTRA.REPUL.0>
0

>  <SCORE.INTRA.SOLV>
-0.782101

>  <SCORE.INTRA.SOLV.lig_0>
-70.7393

>  <SCORE.INTRA.VDW>
0.729047

>  <SCORE.INTRA.VDW.0>
-3.23471

>  <SCORE.INTRA.norm>
-0.146666

>  <SCORE.RESTR>
0

>  <SCORE.RESTR.CAVITY>
0

>  <SCORE.RESTR.norm>
0

>  <SCORE.SYSTEM>
0

>  <SCORE.SYSTEM.CONST>
0

>  <SCORE.SYSTEM.DIHEDRAL>
0

>  <SCORE.SYSTEM.SOLV>
0

>  <SCORE.SYSTEM.norm>
0

>  <SCORE.heavy>
34

>  <SCORE.norm>
-0.29849

>  <RMSD>
7.854

$$$$
lig.pdb
 OpenBabel11021811503D
libRbt.so/2013.1/901 2013/11/27
 34 36  0  0  0  0  0  0  0  0999 V2000
   -3.6792   18.2957   41.3614 C   0  0  2  0  0  0  0  0  0  0  0  0
   -4.0510   17.0031   41.8525 O   0  0  0  0  0  0  0  0  0  0  0  0
   -4.1598   19.3896   42.4072 C   0  0  2  0  0  0  0  0  0  0  0  0
   -3.5341   19.1938   43.7358 N   0  0  0  0  0  0  0  0  0  0  0  0
   -5.7029   19.3349   42.5372 C   0  0  1  0  0  0  0  0  0  0  0  0
   -6.1555   20.3186   43.4705 O   0  0  0  0  0  0  0  0  0  0  0  0
   -6.3201   19.5580   41.1451 C   0  0  2  0  0  0  0  0  0  0  0  0
   -7.7438   19.5137   41.2512 O   0  0  0  0  0  0  0  0  0  0  0  0
   -5.7954   18.4546   40.1483 C   0  0  2  0  0  0  0  0  0  0  0  0
   -4.3202   18.4903   40.0568 O   0  0  0  0  0  0  0  0  0  0  0  0
   -6.3778   18.6480   38.7261 C   0  0  2  0  0  0  0  0  0  0  0  0
   -7.8001   18.5167   38.7633 O   0  0  0  0  0  0  0  0  0  0  0  0
   -5.8201   17.6157   37.7586 C   0  0  0  0  0  0  0  0  0  0  0  0
   -2.4227   13.1893   40.7940 C   0  0  2  0  0  0  0  0  0  0  0  0
   -2.1324   11.9633   40.0466 N   0  0  0  0  0  0  0  0  0  0  0  0
   -3.9683   13.3190   40.8839 C   0  0  0  0  0  0  0  0  0  0  0  0
   -4.2965   14.6018   41.6948 C   0  0  2  0  0  0  0  0  0  0  0  0
   -5.7545   14.7623   41.8104 N   0  0  0  0  0  0  0  0  0  0  0  0
   -3.6979   15.8599   41.0104 C   0  0  2  0  0  0  0  0  0  0  0  0
   -2.1509   15.6867   40.8898 C   0  0  2  0  0  0  0  0  0  0  0  0
   -1.6004   16.8444   40.2470 O   0  0  0  0  0  0  0  0  0  0  0  0
   -1.8013   14.4402   40.0411 C   0  0  1  0  0  0  0  0  0  0  0  0
   -0.3563   14.3454   39.9878 O   0  0  0  0  0  0  0  0  0  0  0  0
    0.1837   13.3808   39.0542 C   0  0  2  0  0  0  0  0  0  0  0  0
    1.7451   13.5783   39.0749 C   0  0  2  0  0  0  0  0  0  0  0  0
    2.2446   13.3334   40.3802 O   0  0  0  0  0  0  0  0  0  0  0  0
    2.0821   15.0449   38.6078 C   0  0  1  0  0  0  0  0  0  0  0  0
    3.5580   15.2813   38.6217 N   0  0  0  0  0  0  0  0  0  0  0  0
    3.9533   15.7606   39.9636 C   0  0  0  0  0  0  0  0  0  0  0  0
    1.5156   15.2484   37.1697 C   0  0  2  0  0  0  0  0  0  0  0  0
    2.1409   14.3107   36.2949 O   0  0  0  0  0  0  0  0  0  0  0  0
    1.7940   16.6544   36.6443 C   0  0  0  0  0  0  0  0  0  0  0  0
   -0.0256   14.9920   37.1855 C   0  0  0  0  0  0  0  0  0  0  0  0
   -0.3308   13.6383   37.6942 O   0  0  0  0  0  0  0  0  0  0  0  0
  1  3  1  0  0  0  0
  1  2  1  1  0  0  0
  3  5  1  0  0  0  0
  3  4  1  1  0  0  0
  5  6  1  1  0  0  0
  7  8  1  1  0  0  0
  7  5  1  0  0  0  0
  9 10  1  6  0  0  0
  9  7  1  0  0  0  0
 10  1  1  0  0  0  0
 11 13  1  6  0  0  0
 11  9  1  0  0  0  0
 12 11  1  0  0  0  0
 14 15  1  6  0  0  0
 16 14  1  0  0  0  0
 17 18  1  6  0  0  0
 17 16  1  0  0  0  0
 19  2  1  1  0  0  0
 19 20  1  0  0  0  0
 19 17  1  0  0  0  0
 20 21  1  6  0  0  0
 20 22  1  0  0  0  0
 22 23  1  1  0  0  0
 22 14  1  0  0  0  0
 24 23  1  1  0  0  0
 24 25  1  0  0  0  0
 25 27  1  0  0  0  0
 25 26  1  1  0  0  0
 27 28  1  6  0  0  0
 28 29  1  0  0  0  0
 30 31  1  6  0  0  0
 30 32  1  0  0  0  0
 30 27  1  0  0  0  0
 33 30  1  0  0  0  0
 34 33  1  0  0  0  0
 34 24  1  0  0  0  0
M  END
>  <CHROM.1>
179.50937045,-62.19820639,-175.71181292,74.10828830,174.13790108,-88.36890217
-2.37563121,16.21242908,40.02228584,-2.70753322,-0.40958797,2.99954536

>  <Name>
lig.pdb

>  <RI>
0

>  <Rbt.Current_Directory>
/home/itssahil/PROJECTS/Mol_Feturizer/New_Systems/rnas/4k32

>  <Rbt.Executable>
rbdock ($Id: //depot/dev/client3/rdock/2013.1/src/exe/rbdock.cxx#4 $)

>  <Rbt.Library>
libRbt.so (2013.1, Build901 2013/11/27)

>  <Rbt.Parameter_File>
/export/apps/rDock/src/rDock_2013.1_src/data/scripts/dock_solv.prm

>  <Rbt.Receptor>
prm/pocket_docking_8.prm

>  <SCORE>
-9.79338

>  <SCORE.INTER>
-1.78543

>  <SCORE.INTER.CONST>
1

>  <SCORE.INTER.POLAR>
0

>  <SCORE.INTER.ROT>
6

>  <SCORE.INTER.SOLV>
12.738

>  <SCORE.INTER.VDW>
-13.0363

>  <SCORE.INTER.norm>
-0.0525125

>  <SCORE.INTRA>
-8.00795

>  <SCORE.INTRA.DIHEDRAL>
-16.1872

>  <SCORE.INTRA.DIHEDRAL.0>
18.0069

>  <SCORE.INTRA.POLAR>
0

>  <SCORE.INTRA.POLAR.0>
0

>  <SCORE.INTRA.REPUL>
0

>  <SCORE.INTRA.REPUL.0>
0

>  <SCORE.INTRA.SOLV>
-1.70937

>  <SCORE.INTRA.SOLV.lig_0>
-70.7393

>  <SCORE.INTRA.VDW>
0.940349

>  <SCORE.INTRA.VDW.0>
-3.23471

>  <SCORE.INTRA.norm>
-0.235528

>  <SCORE.RESTR>
0

>  <SCORE.RESTR.CAVITY>
0

>  <SCORE.RESTR.norm>
0

>  <SCORE.SYSTEM>
0

>  <SCORE.SYSTEM.CONST>
0

>  <SCORE.SYSTEM.DIHEDRAL>
0

>  <SCORE.SYSTEM.SOLV>
0

>  <SCORE.SYSTEM.norm>
0

>  <SCORE.heavy>
34

>  <SCORE.norm>
-0.288041

>  <RMSD>
7.857

$$$$
lig.pdb
 OpenBabel11021811503D
libRbt.so/2013.1/901 2013/11/27
 34 36  0  0  0  0  0  0  0  0999 V2000
   -3.9662   11.9964   40.0636 C   0  0  2  0  0  0  0  0  0  0  0  0
   -3.4470   12.9252   39.1056 O   0  0  0  0  0  0  0  0  0  0  0  0
   -2.7636   11.1220   40.6208 C   0  0  2  0  0  0  0  0  0  0  0  0
   -1.7367   11.9578   41.2854 N   0  0  0  0  0  0  0  0  0  0  0  0
   -2.1232   10.3254   39.4563 C   0  0  1  0  0  0  0  0  0  0  0  0
   -1.0416    9.5257   39.9403 O   0  0  0  0  0  0  0  0  0  0  0  0
   -3.2113    9.4571   38.7999 C   0  0  2  0  0  0  0  0  0  0  0  0
   -2.6331    8.7138   37.7259 O   0  0  0  0  0  0  0  0  0  0  0  0
   -4.3832   10.3760   38.2815 C   0  0  2  0  0  0  0  0  0  0  0  0
   -4.9655   11.1587   39.3924 O   0  0  0  0  0  0  0  0  0  0  0  0
   -5.5129    9.5433   37.6260 C   0  0  2  0  0  0  0  0  0  0  0  0
   -4.9877    8.7939   36.5286 O   0  0  0  0  0  0  0  0  0  0  0  0
   -6.6289   10.4395   37.1120 C   0  0  0  0  0  0  0  0  0  0  0  0
   -5.1219   16.6533   37.8356 C   0  0  2  0  0  0  0  0  0  0  0  0
   -5.9787   17.6320   37.1618 N   0  0  0  0  0  0  0  0  0  0  0  0
   -4.5682   15.6968   36.7435 C   0  0  0  0  0  0  0  0  0  0  0  0
   -3.6369   14.6652   37.4358 C   0  0  2  0  0  0  0  0  0  0  0  0
   -3.0835   13.7392   36.4353 N   0  0  0  0  0  0  0  0  0  0  0  0
   -4.4090   13.8530   38.5100 C   0  0  2  0  0  0  0  0  0  0  0  0
   -4.9944   14.8383   39.5703 C   0  0  2  0  0  0  0  0  0  0  0  0
   -5.7171   14.0879   40.5557 O   0  0  0  0  0  0  0  0  0  0  0  0
   -5.9665   15.8449   38.9084 C   0  0  1  0  0  0  0  0  0  0  0  0
   -6.4535   16.7247   39.9518 O   0  0  0  0  0  0  0  0  0  0  0  0
   -7.5680   17.5764   39.5965 C   0  0  2  0  0  0  0  0  0  0  0  0
   -7.8193   18.5094   40.8389 C   0  0  2  0  0  0  0  0  0  0  0  0
   -6.6638   19.2918   41.0957 O   0  0  0  0  0  0  0  0  0  0  0  0
   -8.1842   17.6163   42.0846 C   0  0  1  0  0  0  0  0  0  0  0  0
   -8.4221   18.4623   43.2938 N   0  0  0  0  0  0  0  0  0  0  0  0
   -7.1829   18.5047   44.0995 C   0  0  0  0  0  0  0  0  0  0  0  0
   -9.4613   16.7897   41.7434 C   0  0  2  0  0  0  0  0  0  0  0  0
  -10.5315   17.6930   41.4709 O   0  0  0  0  0  0  0  0  0  0  0  0
   -9.8786   15.8869   42.9016 C   0  0  0  0  0  0  0  0  0  0  0  0
   -9.1843   15.9193   40.4759 C   0  0  0  0  0  0  0  0  0  0  0  0
   -8.7728   16.7636   39.3347 O   0  0  0  0  0  0  0  0  0  0  0  0
  1  3  1  0  0  0  0
  1  2  1  6  0  0  0
  3  5  1  0  0  0  0
  3  4  1  6  0  0  0
  5  6  1  1  0  0  0
  7  8  1  6  0  0  0
  7  5  1  0  0  0  0
  9 10  1  1  0  0  0
  9  7  1  0  0  0  0
 10  1  1  0  0  0  0
 11 13  1  6  0  0  0
 11  9  1  0  0  0  0
 12 11  1  0  0  0  0
 14 15  1  6  0  0  0
 16 14  1  0  0  0  0
 17 18  1  6  0  0  0
 17 16  1  0  0  0  0
 19  2  1  1  0  0  0
 19 20  1  0  0  0  0
 19 17  1  0  0  0  0
 20 21  1  1  0  0  0
 20 22  1  0  0  0  0
 22 23  1  1  0  0  0
 22 14  1  0  0  0  0
 24 23  1  1  0  0  0
 24 25  1  0  0  0  0
 25 27  1  0  0  0  0
 25 26  1  1  0  0  0
 27 28  1  1  0  0  0
 28 29  1  0  0  0  0
 30 31  1  6  0  0  0
 30 32  1  0  0  0  0
 30 27  1  0  0  0  0
 33 30  1  0  0  0  0
 34 33  1  0  0  0  0
 34 24  1  0  0  0  0
M  END
>  <CHROM.1>
-178.10027952,-58.96856337,-175.51080446,75.32755250,-175.13002961,-96.84516839
-5.63079236,14.18946835,39.59629788,0.25854039,-0.99383776,2.24719368

>  <Name>
lig.pdb

>  <RI>
0

>  <Rbt.Current_Directory>
/home/itssahil/PROJECTS/Mol_Feturizer/New_Systems/rnas/4k32

>  <Rbt.Executable>
rbdock ($Id: //depot/dev/client3/rdock/2013.1/src/exe/rbdock.cxx#4 $)

>  <Rbt.Library>
libRbt.so (2013.1, Build901 2013/11/27)

>  <Rbt.Parameter_File>
/export/apps/rDock/src/rDock_2013.1_src/data/scripts/dock_solv.prm

>  <Rbt.Receptor>
prm/pocket_docking_6.prm

>  <SCORE>
-7.2538

>  <SCORE.INTER>
1.04138

>  <SCORE.INTER.CONST>
1

>  <SCORE.INTER.POLAR>
0

>  <SCORE.INTER.ROT>
6

>  <SCORE.INTER.SOLV>
12.8432

>  <SCORE.INTER.VDW>
-11.1868

>  <SCORE.INTER.norm>
0.0306288

>  <SCORE.INTRA>
-8.29883

>  <SCORE.INTRA.DIHEDRAL>
-15.8036

>  <SCORE.INTRA.DIHEDRAL.0>
18.0069

>  <SCORE.INTRA.POLAR>
0

>  <SCORE.INTRA.POLAR.0>
0

>  <SCORE.INTRA.REPUL>
0

>  <SCORE.INTRA.REPUL.0>
0

>  <SCORE.INTRA.SOLV>
-1.87596

>  <SCORE.INTRA.SOLV.lig_0>
-70.7393

>  <SCORE.INTRA.VDW>
0.540967

>  <SCORE.INTRA.VDW.0>
-3.23471

>  <SCORE.INTRA.norm>
-0.244083

>  <SCORE.RESTR>
0.00364126

>  <SCORE.RESTR.CAVITY>
0.00364126

>  <SCORE.RESTR.norm>
0.000107096

>  <SCORE.SYSTEM>
0

>  <SCORE.SYSTEM.CONST>
0

>  <SCORE.SYSTEM.DIHEDRAL>
0

>  <SCORE.SYSTEM.SOLV>
0

>  <SCORE.SYSTEM.norm>
0

>  <SCORE.heavy>
34

>  <SCORE.norm>
-0.213347

>  <RMSD>
7.893

$$$$
lig.pdb
 OpenBabel11021811503D
libRbt.so/2013.1/901 2013/11/27
 34 36  0  0  0  0  0  0  0  0999 V2000
    1.0405   14.8408   37.5137 C   0  0  2  0  0  0  0  0  0  0  0  0
   -0.2017   14.5238   38.1514 O   0  0  0  0  0  0  0  0  0  0  0  0
    1.7797   13.4840   37.1476 C   0  0  2  0  0  0  0  0  0  0  0  0
    0.9759   12.6511   36.2229 N   0  0  0  0  0  0  0  0  0  0  0  0
    2.0780   12.6933   38.4464 C   0  0  1  0  0  0  0  0  0  0  0  0
    2.7504   11.4704   38.1372 O   0  0  0  0  0  0  0  0  0  0  0  0
    2.9266   13.5795   39.3755 C   0  0  2  0  0  0  0  0  0  0  0  0
    3.2123   12.8607   40.5763 O   0  0  0  0  0  0  0  0  0  0  0  0
    2.1504   14.9154   39.6904 C   0  0  2  0  0  0  0  0  0  0  0  0
    1.8388   15.6464   38.4436 O   0  0  0  0  0  0  0  0  0  0  0  0
    2.9740   15.8496   40.6114 C   0  0  2  0  0  0  0  0  0  0  0  0
    2.4318   17.1709   40.5705 O   0  0  0  0  0  0  0  0  0  0  0  0
    4.4295   15.9084   40.1745 C   0  0  0  0  0  0  0  0  0  0  0  0
   -2.6524   16.0103   34.9731 C   0  0  2  0  0  0  0  0  0  0  0  0
   -3.8285   16.3246   34.1581 N   0  0  0  0  0  0  0  0  0  0  0  0
   -2.6887   14.4847   35.2649 C   0  0  0  0  0  0  0  0  0  0  0  0
   -1.4352   14.1271   36.1087 C   0  0  2  0  0  0  0  0  0  0  0  0
   -1.4250   12.6859   36.4049 N   0  0  0  0  0  0  0  0  0  0  0  0
   -1.4182   14.9215   37.4421 C   0  0  2  0  0  0  0  0  0  0  0  0
   -1.4285   16.4501   37.1244 C   0  0  2  0  0  0  0  0  0  0  0  0
   -1.4243   17.1830   38.3571 O   0  0  0  0  0  0  0  0  0  0  0  0
   -2.6970   16.8377   36.3263 C   0  0  1  0  0  0  0  0  0  0  0  0
   -2.6240   18.2610   36.0640 O   0  0  0  0  0  0  0  0  0  0  0  0
   -1.3161   18.8656   36.1956 C   0  0  2  0  0  0  0  0  0  0  0  0
   -1.4461   20.3216   35.6120 C   0  0  2  0  0  0  0  0  0  0  0  0
   -2.4052   21.0555   36.3569 O   0  0  0  0  0  0  0  0  0  0  0  0
   -1.8602   20.2300   34.0945 C   0  0  1  0  0  0  0  0  0  0  0  0
   -2.0056   21.5937   33.4999 N   0  0  0  0  0  0  0  0  0  0  0  0
   -3.0670   22.3222   34.2275 C   0  0  0  0  0  0  0  0  0  0  0  0
   -0.7671   19.4214   33.3316 C   0  0  2  0  0  0  0  0  0  0  0  0
    0.4767   20.1105   33.4487 O   0  0  0  0  0  0  0  0  0  0  0  0
   -1.0990   19.2790   31.8483 C   0  0  0  0  0  0  0  0  0  0  0  0
   -0.6353   18.0043   33.9760 C   0  0  0  0  0  0  0  0  0  0  0  0
   -0.3181   18.1060   35.4160 O   0  0  0  0  0  0  0  0  0  0  0  0
  1  3  1  0  0  0  0
  1  2  1  1  0  0  0
  3  5  1  0  0  0  0
  3  4  1  6  0  0  0
  5  6  1  6  0  0  0
  7  8  1  1  0  0  0
  7  5  1  0  0  0  0
  9 10  1  6  0  0  0
  9  7  1  0  0  0  0
 10  1  1  0  0  0  0
 11 13  1  6  0  0  0
 11  9  1  0  0  0  0
 12 11  1  0  0  0  0
 14 15  1  6  0  0  0
 16 14  1  0  0  0  0
 17 18  1  1  0  0  0
 17 16  1  0  0  0  0
 19  2  1  6  0  0  0
 19 20  1  0  0  0  0
 19 17  1  0  0  0  0
 20 21  1  1  0  0  0
 20 22  1  0  0  0  0
 22 23  1  6  0  0  0
 22 14  1  0  0  0  0
 24 23  1  6  0  0  0
 24 25  1  0  0  0  0
 25 27  1  0  0  0  0
 25 26  1  1  0  0  0
 27 28  1  6  0  0  0
 28 29  1  0  0  0  0
 30 31  1  1  0  0  0
 30 32  1  0  0  0  0
 30 27  1  0  0  0  0
 33 30  1  0  0  0  0
 34 33  1  0  0  0  0
 34 24  1  0  0  0  0
M  END
>  <CHROM.1>
-115.54954459,163.75144721,63.16596166,-97.77003507,169.84008973,-60.98513909
-0.20080748,16.56123803,36.65399498,0.83372266,0.77844584,3.04294792

>  <Name>
lig.pdb

>  <RI>
0

>  <Rbt.Current_Directory>
/home/itssahil/PROJECTS/Mol_Feturizer/New_Systems/rnas/4k32

>  <Rbt.Executable>
rbdock ($Id: //depot/dev/client3/rdock/2013.1/src/exe/rbdock.cxx#4 $)

>  <Rbt.Library>
libRbt.so (2013.1, Build901 2013/11/27)

>  <Rbt.Parameter_File>
/export/apps/rDock/src/rDock_2013.1_src/data/scripts/dock_solv.prm

>  <Rbt.Receptor>
prm/blind_docking_100.prm

>  <SCORE>
63.9585

>  <SCORE.INTER>
38.8272

>  <SCORE.INTER.CONST>
1

>  <SCORE.INTER.POLAR>
0

>  <SCORE.INTER.ROT>
6

>  <SCORE.INTER.SOLV>
23.5846

>  <SCORE.INTER.VDW>
10.4233

>  <SCORE.INTER.norm>
1.14198

>  <SCORE.INTRA>
13.092

>  <SCORE.INTRA.DIHEDRAL>
-4.4393

>  <SCORE.INTRA.DIHEDRAL.0>
18.0069

>  <SCORE.INTRA.POLAR>
0

>  <SCORE.INTRA.POLAR.0>
0

>  <SCORE.INTRA.REPUL>
0

>  <SCORE.INTRA.REPUL.0>
0

>  <SCORE.INTRA.SOLV>
3.54387

>  <SCORE.INTRA.SOLV.lig_0>
-70.7393

>  <SCORE.INTRA.VDW>
13.5397

>  <SCORE.INTRA.VDW.0>
-3.23471

>  <SCORE.INTRA.norm>
0.385058

>  <SCORE.RESTR>
12.0393

>  <SCORE.RESTR.CAVITY>
12.0393

>  <SCORE.RESTR.norm>
0.354098

>  <SCORE.SYSTEM>
0

>  <SCORE.SYSTEM.CONST>
0

>  <SCORE.SYSTEM.DIHEDRAL>
0

>  <SCORE.SYSTEM.SOLV>
0

>  <SCORE.SYSTEM.norm>
0

>  <SCORE.heavy>
34

>  <SCORE.norm>
1.88113

>  <RMSD>
7.912

$$$$
lig.pdb
 OpenBabel11021811503D
libRbt.so/2013.1/901 2013/11/27
 34 36  0  0  0  0  0  0  0  0999 V2000
   -5.1079   16.8034   40.8260 C   0  0  2  0  0  0  0  0  0  0  0  0
   -5.6297   15.6950   40.0847 O   0  0  0  0  0  0  0  0  0  0  0  0
   -5.6208   16.6936   42.3247 C   0  0  2  0  0  0  0  0  0  0  0  0
   -5.1673   15.4403   42.9716 N   0  0  0  0  0  0  0  0  0  0  0  0
   -7.1683   16.7687   42.3463 C   0  0  1  0  0  0  0  0  0  0  0  0
   -7.6490   16.6785   43.6895 O   0  0  0  0  0  0  0  0  0  0  0  0
   -7.6041   18.0874   41.6831 C   0  0  2  0  0  0  0  0  0  0  0  0
   -9.0300   18.1714   41.6996 O   0  0  0  0  0  0  0  0  0  0  0  0
   -7.0539   18.1468   40.2065 C   0  0  2  0  0  0  0  0  0  0  0  0
   -5.5794   18.0391   40.1924 O   0  0  0  0  0  0  0  0  0  0  0  0
   -7.4540   19.4669   39.5019 C   0  0  2  0  0  0  0  0  0  0  0  0
   -8.8766   19.5471   39.3955 O   0  0  0  0  0  0  0  0  0  0  0  0
   -6.8574   19.5472   38.1053 C   0  0  0  0  0  0  0  0  0  0  0  0
   -4.3044   14.1758   36.3096 C   0  0  2  0  0  0  0  0  0  0  0  0
   -4.0896   14.0382   34.8670 N   0  0  0  0  0  0  0  0  0  0  0  0
   -5.8343   14.3247   36.5353 C   0  0  0  0  0  0  0  0  0  0  0  0
   -6.0848   14.4476   38.0628 C   0  0  2  0  0  0  0  0  0  0  0  0
   -7.5260   14.5855   38.3248 N   0  0  0  0  0  0  0  0  0  0  0  0
   -5.3401   15.6762   38.6506 C   0  0  2  0  0  0  0  0  0  0  0  0
   -3.8113   15.5267   38.3715 C   0  0  2  0  0  0  0  0  0  0  0  0
   -3.1257   16.6678   38.9048 O   0  0  0  0  0  0  0  0  0  0  0  0
   -3.5342   15.4533   36.8502 C   0  0  1  0  0  0  0  0  0  0  0  0
   -2.1030   15.3047   36.6786 O   0  0  0  0  0  0  0  0  0  0  0  0
   -1.6048   15.4612   35.3292 C   0  0  2  0  0  0  0  0  0  0  0  0
   -0.0567   15.1861   35.3995 C   0  0  2  0  0  0  0  0  0  0  0  0
    0.1775   13.8648   35.8609 O   0  0  0  0  0  0  0  0  0  0  0  0
    0.6087   16.2447   36.3584 C   0  0  1  0  0  0  0  0  0  0  0  0
    2.0819   16.0146   36.4635 N   0  0  0  0  0  0  0  0  0  0  0  0
    2.3773   15.3966   37.7740 C   0  0  0  0  0  0  0  0  0  0  0  0
    0.3230   17.6702   35.7954 C   0  0  2  0  0  0  0  0  0  0  0  0
    0.8996   17.7721   34.4944 O   0  0  0  0  0  0  0  0  0  0  0  0
    0.9298   18.7596   36.6759 C   0  0  0  0  0  0  0  0  0  0  0  0
   -1.2219   17.8804   35.6938 C   0  0  0  0  0  0  0  0  0  0  0  0
   -1.8427   16.8376   34.8500 O   0  0  0  0  0  0  0  0  0  0  0  0
  1  3  1  0  0  0  0
  1  2  1  6  0  0  0
  3  5  1  0  0  0  0
  3  4  1  6  0  0  0
  5  6  1  1  0  0  0
  7  8  1  6  0  0  0
  7  5  1  0  0  0  0
  9 10  1  1  0  0  0
  9  7  1  0  0  0  0
 10  1  1  0  0  0  0
 11 13  1  6  0  0  0
 11  9  1  0  0  0  0
 12 11  1  0  0  0  0
 14 15  1  6  0  0  0
 16 14  1  0  0  0  0
 17 18  1  6  0  0  0
 17 16  1  0  0  0  0
 19  2  1  1  0  0  0
 19 20  1  0  0  0  0
 19 17  1  0  0  0  0
 20 21  1  6  0  0  0
 20 22  1  0  0  0  0
 22 23  1  1  0  0  0
 22 14  1  0  0  0  0
 24 23  1  1  0  0  0
 24 25  1  0  0  0  0
 25 27  1  0  0  0  0
 25 26  1  1  0  0  0
 27 28  1  6  0  0  0
 28 29  1  0  0  0  0
 30 31  1  6  0  0  0
 30 32  1  0  0  0  0
 30 27  1  0  0  0  0
 33 30  1  0  0  0  0
 34 33  1  0  0  0  0
 34 24  1  0  0  0  0
M  END
>  <CHROM.1>
175.80139674,-62.77048714,-176.20840033,74.78913292,-177.28399483,-104.92689624
-3.87522376,16.50653038,38.27789091,-2.59535337,-0.31893902,-2.28645994

>  <Name>
lig.pdb

>  <RI>
0

>  <Rbt.Current_Directory>
/home/itssahil/PROJECTS/Mol_Feturizer/New_Systems/rnas/4k32

>  <Rbt.Executable>
rbdock ($Id: //depot/dev/client3/rdock/2013.1/src/exe/rbdock.cxx#4 $)

>  <Rbt.Library>
libRbt.so (2013.1, Build901 2013/11/27)

>  <Rbt.Parameter_File>
/export/apps/rDock/src/rDock_2013.1_src/data/scripts/dock_solv.prm

>  <Rbt.Receptor>
prm/pocket_docking_8.prm

>  <SCORE>
-11.7095

>  <SCORE.INTER>
-3.41498

>  <SCORE.INTER.CONST>
1

>  <SCORE.INTER.POLAR>
0

>  <SCORE.INTER.ROT>
6

>  <SCORE.INTER.SOLV>
17.2452

>  <SCORE.INTER.VDW>
-15.6251

>  <SCORE.INTER.norm>
-0.10044

>  <SCORE.INTRA>
-8.29448

>  <SCORE.INTRA.DIHEDRAL>
-15.6828

>  <SCORE.INTRA.DIHEDRAL.0>
18.0069

>  <SCORE.INTRA.POLAR>
0

>  <SCORE.INTRA.POLAR.0>
0

>  <SCORE.INTRA.REPUL>
0

>  <SCORE.INTRA.REPUL.0>
0

>  <SCORE.INTRA.SOLV>
-1.85929

>  <SCORE.INTRA.SOLV.lig_0>
-70.7393

>  <SCORE.INTRA.VDW>
0.476594

>  <SCORE.INTRA.VDW.0>
-3.23471

>  <SCORE.INTRA.norm>
-0.243955

>  <SCORE.RESTR>
0

>  <SCORE.RESTR.CAVITY>
0

>  <SCORE.RESTR.norm>
0

>  <SCORE.SYSTEM>
0

>  <SCORE.SYSTEM.CONST>
0

>  <SCORE.SYSTEM.DIHEDRAL>
0

>  <SCORE.SYSTEM.SOLV>
0

>  <SCORE.SYSTEM.norm>
0

>  <SCORE.heavy>
34

>  <SCORE.norm>
-0.344396

>  <RMSD>
7.913

$$$$
lig.pdb
 OpenBabel11021811503D
libRbt.so/2013.1/901 2013/11/27
 34 36  0  0  0  0  0  0  0  0999 V2000
   -5.7123   14.6840   36.5072 C   0  0  2  0  0  0  0  0  0  0  0  0
   -5.0104   14.7910   37.7506 O   0  0  0  0  0  0  0  0  0  0  0  0
   -6.3972   13.2533   36.4365 C   0  0  2  0  0  0  0  0  0  0  0  0
   -7.3638   13.0502   37.5407 N   0  0  0  0  0  0  0  0  0  0  0  0
   -5.3040   12.1561   36.4834 C   0  0  1  0  0  0  0  0  0  0  0  0
   -5.9018   10.8594   36.4137 O   0  0  0  0  0  0  0  0  0  0  0  0
   -4.3283   12.3863   35.3157 C   0  0  2  0  0  0  0  0  0  0  0  0
   -3.3164   11.3785   35.3449 O   0  0  0  0  0  0  0  0  0  0  0  0
   -3.6931   13.8251   35.4298 C   0  0  2  0  0  0  0  0  0  0  0  0
   -4.7448   14.8641   35.4197 O   0  0  0  0  0  0  0  0  0  0  0  0
   -2.7139   14.1099   34.2640 C   0  0  2  0  0  0  0  0  0  0  0  0
   -3.2854   13.6654   33.0321 O   0  0  0  0  0  0  0  0  0  0  0  0
   -1.3890   13.3926   34.4713 C   0  0  0  0  0  0  0  0  0  0  0  0
   -3.7970   18.8521   37.1578 C   0  0  2  0  0  0  0  0  0  0  0  0
   -3.3424   20.2183   37.4280 N   0  0  0  0  0  0  0  0  0  0  0  0
   -5.0283   18.5880   38.0678 C   0  0  0  0  0  0  0  0  0  0  0  0
   -5.5404   17.1510   37.7780 C   0  0  2  0  0  0  0  0  0  0  0  0
   -6.7135   16.8585   38.6164 N   0  0  0  0  0  0  0  0  0  0  0  0
   -4.4349   16.0994   38.0635 C   0  0  2  0  0  0  0  0  0  0  0  0
   -3.1919   16.4122   37.1720 C   0  0  2  0  0  0  0  0  0  0  0  0
   -2.1671   15.4469   37.4449 O   0  0  0  0  0  0  0  0  0  0  0  0
   -2.6338   17.8226   37.4813 C   0  0  1  0  0  0  0  0  0  0  0  0
   -1.4965   18.0377   36.6096 O   0  0  0  0  0  0  0  0  0  0  0  0
   -1.6491   17.5886   35.2426 C   0  0  2  0  0  0  0  0  0  0  0  0
   -0.2500   17.8005   34.5534 C   0  0  2  0  0  0  0  0  0  0  0  0
    0.7368   17.0277   35.2184 O   0  0  0  0  0  0  0  0  0  0  0  0
    0.1131   19.3332   34.5920 C   0  0  1  0  0  0  0  0  0  0  0  0
    1.4427   19.5807   33.9555 N   0  0  0  0  0  0  0  0  0  0  0  0
    2.2776   20.3730   34.8838 C   0  0  0  0  0  0  0  0  0  0  0  0
   -1.0012   20.1244   33.8417 C   0  0  2  0  0  0  0  0  0  0  0  0
   -1.0476   19.6764   32.4879 O   0  0  0  0  0  0  0  0  0  0  0  0
   -0.7276   21.6263   33.8410 C   0  0  0  0  0  0  0  0  0  0  0  0
   -2.3775   19.8442   34.5261 C   0  0  0  0  0  0  0  0  0  0  0  0
   -2.6718   18.3960   34.5476 O   0  0  0  0  0  0  0  0  0  0  0  0
  1  3  1  0  0  0  0
  1  2  1  1  0  0  0
  3  5  1  0  0  0  0
  3  4  1  1  0  0  0
  5  6  1  6  0  0  0
  7  8  1  1  0  0  0
  7  5  1  0  0  0  0
  9 10  1  6  0  0  0
  9  7  1  0  0  0  0
 10  1  1  0  0  0  0
 11 13  1  1  0  0  0
 11  9  1  0  0  0  0
 12 11  1  0  0  0  0
 14 15  1  1  0  0  0
 16 14  1  0  0  0  0
 17 18  1  1  0  0  0
 17 16  1  0  0  0  0
 19  2  1  6  0  0  0
 19 20  1  0  0  0  0
 19 17  1  0  0  0  0
 20 21  1  1  0  0  0
 20 22  1  0  0  0  0
 22 23  1  6  0  0  0
 22 14  1  0  0  0  0
 24 23  1  1  0  0  0
 24 25  1  0  0  0  0
 25 27  1  0  0  0  0
 25 26  1  1  0  0  0
 27 28  1  6  0  0  0
 28 29  1  0  0  0  0
 30 31  1  6  0  0  0
 30 32  1  0  0  0  0
 30 27  1  0  0  0  0
 33 30  1  0  0  0  0
 34 33  1  0  0  0  0
 34 24  1  0  0  0  0
M  END
>  <CHROM.1>
-173.47494442,43.74466531,46.94430648,-74.43749213,-174.51661495,-128.59242317
-2.98807052,16.42249009,35.79385685,2.39343608,-0.64302306,-2.84652572

>  <Name>
lig.pdb

>  <RI>
0

>  <Rbt.Current_Directory>
/home/itssahil/PROJECTS/Mol_Feturizer/New_Systems/rnas/4k32

>  <Rbt.Executable>
rbdock ($Id: //depot/dev/client3/rdock/2013.1/src/exe/rbdock.cxx#4 $)

>  <Rbt.Library>
libRbt.so (2013.1, Build901 2013/11/27)

>  <Rbt.Parameter_File>
/export/apps/rDock/src/rDock_2013.1_src/data/scripts/dock_solv.prm

>  <Rbt.Receptor>
prm/pocket_docking_4.prm

>  <SCORE>
-11.6626

>  <SCORE.INTER>
-7.89553

>  <SCORE.INTER.CONST>
1

>  <SCORE.INTER.POLAR>
0

>  <SCORE.INTER.ROT>
6

>  <SCORE.INTER.SOLV>
26.17

>  <SCORE.INTER.VDW>
-21.587

>  <SCORE.INTER.norm>
-0.232222

>  <SCORE.INTRA>
-3.76705

>  <SCORE.INTRA.DIHEDRAL>
-13.7687

>  <SCORE.INTRA.DIHEDRAL.0>
18.0069

>  <SCORE.INTRA.POLAR>
0

>  <SCORE.INTRA.POLAR.0>
0

>  <SCORE.INTRA.REPUL>
0.053018

>  <SCORE.INTRA.REPUL.0>
0

>  <SCORE.INTRA.SOLV>
0.980124

>  <SCORE.INTRA.SOLV.lig_0>
-70.7393

>  <SCORE.INTRA.VDW>
2.36213

>  <SCORE.INTRA.VDW.0>
-3.23471

>  <SCORE.INTRA.norm>
-0.110796

>  <SCORE.RESTR>
0

>  <SCORE.RESTR.CAVITY>
0

>  <SCORE.RESTR.norm>
0

>  <SCORE.SYSTEM>
0

>  <SCORE.SYSTEM.CONST>
0

>  <SCORE.SYSTEM.DIHEDRAL>
0

>  <SCORE.SYSTEM.SOLV>
0

>  <SCORE.SYSTEM.norm>
0

>  <SCORE.heavy>
34

>  <SCORE.norm>
-0.343017

>  <RMSD>
7.934

$$$$
lig.pdb
 OpenBabel11021811503D
libRbt.so/2013.1/901 2013/11/27
 34 36  0  0  0  0  0  0  0  0999 V2000
   -3.4667   11.7008   37.3582 C   0  0  2  0  0  0  0  0  0  0  0  0
   -3.9385   12.3814   36.1902 O   0  0  0  0  0  0  0  0  0  0  0  0
   -3.3575   10.1513   37.0290 C   0  0  2  0  0  0  0  0  0  0  0  0
   -2.4123    9.8894   35.9186 N   0  0  0  0  0  0  0  0  0  0  0  0
   -4.7605    9.6011   36.6689 C   0  0  1  0  0  0  0  0  0  0  0  0
   -4.6834    8.2041   36.3758 O   0  0  0  0  0  0  0  0  0  0  0  0
   -5.7114    9.8742   37.8478 C   0  0  2  0  0  0  0  0  0  0  0  0
   -7.0089    9.3682   37.5303 O   0  0  0  0  0  0  0  0  0  0  0  0
   -5.7668   11.4232   38.1379 C   0  0  2  0  0  0  0  0  0  0  0  0
   -4.4190   11.9468   38.4461 O   0  0  0  0  0  0  0  0  0  0  0  0
   -6.7010   11.7466   39.3303 C   0  0  2  0  0  0  0  0  0  0  0  0
   -6.8110   13.1623   39.4892 O   0  0  0  0  0  0  0  0  0  0  0  0
   -6.1661   11.1530   40.6243 C   0  0  0  0  0  0  0  0  0  0  0  0
   -2.1939   16.1583   37.1941 C   0  0  2  0  0  0  0  0  0  0  0  0
   -1.7831   17.5622   37.1149 N   0  0  0  0  0  0  0  0  0  0  0  0
   -1.7223   15.4658   35.8857 C   0  0  0  0  0  0  0  0  0  0  0  0
   -2.1277   13.9688   35.9614 C   0  0  2  0  0  0  0  0  0  0  0  0
   -1.6946   13.2701   34.7412 N   0  0  0  0  0  0  0  0  0  0  0  0
   -3.6647   13.8168   36.1174 C   0  0  2  0  0  0  0  0  0  0  0  0
   -4.1210   14.5588   37.4131 C   0  0  2  0  0  0  0  0  0  0  0  0
   -5.5424   14.4275   37.5501 O   0  0  0  0  0  0  0  0  0  0  0  0
   -3.7715   16.0649   37.3368 C   0  0  1  0  0  0  0  0  0  0  0  0
   -4.2151   16.6744   38.5743 O   0  0  0  0  0  0  0  0  0  0  0  0
   -4.2007   18.1208   38.6117 C   0  0  2  0  0  0  0  0  0  0  0  0
   -4.7299   18.5272   40.0372 C   0  0  2  0  0  0  0  0  0  0  0  0
   -3.8728   18.0002   41.0377 O   0  0  0  0  0  0  0  0  0  0  0  0
   -6.1996   17.9866   40.2113 C   0  0  1  0  0  0  0  0  0  0  0  0
   -6.7405   18.3416   41.5588 N   0  0  0  0  0  0  0  0  0  0  0  0
   -7.4841   17.1821   42.0967 C   0  0  0  0  0  0  0  0  0  0  0  0
   -7.0901   18.6054   39.0911 C   0  0  2  0  0  0  0  0  0  0  0  0
   -7.0814   20.0251   39.2320 O   0  0  0  0  0  0  0  0  0  0  0  0
   -8.5354   18.1228   39.1843 C   0  0  0  0  0  0  0  0  0  0  0  0
   -6.4996   18.2209   37.6967 C   0  0  0  0  0  0  0  0  0  0  0  0
   -5.0969   18.6705   37.5746 O   0  0  0  0  0  0  0  0  0  0  0  0
  1  3  1  0  0  0  0
  1  2  1  6  0  0  0
  3  5  1  0  0  0  0
  3  4  1  6  0  0  0
  5  6  1  1  0  0  0
  7  8  1  6  0  0  0
  7  5  1  0  0  0  0
  9 10  1  1  0  0  0
  9  7  1  0  0  0  0
 10  1  1  0  0  0  0
 11 13  1  1  0  0  0
 11  9  1  0  0  0  0
 12 11  1  0  0  0  0
 14 15  1  6  0  0  0
 16 14  1  0  0  0  0
 17 18  1  6  0  0  0
 17 16  1  0  0  0  0
 19  2  1  1  0  0  0
 19 20  1  0  0  0  0
 19 17  1  0  0  0  0
 20 21  1  6  0  0  0
 20 22  1  0  0  0  0
 22 23  1  1  0  0  0
 22 14  1  0  0  0  0
 24 23  1  1  0  0  0
 24 25  1  0  0  0  0
 25 27  1  0  0  0  0
 25 26  1  1  0  0  0
 27 28  1  1  0  0  0
 28 29  1  0  0  0  0
 30 31  1  1  0  0  0
 30 32  1  0  0  0  0
 30 27  1  0  0  0  0
 33 30  1  0  0  0  0
 34 33  1  0  0  0  0
 34 24  1  0  0  0  0
M  END
>  <CHROM.1>
-159.02897208,-175.19378419,67.71855729,74.59057460,179.56126200,-138.58642736
-4.85015382,14.53950426,38.11782969,-1.34570127,0.66552739,0.16747501

>  <Name>
lig.pdb

>  <RI>
0

>  <Rbt.Current_Directory>
/home/itssahil/PROJECTS/Mol_Feturizer/New_Systems/rnas/4k32

>  <Rbt.Executable>
rbdock ($Id: //depot/dev/client3/rdock/2013.1/src/exe/rbdock.cxx#4 $)

>  <Rbt.Library>
libRbt.so (2013.1, Build901 2013/11/27)

>  <Rbt.Parameter_File>
/export/apps/rDock/src/rDock_2013.1_src/data/scripts/dock_solv.prm

>  <Rbt.Receptor>
prm/pocket_docking_4.prm

>  <SCORE>
-8.16203

>  <SCORE.INTER>
-2.97533

>  <SCORE.INTER.CONST>
1

>  <SCORE.INTER.POLAR>
0

>  <SCORE.INTER.ROT>
6

>  <SCORE.INTER.SOLV>
13.138

>  <SCORE.INTER.VDW>
-13.9629

>  <SCORE.INTER.norm>
-0.0875097

>  <SCORE.INTRA>
-5.19232

>  <SCORE.INTRA.DIHEDRAL>
-13.6696

>  <SCORE.INTRA.DIHEDRAL.0>
18.0069

>  <SCORE.INTRA.POLAR>
0

>  <SCORE.INTRA.POLAR.0>
0

>  <SCORE.INTRA.REPUL>
0

>  <SCORE.INTRA.REPUL.0>
0

>  <SCORE.INTRA.SOLV>
0.320924

>  <SCORE.INTRA.SOLV.lig_0>
-70.7393

>  <SCORE.INTRA.VDW>
1.48204

>  <SCORE.INTRA.VDW.0>
-3.23471

>  <SCORE.INTRA.norm>
-0.152715

>  <SCORE.RESTR>
0.00561989

>  <SCORE.RESTR.CAVITY>
0.00561989

>  <SCORE.RESTR.norm>
0.000165291

>  <SCORE.SYSTEM>
0

>  <SCORE.SYSTEM.CONST>
0

>  <SCORE.SYSTEM.DIHEDRAL>
0

>  <SCORE.SYSTEM.SOLV>
0

>  <SCORE.SYSTEM.norm>
0

>  <SCORE.heavy>
34

>  <SCORE.norm>
-0.24006

>  <RMSD>
7.938

$$$$
lig.pdb
 OpenBabel11021811503D
libRbt.so/2013.1/901 2013/11/27
 34 36  0  0  0  0  0  0  0  0999 V2000
   -6.6322   12.4677   37.7695 C   0  0  2  0  0  0  0  0  0  0  0  0
   -5.5104   13.3440   37.9234 O   0  0  0  0  0  0  0  0  0  0  0  0
   -6.2188   11.0243   38.2863 C   0  0  2  0  0  0  0  0  0  0  0  0
   -5.8288   11.0418   39.7155 N   0  0  0  0  0  0  0  0  0  0  0  0
   -5.0482   10.4850   37.4262 C   0  0  1  0  0  0  0  0  0  0  0  0
   -4.6663    9.1818   37.8726 O   0  0  0  0  0  0  0  0  0  0  0  0
   -5.4919   10.4644   35.9527 C   0  0  2  0  0  0  0  0  0  0  0  0
   -4.4223    9.9652   35.1482 O   0  0  0  0  0  0  0  0  0  0  0  0
   -5.9044   11.9179   35.5016 C   0  0  2  0  0  0  0  0  0  0  0  0
   -6.9978   12.4388   36.3495 O   0  0  0  0  0  0  0  0  0  0  0  0
   -6.3754   11.9446   34.0262 C   0  0  2  0  0  0  0  0  0  0  0  0
   -7.1776   10.7942   33.7531 O   0  0  0  0  0  0  0  0  0  0  0  0
   -5.1917   11.9489   33.0714 C   0  0  0  0  0  0  0  0  0  0  0  0
   -5.2469   17.5642   38.5846 C   0  0  2  0  0  0  0  0  0  0  0  0
   -5.3643   19.0105   38.3833 N   0  0  0  0  0  0  0  0  0  0  0  0
   -4.5397   16.9805   37.3303 C   0  0  0  0  0  0  0  0  0  0  0  0
   -4.3839   15.4493   37.5357 C   0  0  2  0  0  0  0  0  0  0  0  0
   -3.7117   14.8533   36.3705 N   0  0  0  0  0  0  0  0  0  0  0  0
   -5.7670   14.7712   37.7281 C   0  0  2  0  0  0  0  0  0  0  0  0
   -6.4774   15.4054   38.9654 C   0  0  2  0  0  0  0  0  0  0  0  0
   -7.7597   14.7862   39.1354 O   0  0  0  0  0  0  0  0  0  0  0  0
   -6.6886   16.9251   38.7596 C   0  0  1  0  0  0  0  0  0  0  0  0
   -7.3389   17.4357   39.9496 O   0  0  0  0  0  0  0  0  0  0  0  0
   -7.7059   18.8351   39.9229 C   0  0  2  0  0  0  0  0  0  0  0  0
   -8.2049   19.1846   41.3741 C   0  0  2  0  0  0  0  0  0  0  0  0
   -7.1595   18.9673   42.3086 O   0  0  0  0  0  0  0  0  0  0  0  0
   -9.4590   18.2930   41.7131 C   0  0  1  0  0  0  0  0  0  0  0  0
   -9.9621   18.5847   43.0901 N   0  0  0  0  0  0  0  0  0  0  0  0
   -9.5708   17.4764   43.9874 C   0  0  0  0  0  0  0  0  0  0  0  0
  -10.5707   18.5819   40.6589 C   0  0  2  0  0  0  0  0  0  0  0  0
  -10.9275   19.9611   40.7368 O   0  0  0  0  0  0  0  0  0  0  0  0
  -11.8234   17.7471   40.9125 C   0  0  0  0  0  0  0  0  0  0  0  0
  -10.0160   18.2715   39.2316 C   0  0  0  0  0  0  0  0  0  0  0  0
   -8.7978   19.0616   38.9548 O   0  0  0  0  0  0  0  0  0  0  0  0
  1  3  1  0  0  0  0
  1  2  1  6  0  0  0
  3  5  1  0  0  0  0
  3  4  1  1  0  0  0
  5  6  1  1  0  0  0
  7  8  1  6  0  0  0
  7  5  1  0  0  0  0
  9 10  1  1  0  0  0
  9  7  1  0  0  0  0
 10  1  1  0  0  0  0
 11 13  1  6  0  0  0
 11  9  1  0  0  0  0
 12 11  1  0  0  0  0
 14 15  1  6  0  0  0
 16 14  1  0  0  0  0
 17 18  1  6  0  0  0
 17 16  1  0  0  0  0
 19  2  1  1  0  0  0
 19 20  1  0  0  0  0
 19 17  1  0  0  0  0
 20 21  1  6  0  0  0
 20 22  1  0  0  0  0
 22 23  1  1  0  0  0
 22 14  1  0  0  0  0
 24 23  1  1  0  0  0
 24 25  1  0  0  0  0
 25 27  1  0  0  0  0
 25 26  1  1  0  0  0
 27 28  1  1  0  0  0
 28 29  1  0  0  0  0
 30 31  1  1  0  0  0
 30 32  1  0  0  0  0
 30 27  1  0  0  0  0
 33 30  1  0  0  0  0
 34 33  1  0  0  0  0
 34 24  1  0  0  0  0
M  END
>  <CHROM.1>
-169.33063715,40.49174599,-163.97786865,67.74666807,-172.53893348,-105.00476338
-6.98676859,15.13368288,38.47911594,0.94751443,-0.86502687,-3.02790887

>  <Name>
lig.pdb

>  <RI>
0

>  <Rbt.Current_Directory>
/home/itssahil/PROJECTS/Mol_Feturizer/New_Systems/rnas/4k32

>  <Rbt.Executable>
rbdock ($Id: //depot/dev/client3/rdock/2013.1/src/exe/rbdock.cxx#4 $)

>  <Rbt.Library>
libRbt.so (2013.1, Build901 2013/11/27)

>  <Rbt.Parameter_File>
/export/apps/rDock/src/rDock_2013.1_src/data/scripts/dock_solv.prm

>  <Rbt.Receptor>
prm/pocket_docking_6.prm

>  <SCORE>
-11.4521

>  <SCORE.INTER>
-4.70516

>  <SCORE.INTER.CONST>
1

>  <SCORE.INTER.POLAR>
0

>  <SCORE.INTER.ROT>
6

>  <SCORE.INTER.SOLV>
15.7273

>  <SCORE.INTER.VDW>
-15.9792

>  <SCORE.INTER.norm>
-0.138387

>  <SCORE.INTRA>
-6.74697

>  <SCORE.INTRA.DIHEDRAL>
-13.3501

>  <SCORE.INTRA.DIHEDRAL.0>
18.0069

>  <SCORE.INTRA.POLAR>
0

>  <SCORE.INTRA.POLAR.0>
0

>  <SCORE.INTRA.REPUL>
0

>  <SCORE.INTRA.REPUL.0>
0

>  <SCORE.INTRA.SOLV>
-0.995457

>  <SCORE.INTRA.SOLV.lig_0>
-70.7393

>  <SCORE.INTRA.VDW>
0.425788

>  <SCORE.INTRA.VDW.0>
-3.23471

>  <SCORE.INTRA.norm>
-0.19844

>  <SCORE.RESTR>
0

>  <SCORE.RESTR.CAVITY>
0

>  <SCORE.RESTR.norm>
0

>  <SCORE.SYSTEM>
0

>  <SCORE.SYSTEM.CONST>
0

>  <SCORE.SYSTEM.DIHEDRAL>
0

>  <SCORE.SYSTEM.SOLV>
0

>  <SCORE.SYSTEM.norm>
0

>  <SCORE.heavy>
34

>  <SCORE.norm>
-0.336827

>  <RMSD>
7.991

$$$$
lig.pdb
 OpenBabel11021811503D
libRbt.so/2013.1/901 2013/11/27
 34 36  0  0  0  0  0  0  0  0999 V2000
   -6.2753   14.0654   39.1042 C   0  0  2  0  0  0  0  0  0  0  0  0
   -5.6306   14.7119   40.2072 O   0  0  0  0  0  0  0  0  0  0  0  0
   -6.9394   12.7209   39.6261 C   0  0  2  0  0  0  0  0  0  0  0  0
   -7.9517   12.9784   40.6768 N   0  0  0  0  0  0  0  0  0  0  0  0
   -5.8366   11.7808   40.1747 C   0  0  1  0  0  0  0  0  0  0  0  0
   -6.4154   10.5606   40.6434 O   0  0  0  0  0  0  0  0  0  0  0  0
   -4.8128   11.5211   39.0552 C   0  0  2  0  0  0  0  0  0  0  0  0
   -3.7915   10.6518   39.5468 O   0  0  0  0  0  0  0  0  0  0  0  0
   -4.2003   12.8898   38.5674 C   0  0  2  0  0  0  0  0  0  0  0  0
   -5.2627   13.7942   38.0784 O   0  0  0  0  0  0  0  0  0  0  0  0
   -3.1738   12.6803   37.4266 C   0  0  2  0  0  0  0  0  0  0  0  0
   -3.6986   11.7624   36.4655 O   0  0  0  0  0  0  0  0  0  0  0  0
   -1.8627   12.1261   37.9618 C   0  0  0  0  0  0  0  0  0  0  0  0
   -4.5461   18.2192   38.0074 C   0  0  2  0  0  0  0  0  0  0  0  0
   -4.1408   19.5921   37.6961 N   0  0  0  0  0  0  0  0  0  0  0  0
   -5.7793   18.3052   38.9485 C   0  0  0  0  0  0  0  0  0  0  0  0
   -6.2394   16.8576   39.2709 C   0  0  2  0  0  0  0  0  0  0  0  0
   -7.4126   16.8906   40.1582 N   0  0  0  0  0  0  0  0  0  0  0  0
   -5.1031   16.0537   39.9581 C   0  0  2  0  0  0  0  0  0  0  0  0
   -3.8600   16.0201   39.0139 C   0  0  2  0  0  0  0  0  0  0  0  0
   -2.8071   15.2871   39.6546 O   0  0  0  0  0  0  0  0  0  0  0  0
   -3.3533   17.4530   38.7201 C   0  0  1  0  0  0  0  0  0  0  0  0
   -2.2128   17.3346   37.8341 O   0  0  0  0  0  0  0  0  0  0  0  0
   -2.3992   16.5017   36.6657 C   0  0  2  0  0  0  0  0  0  0  0  0
   -0.9781   16.3478   36.0066 C   0  0  2  0  0  0  0  0  0  0  0  0
   -0.0886   15.7240   36.9193 O   0  0  0  0  0  0  0  0  0  0  0  0
   -0.4503   17.7724   35.5888 C   0  0  1  0  0  0  0  0  0  0  0  0
    0.9050   17.6754   34.9659 N   0  0  0  0  0  0  0  0  0  0  0  0
    1.7785   18.7119   35.5567 C   0  0  0  0  0  0  0  0  0  0  0  0
   -1.4636   18.4000   34.5838 C   0  0  2  0  0  0  0  0  0  0  0  0
   -1.5444   17.5616   33.4322 O   0  0  0  0  0  0  0  0  0  0  0  0
   -1.0276   19.7922   34.1341 C   0  0  0  0  0  0  0  0  0  0  0  0
   -2.8693   18.4855   35.2602 C   0  0  0  0  0  0  0  0  0  0  0  0
   -3.3202   17.1525   35.7123 O   0  0  0  0  0  0  0  0  0  0  0  0
  1  3  1  0  0  0  0
  1  2  1  1  0  0  0
  3  5  1  0  0  0  0
  3  4  1  1  0  0  0
  5  6  1  6  0  0  0
  7  8  1  1  0  0  0
  7  5  1  0  0  0  0
  9 10  1  6  0  0  0
  9  7  1  0  0  0  0
 10  1  1  0  0  0  0
 11 13  1  1  0  0  0
 11  9  1  0  0  0  0
 12 11  1  0  0  0  0
 14 15  1  1  0  0  0
 16 14  1  0  0  0  0
 17 18  1  1  0  0  0
 17 16  1  0  0  0  0
 19  2  1  6  0  0  0
 19 20  1  0  0  0  0
 19 17  1  0  0  0  0
 20 21  1  1  0  0  0
 20 22  1  0  0  0  0
 22 23  1  6  0  0  0
 22 14  1  0  0  0  0
 24 23  1  1  0  0  0
 24 25  1  0  0  0  0
 25 27  1  0  0  0  0
 25 26  1  1  0  0  0
 27 28  1  6  0  0  0
 28 29  1  0  0  0  0
 30 31  1  6  0  0  0
 30 32  1  0  0  0  0
 30 27  1  0  0  0  0
 33 30  1  0  0  0  0
 34 33  1  0  0  0  0
 34 24  1  0  0  0  0
M  END
>  <CHROM.1>
-172.56778482,45.16142467,48.86790440,-66.23032028,-171.07108681,-133.66960356
-3.57787941,15.50646399,37.79893495,2.32903417,-0.60187409,2.96935461

>  <Name>
lig.pdb

>  <RI>
0

>  <Rbt.Current_Directory>
/home/itssahil/PROJECTS/Mol_Feturizer/New_Systems/rnas/4k32

>  <Rbt.Executable>
rbdock ($Id: //depot/dev/client3/rdock/2013.1/src/exe/rbdock.cxx#4 $)

>  <Rbt.Library>
libRbt.so (2013.1, Build901 2013/11/27)

>  <Rbt.Parameter_File>
/export/apps/rDock/src/rDock_2013.1_src/data/scripts/dock_solv.prm

>  <Rbt.Receptor>
prm/pocket_docking_4.prm

>  <SCORE>
-8.1153

>  <SCORE.INTER>
-3.69933

>  <SCORE.INTER.CONST>
1

>  <SCORE.INTER.POLAR>
0

>  <SCORE.INTER.ROT>
6

>  <SCORE.INTER.SOLV>
21.6229

>  <SCORE.INTER.VDW>
-17.2739

>  <SCORE.INTER.norm>
-0.108804

>  <SCORE.INTRA>
-4.41866

>  <SCORE.INTRA.DIHEDRAL>
-14.6942

>  <SCORE.INTRA.DIHEDRAL.0>
18.0069

>  <SCORE.INTRA.POLAR>
0

>  <SCORE.INTRA.POLAR.0>
0

>  <SCORE.INTRA.REPUL>
0

>  <SCORE.INTRA.REPUL.0>
0

>  <SCORE.INTRA.SOLV>
1.176

>  <SCORE.INTRA.SOLV.lig_0>
-70.7393

>  <SCORE.INTRA.VDW>
2.34043

>  <SCORE.INTRA.VDW.0>
-3.23471

>  <SCORE.INTRA.norm>
-0.129961

>  <SCORE.RESTR>
0.00269499

>  <SCORE.RESTR.CAVITY>
0.00269499

>  <SCORE.RESTR.norm>
7.92643e-05

>  <SCORE.SYSTEM>
0

>  <SCORE.SYSTEM.CONST>
0

>  <SCORE.SYSTEM.DIHEDRAL>
0

>  <SCORE.SYSTEM.SOLV>
0

>  <SCORE.SYSTEM.norm>
0

>  <SCORE.heavy>
34

>  <SCORE.norm>
-0.238685

>  <RMSD>
7.998

$$$$
lig.pdb
 OpenBabel11021811503D
libRbt.so/2013.1/901 2013/11/27
 34 36  0  0  0  0  0  0  0  0999 V2000
   -6.6986   12.4433   37.8042 C   0  0  2  0  0  0  0  0  0  0  0  0
   -5.5853   13.3254   37.9857 O   0  0  0  0  0  0  0  0  0  0  0  0
   -6.2802   10.9947   38.3020 C   0  0  2  0  0  0  0  0  0  0  0  0
   -5.9070   10.9915   39.7357 N   0  0  0  0  0  0  0  0  0  0  0  0
   -5.0956   10.4785   37.4469 C   0  0  1  0  0  0  0  0  0  0  0  0
   -4.7089    9.1709   37.8763 O   0  0  0  0  0  0  0  0  0  0  0  0
   -5.5219   10.4790   35.9681 C   0  0  2  0  0  0  0  0  0  0  0  0
   -4.4392   10.0012   35.1682 O   0  0  0  0  0  0  0  0  0  0  0  0
   -5.9402   11.9367   35.5362 C   0  0  2  0  0  0  0  0  0  0  0  0
   -7.0474   12.4353   36.3797 O   0  0  0  0  0  0  0  0  0  0  0  0
   -6.3942   11.9843   34.0561 C   0  0  2  0  0  0  0  0  0  0  0  0
   -7.1989   10.8415   33.7594 O   0  0  0  0  0  0  0  0  0  0  0  0
   -5.1997   11.9947   33.1149 C   0  0  0  0  0  0  0  0  0  0  0  0
   -5.3690   17.5394   38.7008 C   0  0  2  0  0  0  0  0  0  0  0  0
   -5.4927   18.9871   38.5134 N   0  0  0  0  0  0  0  0  0  0  0  0
   -4.6290   16.9755   37.4566 C   0  0  0  0  0  0  0  0  0  0  0  0
   -4.4663   15.4432   37.6479 C   0  0  2  0  0  0  0  0  0  0  0  0
   -3.7632   14.8656   36.4917 N   0  0  0  0  0  0  0  0  0  0  0  0
   -5.8482   14.7528   37.8009 C   0  0  2  0  0  0  0  0  0  0  0  0
   -6.5915   15.3674   39.0287 C   0  0  2  0  0  0  0  0  0  0  0  0
   -7.8726   14.7370   39.1622 O   0  0  0  0  0  0  0  0  0  0  0  0
   -6.8094   16.8878   38.8355 C   0  0  1  0  0  0  0  0  0  0  0  0
   -7.4907   17.3798   40.0160 O   0  0  0  0  0  0  0  0  0  0  0  0
   -7.8506   18.7812   40.0046 C   0  0  2  0  0  0  0  0  0  0  0  0
   -8.3842   19.1079   41.4489 C   0  0  2  0  0  0  0  0  0  0  0  0
   -7.3634   18.8693   42.4052 O   0  0  0  0  0  0  0  0  0  0  0  0
   -9.6503   18.2165   41.7409 C   0  0  1  0  0  0  0  0  0  0  0  0
  -10.1863   18.4867   43.1099 N   0  0  0  0  0  0  0  0  0  0  0  0
   -9.9131   17.3157   43.9705 C   0  0  0  0  0  0  0  0  0  0  0  0
  -10.7340   18.5291   40.6646 C   0  0  2  0  0  0  0  0  0  0  0  0
  -11.0866   19.9085   40.7578 O   0  0  0  0  0  0  0  0  0  0  0  0
  -11.9963   17.6961   40.8724 C   0  0  0  0  0  0  0  0  0  0  0  0
  -10.1452   18.2410   39.2464 C   0  0  0  0  0  0  0  0  0  0  0  0
   -8.9171   19.0298   39.0139 O   0  0  0  0  0  0  0  0  0  0  0  0
  1  3  1  0  0  0  0
  1  2  1  6  0  0  0
  3  5  1  0  0  0  0
  3  4  1  1  0  0  0
  5  6  1  1  0  0  0
  7  8  1  6  0  0  0
  7  5  1  0  0  0  0
  9 10  1  1  0  0  0
  9  7  1  0  0  0  0
 10  1  1  0  0  0  0
 11 13  1  6  0  0  0
 11  9  1  0  0  0  0
 12 11  1  0  0  0  0
 14 15  1  6  0  0  0
 16 14  1  0  0  0  0
 17 18  1  6  0  0  0
 17 16  1  0  0  0  0
 19  2  1  1  0  0  0
 19 20  1  0  0  0  0
 19 17  1  0  0  0  0
 20 21  1  6  0  0  0
 20 22  1  0  0  0  0
 22 23  1  1  0  0  0
 22 14  1  0  0  0  0
 24 23  1  1  0  0  0
 24 25  1  0  0  0  0
 25 27  1  0  0  0  0
 25 26  1  1  0  0  0
 27 28  1  1  0  0  0
 28 29  1  0  0  0  0
 30 31  1  1  0  0  0
 30 32  1  0  0  0  0
 30 27  1  0  0  0  0
 33 30  1  0  0  0  0
 34 33  1  0  0  0  0
 34 24  1  0  0  0  0
M  END
>  <CHROM.1>
-169.78541880,41.24424838,-164.34714423,66.90429509,-172.35906581,-109.29991917
-7.09382816,15.10512228,38.52524947,0.93772068,-0.84086596,-3.02248618

>  <Name>
lig.pdb

>  <RI>
0

>  <Rbt.Current_Directory>
/home/itssahil/PROJECTS/Mol_Feturizer/New_Systems/rnas/4k32

>  <Rbt.Executable>
rbdock ($Id: //depot/dev/client3/rdock/2013.1/src/exe/rbdock.cxx#4 $)

>  <Rbt.Library>
libRbt.so (2013.1, Build901 2013/11/27)

>  <Rbt.Parameter_File>
/export/apps/rDock/src/rDock_2013.1_src/data/scripts/dock_solv.prm

>  <Rbt.Receptor>
prm/pocket_docking_7.prm

>  <SCORE>
-11.711

>  <SCORE.INTER>
-4.88298

>  <SCORE.INTER.CONST>
1

>  <SCORE.INTER.POLAR>
0

>  <SCORE.INTER.ROT>
6

>  <SCORE.INTER.SOLV>
15.6137

>  <SCORE.INTER.VDW>
-16.0599

>  <SCORE.INTER.norm>
-0.143617

>  <SCORE.INTRA>
-6.82798

>  <SCORE.INTRA.DIHEDRAL>
-13.4962

>  <SCORE.INTRA.DIHEDRAL.0>
18.0069

>  <SCORE.INTRA.POLAR>
0

>  <SCORE.INTRA.POLAR.0>
0

>  <SCORE.INTRA.REPUL>
0

>  <SCORE.INTRA.REPUL.0>
0

>  <SCORE.INTRA.SOLV>
-1.03796

>  <SCORE.INTRA.SOLV.lig_0>
-70.7393

>  <SCORE.INTRA.VDW>
0.439109

>  <SCORE.INTRA.VDW.0>
-3.23471

>  <SCORE.INTRA.norm>
-0.200823

>  <SCORE.RESTR>
0

>  <SCORE.RESTR.CAVITY>
0

>  <SCORE.RESTR.norm>
0

>  <SCORE.SYSTEM>
0

>  <SCORE.SYSTEM.CONST>
0

>  <SCORE.SYSTEM.DIHEDRAL>
0

>  <SCORE.SYSTEM.SOLV>
0

>  <SCORE.SYSTEM.norm>
0

>  <SCORE.heavy>
34

>  <SCORE.norm>
-0.34444

>  <RMSD>
8.014

$$$$
lig.pdb
 OpenBabel11021811503D
libRbt.so/2013.1/901 2013/11/27
 34 36  0  0  0  0  0  0  0  0999 V2000
   -4.4002   14.4501   36.1944 C   0  0  2  0  0  0  0  0  0  0  0  0
   -3.3527   14.0989   37.1052 O   0  0  0  0  0  0  0  0  0  0  0  0
   -4.8686   15.9335   36.5127 C   0  0  2  0  0  0  0  0  0  0  0  0
   -3.7624   16.9063   36.3542 N   0  0  0  0  0  0  0  0  0  0  0  0
   -5.4263   15.9989   37.9568 C   0  0  1  0  0  0  0  0  0  0  0  0
   -5.8600   17.3269   38.2596 O   0  0  0  0  0  0  0  0  0  0  0  0
   -6.5820   14.9903   38.0818 C   0  0  2  0  0  0  0  0  0  0  0  0
   -7.1084   15.0429   39.4087 O   0  0  0  0  0  0  0  0  0  0  0  0
   -6.0622   13.5414   37.7397 C   0  0  2  0  0  0  0  0  0  0  0  0
   -5.4997   13.4961   36.3731 O   0  0  0  0  0  0  0  0  0  0  0  0
   -7.1967   12.4914   37.8360 C   0  0  2  0  0  0  0  0  0  0  0  0
   -7.6655   12.4072   39.1831 O   0  0  0  0  0  0  0  0  0  0  0  0
   -6.7112   11.1164   37.4040 C   0  0  0  0  0  0  0  0  0  0  0  0
   -0.6547   10.7857   36.8601 C   0  0  2  0  0  0  0  0  0  0  0  0
   -0.1173    9.4250   36.9359 N   0  0  0  0  0  0  0  0  0  0  0  0
   -1.2795   11.1120   38.2447 C   0  0  0  0  0  0  0  0  0  0  0  0
   -1.8339   12.5615   38.1920 C   0  0  2  0  0  0  0  0  0  0  0  0
   -2.4322   12.9166   39.4884 N   0  0  0  0  0  0  0  0  0  0  0  0
   -2.9065   12.7057   37.0791 C   0  0  2  0  0  0  0  0  0  0  0  0
   -2.2685   12.3288   35.7049 C   0  0  2  0  0  0  0  0  0  0  0  0
   -3.2633   12.4513   34.6792 O   0  0  0  0  0  0  0  0  0  0  0  0
   -1.7541   10.8688   35.7190 C   0  0  1  0  0  0  0  0  0  0  0  0
   -1.1706   10.6039   34.4193 O   0  0  0  0  0  0  0  0  0  0  0  0
   -0.8117    9.2279   34.1518 C   0  0  2  0  0  0  0  0  0  0  0  0
   -0.2811    9.1940   32.6704 C   0  0  2  0  0  0  0  0  0  0  0  0
    0.8567   10.0326   32.5467 O   0  0  0  0  0  0  0  0  0  0  0  0
   -1.4337    9.6605   31.7027 C   0  0  1  0  0  0  0  0  0  0  0  0
   -0.9701    9.6535   30.2817 N   0  0  0  0  0  0  0  0  0  0  0  0
   -0.4672   11.0003   29.9357 C   0  0  0  0  0  0  0  0  0  0  0  0
   -2.6478    8.6986   31.8799 C   0  0  2  0  0  0  0  0  0  0  0  0
   -2.2378    7.3763   31.5352 O   0  0  0  0  0  0  0  0  0  0  0  0
   -3.8166    9.0889   30.9788 C   0  0  0  0  0  0  0  0  0  0  0  0
   -3.1077    8.7243   33.3729 C   0  0  0  0  0  0  0  0  0  0  0  0
   -1.9964    8.3548   34.2746 O   0  0  0  0  0  0  0  0  0  0  0  0
  1  3  1  0  0  0  0
  1  2  1  1  0  0  0
  3  5  1  0  0  0  0
  3  4  1  1  0  0  0
  5  6  1  6  0  0  0
  7  8  1  1  0  0  0
  7  5  1  0  0  0  0
  9 10  1  6  0  0  0
  9  7  1  0  0  0  0
 10  1  1  0  0  0  0
 11 13  1  1  0  0  0
 11  9  1  0  0  0  0
 12 11  1  0  0  0  0
 14 15  1  1  0  0  0
 16 14  1  0  0  0  0
 17 18  1  1  0  0  0
 17 16  1  0  0  0  0
 19  2  1  6  0  0  0
 19 20  1  0  0  0  0
 19 17  1  0  0  0  0
 20 21  1  6  0  0  0
 20 22  1  0  0  0  0
 22 23  1  6  0  0  0
 22 14  1  0  0  0  0
 24 23  1  6  0  0  0
 24 25  1  0  0  0  0
 25 27  1  0  0  0  0
 25 26  1  1  0  0  0
 27 28  1  6  0  0  0
 28 29  1  0  0  0  0
 30 31  1  6  0  0  0
 30 32  1  0  0  0  0
 30 27  1  0  0  0  0
 33 30  1  0  0  0  0
 34 33  1  0  0  0  0
 34 24  1  0  0  0  0
M  END
>  <CHROM.1>
172.47803670,-64.01554589,-177.09591591,73.00639737,177.02313567,-93.21056480
-3.23196952,11.89506822,35.54959125,2.13684739,-0.42877335,1.07703588

>  <Name>
lig.pdb

>  <RI>
0

>  <Rbt.Current_Directory>
/home/itssahil/PROJECTS/Mol_Feturizer/New_Systems/rnas/4k32

>  <Rbt.Executable>
rbdock ($Id: //depot/dev/client3/rdock/2013.1/src/exe/rbdock.cxx#4 $)

>  <Rbt.Library>
libRbt.so (2013.1, Build901 2013/11/27)

>  <Rbt.Parameter_File>
/export/apps/rDock/src/rDock_2013.1_src/data/scripts/dock_solv.prm

>  <Rbt.Receptor>
prm/pocket_docking_8.prm

>  <SCORE>
-6.112

>  <SCORE.INTER>
1.8325

>  <SCORE.INTER.CONST>
1

>  <SCORE.INTER.POLAR>
0

>  <SCORE.INTER.ROT>
6

>  <SCORE.INTER.SOLV>
6.77006

>  <SCORE.INTER.VDW>
-8.63502

>  <SCORE.INTER.norm>
0.0538971

>  <SCORE.INTRA>
-7.9445

>  <SCORE.INTRA.DIHEDRAL>
-16.0292

>  <SCORE.INTRA.DIHEDRAL.0>
18.0069

>  <SCORE.INTRA.POLAR>
0

>  <SCORE.INTRA.POLAR.0>
0

>  <SCORE.INTRA.REPUL>
0

>  <SCORE.INTRA.REPUL.0>
0

>  <SCORE.INTRA.SOLV>
-1.6839

>  <SCORE.INTRA.SOLV.lig_0>
-70.7393

>  <SCORE.INTRA.VDW>
0.912029

>  <SCORE.INTRA.VDW.0>
-3.23471

>  <SCORE.INTRA.norm>
-0.233662

>  <SCORE.RESTR>
0

>  <SCORE.RESTR.CAVITY>
0

>  <SCORE.RESTR.norm>
0

>  <SCORE.SYSTEM>
0

>  <SCORE.SYSTEM.CONST>
0

>  <SCORE.SYSTEM.DIHEDRAL>
0

>  <SCORE.SYSTEM.SOLV>
0

>  <SCORE.SYSTEM.norm>
0

>  <SCORE.heavy>
34

>  <SCORE.norm>
-0.179765

>  <RMSD>
8.015

$$$$
lig.pdb
 OpenBabel11021811503D
libRbt.so/2013.1/901 2013/11/27
 34 36  0  0  0  0  0  0  0  0999 V2000
   -3.3933   11.3538   38.9797 C   0  0  2  0  0  0  0  0  0  0  0  0
   -2.2906   11.8327   38.2020 O   0  0  0  0  0  0  0  0  0  0  0  0
   -3.0335    9.9073   39.5270 C   0  0  2  0  0  0  0  0  0  0  0  0
   -1.8265    9.9279   40.3859 N   0  0  0  0  0  0  0  0  0  0  0  0
   -2.8153    8.9444   38.3328 C   0  0  1  0  0  0  0  0  0  0  0  0
   -2.4968    7.6337   38.8064 O   0  0  0  0  0  0  0  0  0  0  0  0
   -4.0912    8.9341   37.4722 C   0  0  2  0  0  0  0  0  0  0  0  0
   -3.9049    8.0465   36.3686 O   0  0  0  0  0  0  0  0  0  0  0  0
   -4.4064   10.3958   36.9718 C   0  0  2  0  0  0  0  0  0  0  0  0
   -4.5785   11.3154   38.1166 O   0  0  0  0  0  0  0  0  0  0  0  0
   -5.6947   10.4387   36.1129 C   0  0  2  0  0  0  0  0  0  0  0  0
   -5.8697   11.7478   35.5677 O   0  0  0  0  0  0  0  0  0  0  0  0
   -6.9205   10.0905   36.9428 C   0  0  0  0  0  0  0  0  0  0  0  0
   -1.6031   15.8915   37.0314 C   0  0  2  0  0  0  0  0  0  0  0  0
   -1.6695   17.1515   36.2870 N   0  0  0  0  0  0  0  0  0  0  0  0
   -1.2505   14.7726   36.0127 C   0  0  0  0  0  0  0  0  0  0  0  0
   -1.1515   13.4309   36.7879 C   0  0  2  0  0  0  0  0  0  0  0  0
   -0.8126   12.3401   35.8604 N   0  0  0  0  0  0  0  0  0  0  0  0
   -2.4919   13.0990   37.4970 C   0  0  2  0  0  0  0  0  0  0  0  0
   -2.8483   14.2579   38.4807 C   0  0  2  0  0  0  0  0  0  0  0  0
   -4.0924   13.9556   39.1268 O   0  0  0  0  0  0  0  0  0  0  0  0
   -3.0019   15.5974   37.7203 C   0  0  1  0  0  0  0  0  0  0  0  0
   -3.3193   16.6165   38.7004 O   0  0  0  0  0  0  0  0  0  0  0  0
   -3.4892   17.9594   38.1892 C   0  0  2  0  0  0  0  0  0  0  0  0
   -3.9469   18.8386   39.4119 C   0  0  2  0  0  0  0  0  0  0  0  0
   -2.9492   18.8180   40.4206 O   0  0  0  0  0  0  0  0  0  0  0  0
   -5.3149   18.2810   39.9600 C   0  0  1  0  0  0  0  0  0  0  0  0
   -5.7840   19.0817   41.1318 N   0  0  0  0  0  0  0  0  0  0  0  0
   -5.4202   18.3687   42.3751 C   0  0  0  0  0  0  0  0  0  0  0  0
   -6.3674   18.3364   38.8112 C   0  0  2  0  0  0  0  0  0  0  0  0
   -6.5308   19.6945   38.4058 O   0  0  0  0  0  0  0  0  0  0  0  0
   -7.7254   17.8029   39.2601 C   0  0  0  0  0  0  0  0  0  0  0  0
   -5.8493   17.4948   37.6011 C   0  0  0  0  0  0  0  0  0  0  0  0
   -4.5315   17.9832   37.1434 O   0  0  0  0  0  0  0  0  0  0  0  0
  1  3  1  0  0  0  0
  1  2  1  6  0  0  0
  3  5  1  0  0  0  0
  3  4  1  6  0  0  0
  5  6  1  1  0  0  0
  7  8  1  6  0  0  0
  7  5  1  0  0  0  0
  9 10  1  1  0  0  0
  9  7  1  0  0  0  0
 10  1  1  0  0  0  0
 11 13  1  1  0  0  0
 11  9  1  0  0  0  0
 12 11  1  0  0  0  0
 14 15  1  6  0  0  0
 16 14  1  0  0  0  0
 17 18  1  6  0  0  0
 17 16  1  0  0  0  0
 19  2  1  1  0  0  0
 19 20  1  0  0  0  0
 19 17  1  0  0  0  0
 20 21  1  6  0  0  0
 20 22  1  0  0  0  0
 22 23  1  1  0  0  0
 22 14  1  0  0  0  0
 24 23  1  1  0  0  0
 24 25  1  0  0  0  0
 25 27  1  0  0  0  0
 25 26  1  1  0  0  0
 27 28  1  1  0  0  0
 28 29  1  0  0  0  0
 30 31  1  6  0  0  0
 30 32  1  0  0  0  0
 30 27  1  0  0  0  0
 33 30  1  0  0  0  0
 34 33  1  0  0  0  0
 34 24  1  0  0  0  0
M  END
>  <CHROM.1>
173.88334245,-174.10129757,177.55685123,63.19199459,175.11734607,-98.74327552
-3.89628548,14.12510084,38.18272882,1.40322468,-0.27357383,-3.00497425

>  <Name>
lig.pdb

>  <RI>
0

>  <Rbt.Current_Directory>
/home/itssahil/PROJECTS/Mol_Feturizer/New_Systems/rnas/4k32

>  <Rbt.Executable>
rbdock ($Id: //depot/dev/client3/rdock/2013.1/src/exe/rbdock.cxx#4 $)

>  <Rbt.Library>
libRbt.so (2013.1, Build901 2013/11/27)

>  <Rbt.Parameter_File>
/export/apps/rDock/src/rDock_2013.1_src/data/scripts/dock_solv.prm

>  <Rbt.Receptor>
prm/pocket_docking_7.prm

>  <SCORE>
-10.2492

>  <SCORE.INTER>
-3.20088

>  <SCORE.INTER.CONST>
1

>  <SCORE.INTER.POLAR>
0

>  <SCORE.INTER.ROT>
6

>  <SCORE.INTER.SOLV>
13.435

>  <SCORE.INTER.VDW>
-14.2122

>  <SCORE.INTER.norm>
-0.0941435

>  <SCORE.INTRA>
-7.04836

>  <SCORE.INTRA.DIHEDRAL>
-16.5564

>  <SCORE.INTRA.DIHEDRAL.0>
18.0069

>  <SCORE.INTRA.POLAR>
0

>  <SCORE.INTRA.POLAR.0>
0

>  <SCORE.INTRA.REPUL>
0

>  <SCORE.INTRA.REPUL.0>
0

>  <SCORE.INTRA.SOLV>
-1.53814

>  <SCORE.INTRA.SOLV.lig_0>
-70.7393

>  <SCORE.INTRA.VDW>
1.99891

>  <SCORE.INTRA.VDW.0>
-3.23471

>  <SCORE.INTRA.norm>
-0.207305

>  <SCORE.RESTR>
0

>  <SCORE.RESTR.CAVITY>
0

>  <SCORE.RESTR.norm>
0

>  <SCORE.SYSTEM>
0

>  <SCORE.SYSTEM.CONST>
0

>  <SCORE.SYSTEM.DIHEDRAL>
0

>  <SCORE.SYSTEM.SOLV>
0

>  <SCORE.SYSTEM.norm>
0

>  <SCORE.heavy>
34

>  <SCORE.norm>
-0.301448

>  <RMSD>
8.023

$$$$
lig.pdb
 OpenBabel11021811503D
libRbt.so/2013.1/901 2013/11/27
 34 36  0  0  0  0  0  0  0  0999 V2000
   -3.2727   10.0726   39.0215 C   0  0  2  0  0  0  0  0  0  0  0  0
   -2.3090   11.0825   38.7029 O   0  0  0  0  0  0  0  0  0  0  0  0
   -3.0948    8.8672   38.0033 C   0  0  2  0  0  0  0  0  0  0  0  0
   -1.7420    8.2694   38.0884 N   0  0  0  0  0  0  0  0  0  0  0  0
   -3.3610    9.3676   36.5612 C   0  0  1  0  0  0  0  0  0  0  0  0
   -3.2123    8.2934   35.6298 O   0  0  0  0  0  0  0  0  0  0  0  0
   -4.7778    9.9662   36.5040 C   0  0  2  0  0  0  0  0  0  0  0  0
   -5.0379   10.4285   35.1777 O   0  0  0  0  0  0  0  0  0  0  0  0
   -4.8991   11.1446   37.5447 C   0  0  2  0  0  0  0  0  0  0  0  0
   -4.6093   10.6664   38.9133 O   0  0  0  0  0  0  0  0  0  0  0  0
   -6.3165   11.7693   37.5355 C   0  0  2  0  0  0  0  0  0  0  0  0
   -7.2987   10.7396   37.4077 O   0  0  0  0  0  0  0  0  0  0  0  0
   -6.4804   12.7430   36.3788 C   0  0  0  0  0  0  0  0  0  0  0  0
   -3.0405   13.4117   42.2181 C   0  0  2  0  0  0  0  0  0  0  0  0
   -2.8824   14.4075   43.2810 N   0  0  0  0  0  0  0  0  0  0  0  0
   -1.7183   12.5987   42.1483 C   0  0  0  0  0  0  0  0  0  0  0  0
   -1.8753   11.5204   41.0421 C   0  0  2  0  0  0  0  0  0  0  0  0
   -0.6446   10.7201   40.9442 N   0  0  0  0  0  0  0  0  0  0  0  0
   -2.1682   12.1754   39.6656 C   0  0  2  0  0  0  0  0  0  0  0  0
   -3.4748   13.0233   39.7727 C   0  0  2  0  0  0  0  0  0  0  0  0
   -3.7381   13.6372   38.5036 O   0  0  0  0  0  0  0  0  0  0  0  0
   -3.3217   14.1381   40.8358 C   0  0  1  0  0  0  0  0  0  0  0  0
   -4.5734   14.8669   40.8806 O   0  0  0  0  0  0  0  0  0  0  0  0
   -4.5691   16.0913   41.6516 C   0  0  2  0  0  0  0  0  0  0  0  0
   -6.0578   16.6019   41.6706 C   0  0  2  0  0  0  0  0  0  0  0  0
   -6.8915   15.6340   42.2881 O   0  0  0  0  0  0  0  0  0  0  0  0
   -6.5212   16.8844   40.1913 C   0  0  1  0  0  0  0  0  0  0  0  0
   -7.9369   17.3632   40.1601 N   0  0  0  0  0  0  0  0  0  0  0  0
   -8.8313   16.2007   39.9726 C   0  0  0  0  0  0  0  0  0  0  0  0
   -5.5740   17.9571   39.5727 C   0  0  2  0  0  0  0  0  0  0  0  0
   -5.6731   19.1537   40.3432 O   0  0  0  0  0  0  0  0  0  0  0  0
   -5.9519   18.2827   38.1299 C   0  0  0  0  0  0  0  0  0  0  0  0
   -4.1036   17.4312   39.6218 C   0  0  0  0  0  0  0  0  0  0  0  0
   -3.7063   17.1015   41.0068 O   0  0  0  0  0  0  0  0  0  0  0  0
  1  3  1  0  0  0  0
  1  2  1  6  0  0  0
  3  5  1  0  0  0  0
  3  4  1  6  0  0  0
  5  6  1  6  0  0  0
  7  8  1  6  0  0  0
  7  5  1  0  0  0  0
  9 10  1  1  0  0  0
  9  7  1  0  0  0  0
 10  1  1  0  0  0  0
 11 13  1  6  0  0  0
 11  9  1  0  0  0  0
 12 11  1  0  0  0  0
 14 15  1  1  0  0  0
 16 14  1  0  0  0  0
 17 18  1  6  0  0  0
 17 16  1  0  0  0  0
 19  2  1  6  0  0  0
 19 20  1  0  0  0  0
 19 17  1  0  0  0  0
 20 21  1  6  0  0  0
 20 22  1  0  0  0  0
 22 23  1  1  0  0  0
 22 14  1  0  0  0  0
 24 23  1  6  0  0  0
 24 25  1  0  0  0  0
 25 27  1  0  0  0  0
 25 26  1  6  0  0  0
 27 28  1  1  0  0  0
 28 29  1  0  0  0  0
 30 31  1  1  0  0  0
 30 32  1  0  0  0  0
 30 27  1  0  0  0  0
 33 30  1  0  0  0  0
 34 33  1  0  0  0  0
 34 24  1  0  0  0  0
M  END
>  <CHROM.1>
-170.22682000,40.07885132,54.72406527,73.80911557,-174.13317460,-92.65153717
-4.43655535,13.32547645,39.36233960,-1.19667094,-0.68379553,0.63626013

>  <Name>
lig.pdb

>  <RI>
0

>  <Rbt.Current_Directory>
/home/itssahil/PROJECTS/Mol_Feturizer/New_Systems/rnas/4k32

>  <Rbt.Executable>
rbdock ($Id: //depot/dev/client3/rdock/2013.1/src/exe/rbdock.cxx#4 $)

>  <Rbt.Library>
libRbt.so (2013.1, Build901 2013/11/27)

>  <Rbt.Parameter_File>
/export/apps/rDock/src/rDock_2013.1_src/data/scripts/dock_solv.prm

>  <Rbt.Receptor>
prm/pocket_docking_7.prm

>  <SCORE>
-5.79509

>  <SCORE.INTER>
0.153883

>  <SCORE.INTER.CONST>
1

>  <SCORE.INTER.POLAR>
0

>  <SCORE.INTER.ROT>
6

>  <SCORE.INTER.SOLV>
7.83342

>  <SCORE.INTER.VDW>
-10.1086

>  <SCORE.INTER.norm>
0.00452596

>  <SCORE.INTRA>
-5.94898

>  <SCORE.INTRA.DIHEDRAL>
-14.2871

>  <SCORE.INTRA.DIHEDRAL.0>
18.0069

>  <SCORE.INTRA.POLAR>
0

>  <SCORE.INTRA.POLAR.0>
0

>  <SCORE.INTRA.REPUL>
0

>  <SCORE.INTRA.REPUL.0>
0

>  <SCORE.INTRA.SOLV>
0.0934521

>  <SCORE.INTRA.SOLV.lig_0>
-70.7393

>  <SCORE.INTRA.VDW>
1.14785

>  <SCORE.INTRA.VDW.0>
-3.23471

>  <SCORE.INTRA.norm>
-0.17497

>  <SCORE.RESTR>
0

>  <SCORE.RESTR.CAVITY>
0

>  <SCORE.RESTR.norm>
0

>  <SCORE.SYSTEM>
0

>  <SCORE.SYSTEM.CONST>
0

>  <SCORE.SYSTEM.DIHEDRAL>
0

>  <SCORE.SYSTEM.SOLV>
0

>  <SCORE.SYSTEM.norm>
0

>  <SCORE.heavy>
34

>  <SCORE.norm>
-0.170444

>  <RMSD>
8.032

$$$$
lig.pdb
 OpenBabel11021811503D
libRbt.so/2013.1/901 2013/11/27
 34 36  0  0  0  0  0  0  0  0999 V2000
    0.6355   13.9290   34.5911 C   0  0  2  0  0  0  0  0  0  0  0  0
   -0.7461   13.6861   34.8779 O   0  0  0  0  0  0  0  0  0  0  0  0
    1.3939   12.5347   34.5474 C   0  0  2  0  0  0  0  0  0  0  0  0
    0.8462   11.6424   33.4992 N   0  0  0  0  0  0  0  0  0  0  0  0
    1.2895   11.8480   35.9325 C   0  0  1  0  0  0  0  0  0  0  0  0
    1.9732   10.5928   35.9148 O   0  0  0  0  0  0  0  0  0  0  0  0
    1.8811   12.7929   36.9936 C   0  0  2  0  0  0  0  0  0  0  0  0
    1.7946   12.1700   38.2762 O   0  0  0  0  0  0  0  0  0  0  0  0
    1.1006   14.1629   36.9795 C   0  0  2  0  0  0  0  0  0  0  0  0
    1.1754   14.7945   35.6448 O   0  0  0  0  0  0  0  0  0  0  0  0
    1.6723   15.1554   38.0222 C   0  0  2  0  0  0  0  0  0  0  0  0
    1.7933   14.5087   39.2906 O   0  0  0  0  0  0  0  0  0  0  0  0
    0.7686   16.3683   38.1799 C   0  0  0  0  0  0  0  0  0  0  0  0
   -3.6841   16.6313   35.8832 C   0  0  2  0  0  0  0  0  0  0  0  0
   -4.4930   17.5775   36.6556 N   0  0  0  0  0  0  0  0  0  0  0  0
   -3.7444   15.2650   36.6203 C   0  0  0  0  0  0  0  0  0  0  0  0
   -2.9114   14.2409   35.8026 C   0  0  2  0  0  0  0  0  0  0  0  0
   -2.9450   12.9265   36.4629 N   0  0  0  0  0  0  0  0  0  0  0  0
   -1.4366   14.7060   35.6679 C   0  0  2  0  0  0  0  0  0  0  0  0
   -1.4043   16.1005   34.9664 C   0  0  2  0  0  0  0  0  0  0  0  0
   -0.0422   16.5343   34.8528 O   0  0  0  0  0  0  0  0  0  0  0  0
   -2.1873   17.1500   35.7921 C   0  0  1  0  0  0  0  0  0  0  0  0
   -2.1186   18.4052   35.0714 O   0  0  0  0  0  0  0  0  0  0  0  0
   -1.8035   19.5757   35.8616 C   0  0  2  0  0  0  0  0  0  0  0  0
   -1.6085   20.7554   34.8380 C   0  0  2  0  0  0  0  0  0  0  0  0
   -2.8070   20.9625   34.1072 O   0  0  0  0  0  0  0  0  0  0  0  0
   -0.4131   20.4042   33.8734 C   0  0  1  0  0  0  0  0  0  0  0  0
   -0.1977   21.4954   32.8748 N   0  0  0  0  0  0  0  0  0  0  0  0
   -1.1143   21.2872   31.7333 C   0  0  0  0  0  0  0  0  0  0  0  0
    0.8710   20.1964   34.7327 C   0  0  2  0  0  0  0  0  0  0  0  0
    1.1566   21.4086   35.4288 O   0  0  0  0  0  0  0  0  0  0  0  0
    2.0796   19.8425   33.8698 C   0  0  0  0  0  0  0  0  0  0  0  0
    0.6154   19.0542   35.7676 C   0  0  0  0  0  0  0  0  0  0  0  0
   -0.5532   19.3636   36.6181 O   0  0  0  0  0  0  0  0  0  0  0  0
  1  3  1  0  0  0  0
  1  2  1  1  0  0  0
  3  5  1  0  0  0  0
  3  4  1  6  0  0  0
  5  6  1  6  0  0  0
  7  8  1  1  0  0  0
  7  5  1  0  0  0  0
  9 10  1  6  0  0  0
  9  7  1  0  0  0  0
 10  1  1  0  0  0  0
 11 13  1  1  0  0  0
 11  9  1  0  0  0  0
 12 11  1  0  0  0  0
 14 15  1  1  0  0  0
 16 14  1  0  0  0  0
 17 18  1  1  0  0  0
 17 16  1  0  0  0  0
 19  2  1  6  0  0  0
 19 20  1  0  0  0  0
 19 17  1  0  0  0  0
 20 21  1  1  0  0  0
 20 22  1  0  0  0  0
 22 23  1  6  0  0  0
 22 14  1  0  0  0  0
 24 23  1  6  0  0  0
 24 25  1  0  0  0  0
 25 27  1  0  0  0  0
 25 26  1  6  0  0  0
 27 28  1  6  0  0  0
 28 29  1  0  0  0  0
 30 31  1  1  0  0  0
 30 32  1  0  0  0  0
 30 27  1  0  0  0  0
 33 30  1  0  0  0  0
 34 33  1  0  0  0  0
 34 24  1  0  0  0  0
M  END
>  <CHROM.1>
146.85536288,-49.53456601,178.22627000,109.62365598,172.97056080,-84.72333235
-0.35944257,16.42876892,35.60636949,-1.35610991,-0.01736442,-0.24839496

>  <Name>
lig.pdb

>  <RI>
0

>  <Rbt.Current_Directory>
/home/itssahil/PROJECTS/Mol_Feturizer/New_Systems/rnas/4k32

>  <Rbt.Executable>
rbdock ($Id: //depot/dev/client3/rdock/2013.1/src/exe/rbdock.cxx#4 $)

>  <Rbt.Library>
libRbt.so (2013.1, Build901 2013/11/27)

>  <Rbt.Parameter_File>
/export/apps/rDock/src/rDock_2013.1_src/data/scripts/dock_solv.prm

>  <Rbt.Receptor>
prm/blind_docking_100.prm

>  <SCORE>
21.709

>  <SCORE.INTER>
10.3195

>  <SCORE.INTER.CONST>
1

>  <SCORE.INTER.POLAR>
0

>  <SCORE.INTER.ROT>
6

>  <SCORE.INTER.SOLV>
19.9254

>  <SCORE.INTER.VDW>
-7.3621

>  <SCORE.INTER.norm>
0.303515

>  <SCORE.INTRA>
0.883728

>  <SCORE.INTRA.DIHEDRAL>
-6.05853

>  <SCORE.INTRA.DIHEDRAL.0>
18.0069

>  <SCORE.INTRA.POLAR>
0

>  <SCORE.INTRA.POLAR.0>
0

>  <SCORE.INTRA.REPUL>
0

>  <SCORE.INTRA.REPUL.0>
0

>  <SCORE.INTRA.SOLV>
-1.67772

>  <SCORE.INTRA.SOLV.lig_0>
-70.7393

>  <SCORE.INTRA.VDW>
4.75185

>  <SCORE.INTRA.VDW.0>
-3.23471

>  <SCORE.INTRA.norm>
0.025992

>  <SCORE.RESTR>
10.5057

>  <SCORE.RESTR.CAVITY>
10.5057

>  <SCORE.RESTR.norm>
0.308992

>  <SCORE.SYSTEM>
0

>  <SCORE.SYSTEM.CONST>
0

>  <SCORE.SYSTEM.DIHEDRAL>
0

>  <SCORE.SYSTEM.SOLV>
0

>  <SCORE.SYSTEM.norm>
0

>  <SCORE.heavy>
34

>  <SCORE.norm>
0.6385

>  <RMSD>
8.064

$$$$
lig.pdb
 OpenBabel11021811503D
libRbt.so/2013.1/901 2013/11/27
 34 36  0  0  0  0  0  0  0  0999 V2000
   -0.1909    9.4700   37.3729 C   0  0  2  0  0  0  0  0  0  0  0  0
   -1.4284    9.3917   38.0888 O   0  0  0  0  0  0  0  0  0  0  0  0
    0.7694    8.3202   37.8992 C   0  0  2  0  0  0  0  0  0  0  0  0
    0.1868    6.9749   37.6850 N   0  0  0  0  0  0  0  0  0  0  0  0
    1.0554    8.5377   39.4065 C   0  0  1  0  0  0  0  0  0  0  0  0
    1.9251    7.5148   39.8973 O   0  0  0  0  0  0  0  0  0  0  0  0
    1.6740    9.9348   39.5911 C   0  0  2  0  0  0  0  0  0  0  0  0
    1.9463   10.1471   40.9772 O   0  0  0  0  0  0  0  0  0  0  0  0
    0.6851   11.0311   39.0375 C   0  0  2  0  0  0  0  0  0  0  0  0
    0.3898   10.7960   37.6080 O   0  0  0  0  0  0  0  0  0  0  0  0
    1.2729   12.4564   39.1868 C   0  0  2  0  0  0  0  0  0  0  0  0
    1.5137   12.7387   40.5667 O   0  0  0  0  0  0  0  0  0  0  0  0
    0.3189   13.5049   38.6360 C   0  0  0  0  0  0  0  0  0  0  0  0
   -5.2942   10.8905   37.0276 C   0  0  2  0  0  0  0  0  0  0  0  0
   -6.4005   11.8143   36.7652 N   0  0  0  0  0  0  0  0  0  0  0  0
   -4.7601   11.2045   38.4524 C   0  0  0  0  0  0  0  0  0  0  0  0
   -3.6009   10.2179   38.7591 C   0  0  2  0  0  0  0  0  0  0  0  0
   -3.0664   10.4757   40.1055 N   0  0  0  0  0  0  0  0  0  0  0  0
   -2.4571   10.3647   37.7200 C   0  0  2  0  0  0  0  0  0  0  0  0
   -3.0273   10.0900   36.2927 C   0  0  2  0  0  0  0  0  0  0  0  0
   -1.9724   10.2371   35.3324 O   0  0  0  0  0  0  0  0  0  0  0  0
   -4.1514   11.0963   35.9462 C   0  0  1  0  0  0  0  0  0  0  0  0
   -4.6312   10.7676   34.6189 O   0  0  0  0  0  0  0  0  0  0  0  0
   -5.6623   11.6302   34.0837 C   0  0  2  0  0  0  0  0  0  0  0  0
   -5.9318   11.1315   32.6154 C   0  0  2  0  0  0  0  0  0  0  0  0
   -6.3790    9.7850   32.6383 O   0  0  0  0  0  0  0  0  0  0  0  0
   -4.6061   11.2714   31.7755 C   0  0  1  0  0  0  0  0  0  0  0  0
   -4.8131   10.7984   30.3728 N   0  0  0  0  0  0  0  0  0  0  0  0
   -4.2105    9.4559   30.2266 C   0  0  0  0  0  0  0  0  0  0  0  0
   -4.1720   12.7688   31.7825 C   0  0  2  0  0  0  0  0  0  0  0  0
   -5.2054   13.5474   31.1811 O   0  0  0  0  0  0  0  0  0  0  0  0
   -2.8840   12.9895   30.9933 C   0  0  0  0  0  0  0  0  0  0  0  0
   -3.9665   13.2355   33.2593 C   0  0  0  0  0  0  0  0  0  0  0  0
   -5.1959   13.0311   34.0540 O   0  0  0  0  0  0  0  0  0  0  0  0
  1  3  1  0  0  0  0
  1  2  1  1  0  0  0
  3  5  1  0  0  0  0
  3  4  1  1  0  0  0
  5  6  1  6  0  0  0
  7  8  1  1  0  0  0
  7  5  1  0  0  0  0
  9 10  1  6  0  0  0
  9  7  1  0  0  0  0
 10  1  1  0  0  0  0
 11 13  1  1  0  0  0
 11  9  1  0  0  0  0
 12 11  1  0  0  0  0
 14 15  1  6  0  0  0
 16 14  1  0  0  0  0
 17 18  1  1  0  0  0
 17 16  1  0  0  0  0
 19  2  1  1  0  0  0
 19 20  1  0  0  0  0
 19 17  1  0  0  0  0
 20 21  1  6  0  0  0
 20 22  1  0  0  0  0
 22 23  1  6  0  0  0
 22 14  1  0  0  0  0
 24 23  1  6  0  0  0
 24 25  1  0  0  0  0
 25 27  1  0  0  0  0
 25 26  1  1  0  0  0
 27 28  1  6  0  0  0
 28 29  1  0  0  0  0
 30 31  1  6  0  0  0
 30 32  1  0  0  0  0
 30 27  1  0  0  0  0
 33 30  1  0  0  0  0
 34 33  1  0  0  0  0
 34 24  1  0  0  0  0
M  END
>  <CHROM.1>
-178.89660320,-60.40411872,-171.84205290,66.06772127,176.08059876,-103.05931975
-2.39935095,10.82129814,36.16710342,-0.79803378,0.48090955,-1.77248639

>  <Name>
lig.pdb

>  <RI>
0

>  <Rbt.Current_Directory>
/home/itssahil/PROJECTS/Mol_Feturizer/New_Systems/rnas/4k32

>  <Rbt.Executable>
rbdock ($Id: //depot/dev/client3/rdock/2013.1/src/exe/rbdock.cxx#4 $)

>  <Rbt.Library>
libRbt.so (2013.1, Build901 2013/11/27)

>  <Rbt.Parameter_File>
/export/apps/rDock/src/rDock_2013.1_src/data/scripts/dock_solv.prm

>  <Rbt.Receptor>
prm/pocket_docking_8.prm

>  <SCORE>
-6.34192

>  <SCORE.INTER>
1.90821

>  <SCORE.INTER.CONST>
1

>  <SCORE.INTER.POLAR>
0

>  <SCORE.INTER.ROT>
6

>  <SCORE.INTER.SOLV>
10.2324

>  <SCORE.INTER.VDW>
-9.73867

>  <SCORE.INTER.norm>
0.0561238

>  <SCORE.INTRA>
-8.25013

>  <SCORE.INTRA.DIHEDRAL>
-16.3743

>  <SCORE.INTRA.DIHEDRAL.0>
18.0069

>  <SCORE.INTRA.POLAR>
0

>  <SCORE.INTRA.POLAR.0>
0

>  <SCORE.INTRA.REPUL>
0

>  <SCORE.INTRA.REPUL.0>
0

>  <SCORE.INTRA.SOLV>
-1.35598

>  <SCORE.INTRA.SOLV.lig_0>
-70.7393

>  <SCORE.INTRA.VDW>
0.614991

>  <SCORE.INTRA.VDW.0>
-3.23471

>  <SCORE.INTRA.norm>
-0.242651

>  <SCORE.RESTR>
0

>  <SCORE.RESTR.CAVITY>
0

>  <SCORE.RESTR.norm>
0

>  <SCORE.SYSTEM>
0

>  <SCORE.SYSTEM.CONST>
0

>  <SCORE.SYSTEM.DIHEDRAL>
0

>  <SCORE.SYSTEM.SOLV>
0

>  <SCORE.SYSTEM.norm>
0

>  <SCORE.heavy>
34

>  <SCORE.norm>
-0.186527

>  <RMSD>
8.085

$$$$
lig.pdb
 OpenBabel11021811503D
libRbt.so/2013.1/901 2013/11/27
 34 36  0  0  0  0  0  0  0  0999 V2000
    0.8139   12.7208   37.2667 C   0  0  2  0  0  0  0  0  0  0  0  0
    1.6281   13.8549   37.5850 O   0  0  0  0  0  0  0  0  0  0  0  0
    1.7410   11.5950   36.6389 C   0  0  2  0  0  0  0  0  0  0  0  0
    2.7993   11.1639   37.5818 N   0  0  0  0  0  0  0  0  0  0  0  0
    2.3825   12.1257   35.3320 C   0  0  1  0  0  0  0  0  0  0  0  0
    3.2163   11.1223   34.7477 O   0  0  0  0  0  0  0  0  0  0  0  0
    1.2575   12.5484   34.3706 C   0  0  2  0  0  0  0  0  0  0  0  0
    1.8355   13.0366   33.1589 O   0  0  0  0  0  0  0  0  0  0  0  0
    0.3629   13.6534   35.0526 C   0  0  2  0  0  0  0  0  0  0  0  0
   -0.2170   13.1510   36.3164 O   0  0  0  0  0  0  0  0  0  0  0  0
   -0.7960   14.0997   34.1269 C   0  0  2  0  0  0  0  0  0  0  0  0
   -1.3941   15.2915   34.6402 O   0  0  0  0  0  0  0  0  0  0  0  0
   -1.8658   13.0235   34.0275 C   0  0  0  0  0  0  0  0  0  0  0  0
   -1.3514   16.9222   37.7588 C   0  0  2  0  0  0  0  0  0  0  0  0
   -2.1698   18.0362   38.2441 N   0  0  0  0  0  0  0  0  0  0  0  0
   -1.3817   15.8183   38.8516 C   0  0  0  0  0  0  0  0  0  0  0  0
   -0.5383   14.6171   38.3445 C   0  0  2  0  0  0  0  0  0  0  0  0
   -0.5436   13.5417   39.3487 N   0  0  0  0  0  0  0  0  0  0  0  0
    0.9271   15.0461   38.0648 C   0  0  2  0  0  0  0  0  0  0  0  0
    0.9292   16.1868   36.9987 C   0  0  2  0  0  0  0  0  0  0  0  0
    2.2826   16.5902   36.7496 O   0  0  0  0  0  0  0  0  0  0  0  0
    0.1354   17.4153   37.5057 C   0  0  1  0  0  0  0  0  0  0  0  0
    0.1762   18.4174   36.4598 O   0  0  0  0  0  0  0  0  0  0  0  0
   -0.4281   18.0454   35.1988 C   0  0  2  0  0  0  0  0  0  0  0  0
    0.1920   19.0051   34.1163 C   0  0  2  0  0  0  0  0  0  0  0  0
    1.5982   18.8245   34.0608 O   0  0  0  0  0  0  0  0  0  0  0  0
   -0.1716   20.4938   34.4831 C   0  0  1  0  0  0  0  0  0  0  0  0
    0.4070   21.4437   33.4846 N   0  0  0  0  0  0  0  0  0  0  0  0
    1.7973   21.7612   33.8759 C   0  0  0  0  0  0  0  0  0  0  0  0
   -1.7243   20.6287   34.5209 C   0  0  2  0  0  0  0  0  0  0  0  0
   -2.2424   20.3125   33.2297 O   0  0  0  0  0  0  0  0  0  0  0  0
   -2.1617   22.0466   34.8794 C   0  0  0  0  0  0  0  0  0  0  0  0
   -2.3003   19.6233   35.5690 C   0  0  0  0  0  0  0  0  0  0  0  0
   -1.8911   18.2385   35.2533 O   0  0  0  0  0  0  0  0  0  0  0  0
  1  3  1  0  0  0  0
  1  2  1  6  0  0  0
  3  5  1  0  0  0  0
  3  4  1  1  0  0  0
  5  6  1  6  0  0  0
  7  8  1  6  0  0  0
  7  5  1  0  0  0  0
  9 10  1  1  0  0  0
  9  7  1  0  0  0  0
 10  1  1  0  0  0  0
 11 13  1  1  0  0  0
 11  9  1  0  0  0  0
 12 11  1  0  0  0  0
 14 15  1  1  0  0  0
 16 14  1  0  0  0  0
 17 18  1  1  0  0  0
 17 16  1  0  0  0  0
 19  2  1  6  0  0  0
 19 20  1  0  0  0  0
 19 17  1  0  0  0  0
 20 21  1  1  0  0  0
 20 22  1  0  0  0  0
 22 23  1  6  0  0  0
 22 14  1  0  0  0  0
 24 23  1  1  0  0  0
 24 25  1  0  0  0  0
 25 27  1  0  0  0  0
 25 26  1  1  0  0  0
 27 28  1  6  0  0  0
 28 29  1  0  0  0  0
 30 31  1  6  0  0  0
 30 32  1  0  0  0  0
 30 27  1  0  0  0  0
 33 30  1  0  0  0  0
 34 33  1  0  0  0  0
 34 24  1  0  0  0  0
M  END
>  <CHROM.1>
174.63400550,-167.07749347,10.63857968,-54.38008851,-159.27062887,-85.61515064
0.10739618,16.19995971,35.78201461,1.04536227,-1.03583976,2.48057786

>  <Name>
lig.pdb

>  <RI>
0

>  <Rbt.Current_Directory>
/home/itssahil/PROJECTS/Mol_Feturizer/New_Systems/rnas/4k32

>  <Rbt.Executable>
rbdock ($Id: //depot/dev/client3/rdock/2013.1/src/exe/rbdock.cxx#4 $)

>  <Rbt.Library>
libRbt.so (2013.1, Build901 2013/11/27)

>  <Rbt.Parameter_File>
/export/apps/rDock/src/rDock_2013.1_src/data/scripts/dock_solv.prm

>  <Rbt.Receptor>
prm/blind_docking_100.prm

>  <SCORE>
15.2423

>  <SCORE.INTER>
-1.6291

>  <SCORE.INTER.CONST>
1

>  <SCORE.INTER.POLAR>
0

>  <SCORE.INTER.ROT>
6

>  <SCORE.INTER.SOLV>
22.1286

>  <SCORE.INTER.VDW>
-16.0623

>  <SCORE.INTER.norm>
-0.0479148

>  <SCORE.INTRA>
6.21894

>  <SCORE.INTRA.DIHEDRAL>
-8.0015

>  <SCORE.INTRA.DIHEDRAL.0>
18.0069

>  <SCORE.INTRA.POLAR>
0

>  <SCORE.INTRA.POLAR.0>
0

>  <SCORE.INTRA.REPUL>
0.326674

>  <SCORE.INTRA.REPUL.0>
0

>  <SCORE.INTRA.SOLV>
2.13043

>  <SCORE.INTRA.SOLV.lig_0>
-70.7393

>  <SCORE.INTRA.VDW>
7.5211

>  <SCORE.INTRA.VDW.0>
-3.23471

>  <SCORE.INTRA.norm>
0.18291

>  <SCORE.RESTR>
10.6524

>  <SCORE.RESTR.CAVITY>
10.6524

>  <SCORE.RESTR.norm>
0.313306

>  <SCORE.SYSTEM>
0

>  <SCORE.SYSTEM.CONST>
0

>  <SCORE.SYSTEM.DIHEDRAL>
0

>  <SCORE.SYSTEM.SOLV>
0

>  <SCORE.SYSTEM.norm>
0

>  <SCORE.heavy>
34

>  <SCORE.norm>
0.448302

>  <RMSD>
8.098

$$$$
lig.pdb
 OpenBabel11021811503D
libRbt.so/2013.1/901 2013/11/27
 34 36  0  0  0  0  0  0  0  0999 V2000
   -5.2706   12.5632   39.7056 C   0  0  2  0  0  0  0  0  0  0  0  0
   -4.4835   13.6537   39.2143 O   0  0  0  0  0  0  0  0  0  0  0  0
   -4.2939   11.4763   40.3268 C   0  0  2  0  0  0  0  0  0  0  0  0
   -3.5005   12.0269   41.4504 N   0  0  0  0  0  0  0  0  0  0  0  0
   -3.3463   10.9441   39.2224 C   0  0  1  0  0  0  0  0  0  0  0  0
   -2.4629    9.9582   39.7618 O   0  0  0  0  0  0  0  0  0  0  0  0
   -4.2009   10.3656   38.0806 C   0  0  2  0  0  0  0  0  0  0  0  0
   -3.3389    9.8675   37.0562 O   0  0  0  0  0  0  0  0  0  0  0  0
   -5.1594   11.4829   37.5156 C   0  0  2  0  0  0  0  0  0  0  0  0
   -6.0357   12.0100   38.5833 O   0  0  0  0  0  0  0  0  0  0  0  0
   -6.0536   10.9420   36.3724 C   0  0  2  0  0  0  0  0  0  0  0  0
   -6.7480   12.0234   35.7478 O   0  0  0  0  0  0  0  0  0  0  0  0
   -7.0766    9.9474   36.8985 C   0  0  0  0  0  0  0  0  0  0  0  0
   -5.4279   17.7642   38.4878 C   0  0  2  0  0  0  0  0  0  0  0  0
   -6.0439   18.9682   37.9245 N   0  0  0  0  0  0  0  0  0  0  0  0
   -4.8913   16.9216   37.2979 C   0  0  0  0  0  0  0  0  0  0  0  0
   -4.2121   15.6509   37.8768 C   0  0  2  0  0  0  0  0  0  0  0  0
   -3.6825   14.8229   36.7820 N   0  0  0  0  0  0  0  0  0  0  0  0
   -5.2197   14.8125   38.7083 C   0  0  2  0  0  0  0  0  0  0  0  0
   -5.7794   15.6937   39.8694 C   0  0  2  0  0  0  0  0  0  0  0  0
   -6.7187   14.9218   40.6300 O   0  0  0  0  0  0  0  0  0  0  0  0
   -6.5059   16.9418   39.3119 C   0  0  1  0  0  0  0  0  0  0  0  0
   -6.9824   17.7068   40.4466 O   0  0  0  0  0  0  0  0  0  0  0  0
   -7.7186   18.9132   40.1361 C   0  0  2  0  0  0  0  0  0  0  0  0
   -7.9988   19.6217   41.5134 C   0  0  2  0  0  0  0  0  0  0  0  0
   -6.7713   19.9434   42.1483 O   0  0  0  0  0  0  0  0  0  0  0  0
   -8.8663   18.6639   42.4149 C   0  0  1  0  0  0  0  0  0  0  0  0
   -9.1490   19.2936   43.7408 N   0  0  0  0  0  0  0  0  0  0  0  0
   -8.0962   18.8888   44.6970 C   0  0  0  0  0  0  0  0  0  0  0  0
  -10.1994   18.3548   41.6680 C   0  0  2  0  0  0  0  0  0  0  0  0
  -10.8999   19.5797   41.4568 O   0  0  0  0  0  0  0  0  0  0  0  0
  -11.0981   17.4211   42.4749 C   0  0  0  0  0  0  0  0  0  0  0  0
   -9.8729   17.7015   40.2868 C   0  0  0  0  0  0  0  0  0  0  0  0
   -8.9990   18.5794   39.4804 O   0  0  0  0  0  0  0  0  0  0  0  0
  1  3  1  0  0  0  0
  1  2  1  6  0  0  0
  3  5  1  0  0  0  0
  3  4  1  1  0  0  0
  5  6  1  1  0  0  0
  7  8  1  6  0  0  0
  7  5  1  0  0  0  0
  9 10  1  1  0  0  0
  9  7  1  0  0  0  0
 10  1  1  0  0  0  0
 11 13  1  1  0  0  0
 11  9  1  0  0  0  0
 12 11  1  0  0  0  0
 14 15  1  6  0  0  0
 16 14  1  0  0  0  0
 17 18  1  6  0  0  0
 17 16  1  0  0  0  0
 19  2  1  1  0  0  0
 19 20  1  0  0  0  0
 19 17  1  0  0  0  0
 20 21  1  6  0  0  0
 20 22  1  0  0  0  0
 22 23  1  1  0  0  0
 22 14  1  0  0  0  0
 24 23  1  1  0  0  0
 24 25  1  0  0  0  0
 25 27  1  0  0  0  0
 25 26  1  1  0  0  0
 27 28  1  1  0  0  0
 28 29  1  0  0  0  0
 30 31  1  6  0  0  0
 30 32  1  0  0  0  0
 30 27  1  0  0  0  0
 33 30  1  0  0  0  0
 34 33  1  0  0  0  0
 34 24  1  0  0  0  0
M  END
>  <CHROM.1>
-174.78643870,-170.81887073,-163.95656657,65.00768538,-174.70734609,-91.90286811
-6.40226394,15.23441243,39.63218721,0.18242343,-1.08870694,2.21693803

>  <Name>
lig.pdb

>  <RI>
0

>  <Rbt.Current_Directory>
/home/itssahil/PROJECTS/Mol_Feturizer/New_Systems/rnas/4k32

>  <Rbt.Executable>
rbdock ($Id: //depot/dev/client3/rdock/2013.1/src/exe/rbdock.cxx#4 $)

>  <Rbt.Library>
libRbt.so (2013.1, Build901 2013/11/27)

>  <Rbt.Parameter_File>
/export/apps/rDock/src/rDock_2013.1_src/data/scripts/dock_solv.prm

>  <Rbt.Receptor>
prm/pocket_docking_7.prm

>  <SCORE>
-6.92615

>  <SCORE.INTER>
0.388639

>  <SCORE.INTER.CONST>
1

>  <SCORE.INTER.POLAR>
0

>  <SCORE.INTER.ROT>
6

>  <SCORE.INTER.SOLV>
12.1725

>  <SCORE.INTER.VDW>
-11.3984

>  <SCORE.INTER.norm>
0.0114306

>  <SCORE.INTRA>
-7.31479

>  <SCORE.INTRA.DIHEDRAL>
-15.3708

>  <SCORE.INTRA.DIHEDRAL.0>
18.0069

>  <SCORE.INTRA.POLAR>
0

>  <SCORE.INTRA.POLAR.0>
0

>  <SCORE.INTRA.REPUL>
0

>  <SCORE.INTRA.REPUL.0>
0

>  <SCORE.INTRA.SOLV>
-1.45063

>  <SCORE.INTRA.SOLV.lig_0>
-70.7393

>  <SCORE.INTRA.VDW>
1.09594

>  <SCORE.INTRA.VDW.0>
-3.23471

>  <SCORE.INTRA.norm>
-0.215141

>  <SCORE.RESTR>
0

>  <SCORE.RESTR.CAVITY>
0

>  <SCORE.RESTR.norm>
0

>  <SCORE.SYSTEM>
0

>  <SCORE.SYSTEM.CONST>
0

>  <SCORE.SYSTEM.DIHEDRAL>
0

>  <SCORE.SYSTEM.SOLV>
0

>  <SCORE.SYSTEM.norm>
0

>  <SCORE.heavy>
34

>  <SCORE.norm>
-0.20371

>  <RMSD>
8.104

$$$$
lig.pdb
 OpenBabel11021811503D
libRbt.so/2013.1/901 2013/11/27
 34 36  0  0  0  0  0  0  0  0999 V2000
   -4.8014   11.8617   35.0593 C   0  0  2  0  0  0  0  0  0  0  0  0
   -3.8855   12.5307   35.9332 O   0  0  0  0  0  0  0  0  0  0  0  0
   -6.2726   12.0619   35.6221 C   0  0  2  0  0  0  0  0  0  0  0  0
   -6.6469   13.4938   35.6882 N   0  0  0  0  0  0  0  0  0  0  0  0
   -6.3767   11.4235   37.0301 C   0  0  1  0  0  0  0  0  0  0  0  0
   -7.6977   11.5878   37.5510 O   0  0  0  0  0  0  0  0  0  0  0  0
   -5.9982    9.9356   36.9227 C   0  0  2  0  0  0  0  0  0  0  0  0
   -6.0936    9.3334   38.2144 O   0  0  0  0  0  0  0  0  0  0  0  0
   -4.5374    9.7993   36.3447 C   0  0  2  0  0  0  0  0  0  0  0  0
   -4.4377   10.4416   35.0168 O   0  0  0  0  0  0  0  0  0  0  0  0
   -4.1169    8.3154   36.2024 C   0  0  2  0  0  0  0  0  0  0  0  0
   -4.1059    7.6899   37.4871 O   0  0  0  0  0  0  0  0  0  0  0  0
   -2.7299    8.1933   35.5910 C   0  0  0  0  0  0  0  0  0  0  0  0
   -2.2704   16.4738   36.3330 C   0  0  2  0  0  0  0  0  0  0  0  0
   -2.0437   17.9074   36.1344 N   0  0  0  0  0  0  0  0  0  0  0  0
   -2.1983   15.7982   34.9358 C   0  0  0  0  0  0  0  0  0  0  0  0
   -2.4124   14.2723   35.1284 C   0  0  2  0  0  0  0  0  0  0  0  0
   -2.3463   13.5889   33.8271 N   0  0  0  0  0  0  0  0  0  0  0  0
   -3.7881   13.9832   35.7866 C   0  0  2  0  0  0  0  0  0  0  0  0
   -3.8548   14.7093   37.1673 C   0  0  2  0  0  0  0  0  0  0  0  0
   -5.1305   14.4509   37.7693 O   0  0  0  0  0  0  0  0  0  0  0  0
   -3.6942   16.2390   36.9928 C   0  0  1  0  0  0  0  0  0  0  0  0
   -3.7559   16.8331   38.3131 O   0  0  0  0  0  0  0  0  0  0  0  0
   -3.9209   18.2699   38.3568 C   0  0  2  0  0  0  0  0  0  0  0  0
   -4.3079   18.6211   39.8414 C   0  0  2  0  0  0  0  0  0  0  0  0
   -3.2683   18.2178   40.7188 O   0  0  0  0  0  0  0  0  0  0  0  0
   -5.6618   17.9003   40.2020 C   0  0  1  0  0  0  0  0  0  0  0  0
   -6.0640   18.1982   41.6105 N   0  0  0  0  0  0  0  0  0  0  0  0
   -5.8235   16.9985   42.4408 C   0  0  0  0  0  0  0  0  0  0  0  0
   -6.7615   18.3890   39.2109 C   0  0  2  0  0  0  0  0  0  0  0  0
   -6.9153   19.7998   39.3578 O   0  0  0  0  0  0  0  0  0  0  0  0
   -8.1093   17.7280   39.4884 C   0  0  0  0  0  0  0  0  0  0  0  0
   -6.3129   18.0677   37.7492 C   0  0  0  0  0  0  0  0  0  0  0  0
   -5.0066   18.6903   37.4484 O   0  0  0  0  0  0  0  0  0  0  0  0
  1  3  1  0  0  0  0
  1  2  1  1  0  0  0
  3  5  1  0  0  0  0
  3  4  1  1  0  0  0
  5  6  1  6  0  0  0
  7  8  1  1  0  0  0
  7  5  1  0  0  0  0
  9 10  1  6  0  0  0
  9  7  1  0  0  0  0
 10  1  1  0  0  0  0
 11 13  1  1  0  0  0
 11  9  1  0  0  0  0
 12 11  1  0  0  0  0
 14 15  1  6  0  0  0
 16 14  1  0  0  0  0
 17 18  1  6  0  0  0
 17 16  1  0  0  0  0
 19  2  1  1  0  0  0
 19 20  1  0  0  0  0
 19 17  1  0  0  0  0
 20 21  1  6  0  0  0
 20 22  1  0  0  0  0
 22 23  1  1  0  0  0
 22 14  1  0  0  0  0
 24 23  1  1  0  0  0
 24 25  1  0  0  0  0
 25 27  1  0  0  0  0
 25 26  1  1  0  0  0
 27 28  1  1  0  0  0
 28 29  1  0  0  0  0
 30 31  1  1  0  0  0
 30 32  1  0  0  0  0
 30 27  1  0  0  0  0
 33 30  1  0  0  0  0
 34 33  1  0  0  0  0
 34 24  1  0  0  0  0
M  END
>  <CHROM.1>
-78.50143332,-62.11087819,-108.17324627,77.00831382,166.54606936,-106.07654175
-4.76304943,14.44458860,37.42936858,-1.46616832,0.77728416,0.29379462

>  <Name>
lig.pdb

>  <RI>
0

>  <Rbt.Current_Directory>
/home/itssahil/PROJECTS/Mol_Feturizer/New_Systems/rnas/4k32

>  <Rbt.Executable>
rbdock ($Id: //depot/dev/client3/rdock/2013.1/src/exe/rbdock.cxx#4 $)

>  <Rbt.Library>
libRbt.so (2013.1, Build901 2013/11/27)

>  <Rbt.Parameter_File>
/export/apps/rDock/src/rDock_2013.1_src/data/scripts/dock_solv.prm

>  <Rbt.Receptor>
prm/pocket_docking_5.prm

>  <SCORE>
-5.63687

>  <SCORE.INTER>
-3.11688

>  <SCORE.INTER.CONST>
1

>  <SCORE.INTER.POLAR>
0

>  <SCORE.INTER.ROT>
6

>  <SCORE.INTER.SOLV>
18.7589

>  <SCORE.INTER.VDW>
-15.9309

>  <SCORE.INTER.norm>
-0.0916728

>  <SCORE.INTRA>
-2.51999

>  <SCORE.INTRA.DIHEDRAL>
-6.61539

>  <SCORE.INTRA.DIHEDRAL.0>
18.0069

>  <SCORE.INTRA.POLAR>
0

>  <SCORE.INTRA.POLAR.0>
0

>  <SCORE.INTRA.REPUL>
0

>  <SCORE.INTRA.REPUL.0>
0

>  <SCORE.INTRA.SOLV>
1.69207

>  <SCORE.INTRA.SOLV.lig_0>
-70.7393

>  <SCORE.INTRA.VDW>
-0.0583309

>  <SCORE.INTRA.VDW.0>
-3.23471

>  <SCORE.INTRA.norm>
-0.0741174

>  <SCORE.RESTR>
0

>  <SCORE.RESTR.CAVITY>
0

>  <SCORE.RESTR.norm>
0

>  <SCORE.SYSTEM>
0

>  <SCORE.SYSTEM.CONST>
0

>  <SCORE.SYSTEM.DIHEDRAL>
0

>  <SCORE.SYSTEM.SOLV>
0

>  <SCORE.SYSTEM.norm>
0

>  <SCORE.heavy>
34

>  <SCORE.norm>
-0.16579

>  <RMSD>
8.106

$$$$
lig.pdb
 OpenBabel11021811503D
libRbt.so/2013.1/901 2013/11/27
 34 36  0  0  0  0  0  0  0  0999 V2000
   -6.3940   15.9446   38.6955 C   0  0  2  0  0  0  0  0  0  0  0  0
   -5.4558   16.3900   39.6812 O   0  0  0  0  0  0  0  0  0  0  0  0
   -7.8249   15.8346   39.3749 C   0  0  2  0  0  0  0  0  0  0  0  0
   -8.2845   17.1394   39.9053 N   0  0  0  0  0  0  0  0  0  0  0  0
   -7.7737   14.7889   40.5172 C   0  0  1  0  0  0  0  0  0  0  0  0
   -9.0564   14.6707   41.1371 O   0  0  0  0  0  0  0  0  0  0  0  0
   -7.3096   13.4441   39.9298 C   0  0  2  0  0  0  0  0  0  0  0  0
   -7.2616   12.4690   40.9726 O   0  0  0  0  0  0  0  0  0  0  0  0
   -5.8945   13.6184   39.2566 C   0  0  2  0  0  0  0  0  0  0  0  0
   -5.9437   14.6428   38.1917 O   0  0  0  0  0  0  0  0  0  0  0  0
   -5.3918   12.2917   38.6351 C   0  0  2  0  0  0  0  0  0  0  0  0
   -4.1057   12.4901   38.0449 O   0  0  0  0  0  0  0  0  0  0  0  0
   -6.3462   11.7908   37.5623 C   0  0  0  0  0  0  0  0  0  0  0  0
   -2.8581   18.3159   36.8778 C   0  0  2  0  0  0  0  0  0  0  0  0
   -1.8151   19.1796   36.3189 N   0  0  0  0  0  0  0  0  0  0  0  0
   -3.7837   19.2135   37.7447 C   0  0  0  0  0  0  0  0  0  0  0  0
   -4.9115   18.3192   38.3273 C   0  0  2  0  0  0  0  0  0  0  0  0
   -5.8185   19.1313   39.1536 N   0  0  0  0  0  0  0  0  0  0  0  0
   -4.3210   17.1742   39.1932 C   0  0  2  0  0  0  0  0  0  0  0  0
   -3.3597   16.3142   38.3134 C   0  0  2  0  0  0  0  0  0  0  0  0
   -2.8060   15.2636   39.1173 O   0  0  0  0  0  0  0  0  0  0  0  0
   -2.1980   17.1767   37.7632 C   0  0  1  0  0  0  0  0  0  0  0  0
   -1.3637   16.3116   36.9537 O   0  0  0  0  0  0  0  0  0  0  0  0
   -0.2117   16.9338   36.3377 C   0  0  2  0  0  0  0  0  0  0  0  0
    0.5917   15.7739   35.6402 C   0  0  2  0  0  0  0  0  0  0  0  0
   -0.2178   15.1518   34.6548 O   0  0  0  0  0  0  0  0  0  0  0  0
    1.0462   14.7355   36.7347 C   0  0  1  0  0  0  0  0  0  0  0  0
    1.8063   13.6078   36.1144 N   0  0  0  0  0  0  0  0  0  0  0  0
    0.8795   12.4807   35.8745 C   0  0  0  0  0  0  0  0  0  0  0  0
    1.9347   15.4759   37.7801 C   0  0  2  0  0  0  0  0  0  0  0  0
    3.0809   16.0036   37.1142 O   0  0  0  0  0  0  0  0  0  0  0  0
    2.4118   14.5369   38.8852 C   0  0  0  0  0  0  0  0  0  0  0  0
    1.1164   16.6492   38.4083 C   0  0  0  0  0  0  0  0  0  0  0  0
    0.6347   17.5766   37.3630 O   0  0  0  0  0  0  0  0  0  0  0  0
  1  3  1  0  0  0  0
  1  2  1  1  0  0  0
  3  5  1  0  0  0  0
  3  4  1  1  0  0  0
  5  6  1  6  0  0  0
  7  8  1  1  0  0  0
  7  5  1  0  0  0  0
  9 10  1  6  0  0  0
  9  7  1  0  0  0  0
 10  1  1  0  0  0  0
 11 13  1  6  0  0  0
 11  9  1  0  0  0  0
 12 11  1  0  0  0  0
 14 15  1  1  0  0  0
 16 14  1  0  0  0  0
 17 18  1  1  0  0  0
 17 16  1  0  0  0  0
 19  2  1  6  0  0  0
 19 20  1  0  0  0  0
 19 17  1  0  0  0  0
 20 21  1  1  0  0  0
 20 22  1  0  0  0  0
 22 23  1  6  0  0  0
 22 14  1  0  0  0  0
 24 23  1  1  0  0  0
 24 25  1  0  0  0  0
 25 27  1  0  0  0  0
 25 26  1  6  0  0  0
 27 28  1  6  0  0  0
 28 29  1  0  0  0  0
 30 31  1  6  0  0  0
 30 32  1  0  0  0  0
 30 27  1  0  0  0  0
 33 30  1  0  0  0  0
 34 33  1  0  0  0  0
 34 24  1  0  0  0  0
M  END
>  <CHROM.1>
-150.28084612,-179.61069756,51.73278324,63.71317726,174.73677038,-96.08601828
-3.13841047,15.57111191,38.13584892,3.04141952,-0.33463888,3.10760986

>  <Name>
lig.pdb

>  <RI>
0

>  <Rbt.Current_Directory>
/home/itssahil/PROJECTS/Mol_Feturizer/New_Systems/rnas/4k32

>  <Rbt.Executable>
rbdock ($Id: //depot/dev/client3/rdock/2013.1/src/exe/rbdock.cxx#4 $)

>  <Rbt.Library>
libRbt.so (2013.1, Build901 2013/11/27)

>  <Rbt.Parameter_File>
/export/apps/rDock/src/rDock_2013.1_src/data/scripts/dock_solv.prm

>  <Rbt.Receptor>
prm/pocket_docking_5.prm

>  <SCORE>
-8.68675

>  <SCORE.INTER>
-4.47067

>  <SCORE.INTER.CONST>
1

>  <SCORE.INTER.POLAR>
0

>  <SCORE.INTER.ROT>
6

>  <SCORE.INTER.SOLV>
21.029

>  <SCORE.INTER.VDW>
-17.5901

>  <SCORE.INTER.norm>
-0.13149

>  <SCORE.INTRA>
-4.21607

>  <SCORE.INTRA.DIHEDRAL>
-13.0671

>  <SCORE.INTRA.DIHEDRAL.0>
18.0069

>  <SCORE.INTRA.POLAR>
0

>  <SCORE.INTRA.POLAR.0>
0

>  <SCORE.INTRA.REPUL>
0

>  <SCORE.INTRA.REPUL.0>
0

>  <SCORE.INTRA.SOLV>
1.52287

>  <SCORE.INTRA.SOLV.lig_0>
-70.7393

>  <SCORE.INTRA.VDW>
1.55604

>  <SCORE.INTRA.VDW.0>
-3.23471

>  <SCORE.INTRA.norm>
-0.124002

>  <SCORE.RESTR>
0

>  <SCORE.RESTR.CAVITY>
0

>  <SCORE.RESTR.norm>
0

>  <SCORE.SYSTEM>
0

>  <SCORE.SYSTEM.CONST>
0

>  <SCORE.SYSTEM.DIHEDRAL>
0

>  <SCORE.SYSTEM.SOLV>
0

>  <SCORE.SYSTEM.norm>
0

>  <SCORE.heavy>
34

>  <SCORE.norm>
-0.255493

>  <RMSD>
8.115

$$$$
lig.pdb
 OpenBabel11021811503D
libRbt.so/2013.1/901 2013/11/27
 34 36  0  0  0  0  0  0  0  0999 V2000
   -4.7539   11.7951   34.9948 C   0  0  2  0  0  0  0  0  0  0  0  0
   -3.8397   12.4721   35.8644 O   0  0  0  0  0  0  0  0  0  0  0  0
   -6.2256   11.9955   35.5561 C   0  0  2  0  0  0  0  0  0  0  0  0
   -6.6033   13.4270   35.6125 N   0  0  0  0  0  0  0  0  0  0  0  0
   -6.3284   11.3664   36.9684 C   0  0  1  0  0  0  0  0  0  0  0  0
   -7.6499   11.5311   37.4880 O   0  0  0  0  0  0  0  0  0  0  0  0
   -5.9463    9.8787   36.8711 C   0  0  2  0  0  0  0  0  0  0  0  0
   -6.0405    9.2850   38.1669 O   0  0  0  0  0  0  0  0  0  0  0  0
   -4.4852    9.7420   36.2943 C   0  0  2  0  0  0  0  0  0  0  0  0
   -4.3867   10.3755   34.9620 O   0  0  0  0  0  0  0  0  0  0  0  0
   -4.0612    8.2582   36.1621 C   0  0  2  0  0  0  0  0  0  0  0  0
   -4.0813    7.6325   37.4465 O   0  0  0  0  0  0  0  0  0  0  0  0
   -2.6596    8.1364   35.5846 C   0  0  0  0  0  0  0  0  0  0  0  0
   -2.2604   16.4294   36.2669 C   0  0  2  0  0  0  0  0  0  0  0  0
   -2.0441   17.8644   36.0664 N   0  0  0  0  0  0  0  0  0  0  0  0
   -2.1718   15.7510   34.8720 C   0  0  0  0  0  0  0  0  0  0  0  0
   -2.3747   14.2239   35.0668 C   0  0  2  0  0  0  0  0  0  0  0  0
   -2.2928   13.5378   33.7677 N   0  0  0  0  0  0  0  0  0  0  0  0
   -3.7531   13.9250   35.7149 C   0  0  2  0  0  0  0  0  0  0  0  0
   -3.8367   14.6539   37.0932 C   0  0  2  0  0  0  0  0  0  0  0  0
   -5.1149   14.3864   37.6858 O   0  0  0  0  0  0  0  0  0  0  0  0
   -3.6874   16.1845   36.9161 C   0  0  1  0  0  0  0  0  0  0  0  0
   -3.7644   16.7812   38.2344 O   0  0  0  0  0  0  0  0  0  0  0  0
   -3.9033   18.2209   38.2735 C   0  0  2  0  0  0  0  0  0  0  0  0
   -4.1934   18.5921   39.7753 C   0  0  2  0  0  0  0  0  0  0  0  0
   -3.1088   18.1796   40.5919 O   0  0  0  0  0  0  0  0  0  0  0  0
   -5.5342   17.8971   40.2249 C   0  0  1  0  0  0  0  0  0  0  0  0
   -5.8448   18.2146   41.6521 N   0  0  0  0  0  0  0  0  0  0  0  0
   -5.4758   17.0546   42.4916 C   0  0  0  0  0  0  0  0  0  0  0  0
   -6.6843   18.3951   39.2976 C   0  0  2  0  0  0  0  0  0  0  0  0
   -6.8062   19.8095   39.4394 O   0  0  0  0  0  0  0  0  0  0  0  0
   -8.0230   17.7591   39.6633 C   0  0  0  0  0  0  0  0  0  0  0  0
   -6.3309   18.0530   37.8147 C   0  0  0  0  0  0  0  0  0  0  0  0
   -5.0355   18.6510   37.4287 O   0  0  0  0  0  0  0  0  0  0  0  0
  1  3  1  0  0  0  0
  1  2  1  1  0  0  0
  3  5  1  0  0  0  0
  3  4  1  1  0  0  0
  5  6  1  6  0  0  0
  7  8  1  1  0  0  0
  7  5  1  0  0  0  0
  9 10  1  6  0  0  0
  9  7  1  0  0  0  0
 10  1  1  0  0  0  0
 11 13  1  1  0  0  0
 11  9  1  0  0  0  0
 12 11  1  0  0  0  0
 14 15  1  6  0  0  0
 16 14  1  0  0  0  0
 17 18  1  6  0  0  0
 17 16  1  0  0  0  0
 19  2  1  1  0  0  0
 19 20  1  0  0  0  0
 19 17  1  0  0  0  0
 20 21  1  6  0  0  0
 20 22  1  0  0  0  0
 22 23  1  1  0  0  0
 22 14  1  0  0  0  0
 24 23  1  1  0  0  0
 24 25  1  0  0  0  0
 25 27  1  0  0  0  0
 25 26  1  1  0  0  0
 27 28  1  1  0  0  0
 28 29  1  0  0  0  0
 30 31  1  1  0  0  0
 30 32  1  0  0  0  0
 30 27  1  0  0  0  0
 33 30  1  0  0  0  0
 34 33  1  0  0  0  0
 34 24  1  0  0  0  0
M  END
>  <CHROM.1>
-78.05387900,-60.66448819,-108.82932586,75.31152519,171.21336176,-101.77893147
-4.70248293,14.40513941,37.39524992,-1.47083850,0.79528319,0.30233935

>  <Name>
lig.pdb

>  <RI>
0

>  <Rbt.Current_Directory>
/home/itssahil/PROJECTS/Mol_Feturizer/New_Systems/rnas/4k32

>  <Rbt.Executable>
rbdock ($Id: //depot/dev/client3/rdock/2013.1/src/exe/rbdock.cxx#4 $)

>  <Rbt.Library>
libRbt.so (2013.1, Build901 2013/11/27)

>  <Rbt.Parameter_File>
/export/apps/rDock/src/rDock_2013.1_src/data/scripts/dock_solv.prm

>  <Rbt.Receptor>
prm/pocket_docking_5.prm

>  <SCORE>
-5.65758

>  <SCORE.INTER>
-2.75485

>  <SCORE.INTER.CONST>
1

>  <SCORE.INTER.POLAR>
0

>  <SCORE.INTER.ROT>
6

>  <SCORE.INTER.SOLV>
18.5937

>  <SCORE.INTER.VDW>
-15.6345

>  <SCORE.INTER.norm>
-0.081025

>  <SCORE.INTRA>
-2.90273

>  <SCORE.INTRA.DIHEDRAL>
-7.44549

>  <SCORE.INTRA.DIHEDRAL.0>
18.0069

>  <SCORE.INTRA.POLAR>
0

>  <SCORE.INTRA.POLAR.0>
0

>  <SCORE.INTRA.REPUL>
0

>  <SCORE.INTRA.REPUL.0>
0

>  <SCORE.INTRA.SOLV>
1.68848

>  <SCORE.INTRA.SOLV.lig_0>
-70.7393

>  <SCORE.INTRA.VDW>
-0.0242251

>  <SCORE.INTRA.VDW.0>
-3.23471

>  <SCORE.INTRA.norm>
-0.0853744

>  <SCORE.RESTR>
0

>  <SCORE.RESTR.CAVITY>
0

>  <SCORE.RESTR.norm>
0

>  <SCORE.SYSTEM>
0

>  <SCORE.SYSTEM.CONST>
0

>  <SCORE.SYSTEM.DIHEDRAL>
0

>  <SCORE.SYSTEM.SOLV>
0

>  <SCORE.SYSTEM.norm>
0

>  <SCORE.heavy>
34

>  <SCORE.norm>
-0.166399

>  <RMSD>
8.126

$$$$
lig.pdb
 OpenBabel11021811503D
libRbt.so/2013.1/901 2013/11/27
 34 36  0  0  0  0  0  0  0  0999 V2000
   -2.5826   11.1899   39.5570 C   0  0  2  0  0  0  0  0  0  0  0  0
   -1.7762   11.7351   38.5070 O   0  0  0  0  0  0  0  0  0  0  0  0
   -1.7293   10.0987   40.3330 C   0  0  2  0  0  0  0  0  0  0  0  0
   -0.5063   10.6806   40.9336 N   0  0  0  0  0  0  0  0  0  0  0  0
   -1.3466    8.9559   39.3591 C   0  0  1  0  0  0  0  0  0  0  0  0
   -0.5829    7.9591   40.0422 O   0  0  0  0  0  0  0  0  0  0  0  0
   -2.6380    8.3637   38.7671 C   0  0  2  0  0  0  0  0  0  0  0  0
   -2.2996    7.3055   37.8693 O   0  0  0  0  0  0  0  0  0  0  0  0
   -3.4491    9.4939   38.0247 C   0  0  2  0  0  0  0  0  0  0  0  0
   -3.7798   10.5966   38.9523 O   0  0  0  0  0  0  0  0  0  0  0  0
   -4.7687    8.9479   37.4248 C   0  0  2  0  0  0  0  0  0  0  0  0
   -4.4777    7.9728   36.4218 O   0  0  0  0  0  0  0  0  0  0  0  0
   -5.5887   10.0629   36.7946 C   0  0  0  0  0  0  0  0  0  0  0  0
   -2.3416   15.2951   36.1997 C   0  0  2  0  0  0  0  0  0  0  0  0
   -2.8801   16.2452   35.2233 N   0  0  0  0  0  0  0  0  0  0  0  0
   -2.0301   13.9778   35.4371 C   0  0  0  0  0  0  0  0  0  0  0  0
   -1.4346   12.9645   36.4519 C   0  0  2  0  0  0  0  0  0  0  0  0
   -1.1182   11.6997   35.7701 N   0  0  0  0  0  0  0  0  0  0  0  0
   -2.4323   12.6847   37.6077 C   0  0  2  0  0  0  0  0  0  0  0  0
   -2.7655   14.0285   38.3294 C   0  0  2  0  0  0  0  0  0  0  0  0
   -3.6961   13.7705   39.3897 O   0  0  0  0  0  0  0  0  0  0  0  0
   -3.4079   15.0367   37.3460 C   0  0  1  0  0  0  0  0  0  0  0  0
   -3.6744   16.2530   38.0872 O   0  0  0  0  0  0  0  0  0  0  0  0
   -4.5899   17.1871   37.4684 C   0  0  2  0  0  0  0  0  0  0  0  0
   -4.6699   18.4270   38.4347 C   0  0  2  0  0  0  0  0  0  0  0  0
   -3.3855   19.0142   38.5725 O   0  0  0  0  0  0  0  0  0  0  0  0
   -5.2264   17.9534   39.8306 C   0  0  1  0  0  0  0  0  0  0  0  0
   -5.3100   19.0997   40.7862 N   0  0  0  0  0  0  0  0  0  0  0  0
   -4.0681   19.1465   41.5874 C   0  0  0  0  0  0  0  0  0  0  0  0
   -6.6373   17.3265   39.6136 C   0  0  2  0  0  0  0  0  0  0  0  0
   -7.5005   18.3215   39.0655 O   0  0  0  0  0  0  0  0  0  0  0  0
   -7.2457   16.8321   40.9235 C   0  0  0  0  0  0  0  0  0  0  0  0
   -6.5193   16.1351   38.6097 C   0  0  0  0  0  0  0  0  0  0  0  0
   -5.9285   16.5792   37.3297 O   0  0  0  0  0  0  0  0  0  0  0  0
  1  3  1  0  0  0  0
  1  2  1  6  0  0  0
  3  5  1  0  0  0  0
  3  4  1  6  0  0  0
  5  6  1  1  0  0  0
  7  8  1  6  0  0  0
  7  5  1  0  0  0  0
  9 10  1  1  0  0  0
  9  7  1  0  0  0  0
 10  1  1  0  0  0  0
 11 13  1  6  0  0  0
 11  9  1  0  0  0  0
 12 11  1  0  0  0  0
 14 15  1  6  0  0  0
 16 14  1  0  0  0  0
 17 18  1  6  0  0  0
 17 16  1  0  0  0  0
 19  2  1  1  0  0  0
 19 20  1  0  0  0  0
 19 17  1  0  0  0  0
 20 21  1  1  0  0  0
 20 22  1  0  0  0  0
 22 23  1  1  0  0  0
 22 14  1  0  0  0  0
 24 23  1  1  0  0  0
 24 25  1  0  0  0  0
 25 27  1  0  0  0  0
 25 26  1  1  0  0  0
 27 28  1  1  0  0  0
 28 29  1  0  0  0  0
 30 31  1  6  0  0  0
 30 32  1  0  0  0  0
 30 27  1  0  0  0  0
 33 30  1  0  0  0  0
 34 33  1  0  0  0  0
 34 24  1  0  0  0  0
M  END
>  <CHROM.1>
175.15023818,-63.66666267,-171.81624875,80.01837364,-178.09209209,-93.81180400
-3.61899719,13.55839991,38.39370076,0.85101365,-1.08753288,2.56929859

>  <Name>
lig.pdb

>  <RI>
0

>  <Rbt.Current_Directory>
/home/itssahil/PROJECTS/Mol_Feturizer/New_Systems/rnas/4k32

>  <Rbt.Executable>
rbdock ($Id: //depot/dev/client3/rdock/2013.1/src/exe/rbdock.cxx#4 $)

>  <Rbt.Library>
libRbt.so (2013.1, Build901 2013/11/27)

>  <Rbt.Parameter_File>
/export/apps/rDock/src/rDock_2013.1_src/data/scripts/dock_solv.prm

>  <Rbt.Receptor>
prm/pocket_docking_7.prm

>  <SCORE>
-7.20589

>  <SCORE.INTER>
0.825344

>  <SCORE.INTER.CONST>
1

>  <SCORE.INTER.POLAR>
0

>  <SCORE.INTER.ROT>
6

>  <SCORE.INTER.SOLV>
13.0337

>  <SCORE.INTER.VDW>
-11.3944

>  <SCORE.INTER.norm>
0.0242748

>  <SCORE.INTRA>
-8.03123

>  <SCORE.INTRA.DIHEDRAL>
-14.9358

>  <SCORE.INTRA.DIHEDRAL.0>
18.0069

>  <SCORE.INTRA.POLAR>
0

>  <SCORE.INTRA.POLAR.0>
0

>  <SCORE.INTRA.REPUL>
0

>  <SCORE.INTRA.REPUL.0>
0

>  <SCORE.INTRA.SOLV>
-1.82331

>  <SCORE.INTRA.SOLV.lig_0>
-70.7393

>  <SCORE.INTRA.VDW>
0.348344

>  <SCORE.INTRA.VDW.0>
-3.23471

>  <SCORE.INTRA.norm>
-0.236213

>  <SCORE.RESTR>
0

>  <SCORE.RESTR.CAVITY>
0

>  <SCORE.RESTR.norm>
0

>  <SCORE.SYSTEM>
0

>  <SCORE.SYSTEM.CONST>
0

>  <SCORE.SYSTEM.DIHEDRAL>
0

>  <SCORE.SYSTEM.SOLV>
0

>  <SCORE.SYSTEM.norm>
0

>  <SCORE.heavy>
34

>  <SCORE.norm>
-0.211938

>  <RMSD>
8.129

$$$$
lig.pdb
 OpenBabel11021811503D
libRbt.so/2013.1/901 2013/11/27
 34 36  0  0  0  0  0  0  0  0999 V2000
    0.9594   12.1992   37.5506 C   0  0  2  0  0  0  0  0  0  0  0  0
    2.2285   12.7868   37.8574 O   0  0  0  0  0  0  0  0  0  0  0  0
    1.2007   10.9359   36.6194 C   0  0  2  0  0  0  0  0  0  0  0  0
    2.0430    9.9144   37.2843 N   0  0  0  0  0  0  0  0  0  0  0  0
    1.8678   11.3907   35.2969 C   0  0  1  0  0  0  0  0  0  0  0  0
    2.0870   10.2665   34.4416 O   0  0  0  0  0  0  0  0  0  0  0  0
    0.9607   12.4370   34.6252 C   0  0  2  0  0  0  0  0  0  0  0  0
    1.5627   12.8626   33.4017 O   0  0  0  0  0  0  0  0  0  0  0  0
    0.7445   13.6572   35.6003 C   0  0  2  0  0  0  0  0  0  0  0  0
    0.1401   13.2095   36.8732 O   0  0  0  0  0  0  0  0  0  0  0  0
   -0.1780   14.7316   34.9728 C   0  0  2  0  0  0  0  0  0  0  0  0
   -0.4627   15.7478   35.9361 O   0  0  0  0  0  0  0  0  0  0  0  0
   -1.4914   14.1236   34.5058 C   0  0  0  0  0  0  0  0  0  0  0  0
    0.6457   16.6097   38.9511 C   0  0  2  0  0  0  0  0  0  0  0  0
    0.5093   17.9289   39.5735 N   0  0  0  0  0  0  0  0  0  0  0  0
    0.9347   15.5915   40.0884 C   0  0  0  0  0  0  0  0  0  0  0  0
    1.0587   14.1812   39.4506 C   0  0  2  0  0  0  0  0  0  0  0  0
    1.3278   13.1807   40.4952 N   0  0  0  0  0  0  0  0  0  0  0  0
    2.2032   14.1443   38.4026 C   0  0  2  0  0  0  0  0  0  0  0  0
    1.9144   15.2066   37.2954 C   0  0  2  0  0  0  0  0  0  0  0  0
    2.9781   15.1796   36.3339 O   0  0  0  0  0  0  0  0  0  0  0  0
    1.8372   16.6281   37.9034 C   0  0  1  0  0  0  0  0  0  0  0  0
    1.5570   17.5471   36.8186 O   0  0  0  0  0  0  0  0  0  0  0  0
    1.0565   18.8495   37.2019 C   0  0  2  0  0  0  0  0  0  0  0  0
   -0.4395   18.9040   36.7160 C   0  0  2  0  0  0  0  0  0  0  0  0
   -1.1902   17.8813   37.3516 O   0  0  0  0  0  0  0  0  0  0  0  0
   -0.4755   18.7395   35.1494 C   0  0  1  0  0  0  0  0  0  0  0  0
   -1.8816   18.7750   34.6434 N   0  0  0  0  0  0  0  0  0  0  0  0
   -2.5144   17.4626   34.8958 C   0  0  0  0  0  0  0  0  0  0  0  0
    0.3578   19.8926   34.5118 C   0  0  2  0  0  0  0  0  0  0  0  0
   -0.2323   21.1392   34.8769 O   0  0  0  0  0  0  0  0  0  0  0  0
    0.3804   19.8004   32.9882 C   0  0  0  0  0  0  0  0  0  0  0  0
    1.8193   19.8322   35.0608 C   0  0  0  0  0  0  0  0  0  0  0  0
    1.8333   19.9147   36.5365 O   0  0  0  0  0  0  0  0  0  0  0  0
  1  3  1  0  0  0  0
  1  2  1  6  0  0  0
  3  5  1  0  0  0  0
  3  4  1  1  0  0  0
  5  6  1  6  0  0  0
  7  8  1  6  0  0  0
  7  5  1  0  0  0  0
  9 10  1  1  0  0  0
  9  7  1  0  0  0  0
 10  1  1  0  0  0  0
 11 13  1  1  0  0  0
 11  9  1  0  0  0  0
 12 11  1  0  0  0  0
 14 15  1  1  0  0  0
 16 14  1  0  0  0  0
 17 18  1  1  0  0  0
 17 16  1  0  0  0  0
 19  2  1  6  0  0  0
 19 20  1  0  0  0  0
 19 17  1  0  0  0  0
 20 21  1  6  0  0  0
 20 22  1  0  0  0  0
 22 23  1  6  0  0  0
 22 14  1  0  0  0  0
 24 23  1  6  0  0  0
 24 25  1  0  0  0  0
 25 27  1  0  0  0  0
 25 26  1  1  0  0  0
 27 28  1  6  0  0  0
 28 29  1  0  0  0  0
 30 31  1  1  0  0  0
 30 32  1  0  0  0  0
 30 27  1  0  0  0  0
 33 30  1  0  0  0  0
 34 33  1  0  0  0  0
 34 24  1  0  0  0  0
M  END
>  <CHROM.1>
164.44371468,173.89243121,43.07759721,46.20447025,-111.38381449,-78.09779705
0.74115294,15.65066888,36.44177223,-0.80417081,-1.29264381,0.60657123

>  <Name>
lig.pdb

>  <RI>
0

>  <Rbt.Current_Directory>
/home/itssahil/PROJECTS/Mol_Feturizer/New_Systems/rnas/4k32

>  <Rbt.Executable>
rbdock ($Id: //depot/dev/client3/rdock/2013.1/src/exe/rbdock.cxx#4 $)

>  <Rbt.Library>
libRbt.so (2013.1, Build901 2013/11/27)

>  <Rbt.Parameter_File>
/export/apps/rDock/src/rDock_2013.1_src/data/scripts/dock_solv.prm

>  <Rbt.Receptor>
prm/blind_docking_100.prm

>  <SCORE>
31.2317

>  <SCORE.INTER>
11.8075

>  <SCORE.INTER.CONST>
1

>  <SCORE.INTER.POLAR>
0

>  <SCORE.INTER.ROT>
6

>  <SCORE.INTER.SOLV>
24.2701

>  <SCORE.INTER.VDW>
-7.81841

>  <SCORE.INTER.norm>
0.347278

>  <SCORE.INTRA>
7.73164

>  <SCORE.INTRA.DIHEDRAL>
-7.39074

>  <SCORE.INTRA.DIHEDRAL.0>
18.0069

>  <SCORE.INTRA.POLAR>
0

>  <SCORE.INTRA.POLAR.0>
0

>  <SCORE.INTRA.REPUL>
0

>  <SCORE.INTRA.REPUL.0>
0

>  <SCORE.INTRA.SOLV>
3.80936

>  <SCORE.INTRA.SOLV.lig_0>
-70.7393

>  <SCORE.INTRA.VDW>
9.52233

>  <SCORE.INTRA.VDW.0>
-3.23471

>  <SCORE.INTRA.norm>
0.227401

>  <SCORE.RESTR>
11.6926

>  <SCORE.RESTR.CAVITY>
11.6926

>  <SCORE.RESTR.norm>
0.343901

>  <SCORE.SYSTEM>
0

>  <SCORE.SYSTEM.CONST>
0

>  <SCORE.SYSTEM.DIHEDRAL>
0

>  <SCORE.SYSTEM.SOLV>
0

>  <SCORE.SYSTEM.norm>
0

>  <SCORE.heavy>
34

>  <SCORE.norm>
0.918581

>  <RMSD>
8.148

$$$$
lig.pdb
 OpenBabel11021811503D
libRbt.so/2013.1/901 2013/11/27
 34 36  0  0  0  0  0  0  0  0999 V2000
    0.4748   14.9341   35.2665 C   0  0  2  0  0  0  0  0  0  0  0  0
   -0.8916   14.8618   35.6883 O   0  0  0  0  0  0  0  0  0  0  0  0
    1.0573   13.4590   35.1898 C   0  0  2  0  0  0  0  0  0  0  0  0
    0.3106   12.6215   34.2223 N   0  0  0  0  0  0  0  0  0  0  0  0
    1.0076   12.8118   36.5968 C   0  0  1  0  0  0  0  0  0  0  0  0
    1.5351   11.4840   36.5492 O   0  0  0  0  0  0  0  0  0  0  0  0
    1.8051   13.6965   37.5715 C   0  0  2  0  0  0  0  0  0  0  0  0
    1.7705   13.1089   38.8730 O   0  0  0  0  0  0  0  0  0  0  0  0
    1.1922   15.1492   37.5934 C   0  0  2  0  0  0  0  0  0  0  0  0
    1.2112   15.7460   36.2409 O   0  0  0  0  0  0  0  0  0  0  0  0
    1.9739   16.0831   38.5504 C   0  0  2  0  0  0  0  0  0  0  0  0
    2.4211   15.3449   39.6892 O   0  0  0  0  0  0  0  0  0  0  0  0
    1.1022   17.2335   39.0293 C   0  0  0  0  0  0  0  0  0  0  0  0
   -3.5592   18.1034   36.5203 C   0  0  2  0  0  0  0  0  0  0  0  0
   -4.2184   19.2170   37.2069 N   0  0  0  0  0  0  0  0  0  0  0  0
   -3.5573   16.8959   37.4978 C   0  0  0  0  0  0  0  0  0  0  0  0
   -2.8833   15.6963   36.7782 C   0  0  2  0  0  0  0  0  0  0  0  0
   -2.8644   14.5246   37.6679 N   0  0  0  0  0  0  0  0  0  0  0  0
   -1.4287   16.0441   36.3625 C   0  0  2  0  0  0  0  0  0  0  0  0
   -1.4523   17.2873   35.4182 C   0  0  2  0  0  0  0  0  0  0  0  0
   -0.1072   17.6146   35.0440 O   0  0  0  0  0  0  0  0  0  0  0  0
   -2.0749   18.5104   36.1342 C   0  0  1  0  0  0  0  0  0  0  0  0
   -2.0697   19.6112   35.1919 O   0  0  0  0  0  0  0  0  0  0  0  0
   -0.8300   20.3497   35.0837 C   0  0  2  0  0  0  0  0  0  0  0  0
   -1.2344   21.8468   34.8145 C   0  0  2  0  0  0  0  0  0  0  0  0
   -2.0081   22.3392   35.8972 O   0  0  0  0  0  0  0  0  0  0  0  0
   -2.0413   21.9243   33.4633 C   0  0  1  0  0  0  0  0  0  0  0  0
   -2.4558   23.3305   33.1717 N   0  0  0  0  0  0  0  0  0  0  0  0
   -3.5622   23.7014   34.0800 C   0  0  0  0  0  0  0  0  0  0  0  0
   -1.1381   21.3781   32.3159 C   0  0  2  0  0  0  0  0  0  0  0  0
    0.0292   22.1934   32.2251 O   0  0  0  0  0  0  0  0  0  0  0  0
   -1.8525   21.4111   30.9673 C   0  0  0  0  0  0  0  0  0  0  0  0
   -0.7184   19.9104   32.6492 C   0  0  0  0  0  0  0  0  0  0  0  0
   -0.0265   19.8419   33.9535 O   0  0  0  0  0  0  0  0  0  0  0  0
  1  3  1  0  0  0  0
  1  2  1  1  0  0  0
  3  5  1  0  0  0  0
  3  4  1  6  0  0  0
  5  6  1  6  0  0  0
  7  8  1  1  0  0  0
  7  5  1  0  0  0  0
  9 10  1  6  0  0  0
  9  7  1  0  0  0  0
 10  1  1  0  0  0  0
 11 13  1  1  0  0  0
 11  9  1  0  0  0  0
 12 11  1  0  0  0  0
 14 15  1  1  0  0  0
 16 14  1  0  0  0  0
 17 18  1  1  0  0  0
 17 16  1  0  0  0  0
 19  2  1  6  0  0  0
 19 20  1  0  0  0  0
 19 17  1  0  0  0  0
 20 21  1  1  0  0  0
 20 22  1  0  0  0  0
 22 23  1  6  0  0  0
 22 14  1  0  0  0  0
 24 23  1  6  0  0  0
 24 25  1  0  0  0  0
 25 27  1  0  0  0  0
 25 26  1  1  0  0  0
 27 28  1  6  0  0  0
 28 29  1  0  0  0  0
 30 31  1  6  0  0  0
 30 32  1  0  0  0  0
 30 27  1  0  0  0  0
 33 30  1  0  0  0  0
 34 33  1  0  0  0  0
 34 24  1  0  0  0  0
M  END
>  <CHROM.1>
154.48090023,-35.61427735,-177.26581545,161.06210481,-145.45154006,-73.82455849
-0.70735965,17.60645622,35.69728369,-1.10797433,0.80866751,-0.77148114

>  <Name>
lig.pdb

>  <RI>
0

>  <Rbt.Current_Directory>
/home/itssahil/PROJECTS/Mol_Feturizer/New_Systems/rnas/4k32

>  <Rbt.Executable>
rbdock ($Id: //depot/dev/client3/rdock/2013.1/src/exe/rbdock.cxx#4 $)

>  <Rbt.Library>
libRbt.so (2013.1, Build901 2013/11/27)

>  <Rbt.Parameter_File>
/export/apps/rDock/src/rDock_2013.1_src/data/scripts/dock_solv.prm

>  <Rbt.Receptor>
prm/blind_docking_100.prm

>  <SCORE>
20.0953

>  <SCORE.INTER>
8.67438

>  <SCORE.INTER.CONST>
1

>  <SCORE.INTER.POLAR>
0

>  <SCORE.INTER.ROT>
6

>  <SCORE.INTER.SOLV>
19.7139

>  <SCORE.INTER.VDW>
-8.38839

>  <SCORE.INTER.norm>
0.255129

>  <SCORE.INTRA>
-0.411683

>  <SCORE.INTRA.DIHEDRAL>
-7.00179

>  <SCORE.INTRA.DIHEDRAL.0>
18.0069

>  <SCORE.INTRA.POLAR>
0

>  <SCORE.INTRA.POLAR.0>
0

>  <SCORE.INTRA.REPUL>
0

>  <SCORE.INTRA.REPUL.0>
0

>  <SCORE.INTRA.SOLV>
-2.07157

>  <SCORE.INTRA.SOLV.lig_0>
-70.7393

>  <SCORE.INTRA.VDW>
4.125

>  <SCORE.INTRA.VDW.0>
-3.23471

>  <SCORE.INTRA.norm>
-0.0121083

>  <SCORE.RESTR>
11.8326

>  <SCORE.RESTR.CAVITY>
11.8326

>  <SCORE.RESTR.norm>
0.348018

>  <SCORE.SYSTEM>
0

>  <SCORE.SYSTEM.CONST>
0

>  <SCORE.SYSTEM.DIHEDRAL>
0

>  <SCORE.SYSTEM.SOLV>
0

>  <SCORE.SYSTEM.norm>
0

>  <SCORE.heavy>
34

>  <SCORE.norm>
0.591038

>  <RMSD>
8.199

$$$$
lig.pdb
 OpenBabel11021811503D
libRbt.so/2013.1/901 2013/11/27
 34 36  0  0  0  0  0  0  0  0999 V2000
    0.6022   13.6501   37.5530 C   0  0  2  0  0  0  0  0  0  0  0  0
    1.4319   14.8166   37.5838 O   0  0  0  0  0  0  0  0  0  0  0  0
    1.5275   12.3794   37.3284 C   0  0  2  0  0  0  0  0  0  0  0  0
    2.5201   12.2215   38.4168 N   0  0  0  0  0  0  0  0  0  0  0  0
    2.2540   12.5057   35.9656 C   0  0  1  0  0  0  0  0  0  0  0  0
    3.0874   11.3660   35.7422 O   0  0  0  0  0  0  0  0  0  0  0  0
    1.1955   12.6511   34.8578 C   0  0  2  0  0  0  0  0  0  0  0  0
    1.8522   12.7648   33.5943 O   0  0  0  0  0  0  0  0  0  0  0  0
    0.2992   13.9169   35.1421 C   0  0  2  0  0  0  0  0  0  0  0  0
   -0.3626   13.8046   36.4594 O   0  0  0  0  0  0  0  0  0  0  0  0
   -0.7943   14.0956   34.0597 C   0  0  2  0  0  0  0  0  0  0  0  0
   -1.4931   15.3231   34.2756 O   0  0  0  0  0  0  0  0  0  0  0  0
   -1.7970   12.9529   34.0974 C   0  0  0  0  0  0  0  0  0  0  0  0
   -1.7757   17.6428   37.3830 C   0  0  2  0  0  0  0  0  0  0  0  0
   -2.5609   18.8662   37.5645 N   0  0  0  0  0  0  0  0  0  0  0  0
   -1.2909   17.1938   38.7892 C   0  0  0  0  0  0  0  0  0  0  0  0
   -0.4758   15.8831   38.6204 C   0  0  2  0  0  0  0  0  0  0  0  0
    0.0002   15.4166   39.9322 N   0  0  0  0  0  0  0  0  0  0  0  0
    0.7431   16.1035   37.6849 C   0  0  2  0  0  0  0  0  0  0  0  0
    0.2346   16.5979   36.2939 C   0  0  2  0  0  0  0  0  0  0  0  0
    1.3622   16.8122   35.4341 O   0  0  0  0  0  0  0  0  0  0  0  0
   -0.5383   17.9319   36.4328 C   0  0  1  0  0  0  0  0  0  0  0  0
   -0.9828   18.3135   35.1075 O   0  0  0  0  0  0  0  0  0  0  0  0
   -0.0204   18.1433   34.0405 C   0  0  2  0  0  0  0  0  0  0  0  0
    0.9961   19.3376   34.1732 C   0  0  2  0  0  0  0  0  0  0  0  0
    1.6439   19.2812   35.4344 O   0  0  0  0  0  0  0  0  0  0  0  0
    0.2162   20.6957   33.9998 C   0  0  1  0  0  0  0  0  0  0  0  0
    1.1431   21.8612   34.1289 N   0  0  0  0  0  0  0  0  0  0  0  0
    0.4506   22.9449   34.8588 C   0  0  0  0  0  0  0  0  0  0  0  0
   -0.4648   20.6993   32.5974 C   0  0  2  0  0  0  0  0  0  0  0  0
    0.5474   20.5963   31.5972 O   0  0  0  0  0  0  0  0  0  0  0  0
   -1.2522   21.9841   32.3528 C   0  0  0  0  0  0  0  0  0  0  0  0
   -1.4236   19.4703   32.4906 C   0  0  0  0  0  0  0  0  0  0  0  0
   -0.6926   18.2077   32.7272 O   0  0  0  0  0  0  0  0  0  0  0  0
  1  3  1  0  0  0  0
  1  2  1  6  0  0  0
  3  5  1  0  0  0  0
  3  4  1  1  0  0  0
  5  6  1  6  0  0  0
  7  8  1  6  0  0  0
  7  5  1  0  0  0  0
  9 10  1  1  0  0  0
  9  7  1  0  0  0  0
 10  1  1  0  0  0  0
 11 13  1  1  0  0  0
 11  9  1  0  0  0  0
 12 11  1  0  0  0  0
 14 15  1  1  0  0  0
 16 14  1  0  0  0  0
 17 18  1  1  0  0  0
 17 16  1  0  0  0  0
 19  2  1  6  0  0  0
 19 20  1  0  0  0  0
 19 17  1  0  0  0  0
 20 21  1  6  0  0  0
 20 22  1  0  0  0  0
 22 23  1  6  0  0  0
 22 14  1  0  0  0  0
 24 23  1  1  0  0  0
 24 25  1  0  0  0  0
 25 27  1  0  0  0  0
 25 26  1  1  0  0  0
 27 28  1  6  0  0  0
 28 29  1  0  0  0  0
 30 31  1  6  0  0  0
 30 32  1  0  0  0  0
 30 27  1  0  0  0  0
 33 30  1  0  0  0  0
 34 33  1  0  0  0  0
 34 24  1  0  0  0  0
M  END
>  <CHROM.1>
175.64550480,-174.07128940,36.98329627,-158.75614540,-76.75441257,-141.70589489
0.19262245,16.66202788,35.45042545,0.81145055,-1.33518144,2.03001602

>  <Name>
lig.pdb

>  <RI>
0

>  <Rbt.Current_Directory>
/home/itssahil/PROJECTS/Mol_Feturizer/New_Systems/rnas/4k32

>  <Rbt.Executable>
rbdock ($Id: //depot/dev/client3/rdock/2013.1/src/exe/rbdock.cxx#4 $)

>  <Rbt.Library>
libRbt.so (2013.1, Build901 2013/11/27)

>  <Rbt.Parameter_File>
/export/apps/rDock/src/rDock_2013.1_src/data/scripts/dock_solv.prm

>  <Rbt.Receptor>
prm/blind_docking_100.prm

>  <SCORE>
14.6158

>  <SCORE.INTER>
0.27012

>  <SCORE.INTER.CONST>
1

>  <SCORE.INTER.POLAR>
0

>  <SCORE.INTER.ROT>
6

>  <SCORE.INTER.SOLV>
22.4907

>  <SCORE.INTER.VDW>
-14.9168

>  <SCORE.INTER.norm>
0.00794471

>  <SCORE.INTRA>
4.3287

>  <SCORE.INTRA.DIHEDRAL>
-11.2668

>  <SCORE.INTRA.DIHEDRAL.0>
18.0069

>  <SCORE.INTRA.POLAR>
0

>  <SCORE.INTRA.POLAR.0>
0

>  <SCORE.INTRA.REPUL>
0

>  <SCORE.INTRA.REPUL.0>
0

>  <SCORE.INTRA.SOLV>
-0.107585

>  <SCORE.INTRA.SOLV.lig_0>
-70.7393

>  <SCORE.INTRA.VDW>
10.0159

>  <SCORE.INTRA.VDW.0>
-3.23471

>  <SCORE.INTRA.norm>
0.127315

>  <SCORE.RESTR>
10.0169

>  <SCORE.RESTR.CAVITY>
10.0169

>  <SCORE.RESTR.norm>
0.294616

>  <SCORE.SYSTEM>
0

>  <SCORE.SYSTEM.CONST>
0

>  <SCORE.SYSTEM.DIHEDRAL>
0

>  <SCORE.SYSTEM.SOLV>
0

>  <SCORE.SYSTEM.norm>
0

>  <SCORE.heavy>
34

>  <SCORE.norm>
0.429875

>  <RMSD>
8.231

$$$$
lig.pdb
 OpenBabel11021811503D
libRbt.so/2013.1/901 2013/11/27
 34 36  0  0  0  0  0  0  0  0999 V2000
   -4.5866   15.4898   41.6173 C   0  0  2  0  0  0  0  0  0  0  0  0
   -5.2725   16.0367   40.4856 O   0  0  0  0  0  0  0  0  0  0  0  0
   -5.6035   14.5835   42.4333 C   0  0  2  0  0  0  0  0  0  0  0  0
   -6.1240   13.4645   41.6135 N   0  0  0  0  0  0  0  0  0  0  0  0
   -6.7783   15.4567   42.9414 C   0  0  1  0  0  0  0  0  0  0  0  0
   -7.7019   14.6584   43.6853 O   0  0  0  0  0  0  0  0  0  0  0  0
   -6.2049   16.5971   43.8012 C   0  0  2  0  0  0  0  0  0  0  0  0
   -7.2787   17.4086   44.2797 O   0  0  0  0  0  0  0  0  0  0  0  0
   -5.1927   17.4508   42.9449 C   0  0  2  0  0  0  0  0  0  0  0  0
   -4.0939   16.6034   42.4347 O   0  0  0  0  0  0  0  0  0  0  0  0
   -4.5753   18.6038   43.7748 C   0  0  2  0  0  0  0  0  0  0  0  0
   -5.6119   19.4561   44.2656 O   0  0  0  0  0  0  0  0  0  0  0  0
   -3.6201   19.4361   42.9336 C   0  0  0  0  0  0  0  0  0  0  0  0
   -3.7105   17.6914   36.8609 C   0  0  2  0  0  0  0  0  0  0  0  0
   -3.0514   18.6029   35.9223 N   0  0  0  0  0  0  0  0  0  0  0  0
   -4.7712   18.5186   37.6384 C   0  0  0  0  0  0  0  0  0  0  0  0
   -5.4986   17.5631   38.6227 C   0  0  2  0  0  0  0  0  0  0  0  0
   -6.5194   18.3050   39.3791 N   0  0  0  0  0  0  0  0  0  0  0  0
   -4.4945   16.9204   39.6169 C   0  0  2  0  0  0  0  0  0  0  0  0
   -3.4130   16.1335   38.8113 C   0  0  2  0  0  0  0  0  0  0  0  0
   -2.4795   15.5498   39.7302 O   0  0  0  0  0  0  0  0  0  0  0  0
   -2.6404   17.0784   37.8592 C   0  0  1  0  0  0  0  0  0  0  0  0
   -1.6700   16.2730   37.1454 O   0  0  0  0  0  0  0  0  0  0  0  0
   -0.7272   16.9965   36.3199 C   0  0  2  0  0  0  0  0  0  0  0  0
    0.1382   15.9062   35.5853 C   0  0  2  0  0  0  0  0  0  0  0  0
   -0.6973   15.0903   34.7793 O   0  0  0  0  0  0  0  0  0  0  0  0
    0.8984   15.0441   36.6631 C   0  0  1  0  0  0  0  0  0  0  0  0
    1.7275   13.9862   36.0091 N   0  0  0  0  0  0  0  0  0  0  0  0
    1.0005   12.7001   36.0740 C   0  0  0  0  0  0  0  0  0  0  0  0
    1.8015   15.9932   37.5082 C   0  0  2  0  0  0  0  0  0  0  0  0
    2.7460   16.6183   36.6406 O   0  0  0  0  0  0  0  0  0  0  0  0
    2.5699   15.2333   38.5864 C   0  0  0  0  0  0  0  0  0  0  0  0
    0.9095   17.0885   38.1759 C   0  0  0  0  0  0  0  0  0  0  0  0
    0.1468   17.8416   37.1581 O   0  0  0  0  0  0  0  0  0  0  0  0
  1  3  1  0  0  0  0
  1  2  1  6  0  0  0
  3  5  1  0  0  0  0
  3  4  1  6  0  0  0
  5  6  1  1  0  0  0
  7  8  1  6  0  0  0
  7  5  1  0  0  0  0
  9 10  1  1  0  0  0
  9  7  1  0  0  0  0
 10  1  1  0  0  0  0
 11 13  1  6  0  0  0
 11  9  1  0  0  0  0
 12 11  1  0  0  0  0
 14 15  1  6  0  0  0
 16 14  1  0  0  0  0
 17 18  1  1  0  0  0
 17 16  1  0  0  0  0
 19  2  1  1  0  0  0
 19 20  1  0  0  0  0
 19 17  1  0  0  0  0
 20 21  1  1  0  0  0
 20 22  1  0  0  0  0
 22 23  1  6  0  0  0
 22 14  1  0  0  0  0
 24 23  1  1  0  0  0
 24 25  1  0  0  0  0
 25 27  1  0  0  0  0
 25 26  1  1  0  0  0
 27 28  1  6  0  0  0
 28 29  1  0  0  0  0
 30 31  1  6  0  0  0
 30 32  1  0  0  0  0
 30 27  1  0  0  0  0
 33 30  1  0  0  0  0
 34 33  1  0  0  0  0
 34 24  1  0  0  0  0
M  END
>  <CHROM.1>
179.23672183,-58.74015771,-170.71212686,71.28453831,-176.15634722,-99.99872142
-2.94038981,16.48085750,39.49898218,-2.77981649,0.69277461,-0.70572405

>  <Name>
lig.pdb

>  <RI>
0

>  <Rbt.Current_Directory>
/home/itssahil/PROJECTS/Mol_Feturizer/New_Systems/rnas/4k32

>  <Rbt.Executable>
rbdock ($Id: //depot/dev/client3/rdock/2013.1/src/exe/rbdock.cxx#4 $)

>  <Rbt.Library>
libRbt.so (2013.1, Build901 2013/11/27)

>  <Rbt.Parameter_File>
/export/apps/rDock/src/rDock_2013.1_src/data/scripts/dock_solv.prm

>  <Rbt.Receptor>
prm/pocket_docking_8.prm

>  <SCORE>
-9.95677

>  <SCORE.INTER>
-1.5583

>  <SCORE.INTER.CONST>
1

>  <SCORE.INTER.POLAR>
0

>  <SCORE.INTER.ROT>
6

>  <SCORE.INTER.SOLV>
14.7402

>  <SCORE.INTER.VDW>
-13.5523

>  <SCORE.INTER.norm>
-0.0458323

>  <SCORE.INTRA>
-8.39847

>  <SCORE.INTRA.DIHEDRAL>
-15.9337

>  <SCORE.INTRA.DIHEDRAL.0>
18.0069

>  <SCORE.INTRA.POLAR>
0

>  <SCORE.INTRA.POLAR.0>
0

>  <SCORE.INTRA.REPUL>
0

>  <SCORE.INTRA.REPUL.0>
0

>  <SCORE.INTRA.SOLV>
-1.57084

>  <SCORE.INTRA.SOLV.lig_0>
-70.7393

>  <SCORE.INTRA.VDW>
0.353809

>  <SCORE.INTRA.VDW.0>
-3.23471

>  <SCORE.INTRA.norm>
-0.247014

>  <SCORE.RESTR>
0

>  <SCORE.RESTR.CAVITY>
0

>  <SCORE.RESTR.norm>
0

>  <SCORE.SYSTEM>
0

>  <SCORE.SYSTEM.CONST>
0

>  <SCORE.SYSTEM.DIHEDRAL>
0

>  <SCORE.SYSTEM.SOLV>
0

>  <SCORE.SYSTEM.norm>
0

>  <SCORE.heavy>
34

>  <SCORE.norm>
-0.292846

>  <RMSD>
8.240

$$$$
lig.pdb
 OpenBabel11021811503D
libRbt.so/2013.1/901 2013/11/27
 34 36  0  0  0  0  0  0  0  0999 V2000
    1.5775   13.1274   36.9175 C   0  0  2  0  0  0  0  0  0  0  0  0
    2.4987   14.1311   36.4767 O   0  0  0  0  0  0  0  0  0  0  0  0
    1.6623   11.8934   35.9219 C   0  0  2  0  0  0  0  0  0  0  0  0
    3.0208   11.3031   35.8908 N   0  0  0  0  0  0  0  0  0  0  0  0
    1.2526   12.3503   34.4992 C   0  0  1  0  0  0  0  0  0  0  0  0
    1.3161   11.2497   33.5891 O   0  0  0  0  0  0  0  0  0  0  0  0
   -0.1668   12.9418   34.5643 C   0  0  2  0  0  0  0  0  0  0  0  0
   -0.5589   13.3640   33.2573 O   0  0  0  0  0  0  0  0  0  0  0  0
   -0.1930   14.1497   35.5775 C   0  0  2  0  0  0  0  0  0  0  0  0
    0.2329   13.7130   36.9243 O   0  0  0  0  0  0  0  0  0  0  0  0
   -1.6084   14.7688   35.6897 C   0  0  2  0  0  0  0  0  0  0  0  0
   -2.5717   13.7375   35.9134 O   0  0  0  0  0  0  0  0  0  0  0  0
   -1.9836   15.5165   34.4197 C   0  0  0  0  0  0  0  0  0  0  0  0
    0.9384   17.2327   38.9790 C   0  0  2  0  0  0  0  0  0  0  0  0
    0.8470   18.4575   39.7776 N   0  0  0  0  0  0  0  0  0  0  0  0
    2.1742   16.4413   39.4893 C   0  0  0  0  0  0  0  0  0  0  0  0
    2.2740   15.1260   38.6701 C   0  0  2  0  0  0  0  0  0  0  0  0
    3.4311   14.3391   39.1248 N   0  0  0  0  0  0  0  0  0  0  0  0
    2.4252   15.4257   37.1546 C   0  0  2  0  0  0  0  0  0  0  0  0
    1.1957   16.2601   36.6752 C   0  0  2  0  0  0  0  0  0  0  0  0
    1.3422   16.5462   35.2776 O   0  0  0  0  0  0  0  0  0  0  0  0
    1.1066   17.6004   37.4447 C   0  0  1  0  0  0  0  0  0  0  0  0
   -0.0597   18.3048   36.9514 O   0  0  0  0  0  0  0  0  0  0  0  0
   -0.5026   17.9480   35.6209 C   0  0  2  0  0  0  0  0  0  0  0  0
    0.2369   18.9279   34.6359 C   0  0  2  0  0  0  0  0  0  0  0  0
    1.6408   18.7573   34.7500 O   0  0  0  0  0  0  0  0  0  0  0  0
   -0.1811   20.4084   34.9767 C   0  0  1  0  0  0  0  0  0  0  0  0
    0.5071   21.3772   34.0699 N   0  0  0  0  0  0  0  0  0  0  0  0
    1.8786   21.6104   34.5711 C   0  0  0  0  0  0  0  0  0  0  0  0
   -1.7279   20.5326   34.8266 C   0  0  2  0  0  0  0  0  0  0  0  0
   -2.0820   20.2327   33.4775 O   0  0  0  0  0  0  0  0  0  0  0  0
   -2.2175   21.9421   35.1492 C   0  0  0  0  0  0  0  0  0  0  0  0
   -2.4190   19.5078   35.7822 C   0  0  0  0  0  0  0  0  0  0  0  0
   -1.9629   18.1307   35.4992 O   0  0  0  0  0  0  0  0  0  0  0  0
  1  3  1  0  0  0  0
  1  2  1  6  0  0  0
  3  5  1  0  0  0  0
  3  4  1  6  0  0  0
  5  6  1  6  0  0  0
  7  8  1  6  0  0  0
  7  5  1  0  0  0  0
  9 10  1  1  0  0  0
  9  7  1  0  0  0  0
 10  1  1  0  0  0  0
 11 13  1  6  0  0  0
 11  9  1  0  0  0  0
 12 11  1  0  0  0  0
 14 15  1  1  0  0  0
 16 14  1  0  0  0  0
 17 18  1  1  0  0  0
 17 16  1  0  0  0  0
 19  2  1  6  0  0  0
 19 20  1  0  0  0  0
 19 17  1  0  0  0  0
 20 21  1  6  0  0  0
 20 22  1  0  0  0  0
 22 23  1  6  0  0  0
 22 14  1  0  0  0  0
 24 23  1  1  0  0  0
 24 25  1  0  0  0  0
 25 27  1  0  0  0  0
 25 26  1  1  0  0  0
 27 28  1  6  0  0  0
 28 29  1  0  0  0  0
 30 31  1  6  0  0  0
 30 32  1  0  0  0  0
 30 27  1  0  0  0  0
 33 30  1  0  0  0  0
 34 33  1  0  0  0  0
 34 24  1  0  0  0  0
M  END
>  <CHROM.1>
171.36407901,49.69772147,43.13373955,-140.00121221,-91.01854936,-80.91788769
0.36689171,16.39629254,35.91531566,-1.15406518,-0.87343228,0.21508871

>  <Name>
lig.pdb

>  <RI>
0

>  <Rbt.Current_Directory>
/home/itssahil/PROJECTS/Mol_Feturizer/New_Systems/rnas/4k32

>  <Rbt.Executable>
rbdock ($Id: //depot/dev/client3/rdock/2013.1/src/exe/rbdock.cxx#4 $)

>  <Rbt.Library>
libRbt.so (2013.1, Build901 2013/11/27)

>  <Rbt.Parameter_File>
/export/apps/rDock/src/rDock_2013.1_src/data/scripts/dock_solv.prm

>  <Rbt.Receptor>
prm/blind_docking_100.prm

>  <SCORE>
19.5675

>  <SCORE.INTER>
-0.788257

>  <SCORE.INTER.CONST>
1

>  <SCORE.INTER.POLAR>
0

>  <SCORE.INTER.ROT>
6

>  <SCORE.INTER.SOLV>
30.5104

>  <SCORE.INTER.VDW>
-18.2956

>  <SCORE.INTER.norm>
-0.023184

>  <SCORE.INTRA>
13.0984

>  <SCORE.INTRA.DIHEDRAL>
-6.45565

>  <SCORE.INTRA.DIHEDRAL.0>
18.0069

>  <SCORE.INTRA.POLAR>
0

>  <SCORE.INTRA.POLAR.0>
0

>  <SCORE.INTRA.REPUL>
0

>  <SCORE.INTRA.REPUL.0>
0

>  <SCORE.INTRA.SOLV>
-0.422984

>  <SCORE.INTRA.SOLV.lig_0>
-70.7393

>  <SCORE.INTRA.VDW>
16.5377

>  <SCORE.INTRA.VDW.0>
-3.23471

>  <SCORE.INTRA.norm>
0.385247

>  <SCORE.RESTR>
7.25737

>  <SCORE.RESTR.CAVITY>
7.25737

>  <SCORE.RESTR.norm>
0.213452

>  <SCORE.SYSTEM>
0

>  <SCORE.SYSTEM.CONST>
0

>  <SCORE.SYSTEM.DIHEDRAL>
0

>  <SCORE.SYSTEM.SOLV>
0

>  <SCORE.SYSTEM.norm>
0

>  <SCORE.heavy>
34

>  <SCORE.norm>
0.575515

>  <RMSD>
8.254

$$$$
lig.pdb
 OpenBabel11021811503D
libRbt.so/2013.1/901 2013/11/27
 34 36  0  0  0  0  0  0  0  0999 V2000
    1.2881   13.1633   36.7226 C   0  0  2  0  0  0  0  0  0  0  0  0
    2.3605   14.0665   36.4320 O   0  0  0  0  0  0  0  0  0  0  0  0
    1.6226   11.7563   36.0672 C   0  0  2  0  0  0  0  0  0  0  0  0
    2.8785   11.1829   36.6048 N   0  0  0  0  0  0  0  0  0  0  0  0
    1.7311   11.9169   34.5299 C   0  0  1  0  0  0  0  0  0  0  0  0
    2.0253   10.6575   33.9209 O   0  0  0  0  0  0  0  0  0  0  0  0
    0.4068   12.4978   34.0033 C   0  0  2  0  0  0  0  0  0  0  0  0
    0.4919   12.6476   32.5853 O   0  0  0  0  0  0  0  0  0  0  0  0
    0.1202   13.8832   34.6995 C   0  0  2  0  0  0  0  0  0  0  0  0
    0.0530   13.7273   36.1682 O   0  0  0  0  0  0  0  0  0  0  0  0
   -1.2143   14.5006   34.2123 C   0  0  2  0  0  0  0  0  0  0  0  0
   -1.1009   15.9242   34.1661 O   0  0  0  0  0  0  0  0  0  0  0  0
   -2.3608   14.1348   35.1420 C   0  0  0  0  0  0  0  0  0  0  0  0
    0.8864   17.2079   38.9370 C   0  0  2  0  0  0  0  0  0  0  0  0
    0.8264   18.4385   39.7296 N   0  0  0  0  0  0  0  0  0  0  0  0
    2.1155   16.3986   39.4352 C   0  0  0  0  0  0  0  0  0  0  0  0
    2.1821   15.0772   38.6224 C   0  0  2  0  0  0  0  0  0  0  0  0
    3.3319   14.2735   39.0661 N   0  0  0  0  0  0  0  0  0  0  0  0
    2.3179   15.3659   37.1033 C   0  0  2  0  0  0  0  0  0  0  0  0
    1.0963   16.2183   36.6356 C   0  0  2  0  0  0  0  0  0  0  0  0
    1.2287   16.4941   35.2345 O   0  0  0  0  0  0  0  0  0  0  0  0
    1.0401   17.5642   37.3984 C   0  0  1  0  0  0  0  0  0  0  0  0
   -0.1207   18.2854   36.9168 O   0  0  0  0  0  0  0  0  0  0  0  0
   -0.5718   17.9471   35.5842 C   0  0  2  0  0  0  0  0  0  0  0  0
    0.1947   18.9115   34.6046 C   0  0  2  0  0  0  0  0  0  0  0  0
    1.5934   18.7026   34.7190 O   0  0  0  0  0  0  0  0  0  0  0  0
   -0.1835   20.4011   34.9522 C   0  0  1  0  0  0  0  0  0  0  0  0
    0.5313   21.3553   34.0507 N   0  0  0  0  0  0  0  0  0  0  0  0
    1.8752   21.6233   34.6065 C   0  0  0  0  0  0  0  0  0  0  0  0
   -1.7263   20.5676   34.8015 C   0  0  2  0  0  0  0  0  0  0  0  0
   -2.0871   20.2839   33.4506 O   0  0  0  0  0  0  0  0  0  0  0  0
   -2.1781   21.9882   35.1305 C   0  0  0  0  0  0  0  0  0  0  0  0
   -2.4457   19.5572   35.7515 C   0  0  0  0  0  0  0  0  0  0  0  0
   -2.0265   18.1697   35.4622 O   0  0  0  0  0  0  0  0  0  0  0  0
  1  3  1  0  0  0  0
  1  2  1  6  0  0  0
  3  5  1  0  0  0  0
  3  4  1  1  0  0  0
  5  6  1  6  0  0  0
  7  8  1  6  0  0  0
  7  5  1  0  0  0  0
  9 10  1  1  0  0  0
  9  7  1  0  0  0  0
 10  1  1  0  0  0  0
 11 13  1  1  0  0  0
 11  9  1  0  0  0  0
 12 11  1  0  0  0  0
 14 15  1  1  0  0  0
 16 14  1  0  0  0  0
 17 18  1  1  0  0  0
 17 16  1  0  0  0  0
 19  2  1  6  0  0  0
 19 20  1  0  0  0  0
 19 17  1  0  0  0  0
 20 21  1  6  0  0  0
 20 22  1  0  0  0  0
 22 23  1  6  0  0  0
 22 14  1  0  0  0  0
 24 23  1  1  0  0  0
 24 25  1  0  0  0  0
 25 27  1  0  0  0  0
 25 26  1  1  0  0  0
 27 28  1  6  0  0  0
 28 29  1  0  0  0  0
 30 31  1  6  0  0  0
 30 32  1  0  0  0  0
 30 27  1  0  0  0  0
 33 30  1  0  0  0  0
 34 33  1  0  0  0  0
 34 24  1  0  0  0  0
M  END
>  <CHROM.1>
-172.14413981,-145.62233714,53.61200599,-141.15535832,-89.96805487,-84.87972685
0.45794002,16.32874744,35.76330657,-1.05071933,-0.98018943,0.37752413

>  <Name>
lig.pdb

>  <RI>
0

>  <Rbt.Current_Directory>
/home/itssahil/PROJECTS/Mol_Feturizer/New_Systems/rnas/4k32

>  <Rbt.Executable>
rbdock ($Id: //depot/dev/client3/rdock/2013.1/src/exe/rbdock.cxx#4 $)

>  <Rbt.Library>
libRbt.so (2013.1, Build901 2013/11/27)

>  <Rbt.Parameter_File>
/export/apps/rDock/src/rDock_2013.1_src/data/scripts/dock_solv.prm

>  <Rbt.Receptor>
prm/blind_docking_100.prm

>  <SCORE>
16.7894

>  <SCORE.INTER>
-3.84234

>  <SCORE.INTER.CONST>
1

>  <SCORE.INTER.POLAR>
0

>  <SCORE.INTER.ROT>
6

>  <SCORE.INTER.SOLV>
31.2169

>  <SCORE.INTER.VDW>
-20.5672

>  <SCORE.INTER.norm>
-0.11301

>  <SCORE.INTRA>
13.1299

>  <SCORE.INTRA.DIHEDRAL>
-4.94451

>  <SCORE.INTRA.DIHEDRAL.0>
18.0069

>  <SCORE.INTRA.POLAR>
0

>  <SCORE.INTRA.POLAR.0>
0

>  <SCORE.INTRA.REPUL>
0

>  <SCORE.INTRA.REPUL.0>
0

>  <SCORE.INTRA.SOLV>
0.37754

>  <SCORE.INTRA.SOLV.lig_0>
-70.7393

>  <SCORE.INTRA.VDW>
15.4134

>  <SCORE.INTRA.VDW.0>
-3.23471

>  <SCORE.INTRA.norm>
0.386173

>  <SCORE.RESTR>
7.50189

>  <SCORE.RESTR.CAVITY>
7.50189

>  <SCORE.RESTR.norm>
0.220644

>  <SCORE.SYSTEM>
0

>  <SCORE.SYSTEM.CONST>
0

>  <SCORE.SYSTEM.DIHEDRAL>
0

>  <SCORE.SYSTEM.SOLV>
0

>  <SCORE.SYSTEM.norm>
0

>  <SCORE.heavy>
34

>  <SCORE.norm>
0.493807

>  <RMSD>
8.259

$$$$
lig.pdb
 OpenBabel11021811503D
libRbt.so/2013.1/901 2013/11/27
 34 36  0  0  0  0  0  0  0  0999 V2000
   -4.8121   15.2743   41.3198 C   0  0  2  0  0  0  0  0  0  0  0  0
   -5.3859   15.8598   40.1459 O   0  0  0  0  0  0  0  0  0  0  0  0
   -5.8865   14.3076   41.9775 C   0  0  2  0  0  0  0  0  0  0  0  0
   -6.2847   13.2183   41.0557 N   0  0  0  0  0  0  0  0  0  0  0  0
   -7.1326   15.1294   42.3932 C   0  0  1  0  0  0  0  0  0  0  0  0
   -8.1094   14.2762   42.9944 O   0  0  0  0  0  0  0  0  0  0  0  0
   -6.6868   16.2395   43.3615 C   0  0  2  0  0  0  0  0  0  0  0  0
   -7.8277   17.0032   43.7560 O   0  0  0  0  0  0  0  0  0  0  0  0
   -5.6113   17.1553   42.6609 C   0  0  2  0  0  0  0  0  0  0  0  0
   -4.4412   16.3578   42.2359 O   0  0  0  0  0  0  0  0  0  0  0  0
   -5.1189   18.2804   43.6048 C   0  0  2  0  0  0  0  0  0  0  0  0
   -4.1873   19.1169   42.9163 O   0  0  0  0  0  0  0  0  0  0  0  0
   -4.4370   17.7052   44.8364 C   0  0  0  0  0  0  0  0  0  0  0  0
   -3.4732   17.5173   36.6947 C   0  0  2  0  0  0  0  0  0  0  0  0
   -2.7126   18.4229   35.8301 N   0  0  0  0  0  0  0  0  0  0  0  0
   -4.5774   18.3620   37.3884 C   0  0  0  0  0  0  0  0  0  0  0  0
   -5.4111   17.4136   38.2921 C   0  0  2  0  0  0  0  0  0  0  0  0
   -6.4758   18.1722   38.9671 N   0  0  0  0  0  0  0  0  0  0  0  0
   -4.5137   16.7337   39.3608 C   0  0  2  0  0  0  0  0  0  0  0  0
   -3.3854   15.9292   38.6414 C   0  0  2  0  0  0  0  0  0  0  0  0
   -2.5503   15.3110   39.6298 O   0  0  0  0  0  0  0  0  0  0  0  0
   -2.5097   16.8654   37.7737 C   0  0  1  0  0  0  0  0  0  0  0  0
   -1.5005   16.0442   37.1358 O   0  0  0  0  0  0  0  0  0  0  0  0
   -0.5006   16.7502   36.3643 C   0  0  2  0  0  0  0  0  0  0  0  0
    0.3923   15.6442   35.6884 C   0  0  2  0  0  0  0  0  0  0  0  0
   -0.4046   14.8345   34.8383 O   0  0  0  0  0  0  0  0  0  0  0  0
    1.0753   14.7788   36.8141 C   0  0  1  0  0  0  0  0  0  0  0  0
    1.9276   13.7062   36.2164 N   0  0  0  0  0  0  0  0  0  0  0  0
    1.1396   12.4575   36.1367 C   0  0  0  0  0  0  0  0  0  0  0  0
    1.9391   15.7211   37.7066 C   0  0  2  0  0  0  0  0  0  0  0  0
    2.9420   16.3285   36.8936 O   0  0  0  0  0  0  0  0  0  0  0  0
    2.6316   14.9578   38.8327 C   0  0  0  0  0  0  0  0  0  0  0  0
    1.0237   16.8320   38.3141 C   0  0  0  0  0  0  0  0  0  0  0  0
    0.3332   17.5888   37.2487 O   0  0  0  0  0  0  0  0  0  0  0  0
  1  3  1  0  0  0  0
  1  2  1  6  0  0  0
  3  5  1  0  0  0  0
  3  4  1  6  0  0  0
  5  6  1  1  0  0  0
  7  8  1  6  0  0  0
  7  5  1  0  0  0  0
  9 10  1  1  0  0  0
  9  7  1  0  0  0  0
 10  1  1  0  0  0  0
 11 13  1  1  0  0  0
 11  9  1  0  0  0  0
 12 11  1  0  0  0  0
 14 15  1  6  0  0  0
 16 14  1  0  0  0  0
 17 18  1  1  0  0  0
 17 16  1  0  0  0  0
 19  2  1  6  0  0  0
 19 20  1  0  0  0  0
 19 17  1  0  0  0  0
 20 21  1  1  0  0  0
 20 22  1  0  0  0  0
 22 23  1  6  0  0  0
 22 14  1  0  0  0  0
 24 23  1  1  0  0  0
 24 25  1  0  0  0  0
 25 27  1  0  0  0  0
 25 26  1  6  0  0  0
 27 28  1  6  0  0  0
 28 29  1  0  0  0  0
 30 31  1  6  0  0  0
 30 32  1  0  0  0  0
 30 27  1  0  0  0  0
 33 30  1  0  0  0  0
 34 33  1  0  0  0  0
 34 24  1  0  0  0  0
M  END
>  <CHROM.1>
-176.93255222,-177.73708475,-171.15860838,69.04858626,-175.47864066,-95.13811856
-2.94104646,16.18054807,39.37348186,-2.58214618,0.44336178,-1.11827345

>  <Name>
lig.pdb

>  <RI>
0

>  <Rbt.Current_Directory>
/home/itssahil/PROJECTS/Mol_Feturizer/New_Systems/rnas/4k32

>  <Rbt.Executable>
rbdock ($Id: //depot/dev/client3/rdock/2013.1/src/exe/rbdock.cxx#4 $)

>  <Rbt.Library>
libRbt.so (2013.1, Build901 2013/11/27)

>  <Rbt.Parameter_File>
/export/apps/rDock/src/rDock_2013.1_src/data/scripts/dock_solv.prm

>  <Rbt.Receptor>
prm/pocket_docking_7.prm

>  <SCORE>
-8.92868

>  <SCORE.INTER>
-1.00239

>  <SCORE.INTER.CONST>
1

>  <SCORE.INTER.POLAR>
0

>  <SCORE.INTER.ROT>
6

>  <SCORE.INTER.SOLV>
14.3264

>  <SCORE.INTER.VDW>
-13.0437

>  <SCORE.INTER.norm>
-0.0294821

>  <SCORE.INTRA>
-7.92631

>  <SCORE.INTRA.DIHEDRAL>
-16.2379

>  <SCORE.INTRA.DIHEDRAL.0>
18.0069

>  <SCORE.INTRA.POLAR>
0

>  <SCORE.INTRA.POLAR.0>
0

>  <SCORE.INTRA.REPUL>
0

>  <SCORE.INTRA.REPUL.0>
0

>  <SCORE.INTRA.SOLV>
-1.81611

>  <SCORE.INTRA.SOLV.lig_0>
-70.7393

>  <SCORE.INTRA.VDW>
1.10069

>  <SCORE.INTRA.VDW.0>
-3.23471

>  <SCORE.INTRA.norm>
-0.233127

>  <SCORE.RESTR>
2.51245e-05

>  <SCORE.RESTR.CAVITY>
2.51245e-05

>  <SCORE.RESTR.norm>
7.38957e-07

>  <SCORE.SYSTEM>
0

>  <SCORE.SYSTEM.CONST>
0

>  <SCORE.SYSTEM.DIHEDRAL>
0

>  <SCORE.SYSTEM.SOLV>
0

>  <SCORE.SYSTEM.norm>
0

>  <SCORE.heavy>
34

>  <SCORE.norm>
-0.262608

>  <RMSD>
8.283

$$$$
lig.pdb
 OpenBabel11021811503D
libRbt.so/2013.1/901 2013/11/27
 34 36  0  0  0  0  0  0  0  0999 V2000
   -5.6083   18.2386   40.5515 C   0  0  2  0  0  0  0  0  0  0  0  0
   -5.7722   16.9029   40.0621 O   0  0  0  0  0  0  0  0  0  0  0  0
   -5.7813   18.2218   42.1298 C   0  0  2  0  0  0  0  0  0  0  0  0
   -4.7746   17.3545   42.7850 N   0  0  0  0  0  0  0  0  0  0  0  0
   -7.2088   17.7360   42.4863 C   0  0  1  0  0  0  0  0  0  0  0  0
   -7.3860   17.7209   43.9047 O   0  0  0  0  0  0  0  0  0  0  0  0
   -8.2276   18.6668   41.8047 C   0  0  2  0  0  0  0  0  0  0  0  0
   -9.5492   18.2321   42.1285 O   0  0  0  0  0  0  0  0  0  0  0  0
   -7.9975   18.6548   40.2448 C   0  0  2  0  0  0  0  0  0  0  0  0
   -6.6222   19.0858   39.9150 O   0  0  0  0  0  0  0  0  0  0  0  0
   -8.9914   19.5922   39.5149 C   0  0  2  0  0  0  0  0  0  0  0  0
   -9.1403   20.8076   40.2513 O   0  0  0  0  0  0  0  0  0  0  0  0
  -10.3579   18.9404   39.3722 C   0  0  0  0  0  0  0  0  0  0  0  0
   -4.2991   15.0284   36.5078 C   0  0  2  0  0  0  0  0  0  0  0  0
   -4.1018   14.6925   35.0956 N   0  0  0  0  0  0  0  0  0  0  0  0
   -5.8246   14.9491   36.7913 C   0  0  0  0  0  0  0  0  0  0  0  0
   -6.0522   15.2787   38.2915 C   0  0  2  0  0  0  0  0  0  0  0  0
   -7.4875   15.2098   38.6076 N   0  0  0  0  0  0  0  0  0  0  0  0
   -5.5222   16.6966   38.6353 C   0  0  2  0  0  0  0  0  0  0  0  0
   -3.9990   16.7663   38.2993 C   0  0  2  0  0  0  0  0  0  0  0  0
   -3.5130   18.0800   38.6065 O   0  0  0  0  0  0  0  0  0  0  0  0
   -3.7539   16.4904   36.7959 C   0  0  1  0  0  0  0  0  0  0  0  0
   -2.3242   16.5621   36.5712 O   0  0  0  0  0  0  0  0  0  0  0  0
   -1.8950   16.5260   35.1898 C   0  0  2  0  0  0  0  0  0  0  0  0
   -0.4231   15.9686   35.2032 C   0  0  2  0  0  0  0  0  0  0  0  0
   -0.4073   14.6628   35.7582 O   0  0  0  0  0  0  0  0  0  0  0  0
    0.4876   16.9472   36.0372 C   0  0  1  0  0  0  0  0  0  0  0  0
    1.8966   16.4507   36.0854 N   0  0  0  0  0  0  0  0  0  0  0  0
    2.1117   15.7447   37.3668 C   0  0  0  0  0  0  0  0  0  0  0  0
    0.4338   18.3577   35.3752 C   0  0  2  0  0  0  0  0  0  0  0  0
    0.9329   18.2567   34.0424 O   0  0  0  0  0  0  0  0  0  0  0  0
    1.2876   19.3721   36.1318 C   0  0  0  0  0  0  0  0  0  0  0  0
   -1.0489   18.8486   35.3358 C   0  0  0  0  0  0  0  0  0  0  0  0
   -1.9055   17.8852   34.6128 O   0  0  0  0  0  0  0  0  0  0  0  0
  1  3  1  0  0  0  0
  1  2  1  6  0  0  0
  3  5  1  0  0  0  0
  3  4  1  1  0  0  0
  5  6  1  1  0  0  0
  7  8  1  6  0  0  0
  7  5  1  0  0  0  0
  9 10  1  1  0  0  0
  9  7  1  0  0  0  0
 10  1  1  0  0  0  0
 11 13  1  1  0  0  0
 11  9  1  0  0  0  0
 12 11  1  0  0  0  0
 14 15  1  6  0  0  0
 16 14  1  0  0  0  0
 17 18  1  6  0  0  0
 17 16  1  0  0  0  0
 19  2  1  1  0  0  0
 19 20  1  0  0  0  0
 19 17  1  0  0  0  0
 20 21  1  6  0  0  0
 20 22  1  0  0  0  0
 22 23  1  1  0  0  0
 22 14  1  0  0  0  0
 24 23  1  1  0  0  0
 24 25  1  0  0  0  0
 25 27  1  0  0  0  0
 25 26  1  1  0  0  0
 27 28  1  6  0  0  0
 28 29  1  0  0  0  0
 30 31  1  6  0  0  0
 30 32  1  0  0  0  0
 30 27  1  0  0  0  0
 33 30  1  0  0  0  0
 34 33  1  0  0  0  0
 34 24  1  0  0  0  0
M  END
>  <CHROM.1>
-174.42927331,41.40772856,-168.04527411,72.59076924,-154.94343457,-98.52771991
-4.20158093,17.34555051,38.25861041,-2.55332728,-0.20852287,-2.12185819

>  <Name>
lig.pdb

>  <RI>
0

>  <Rbt.Current_Directory>
/home/itssahil/PROJECTS/Mol_Feturizer/New_Systems/rnas/4k32

>  <Rbt.Executable>
rbdock ($Id: //depot/dev/client3/rdock/2013.1/src/exe/rbdock.cxx#4 $)

>  <Rbt.Library>
libRbt.so (2013.1, Build901 2013/11/27)

>  <Rbt.Parameter_File>
/export/apps/rDock/src/rDock_2013.1_src/data/scripts/dock_solv.prm

>  <Rbt.Receptor>
prm/pocket_docking_7.prm

>  <SCORE>
-10.9338

>  <SCORE.INTER>
-5.0268

>  <SCORE.INTER.CONST>
1

>  <SCORE.INTER.POLAR>
0

>  <SCORE.INTER.ROT>
6

>  <SCORE.INTER.SOLV>
18.7934

>  <SCORE.INTER.VDW>
-17.2157

>  <SCORE.INTER.norm>
-0.147847

>  <SCORE.INTRA>
-5.90696

>  <SCORE.INTRA.DIHEDRAL>
-11.6697

>  <SCORE.INTRA.DIHEDRAL.0>
18.0069

>  <SCORE.INTRA.POLAR>
0

>  <SCORE.INTRA.POLAR.0>
0

>  <SCORE.INTRA.REPUL>
0

>  <SCORE.INTRA.REPUL.0>
0

>  <SCORE.INTRA.SOLV>
-1.06023

>  <SCORE.INTRA.SOLV.lig_0>
-70.7393

>  <SCORE.INTRA.VDW>
0.458009

>  <SCORE.INTRA.VDW.0>
-3.23471

>  <SCORE.INTRA.norm>
-0.173734

>  <SCORE.RESTR>
0

>  <SCORE.RESTR.CAVITY>
0

>  <SCORE.RESTR.norm>
0

>  <SCORE.SYSTEM>
0

>  <SCORE.SYSTEM.CONST>
0

>  <SCORE.SYSTEM.DIHEDRAL>
0

>  <SCORE.SYSTEM.SOLV>
0

>  <SCORE.SYSTEM.norm>
0

>  <SCORE.heavy>
34

>  <SCORE.norm>
-0.321581

>  <RMSD>
8.284

$$$$
lig.pdb
 OpenBabel11021811503D
libRbt.so/2013.1/901 2013/11/27
 34 36  0  0  0  0  0  0  0  0999 V2000
   -6.6845   15.6088   39.8769 C   0  0  2  0  0  0  0  0  0  0  0  0
   -7.2897   15.0669   38.6978 O   0  0  0  0  0  0  0  0  0  0  0  0
   -7.5995   15.2492   41.1238 C   0  0  2  0  0  0  0  0  0  0  0  0
   -7.7410   13.7848   41.2989 N   0  0  0  0  0  0  0  0  0  0  0  0
   -8.9955   15.8965   40.9420 C   0  0  1  0  0  0  0  0  0  0  0  0
   -9.8321   15.5892   42.0596 O   0  0  0  0  0  0  0  0  0  0  0  0
   -8.8135   17.4161   40.7799 C   0  0  2  0  0  0  0  0  0  0  0  0
  -10.0944   18.0265   40.6151 O   0  0  0  0  0  0  0  0  0  0  0  0
   -7.8858   17.7109   39.5394 C   0  0  2  0  0  0  0  0  0  0  0  0
   -6.5683   17.0606   39.7045 O   0  0  0  0  0  0  0  0  0  0  0  0
   -7.6595   19.2308   39.3453 C   0  0  2  0  0  0  0  0  0  0  0  0
   -8.9164   19.8908   39.1837 O   0  0  0  0  0  0  0  0  0  0  0  0
   -6.8047   19.5070   38.1182 C   0  0  0  0  0  0  0  0  0  0  0  0
   -3.6077   14.1731   36.7075 C   0  0  2  0  0  0  0  0  0  0  0  0
   -2.6528   13.7169   35.6945 N   0  0  0  0  0  0  0  0  0  0  0  0
   -4.5919   13.0008   36.9739 C   0  0  0  0  0  0  0  0  0  0  0  0
   -5.5987   13.4572   38.0643 C   0  0  2  0  0  0  0  0  0  0  0  0
   -6.5499   12.3726   38.3536 N   0  0  0  0  0  0  0  0  0  0  0  0
   -6.3841   14.7145   37.6038 C   0  0  2  0  0  0  0  0  0  0  0  0
   -5.3722   15.8635   37.2982 C   0  0  2  0  0  0  0  0  0  0  0  0
   -6.0980   17.0208   36.8619 O   0  0  0  0  0  0  0  0  0  0  0  0
   -4.3897   15.4476   36.1766 C   0  0  1  0  0  0  0  0  0  0  0  0
   -3.4832   16.5578   35.9630 O   0  0  0  0  0  0  0  0  0  0  0  0
   -2.6599   16.9328   37.0923 C   0  0  2  0  0  0  0  0  0  0  0  0
   -2.5326   18.5008   37.0397 C   0  0  2  0  0  0  0  0  0  0  0  0
   -3.8176   19.0926   37.1489 O   0  0  0  0  0  0  0  0  0  0  0  0
   -1.8347   18.9129   35.6885 C   0  0  1  0  0  0  0  0  0  0  0  0
   -1.7016   20.3985   35.5905 N   0  0  0  0  0  0  0  0  0  0  0  0
   -2.2033   20.8379   34.2707 C   0  0  0  0  0  0  0  0  0  0  0  0
   -0.4297   18.2394   35.6321 C   0  0  2  0  0  0  0  0  0  0  0  0
    0.3460   18.7065   36.7346 O   0  0  0  0  0  0  0  0  0  0  0  0
    0.3126   18.5833   34.3432 C   0  0  0  0  0  0  0  0  0  0  0  0
   -0.6000   16.6900   35.7396 C   0  0  0  0  0  0  0  0  0  0  0  0
   -1.3203   16.3222   36.9767 O   0  0  0  0  0  0  0  0  0  0  0  0
  1  3  1  0  0  0  0
  1  2  1  6  0  0  0
  3  5  1  0  0  0  0
  3  4  1  6  0  0  0
  5  6  1  1  0  0  0
  7  8  1  6  0  0  0
  7  5  1  0  0  0  0
  9 10  1  1  0  0  0
  9  7  1  0  0  0  0
 10  1  1  0  0  0  0
 11 13  1  6  0  0  0
 11  9  1  0  0  0  0
 12 11  1  0  0  0  0
 14 15  1  6  0  0  0
 16 14  1  0  0  0  0
 17 18  1  6  0  0  0
 17 16  1  0  0  0  0
 19  2  1  1  0  0  0
 19 20  1  0  0  0  0
 19 17  1  0  0  0  0
 20 21  1  6  0  0  0
 20 22  1  0  0  0  0
 22 23  1  1  0  0  0
 22 14  1  0  0  0  0
 24 23  1  6  0  0  0
 24 25  1  0  0  0  0
 25 27  1  0  0  0  0
 25 26  1  6  0  0  0
 27 28  1  1  0  0  0
 28 29  1  0  0  0  0
 30 31  1  1  0  0  0
 30 32  1  0  0  0  0
 30 27  1  0  0  0  0
 33 30  1  0  0  0  0
 34 33  1  0  0  0  0
 34 24  1  0  0  0  0
M  END
>  <CHROM.1>
-151.73458120,-57.74524731,71.01666699,-54.27937801,-143.82636200,-130.79028581
-5.01552292,16.79951884,37.86174211,-2.89272254,0.56622269,-0.05118617

>  <Name>
lig.pdb

>  <RI>
0

>  <Rbt.Current_Directory>
/home/itssahil/PROJECTS/Mol_Feturizer/New_Systems/rnas/4k32

>  <Rbt.Executable>
rbdock ($Id: //depot/dev/client3/rdock/2013.1/src/exe/rbdock.cxx#4 $)

>  <Rbt.Library>
libRbt.so (2013.1, Build901 2013/11/27)

>  <Rbt.Parameter_File>
/export/apps/rDock/src/rDock_2013.1_src/data/scripts/dock_solv.prm

>  <Rbt.Receptor>
prm/pocket_docking_6.prm

>  <SCORE>
-7.79621

>  <SCORE.INTER>
-5.83072

>  <SCORE.INTER.CONST>
1

>  <SCORE.INTER.POLAR>
0

>  <SCORE.INTER.ROT>
6

>  <SCORE.INTER.SOLV>
19.7927

>  <SCORE.INTER.VDW>
-18.0847

>  <SCORE.INTER.norm>
-0.171492

>  <SCORE.INTRA>
-1.96549

>  <SCORE.INTRA.DIHEDRAL>
-8.05877

>  <SCORE.INTRA.DIHEDRAL.0>
18.0069

>  <SCORE.INTRA.POLAR>
0

>  <SCORE.INTRA.POLAR.0>
0

>  <SCORE.INTRA.REPUL>
0

>  <SCORE.INTRA.REPUL.0>
0

>  <SCORE.INTRA.SOLV>
1.62789

>  <SCORE.INTRA.SOLV.lig_0>
-70.7393

>  <SCORE.INTRA.VDW>
1.24995

>  <SCORE.INTRA.VDW.0>
-3.23471

>  <SCORE.INTRA.norm>
-0.0578086

>  <SCORE.RESTR>
0

>  <SCORE.RESTR.CAVITY>
0

>  <SCORE.RESTR.norm>
0

>  <SCORE.SYSTEM>
0

>  <SCORE.SYSTEM.CONST>
0

>  <SCORE.SYSTEM.DIHEDRAL>
0

>  <SCORE.SYSTEM.SOLV>
0

>  <SCORE.SYSTEM.norm>
0

>  <SCORE.heavy>
34

>  <SCORE.norm>
-0.2293

>  <RMSD>
8.331

$$$$
lig.pdb
 OpenBabel11021811503D
libRbt.so/2013.1/901 2013/11/27
 34 36  0  0  0  0  0  0  0  0999 V2000
   -3.4375   10.9730   34.8144 C   0  0  2  0  0  0  0  0  0  0  0  0
   -4.8316   10.9694   35.1413 O   0  0  0  0  0  0  0  0  0  0  0  0
   -3.2273   10.1167   33.4939 C   0  0  2  0  0  0  0  0  0  0  0  0
   -3.9802   10.6779   32.3479 N   0  0  0  0  0  0  0  0  0  0  0  0
   -3.6711    8.6547   33.7520 C   0  0  1  0  0  0  0  0  0  0  0  0
   -3.4825    7.8657   32.5749 O   0  0  0  0  0  0  0  0  0  0  0  0
   -2.8595    8.0980   34.9352 C   0  0  2  0  0  0  0  0  0  0  0  0
   -3.2563    6.7481   35.1817 O   0  0  0  0  0  0  0  0  0  0  0  0
   -3.0948    8.9956   36.2101 C   0  0  2  0  0  0  0  0  0  0  0  0
   -2.7020   10.3959   35.9444 O   0  0  0  0  0  0  0  0  0  0  0  0
   -2.2834    8.4829   37.4257 C   0  0  2  0  0  0  0  0  0  0  0  0
   -2.6798    7.1475   37.7441 O   0  0  0  0  0  0  0  0  0  0  0  0
   -2.5091    9.3606   38.6469 C   0  0  0  0  0  0  0  0  0  0  0  0
   -6.9919   13.6482   37.6856 C   0  0  2  0  0  0  0  0  0  0  0  0
   -7.5077   14.3078   38.8877 N   0  0  0  0  0  0  0  0  0  0  0  0
   -7.2501   12.1249   37.8494 C   0  0  0  0  0  0  0  0  0  0  0  0
   -6.7314   11.4098   36.5725 C   0  0  2  0  0  0  0  0  0  0  0  0
   -6.9612    9.9606   36.6814 N   0  0  0  0  0  0  0  0  0  0  0  0
   -5.2152   11.6713   36.3665 C   0  0  2  0  0  0  0  0  0  0  0  0
   -4.9749   13.2097   36.2507 C   0  0  2  0  0  0  0  0  0  0  0  0
   -3.5726   13.4508   36.0719 O   0  0  0  0  0  0  0  0  0  0  0  0
   -5.4390   13.9374   37.5358 C   0  0  1  0  0  0  0  0  0  0  0  0
   -5.1933   15.3525   37.3433 O   0  0  0  0  0  0  0  0  0  0  0  0
   -5.3106   16.1842   38.5215 C   0  0  2  0  0  0  0  0  0  0  0  0
   -4.8269   17.6197   38.0940 C   0  0  2  0  0  0  0  0  0  0  0  0
   -5.6551   18.1177   37.0550 O   0  0  0  0  0  0  0  0  0  0  0  0
   -3.3245   17.5358   37.6266 C   0  0  1  0  0  0  0  0  0  0  0  0
   -2.8247   18.8785   37.2005 N   0  0  0  0  0  0  0  0  0  0  0  0
   -2.5917   18.8611   35.7404 C   0  0  0  0  0  0  0  0  0  0  0  0
   -2.4682   16.9907   38.8100 C   0  0  2  0  0  0  0  0  0  0  0  0
   -2.5791   17.8940   39.9088 O   0  0  0  0  0  0  0  0  0  0  0  0
   -0.9934   16.8706   38.4345 C   0  0  0  0  0  0  0  0  0  0  0  0
   -3.0150   15.5903   39.2352 C   0  0  0  0  0  0  0  0  0  0  0  0
   -4.4447   15.6702   39.6016 O   0  0  0  0  0  0  0  0  0  0  0  0
  1  3  1  0  0  0  0
  1  2  1  1  0  0  0
  3  5  1  0  0  0  0
  3  4  1  6  0  0  0
  5  6  1  6  0  0  0
  7  8  1  1  0  0  0
  7  5  1  0  0  0  0
  9 10  1  6  0  0  0
  9  7  1  0  0  0  0
 10  1  1  0  0  0  0
 11 13  1  1  0  0  0
 11  9  1  0  0  0  0
 12 11  1  0  0  0  0
 14 15  1  1  0  0  0
 16 14  1  0  0  0  0
 17 18  1  1  0  0  0
 17 16  1  0  0  0  0
 19  2  1  6  0  0  0
 19 20  1  0  0  0  0
 19 17  1  0  0  0  0
 20 21  1  1  0  0  0
 20 22  1  0  0  0  0
 22 23  1  6  0  0  0
 22 14  1  0  0  0  0
 24 23  1  6  0  0  0
 24 25  1  0  0  0  0
 25 27  1  0  0  0  0
 25 26  1  6  0  0  0
 27 28  1  1  0  0  0
 28 29  1  0  0  0  0
 30 31  1  1  0  0  0
 30 32  1  0  0  0  0
 30 27  1  0  0  0  0
 33 30  1  0  0  0  0
 34 33  1  0  0  0  0
 34 24  1  0  0  0  0
M  END
>  <CHROM.1>
177.76393363,-60.17540795,-174.62924940,75.64029970,173.09399669,-111.81615252
-4.08883580,12.87113357,36.75929965,-1.53878100,0.35990753,0.31655099

>  <Name>
lig.pdb

>  <RI>
0

>  <Rbt.Current_Directory>
/home/itssahil/PROJECTS/Mol_Feturizer/New_Systems/rnas/4k32

>  <Rbt.Executable>
rbdock ($Id: //depot/dev/client3/rdock/2013.1/src/exe/rbdock.cxx#4 $)

>  <Rbt.Library>
libRbt.so (2013.1, Build901 2013/11/27)

>  <Rbt.Parameter_File>
/export/apps/rDock/src/rDock_2013.1_src/data/scripts/dock_solv.prm

>  <Rbt.Receptor>
prm/pocket_docking_7.prm

>  <SCORE>
-8.39745

>  <SCORE.INTER>
-0.225918

>  <SCORE.INTER.CONST>
1

>  <SCORE.INTER.POLAR>
0

>  <SCORE.INTER.ROT>
6

>  <SCORE.INTER.SOLV>
18.0752

>  <SCORE.INTER.VDW>
-13.7757

>  <SCORE.INTER.norm>
-0.00664465

>  <SCORE.INTRA>
-8.17153

>  <SCORE.INTRA.DIHEDRAL>
-15.2663

>  <SCORE.INTRA.DIHEDRAL.0>
18.0069

>  <SCORE.INTRA.POLAR>
0

>  <SCORE.INTRA.POLAR.0>
0

>  <SCORE.INTRA.REPUL>
0

>  <SCORE.INTRA.REPUL.0>
0

>  <SCORE.INTRA.SOLV>
-1.77467

>  <SCORE.INTRA.SOLV.lig_0>
-70.7393

>  <SCORE.INTRA.VDW>
0.348943

>  <SCORE.INTRA.VDW.0>
-3.23471

>  <SCORE.INTRA.norm>
-0.240339

>  <SCORE.RESTR>
0

>  <SCORE.RESTR.CAVITY>
0

>  <SCORE.RESTR.norm>
0

>  <SCORE.SYSTEM>
0

>  <SCORE.SYSTEM.CONST>
0

>  <SCORE.SYSTEM.DIHEDRAL>
0

>  <SCORE.SYSTEM.SOLV>
0

>  <SCORE.SYSTEM.norm>
0

>  <SCORE.heavy>
34

>  <SCORE.norm>
-0.246984

>  <RMSD>
8.363

$$$$
lig.pdb
 OpenBabel11021811503D
libRbt.so/2013.1/901 2013/11/27
 34 36  0  0  0  0  0  0  0  0999 V2000
   -6.3052   13.8566   38.3642 C   0  0  2  0  0  0  0  0  0  0  0  0
   -5.0092   14.1344   38.9060 O   0  0  0  0  0  0  0  0  0  0  0  0
   -6.9390   12.6441   39.1700 C   0  0  2  0  0  0  0  0  0  0  0  0
   -7.0892   12.9584   40.6100 N   0  0  0  0  0  0  0  0  0  0  0  0
   -6.0495   11.3876   38.9939 C   0  0  1  0  0  0  0  0  0  0  0  0
   -6.6086   10.2823   39.7075 O   0  0  0  0  0  0  0  0  0  0  0  0
   -5.9281   11.0800   37.4908 C   0  0  2  0  0  0  0  0  0  0  0  0
   -5.1129    9.9205   37.3142 O   0  0  0  0  0  0  0  0  0  0  0  0
   -5.3093   12.3224   36.7425 C   0  0  2  0  0  0  0  0  0  0  0  0
   -6.1451   13.5251   36.9445 O   0  0  0  0  0  0  0  0  0  0  0  0
   -5.1826   12.0657   35.2202 C   0  0  2  0  0  0  0  0  0  0  0  0
   -6.3934   11.4922   34.7235 O   0  0  0  0  0  0  0  0  0  0  0  0
   -4.0350   11.1153   34.9167 C   0  0  0  0  0  0  0  0  0  0  0  0
   -4.3735   18.1542   37.5817 C   0  0  2  0  0  0  0  0  0  0  0  0
   -4.1102   19.5952   37.5970 N   0  0  0  0  0  0  0  0  0  0  0  0
   -5.5496   17.8904   38.5620 C   0  0  0  0  0  0  0  0  0  0  0  0
   -5.8602   16.3692   38.5414 C   0  0  2  0  0  0  0  0  0  0  0  0
   -6.9754   16.0730   39.4544 N   0  0  0  0  0  0  0  0  0  0  0  0
   -4.6179   15.5429   38.9695 C   0  0  2  0  0  0  0  0  0  0  0  0
   -3.4367   15.8589   37.9986 C   0  0  2  0  0  0  0  0  0  0  0  0
   -2.2862   15.1037   38.4019 O   0  0  0  0  0  0  0  0  0  0  0  0
   -3.0767   17.3639   38.0415 C   0  0  1  0  0  0  0  0  0  0  0  0
   -1.9865   17.5739   37.1103 O   0  0  0  0  0  0  0  0  0  0  0  0
   -2.1963   17.0844   35.7649 C   0  0  2  0  0  0  0  0  0  0  0  0
   -0.7943   17.1481   35.0523 C   0  0  2  0  0  0  0  0  0  0  0  0
    0.1329   16.3216   35.7382 O   0  0  0  0  0  0  0  0  0  0  0  0
   -0.3021   18.6447   35.0233 C   0  0  1  0  0  0  0  0  0  0  0  0
    1.0344   18.7519   34.3626 N   0  0  0  0  0  0  0  0  0  0  0  0
    1.9388   19.5304   35.2358 C   0  0  0  0  0  0  0  0  0  0  0  0
   -1.3559   19.4970   34.2529 C   0  0  2  0  0  0  0  0  0  0  0  0
   -1.4596   19.0001   32.9195 O   0  0  0  0  0  0  0  0  0  0  0  0
   -0.9561   20.9688   34.1868 C   0  0  0  0  0  0  0  0  0  0  0  0
   -2.7411   19.3631   34.9632 C   0  0  0  0  0  0  0  0  0  0  0  0
   -3.1567   17.9472   35.0481 O   0  0  0  0  0  0  0  0  0  0  0  0
  1  3  1  0  0  0  0
  1  2  1  1  0  0  0
  3  5  1  0  0  0  0
  3  4  1  1  0  0  0
  5  6  1  1  0  0  0
  7  8  1  1  0  0  0
  7  5  1  0  0  0  0
  9 10  1  6  0  0  0
  9  7  1  0  0  0  0
 10  1  1  0  0  0  0
 11 13  1  1  0  0  0
 11  9  1  0  0  0  0
 12 11  1  0  0  0  0
 14 15  1  1  0  0  0
 16 14  1  0  0  0  0
 17 18  1  1  0  0  0
 17 16  1  0  0  0  0
 19  2  1  6  0  0  0
 19 20  1  0  0  0  0
 19 17  1  0  0  0  0
 20 21  1  1  0  0  0
 20 22  1  0  0  0  0
 22 23  1  6  0  0  0
 22 14  1  0  0  0  0
 24 23  1  1  0  0  0
 24 25  1  0  0  0  0
 25 27  1  0  0  0  0
 25 26  1  1  0  0  0
 27 28  1  6  0  0  0
 28 29  1  0  0  0  0
 30 31  1  6  0  0  0
 30 32  1  0  0  0  0
 30 27  1  0  0  0  0
 33 30  1  0  0  0  0
 34 33  1  0  0  0  0
 34 24  1  0  0  0  0
M  END
>  <CHROM.1>
-143.04078631,45.92838644,6.14442219,-63.37619399,-168.24081394,-129.72058418
-3.74989490,15.57327890,36.85539144,2.51223203,-0.79641069,-2.78236386

>  <Name>
lig.pdb

>  <RI>
0

>  <Rbt.Current_Directory>
/home/itssahil/PROJECTS/Mol_Feturizer/New_Systems/rnas/4k32

>  <Rbt.Executable>
rbdock ($Id: //depot/dev/client3/rdock/2013.1/src/exe/rbdock.cxx#4 $)

>  <Rbt.Library>
libRbt.so (2013.1, Build901 2013/11/27)

>  <Rbt.Parameter_File>
/export/apps/rDock/src/rDock_2013.1_src/data/scripts/dock_solv.prm

>  <Rbt.Receptor>
prm/pocket_docking_2.prm

>  <SCORE>
1.60678

>  <SCORE.INTER>
-6.98249

>  <SCORE.INTER.CONST>
1

>  <SCORE.INTER.POLAR>
0

>  <SCORE.INTER.ROT>
6

>  <SCORE.INTER.SOLV>
22.6777

>  <SCORE.INTER.VDW>
-19.8142

>  <SCORE.INTER.norm>
-0.205367

>  <SCORE.INTRA>
7.19461

>  <SCORE.INTRA.DIHEDRAL>
-3.52698

>  <SCORE.INTRA.DIHEDRAL.0>
18.0069

>  <SCORE.INTRA.POLAR>
0

>  <SCORE.INTRA.POLAR.0>
0

>  <SCORE.INTRA.REPUL>
0

>  <SCORE.INTRA.REPUL.0>
0

>  <SCORE.INTRA.SOLV>
2.57836

>  <SCORE.INTRA.SOLV.lig_0>
-70.7393

>  <SCORE.INTRA.VDW>
7.66893

>  <SCORE.INTRA.VDW.0>
-3.23471

>  <SCORE.INTRA.norm>
0.211606

>  <SCORE.RESTR>
1.39465

>  <SCORE.RESTR.CAVITY>
1.39465

>  <SCORE.RESTR.norm>
0.0410192

>  <SCORE.SYSTEM>
0

>  <SCORE.SYSTEM.CONST>
0

>  <SCORE.SYSTEM.DIHEDRAL>
0

>  <SCORE.SYSTEM.SOLV>
0

>  <SCORE.SYSTEM.norm>
0

>  <SCORE.heavy>
34

>  <SCORE.norm>
0.0472582

>  <RMSD>
8.382

$$$$
lig.pdb
 OpenBabel11021811503D
libRbt.so/2013.1/901 2013/11/27
 34 36  0  0  0  0  0  0  0  0999 V2000
   -4.2330   19.1939   40.9981 C   0  0  2  0  0  0  0  0  0  0  0  0
   -3.9035   17.8486   41.3613 O   0  0  0  0  0  0  0  0  0  0  0  0
   -4.1867   20.0945   42.3050 C   0  0  2  0  0  0  0  0  0  0  0  0
   -2.8427   20.0918   42.9284 N   0  0  0  0  0  0  0  0  0  0  0  0
   -5.2404   19.5839   43.3199 C   0  0  1  0  0  0  0  0  0  0  0  0
   -5.2185   20.3877   44.5018 O   0  0  0  0  0  0  0  0  0  0  0  0
   -6.6242   19.6153   42.6470 C   0  0  2  0  0  0  0  0  0  0  0  0
   -7.6066   19.1501   43.5739 O   0  0  0  0  0  0  0  0  0  0  0  0
   -6.6049   18.7186   41.3501 C   0  0  2  0  0  0  0  0  0  0  0  0
   -5.5731   19.1909   40.4023 O   0  0  0  0  0  0  0  0  0  0  0  0
   -7.9748   18.7321   40.6275 C   0  0  2  0  0  0  0  0  0  0  0  0
   -8.9896   18.2389   41.5042 O   0  0  0  0  0  0  0  0  0  0  0  0
   -7.9467   17.8630   39.3798 C   0  0  0  0  0  0  0  0  0  0  0  0
   -1.8999   15.0477   38.8202 C   0  0  2  0  0  0  0  0  0  0  0  0
   -1.6624   14.0105   37.8132 N   0  0  0  0  0  0  0  0  0  0  0  0
   -2.9710   14.4990   39.8029 C   0  0  0  0  0  0  0  0  0  0  0  0
   -3.2191   15.5762   40.8934 C   0  0  2  0  0  0  0  0  0  0  0  0
   -4.2260   15.0956   41.8525 N   0  0  0  0  0  0  0  0  0  0  0  0
   -3.7120   16.9048   40.2598 C   0  0  2  0  0  0  0  0  0  0  0  0
   -2.6413   17.4123   39.2431 C   0  0  2  0  0  0  0  0  0  0  0  0
   -3.1029   18.6336   38.6500 O   0  0  0  0  0  0  0  0  0  0  0  0
   -2.4153   16.3738   38.1176 C   0  0  1  0  0  0  0  0  0  0  0  0
   -1.4060   16.9131   37.2287 O   0  0  0  0  0  0  0  0  0  0  0  0
   -1.2980   16.2813   35.9314 C   0  0  2  0  0  0  0  0  0  0  0  0
   -0.0091   16.8828   35.2575 C   0  0  2  0  0  0  0  0  0  0  0  0
    1.1315   16.5845   36.0471 O   0  0  0  0  0  0  0  0  0  0  0  0
   -0.1935   18.4395   35.0981 C   0  0  1  0  0  0  0  0  0  0  0  0
    1.0144   19.0562   34.4696 N   0  0  0  0  0  0  0  0  0  0  0  0
    1.8636   19.6360   35.5324 C   0  0  0  0  0  0  0  0  0  0  0  0
   -1.4536   18.7007   34.2181 C   0  0  2  0  0  0  0  0  0  0  0  0
   -1.2474   18.1083   32.9367 O   0  0  0  0  0  0  0  0  0  0  0  0
   -1.7086   20.1929   34.0216 C   0  0  0  0  0  0  0  0  0  0  0  0
   -2.6976   18.0430   34.8972 C   0  0  0  0  0  0  0  0  0  0  0  0
   -2.4818   16.5958   35.1066 O   0  0  0  0  0  0  0  0  0  0  0  0
  1  3  1  0  0  0  0
  1  2  1  1  0  0  0
  3  5  1  0  0  0  0
  3  4  1  1  0  0  0
  5  6  1  1  0  0  0
  7  8  1  1  0  0  0
  7  5  1  0  0  0  0
  9 10  1  6  0  0  0
  9  7  1  0  0  0  0
 10  1  1  0  0  0  0
 11 13  1  6  0  0  0
 11  9  1  0  0  0  0
 12 11  1  0  0  0  0
 14 15  1  6  0  0  0
 16 14  1  0  0  0  0
 17 18  1  1  0  0  0
 17 16  1  0  0  0  0
 19  2  1  1  0  0  0
 19 20  1  0  0  0  0
 19 17  1  0  0  0  0
 20 21  1  6  0  0  0
 20 22  1  0  0  0  0
 22 23  1  6  0  0  0
 22 14  1  0  0  0  0
 24 23  1  1  0  0  0
 24 25  1  0  0  0  0
 25 27  1  0  0  0  0
 25 26  1  1  0  0  0
 27 28  1  6  0  0  0
 28 29  1  0  0  0  0
 30 31  1  6  0  0  0
 30 32  1  0  0  0  0
 30 27  1  0  0  0  0
 33 30  1  0  0  0  0
 34 33  1  0  0  0  0
 34 24  1  0  0  0  0
M  END
>  <CHROM.1>
-171.77668752,-59.67172284,174.01300429,79.78621803,-171.37792855,-98.60640863
-3.29042978,17.89338292,38.84768234,2.81458425,-0.86502568,2.57242620

>  <Name>
lig.pdb

>  <RI>
0

>  <Rbt.Current_Directory>
/home/itssahil/PROJECTS/Mol_Feturizer/New_Systems/rnas/4k32

>  <Rbt.Executable>
rbdock ($Id: //depot/dev/client3/rdock/2013.1/src/exe/rbdock.cxx#4 $)

>  <Rbt.Library>
libRbt.so (2013.1, Build901 2013/11/27)

>  <Rbt.Parameter_File>
/export/apps/rDock/src/rDock_2013.1_src/data/scripts/dock_solv.prm

>  <Rbt.Receptor>
prm/pocket_docking_8.prm

>  <SCORE>
-14.1757

>  <SCORE.INTER>
-6.95861

>  <SCORE.INTER.CONST>
1

>  <SCORE.INTER.POLAR>
0

>  <SCORE.INTER.ROT>
6

>  <SCORE.INTER.SOLV>
14.5035

>  <SCORE.INTER.VDW>
-17.0736

>  <SCORE.INTER.norm>
-0.204665

>  <SCORE.INTRA>
-7.21706

>  <SCORE.INTRA.DIHEDRAL>
-14.4689

>  <SCORE.INTRA.DIHEDRAL.0>
18.0069

>  <SCORE.INTRA.POLAR>
0

>  <SCORE.INTRA.POLAR.0>
0

>  <SCORE.INTRA.REPUL>
0

>  <SCORE.INTRA.REPUL.0>
0

>  <SCORE.INTRA.SOLV>
-2.05586

>  <SCORE.INTRA.SOLV.lig_0>
-70.7393

>  <SCORE.INTRA.VDW>
1.0453

>  <SCORE.INTRA.VDW.0>
-3.23471

>  <SCORE.INTRA.norm>
-0.212266

>  <SCORE.RESTR>
0

>  <SCORE.RESTR.CAVITY>
0

>  <SCORE.RESTR.norm>
0

>  <SCORE.SYSTEM>
0

>  <SCORE.SYSTEM.CONST>
0

>  <SCORE.SYSTEM.DIHEDRAL>
0

>  <SCORE.SYSTEM.SOLV>
0

>  <SCORE.SYSTEM.norm>
0

>  <SCORE.heavy>
34

>  <SCORE.norm>
-0.416931

>  <RMSD>
8.382

$$$$
lig.pdb
 OpenBabel11021811503D
libRbt.so/2013.1/901 2013/11/27
 34 36  0  0  0  0  0  0  0  0999 V2000
   -4.7035   12.5983   36.2593 C   0  0  2  0  0  0  0  0  0  0  0  0
   -5.4688   13.7334   36.6791 O   0  0  0  0  0  0  0  0  0  0  0  0
   -5.7067   11.4475   35.8229 C   0  0  2  0  0  0  0  0  0  0  0  0
   -6.5748   11.8705   34.6993 N   0  0  0  0  0  0  0  0  0  0  0  0
   -6.5773   11.0356   37.0366 C   0  0  1  0  0  0  0  0  0  0  0  0
   -7.4832    9.9942   36.6644 O   0  0  0  0  0  0  0  0  0  0  0  0
   -5.6467   10.5869   38.1774 C   0  0  2  0  0  0  0  0  0  0  0  0
   -6.4374   10.2004   39.3025 O   0  0  0  0  0  0  0  0  0  0  0  0
   -4.6656   11.7619   38.5560 C   0  0  2  0  0  0  0  0  0  0  0  0
   -3.8636   12.1726   37.3838 O   0  0  0  0  0  0  0  0  0  0  0  0
   -3.6958   11.3509   39.6916 C   0  0  2  0  0  0  0  0  0  0  0  0
   -2.8105   12.4328   39.9874 O   0  0  0  0  0  0  0  0  0  0  0  0
   -2.8664   10.1396   39.2947 C   0  0  0  0  0  0  0  0  0  0  0  0
   -4.4511   17.8407   37.3203 C   0  0  2  0  0  0  0  0  0  0  0  0
   -3.8120   19.0447   37.8570 N   0  0  0  0  0  0  0  0  0  0  0  0
   -4.9960   17.0307   38.5290 C   0  0  0  0  0  0  0  0  0  0  0  0
   -5.6995   15.7607   37.9783 C   0  0  2  0  0  0  0  0  0  0  0  0
   -6.2377   14.9634   39.0917 N   0  0  0  0  0  0  0  0  0  0  0  0
   -4.7105   14.8891   37.1587 C   0  0  2  0  0  0  0  0  0  0  0  0
   -4.1417   15.7377   35.9780 C   0  0  2  0  0  0  0  0  0  0  0  0
   -3.2195   14.9352   35.2284 O   0  0  0  0  0  0  0  0  0  0  0  0
   -3.3914   16.9839   36.5075 C   0  0  1  0  0  0  0  0  0  0  0  0
   -2.9076   17.7184   35.3558 O   0  0  0  0  0  0  0  0  0  0  0  0
   -1.9108   17.0495   34.5479 C   0  0  2  0  0  0  0  0  0  0  0  0
   -0.6202   16.9448   35.4427 C   0  0  2  0  0  0  0  0  0  0  0  0
   -0.9016   16.1845   36.6072 O   0  0  0  0  0  0  0  0  0  0  0  0
   -0.1393   18.3971   35.8198 C   0  0  1  0  0  0  0  0  0  0  0  0
    1.0818   18.3460   36.6803 N   0  0  0  0  0  0  0  0  0  0  0  0
    0.6897   17.9264   38.0430 C   0  0  0  0  0  0  0  0  0  0  0  0
    0.1596   19.1765   34.5030 C   0  0  2  0  0  0  0  0  0  0  0  0
    1.1949   18.4971   33.7944 O   0  0  0  0  0  0  0  0  0  0  0  0
    0.6254   20.6033   34.7819 C   0  0  0  0  0  0  0  0  0  0  0  0
   -1.1316   19.2107   33.6240 C   0  0  0  0  0  0  0  0  0  0  0  0
   -1.6129   17.8427   33.3385 O   0  0  0  0  0  0  0  0  0  0  0  0
  1  3  1  0  0  0  0
  1  2  1  1  0  0  0
  3  5  1  0  0  0  0
  3  4  1  6  0  0  0
  5  6  1  6  0  0  0
  7  8  1  1  0  0  0
  7  5  1  0  0  0  0
  9 10  1  6  0  0  0
  9  7  1  0  0  0  0
 10  1  1  0  0  0  0
 11 13  1  6  0  0  0
 11  9  1  0  0  0  0
 12 11  1  0  0  0  0
 14 15  1  1  0  0  0
 16 14  1  0  0  0  0
 17 18  1  1  0  0  0
 17 16  1  0  0  0  0
 19  2  1  6  0  0  0
 19 20  1  0  0  0  0
 19 17  1  0  0  0  0
 20 21  1  1  0  0  0
 20 22  1  0  0  0  0
 22 23  1  6  0  0  0
 22 14  1  0  0  0  0
 24 23  1  1  0  0  0
 24 25  1  0  0  0  0
 25 27  1  0  0  0  0
 25 26  1  1  0  0  0
 27 28  1  1  0  0  0
 28 29  1  0  0  0  0
 30 31  1  6  0  0  0
 30 32  1  0  0  0  0
 30 27  1  0  0  0  0
 33 30  1  0  0  0  0
 34 33  1  0  0  0  0
 34 24  1  0  0  0  0
M  END
>  <CHROM.1>
178.24619622,178.97869223,-161.36403153,178.73992152,-67.22369721,-74.45046480
-3.29098618,15.10815940,36.69558935,2.27768947,0.56196165,2.36302851

>  <Name>
lig.pdb

>  <RI>
0

>  <Rbt.Current_Directory>
/home/itssahil/PROJECTS/Mol_Feturizer/New_Systems/rnas/4k32

>  <Rbt.Executable>
rbdock ($Id: //depot/dev/client3/rdock/2013.1/src/exe/rbdock.cxx#4 $)

>  <Rbt.Library>
libRbt.so (2013.1, Build901 2013/11/27)

>  <Rbt.Parameter_File>
/export/apps/rDock/src/rDock_2013.1_src/data/scripts/dock_solv.prm

>  <Rbt.Receptor>
prm/pocket_docking_4.prm

>  <SCORE>
-6.33589

>  <SCORE.INTER>
-2.35491

>  <SCORE.INTER.CONST>
1

>  <SCORE.INTER.POLAR>
0

>  <SCORE.INTER.ROT>
6

>  <SCORE.INTER.SOLV>
24.6281

>  <SCORE.INTER.VDW>
-17.3793

>  <SCORE.INTER.norm>
-0.0692622

>  <SCORE.INTRA>
-3.98097

>  <SCORE.INTRA.DIHEDRAL>
-15.9117

>  <SCORE.INTRA.DIHEDRAL.0>
18.0069

>  <SCORE.INTRA.POLAR>
0

>  <SCORE.INTRA.POLAR.0>
0

>  <SCORE.INTRA.REPUL>
0

>  <SCORE.INTRA.REPUL.0>
0

>  <SCORE.INTRA.SOLV>
-1.51848

>  <SCORE.INTRA.SOLV.lig_0>
-70.7393

>  <SCORE.INTRA.VDW>
4.73413

>  <SCORE.INTRA.VDW.0>
-3.23471

>  <SCORE.INTRA.norm>
-0.117087

>  <SCORE.RESTR>
0

>  <SCORE.RESTR.CAVITY>
0

>  <SCORE.RESTR.norm>
0

>  <SCORE.SYSTEM>
0

>  <SCORE.SYSTEM.CONST>
0

>  <SCORE.SYSTEM.DIHEDRAL>
0

>  <SCORE.SYSTEM.SOLV>
0

>  <SCORE.SYSTEM.norm>
0

>  <SCORE.heavy>
34

>  <SCORE.norm>
-0.18635

>  <RMSD>
8.457

$$$$
lig.pdb
 OpenBabel11021811503D
libRbt.so/2013.1/901 2013/11/27
 34 36  0  0  0  0  0  0  0  0999 V2000
   -6.0018   12.3606   39.8119 C   0  0  2  0  0  0  0  0  0  0  0  0
   -4.8804   13.0310   39.2260 O   0  0  0  0  0  0  0  0  0  0  0  0
   -7.3105   13.2064   39.5067 C   0  0  2  0  0  0  0  0  0  0  0  0
   -7.5518   13.3417   38.0512 N   0  0  0  0  0  0  0  0  0  0  0  0
   -7.1798   14.6087   40.1527 C   0  0  1  0  0  0  0  0  0  0  0  0
   -8.3531   15.3833   39.8943 O   0  0  0  0  0  0  0  0  0  0  0  0
   -6.9469   14.4322   41.6638 C   0  0  2  0  0  0  0  0  0  0  0  0
   -6.8283   15.7187   42.2731 O   0  0  0  0  0  0  0  0  0  0  0  0
   -5.6465   13.5735   41.9043 C   0  0  2  0  0  0  0  0  0  0  0  0
   -5.7651   12.2505   41.2551 O   0  0  0  0  0  0  0  0  0  0  0  0
   -5.3794   13.3544   43.4142 C   0  0  2  0  0  0  0  0  0  0  0  0
   -6.6044   13.0491   44.0834 O   0  0  0  0  0  0  0  0  0  0  0  0
   -4.7745   14.5958   44.0512 C   0  0  0  0  0  0  0  0  0  0  0  0
   -1.4537   11.3317   37.3061 C   0  0  2  0  0  0  0  0  0  0  0  0
   -0.1685   10.6588   37.1017 N   0  0  0  0  0  0  0  0  0  0  0  0
   -1.2182   12.4715   38.3353 C   0  0  0  0  0  0  0  0  0  0  0  0
   -2.5658   13.2132   38.5473 C   0  0  2  0  0  0  0  0  0  0  0  0
   -2.3883   14.3084   39.5138 N   0  0  0  0  0  0  0  0  0  0  0  0
   -3.6576   12.2425   39.0718 C   0  0  2  0  0  0  0  0  0  0  0  0
   -3.8438   11.0821   38.0439 C   0  0  2  0  0  0  0  0  0  0  0  0
   -4.8445   10.1798   38.5350 O   0  0  0  0  0  0  0  0  0  0  0  0
   -2.5233   10.2966   37.8557 C   0  0  1  0  0  0  0  0  0  0  0  0
   -2.7772    9.2515   36.8845 O   0  0  0  0  0  0  0  0  0  0  0  0
   -3.5085    8.0997   37.3663 C   0  0  2  0  0  0  0  0  0  0  0  0
   -2.4611    7.2018   38.1240 C   0  0  2  0  0  0  0  0  0  0  0  0
   -1.9057    7.9232   39.2123 O   0  0  0  0  0  0  0  0  0  0  0  0
   -1.3394    6.7573   37.1106 C   0  0  1  0  0  0  0  0  0  0  0  0
   -0.3144    5.9085   37.7911 N   0  0  0  0  0  0  0  0  0  0  0  0
    0.9349    6.6871   37.9319 C   0  0  0  0  0  0  0  0  0  0  0  0
   -2.0099    5.9664   35.9464 C   0  0  2  0  0  0  0  0  0  0  0  0
   -2.6520    4.8129   36.4874 O   0  0  0  0  0  0  0  0  0  0  0  0
   -0.9869    5.5050   34.9115 C   0  0  0  0  0  0  0  0  0  0  0  0
   -3.0768    6.8761   35.2572 C   0  0  0  0  0  0  0  0  0  0  0  0
   -4.0821    7.3448   36.2341 O   0  0  0  0  0  0  0  0  0  0  0  0
  1  3  1  0  0  0  0
  1  2  1  6  0  0  0
  3  5  1  0  0  0  0
  3  4  1  6  0  0  0
  5  6  1  1  0  0  0
  7  8  1  1  0  0  0
  7  5  1  0  0  0  0
  9 10  1  6  0  0  0
  9  7  1  0  0  0  0
 10  1  1  0  0  0  0
 11 13  1  1  0  0  0
 11  9  1  0  0  0  0
 12 11  1  0  0  0  0
 14 15  1  1  0  0  0
 16 14  1  0  0  0  0
 17 18  1  1  0  0  0
 17 16  1  0  0  0  0
 19  2  1  6  0  0  0
 19 20  1  0  0  0  0
 19 17  1  0  0  0  0
 20 21  1  1  0  0  0
 20 22  1  0  0  0  0
 22 23  1  6  0  0  0
 22 14  1  0  0  0  0
 24 23  1  6  0  0  0
 24 25  1  0  0  0  0
 25 27  1  0  0  0  0
 25 26  1  1  0  0  0
 27 28  1  1  0  0  0
 28 29  1  0  0  0  0
 30 31  1  1  0  0  0
 30 32  1  0  0  0  0
 30 27  1  0  0  0  0
 33 30  1  0  0  0  0
 34 33  1  0  0  0  0
 34 24  1  0  0  0  0
M  END
>  <CHROM.1>
-163.54190339,42.59898051,-174.83754538,167.29587917,-79.98484102,-108.22633278
-3.84889847,10.78515612,38.93001992,2.07601778,-0.21220247,0.68894810

>  <Name>
lig.pdb

>  <RI>
0

>  <Rbt.Current_Directory>
/home/itssahil/PROJECTS/Mol_Feturizer/New_Systems/rnas/4k32

>  <Rbt.Executable>
rbdock ($Id: //depot/dev/client3/rdock/2013.1/src/exe/rbdock.cxx#4 $)

>  <Rbt.Library>
libRbt.so (2013.1, Build901 2013/11/27)

>  <Rbt.Parameter_File>
/export/apps/rDock/src/rDock_2013.1_src/data/scripts/dock_solv.prm

>  <Rbt.Receptor>
prm/pocket_docking_7.prm

>  <SCORE>
-3.37926

>  <SCORE.INTER>
1.94338

>  <SCORE.INTER.CONST>
1

>  <SCORE.INTER.POLAR>
0

>  <SCORE.INTER.ROT>
6

>  <SCORE.INTER.SOLV>
12.7722

>  <SCORE.INTER.VDW>
-10.5618

>  <SCORE.INTER.norm>
0.0571583

>  <SCORE.INTRA>
-5.32264

>  <SCORE.INTRA.DIHEDRAL>
-11.8887

>  <SCORE.INTRA.DIHEDRAL.0>
18.0069

>  <SCORE.INTRA.POLAR>
0

>  <SCORE.INTRA.POLAR.0>
0

>  <SCORE.INTRA.REPUL>
0

>  <SCORE.INTRA.REPUL.0>
0

>  <SCORE.INTRA.SOLV>
-1.2311

>  <SCORE.INTRA.SOLV.lig_0>
-70.7393

>  <SCORE.INTRA.VDW>
1.23725

>  <SCORE.INTRA.VDW.0>
-3.23471

>  <SCORE.INTRA.norm>
-0.156548

>  <SCORE.RESTR>
0

>  <SCORE.RESTR.CAVITY>
0

>  <SCORE.RESTR.norm>
0

>  <SCORE.SYSTEM>
0

>  <SCORE.SYSTEM.CONST>
0

>  <SCORE.SYSTEM.DIHEDRAL>
0

>  <SCORE.SYSTEM.SOLV>
0

>  <SCORE.SYSTEM.norm>
0

>  <SCORE.heavy>
34

>  <SCORE.norm>
-0.09939

>  <RMSD>
8.458

$$$$
lig.pdb
 OpenBabel11021811503D
libRbt.so/2013.1/901 2013/11/27
 34 36  0  0  0  0  0  0  0  0999 V2000
   -5.0924   12.4273   36.2473 C   0  0  2  0  0  0  0  0  0  0  0  0
   -6.0589   13.4337   36.5687 O   0  0  0  0  0  0  0  0  0  0  0  0
   -5.8632   11.1079   35.8159 C   0  0  2  0  0  0  0  0  0  0  0  0
   -6.7193   11.3336   34.6280 N   0  0  0  0  0  0  0  0  0  0  0  0
   -6.7260   10.6047   37.0005 C   0  0  1  0  0  0  0  0  0  0  0  0
   -7.4230    9.4120   36.6329 O   0  0  0  0  0  0  0  0  0  0  0  0
   -5.8052   10.3649   38.2102 C   0  0  2  0  0  0  0  0  0  0  0  0
   -6.5881    9.8967   39.3094 O   0  0  0  0  0  0  0  0  0  0  0  0
   -5.0566   11.7021   38.5815 C   0  0  2  0  0  0  0  0  0  0  0  0
   -4.2638   12.1942   37.4347 O   0  0  0  0  0  0  0  0  0  0  0  0
   -4.1031   11.5058   39.7862 C   0  0  2  0  0  0  0  0  0  0  0  0
   -4.8161   10.9215   40.8780 O   0  0  0  0  0  0  0  0  0  0  0  0
   -3.5157   12.8317   40.2441 C   0  0  0  0  0  0  0  0  0  0  0  0
   -5.6802   17.4838   37.8991 C   0  0  2  0  0  0  0  0  0  0  0  0
   -5.3359   18.6496   38.7167 N   0  0  0  0  0  0  0  0  0  0  0  0
   -6.4416   16.4870   38.8158 C   0  0  0  0  0  0  0  0  0  0  0  0
   -6.8370   15.2532   37.9599 C   0  0  2  0  0  0  0  0  0  0  0  0
   -7.5679   14.2818   38.7888 N   0  0  0  0  0  0  0  0  0  0  0  0
   -5.5802   14.5677   37.3599 C   0  0  2  0  0  0  0  0  0  0  0  0
   -4.8074   15.6008   36.4806 C   0  0  2  0  0  0  0  0  0  0  0  0
   -3.6404   14.9697   35.9361 O   0  0  0  0  0  0  0  0  0  0  0  0
   -4.3590   16.8171   37.3268 C   0  0  1  0  0  0  0  0  0  0  0  0
   -3.6636   17.7276   36.4395 O   0  0  0  0  0  0  0  0  0  0  0  0
   -2.8215   18.7170   37.0764 C   0  0  2  0  0  0  0  0  0  0  0  0
   -1.9553   19.3582   35.9293 C   0  0  2  0  0  0  0  0  0  0  0  0
   -2.8027   19.9748   34.9727 O   0  0  0  0  0  0  0  0  0  0  0  0
   -1.0757   18.2339   35.2622 C   0  0  1  0  0  0  0  0  0  0  0  0
   -0.2415   18.7972   34.1572 N   0  0  0  0  0  0  0  0  0  0  0  0
   -1.0503   18.8377   32.9199 C   0  0  0  0  0  0  0  0  0  0  0  0
   -0.1652   17.6025   36.3590 C   0  0  2  0  0  0  0  0  0  0  0  0
    0.6808   18.6200   36.8926 O   0  0  0  0  0  0  0  0  0  0  0  0
    0.7172   16.4926   35.7934 C   0  0  0  0  0  0  0  0  0  0  0  0
   -1.0630   17.0259   37.5003 C   0  0  0  0  0  0  0  0  0  0  0  0
   -1.9350   18.0757   38.0680 O   0  0  0  0  0  0  0  0  0  0  0  0
  1  3  1  0  0  0  0
  1  2  1  1  0  0  0
  3  5  1  0  0  0  0
  3  4  1  6  0  0  0
  5  6  1  6  0  0  0
  7  8  1  1  0  0  0
  7  5  1  0  0  0  0
  9 10  1  6  0  0  0
  9  7  1  0  0  0  0
 10  1  1  0  0  0  0
 11 13  1  1  0  0  0
 11  9  1  0  0  0  0
 12 11  1  0  0  0  0
 14 15  1  1  0  0  0
 16 14  1  0  0  0  0
 17 18  1  1  0  0  0
 17 16  1  0  0  0  0
 19  2  1  6  0  0  0
 19 20  1  0  0  0  0
 19 17  1  0  0  0  0
 20 21  1  1  0  0  0
 20 22  1  0  0  0  0
 22 23  1  6  0  0  0
 22 14  1  0  0  0  0
 24 23  1  6  0  0  0
 24 25  1  0  0  0  0
 25 27  1  0  0  0  0
 25 26  1  6  0  0  0
 27 28  1  6  0  0  0
 28 29  1  0  0  0  0
 30 31  1  1  0  0  0
 30 32  1  0  0  0  0
 30 27  1  0  0  0  0
 33 30  1  0  0  0  0
 34 33  1  0  0  0  0
 34 24  1  0  0  0  0
M  END
>  <CHROM.1>
162.18682485,-52.83891431,-162.05329489,81.90629669,168.04537099,-84.43727533
-4.02864371,15.02718285,37.12096137,-2.27298001,0.62782568,0.17574062

>  <Name>
lig.pdb

>  <RI>
0

>  <Rbt.Current_Directory>
/home/itssahil/PROJECTS/Mol_Feturizer/New_Systems/rnas/4k32

>  <Rbt.Executable>
rbdock ($Id: //depot/dev/client3/rdock/2013.1/src/exe/rbdock.cxx#4 $)

>  <Rbt.Library>
libRbt.so (2013.1, Build901 2013/11/27)

>  <Rbt.Parameter_File>
/export/apps/rDock/src/rDock_2013.1_src/data/scripts/dock_solv.prm

>  <Rbt.Receptor>
prm/pocket_docking_3.prm

>  <SCORE>
-9.66223

>  <SCORE.INTER>
-4.5734

>  <SCORE.INTER.CONST>
1

>  <SCORE.INTER.POLAR>
0

>  <SCORE.INTER.ROT>
6

>  <SCORE.INTER.SOLV>
26.9277

>  <SCORE.INTER.VDW>
-19.6248

>  <SCORE.INTER.norm>
-0.134512

>  <SCORE.INTRA>
-5.54574

>  <SCORE.INTRA.DIHEDRAL>
-11.6101

>  <SCORE.INTRA.DIHEDRAL.0>
18.0069

>  <SCORE.INTRA.POLAR>
0

>  <SCORE.INTRA.POLAR.0>
0

>  <SCORE.INTRA.REPUL>
0

>  <SCORE.INTRA.REPUL.0>
0

>  <SCORE.INTRA.SOLV>
-0.705663

>  <SCORE.INTRA.SOLV.lig_0>
-70.7393

>  <SCORE.INTRA.VDW>
0.612131

>  <SCORE.INTRA.VDW.0>
-3.23471

>  <SCORE.INTRA.norm>
-0.16311

>  <SCORE.RESTR>
0.456908

>  <SCORE.RESTR.CAVITY>
0.456908

>  <SCORE.RESTR.norm>
0.0134385

>  <SCORE.SYSTEM>
0

>  <SCORE.SYSTEM.CONST>
0

>  <SCORE.SYSTEM.DIHEDRAL>
0

>  <SCORE.SYSTEM.SOLV>
0

>  <SCORE.SYSTEM.norm>
0

>  <SCORE.heavy>
34

>  <SCORE.norm>
-0.284183

>  <RMSD>
8.476

$$$$
lig.pdb
 OpenBabel11021811503D
libRbt.so/2013.1/901 2013/11/27
 34 36  0  0  0  0  0  0  0  0999 V2000
   -3.5750   14.1276   38.7948 C   0  0  2  0  0  0  0  0  0  0  0  0
   -2.3622   14.3883   39.5099 O   0  0  0  0  0  0  0  0  0  0  0  0
   -4.5580   15.3567   39.0049 C   0  0  2  0  0  0  0  0  0  0  0  0
   -3.9756   16.6209   38.4974 N   0  0  0  0  0  0  0  0  0  0  0  0
   -4.8925   15.4970   40.5114 C   0  0  1  0  0  0  0  0  0  0  0  0
   -5.7832   16.5955   40.7198 O   0  0  0  0  0  0  0  0  0  0  0  0
   -5.5096   14.1750   41.0014 C   0  0  2  0  0  0  0  0  0  0  0  0
   -5.8265   14.2919   42.3893 O   0  0  0  0  0  0  0  0  0  0  0  0
   -4.4974   12.9918   40.7530 C   0  0  2  0  0  0  0  0  0  0  0  0
   -4.1562   12.8871   39.3182 O   0  0  0  0  0  0  0  0  0  0  0  0
   -5.0824   11.6345   41.2163 C   0  0  2  0  0  0  0  0  0  0  0  0
   -4.1085   10.6033   41.0439 O   0  0  0  0  0  0  0  0  0  0  0  0
   -6.3232   11.2691   40.4165 C   0  0  0  0  0  0  0  0  0  0  0  0
    1.4904   12.6224   38.9136 C   0  0  2  0  0  0  0  0  0  0  0  0
    2.5960   11.6616   38.9407 N   0  0  0  0  0  0  0  0  0  0  0  0
    0.9838   12.7829   40.3735 C   0  0  0  0  0  0  0  0  0  0  0  0
   -0.1741   13.8175   40.3691 C   0  0  2  0  0  0  0  0  0  0  0  0
   -0.6829   14.0059   41.7367 N   0  0  0  0  0  0  0  0  0  0  0  0
   -1.3359   13.3468   39.4534 C   0  0  2  0  0  0  0  0  0  0  0  0
   -0.7930   13.1483   38.0031 C   0  0  2  0  0  0  0  0  0  0  0  0
   -1.8645   12.7026   37.1606 O   0  0  0  0  0  0  0  0  0  0  0  0
    0.3292   12.0824   37.9767 C   0  0  1  0  0  0  0  0  0  0  0  0
    0.7833   11.9672   36.6055 O   0  0  0  0  0  0  0  0  0  0  0  0
    1.7164   10.8955   36.3325 C   0  0  2  0  0  0  0  0  0  0  0  0
    2.0366   10.9753   34.7935 C   0  0  2  0  0  0  0  0  0  0  0  0
    2.6246   12.2300   34.4880 O   0  0  0  0  0  0  0  0  0  0  0  0
    0.7030   10.7644   33.9813 C   0  0  1  0  0  0  0  0  0  0  0  0
    0.9584   10.8425   32.5106 N   0  0  0  0  0  0  0  0  0  0  0  0
    0.1115   11.9087   31.9337 C   0  0  0  0  0  0  0  0  0  0  0  0
    0.1121    9.3707   34.3541 C   0  0  2  0  0  0  0  0  0  0  0  0
    1.0564    8.3629   33.9959 O   0  0  0  0  0  0  0  0  0  0  0  0
   -1.1925    9.0912   33.6123 C   0  0  0  0  0  0  0  0  0  0  0  0
   -0.1410    9.3174   35.8949 C   0  0  0  0  0  0  0  0  0  0  0  0
    1.1036    9.5887   36.6446 O   0  0  0  0  0  0  0  0  0  0  0  0
  1  3  1  0  0  0  0
  1  2  1  1  0  0  0
  3  5  1  0  0  0  0
  3  4  1  1  0  0  0
  5  6  1  6  0  0  0
  7  8  1  1  0  0  0
  7  5  1  0  0  0  0
  9 10  1  6  0  0  0
  9  7  1  0  0  0  0
 10  1  1  0  0  0  0
 11 13  1  6  0  0  0
 11  9  1  0  0  0  0
 12 11  1  0  0  0  0
 14 15  1  1  0  0  0
 16 14  1  0  0  0  0
 17 18  1  1  0  0  0
 17 16  1  0  0  0  0
 19  2  1  6  0  0  0
 19 20  1  0  0  0  0
 19 17  1  0  0  0  0
 20 21  1  6  0  0  0
 20 22  1  0  0  0  0
 22 23  1  6  0  0  0
 22 14  1  0  0  0  0
 24 23  1  6  0  0  0
 24 25  1  0  0  0  0
 25 27  1  0  0  0  0
 25 26  1  1  0  0  0
 27 28  1  6  0  0  0
 28 29  1  0  0  0  0
 30 31  1  6  0  0  0
 30 32  1  0  0  0  0
 30 27  1  0  0  0  0
 33 30  1  0  0  0  0
 34 33  1  0  0  0  0
 34 24  1  0  0  0  0
M  END
>  <CHROM.1>
178.92110491,-176.76452829,-176.39143737,71.58429576,179.38104982,-122.43096808
-1.49847819,12.39370170,37.96540359,2.24610728,0.00410583,1.02932972

>  <Name>
lig.pdb

>  <RI>
0

>  <Rbt.Current_Directory>
/home/itssahil/PROJECTS/Mol_Feturizer/New_Systems/rnas/4k32

>  <Rbt.Executable>
rbdock ($Id: //depot/dev/client3/rdock/2013.1/src/exe/rbdock.cxx#4 $)

>  <Rbt.Library>
libRbt.so (2013.1, Build901 2013/11/27)

>  <Rbt.Parameter_File>
/export/apps/rDock/src/rDock_2013.1_src/data/scripts/dock_solv.prm

>  <Rbt.Receptor>
prm/pocket_docking_7.prm

>  <SCORE>
-6.52348

>  <SCORE.INTER>
1.32249

>  <SCORE.INTER.CONST>
1

>  <SCORE.INTER.POLAR>
0

>  <SCORE.INTER.ROT>
6

>  <SCORE.INTER.SOLV>
9.65862

>  <SCORE.INTER.VDW>
-9.93788

>  <SCORE.INTER.norm>
0.0388967

>  <SCORE.INTRA>
-7.84597

>  <SCORE.INTRA.DIHEDRAL>
-15.9926

>  <SCORE.INTRA.DIHEDRAL.0>
18.0069

>  <SCORE.INTRA.POLAR>
0

>  <SCORE.INTRA.POLAR.0>
0

>  <SCORE.INTRA.REPUL>
0

>  <SCORE.INTRA.REPUL.0>
0

>  <SCORE.INTRA.SOLV>
-2.01371

>  <SCORE.INTRA.SOLV.lig_0>
-70.7393

>  <SCORE.INTRA.VDW>
1.15716

>  <SCORE.INTRA.VDW.0>
-3.23471

>  <SCORE.INTRA.norm>
-0.230764

>  <SCORE.RESTR>
0

>  <SCORE.RESTR.CAVITY>
0

>  <SCORE.RESTR.norm>
0

>  <SCORE.SYSTEM>
0

>  <SCORE.SYSTEM.CONST>
0

>  <SCORE.SYSTEM.DIHEDRAL>
0

>  <SCORE.SYSTEM.SOLV>
0

>  <SCORE.SYSTEM.norm>
0

>  <SCORE.heavy>
34

>  <SCORE.norm>
-0.191867

>  <RMSD>
8.513

$$$$
lig.pdb
 OpenBabel11021811503D
libRbt.so/2013.1/901 2013/11/27
 34 36  0  0  0  0  0  0  0  0999 V2000
   -4.7178   18.8642   40.5310 C   0  0  2  0  0  0  0  0  0  0  0  0
   -4.3017   17.4941   40.5258 O   0  0  0  0  0  0  0  0  0  0  0  0
   -4.6599   19.4027   42.0236 C   0  0  2  0  0  0  0  0  0  0  0  0
   -3.2908   19.3253   42.5844 N   0  0  0  0  0  0  0  0  0  0  0  0
   -5.6381   18.5853   42.9044 C   0  0  1  0  0  0  0  0  0  0  0  0
   -5.6051   19.0608   44.2521 O   0  0  0  0  0  0  0  0  0  0  0  0
   -7.0507   18.7006   42.3045 C   0  0  2  0  0  0  0  0  0  0  0  0
   -7.9642   17.9539   43.1097 O   0  0  0  0  0  0  0  0  0  0  0  0
   -7.0429   18.1673   40.8206 C   0  0  2  0  0  0  0  0  0  0  0  0
   -6.0815   18.9293   39.9954 O   0  0  0  0  0  0  0  0  0  0  0  0
   -8.4430   18.2789   40.1675 C   0  0  2  0  0  0  0  0  0  0  0  0
   -8.4322   17.6439   38.8875 O   0  0  0  0  0  0  0  0  0  0  0  0
   -8.8500   19.7327   39.9849 C   0  0  0  0  0  0  0  0  0  0  0  0
   -2.5101   15.1489   37.4263 C   0  0  2  0  0  0  0  0  0  0  0  0
   -2.3315   14.3993   36.1803 N   0  0  0  0  0  0  0  0  0  0  0  0
   -3.7729   14.5791   38.1296 C   0  0  0  0  0  0  0  0  0  0  0  0
   -3.9653   15.3457   39.4662 C   0  0  2  0  0  0  0  0  0  0  0  0
   -5.1508   14.8336   40.1714 N   0  0  0  0  0  0  0  0  0  0  0  0
   -4.1403   16.8673   39.2135 C   0  0  2  0  0  0  0  0  0  0  0  0
   -2.8808   17.4076   38.4657 C   0  0  2  0  0  0  0  0  0  0  0  0
   -3.0486   18.8109   38.2227 O   0  0  0  0  0  0  0  0  0  0  0  0
   -2.6990   16.6913   37.1055 C   0  0  1  0  0  0  0  0  0  0  0  0
   -1.5098   17.2391   36.4845 O   0  0  0  0  0  0  0  0  0  0  0  0
   -1.3666   17.0006   35.0646 C   0  0  2  0  0  0  0  0  0  0  0  0
   -0.0024   17.6639   34.6447 C   0  0  2  0  0  0  0  0  0  0  0  0
    1.0664   17.0596   35.3559 O   0  0  0  0  0  0  0  0  0  0  0  0
   -0.0728   19.2103   34.9389 C   0  0  1  0  0  0  0  0  0  0  0  0
    1.2090   19.8816   34.5638 N   0  0  0  0  0  0  0  0  0  0  0  0
    2.0968   19.9126   35.7459 C   0  0  0  0  0  0  0  0  0  0  0  0
   -1.2577   19.8148   34.1259 C   0  0  2  0  0  0  0  0  0  0  0  0
   -1.0149   19.6014   32.7362 O   0  0  0  0  0  0  0  0  0  0  0  0
   -1.4005   21.3161   34.3630 C   0  0  0  0  0  0  0  0  0  0  0  0
   -2.5812   19.0928   34.5360 C   0  0  0  0  0  0  0  0  0  0  0  0
   -2.4752   17.6340   34.3227 O   0  0  0  0  0  0  0  0  0  0  0  0
  1  3  1  0  0  0  0
  1  2  1  1  0  0  0
  3  5  1  0  0  0  0
  3  4  1  1  0  0  0
  5  6  1  1  0  0  0
  7  8  1  1  0  0  0
  7  5  1  0  0  0  0
  9 10  1  6  0  0  0
  9  7  1  0  0  0  0
 10  1  1  0  0  0  0
 11 13  1  6  0  0  0
 11  9  1  0  0  0  0
 12 11  1  0  0  0  0
 14 15  1  6  0  0  0
 16 14  1  0  0  0  0
 17 18  1  6  0  0  0
 17 16  1  0  0  0  0
 19  2  1  1  0  0  0
 19 20  1  0  0  0  0
 19 17  1  0  0  0  0
 20 21  1  6  0  0  0
 20 22  1  0  0  0  0
 22 23  1  1  0  0  0
 22 14  1  0  0  0  0
 24 23  1  1  0  0  0
 24 25  1  0  0  0  0
 25 27  1  0  0  0  0
 25 26  1  1  0  0  0
 27 28  1  6  0  0  0
 28 29  1  0  0  0  0
 30 31  1  6  0  0  0
 30 32  1  0  0  0  0
 30 27  1  0  0  0  0
 33 30  1  0  0  0  0
 34 33  1  0  0  0  0
 34 24  1  0  0  0  0
M  END
>  <CHROM.1>
-173.12621570,-173.18325575,-169.14436501,81.06713799,-178.99104148,-91.80857053
-3.53526288,18.01248023,38.20996075,-3.07490217,-0.84102809,-3.00989317

>  <Name>
lig.pdb

>  <RI>
0

>  <Rbt.Current_Directory>
/home/itssahil/PROJECTS/Mol_Feturizer/New_Systems/rnas/4k32

>  <Rbt.Executable>
rbdock ($Id: //depot/dev/client3/rdock/2013.1/src/exe/rbdock.cxx#4 $)

>  <Rbt.Library>
libRbt.so (2013.1, Build901 2013/11/27)

>  <Rbt.Parameter_File>
/export/apps/rDock/src/rDock_2013.1_src/data/scripts/dock_solv.prm

>  <Rbt.Receptor>
prm/pocket_docking_6.prm

>  <SCORE>
-11.3232

>  <SCORE.INTER>
-4.01856

>  <SCORE.INTER.CONST>
1

>  <SCORE.INTER.POLAR>
0

>  <SCORE.INTER.ROT>
6

>  <SCORE.INTER.SOLV>
14.937

>  <SCORE.INTER.VDW>
-15.2581

>  <SCORE.INTER.norm>
-0.118193

>  <SCORE.INTRA>
-7.49961

>  <SCORE.INTRA.DIHEDRAL>
-14.3494

>  <SCORE.INTRA.DIHEDRAL.0>
18.0069

>  <SCORE.INTRA.POLAR>
0

>  <SCORE.INTRA.POLAR.0>
0

>  <SCORE.INTRA.REPUL>
0

>  <SCORE.INTRA.REPUL.0>
0

>  <SCORE.INTRA.SOLV>
-2.03647

>  <SCORE.INTRA.SOLV.lig_0>
-70.7393

>  <SCORE.INTRA.VDW>
0.693324

>  <SCORE.INTRA.VDW.0>
-3.23471

>  <SCORE.INTRA.norm>
-0.220577

>  <SCORE.RESTR>
0.194994

>  <SCORE.RESTR.CAVITY>
0.194994

>  <SCORE.RESTR.norm>
0.00573511

>  <SCORE.SYSTEM>
0

>  <SCORE.SYSTEM.CONST>
0

>  <SCORE.SYSTEM.DIHEDRAL>
0

>  <SCORE.SYSTEM.SOLV>
0

>  <SCORE.SYSTEM.norm>
0

>  <SCORE.heavy>
34

>  <SCORE.norm>
-0.333035

>  <RMSD>
8.530

$$$$
lig.pdb
 OpenBabel11021811503D
libRbt.so/2013.1/901 2013/11/27
 34 36  0  0  0  0  0  0  0  0999 V2000
   -6.6287   12.8220   40.2755 C   0  0  2  0  0  0  0  0  0  0  0  0
   -5.2535   13.1524   40.4982 O   0  0  0  0  0  0  0  0  0  0  0  0
   -6.9423   12.9865   38.7276 C   0  0  2  0  0  0  0  0  0  0  0  0
   -6.1034   12.0909   37.8975 N   0  0  0  0  0  0  0  0  0  0  0  0
   -6.7140   14.4610   38.3097 C   0  0  1  0  0  0  0  0  0  0  0  0
   -6.9984   14.6304   36.9191 O   0  0  0  0  0  0  0  0  0  0  0  0
   -7.6109   15.3609   39.1783 C   0  0  2  0  0  0  0  0  0  0  0  0
   -7.4129   16.7242   38.8005 O   0  0  0  0  0  0  0  0  0  0  0  0
   -7.2660   15.1432   40.7015 C   0  0  2  0  0  0  0  0  0  0  0  0
   -7.4526   13.7271   41.0834 O   0  0  0  0  0  0  0  0  0  0  0  0
   -8.1568   16.0179   41.6182 C   0  0  2  0  0  0  0  0  0  0  0  0
   -7.7863   15.8212   42.9841 O   0  0  0  0  0  0  0  0  0  0  0  0
   -9.6267   15.6622   41.4579 C   0  0  0  0  0  0  0  0  0  0  0  0
   -1.7057   10.7601   40.5801 C   0  0  2  0  0  0  0  0  0  0  0  0
   -0.7310    9.7121   40.2675 N   0  0  0  0  0  0  0  0  0  0  0  0
   -3.0617   10.0575   40.8660 C   0  0  0  0  0  0  0  0  0  0  0  0
   -4.1037   11.1517   41.2237 C   0  0  2  0  0  0  0  0  0  0  0  0
   -5.4061   10.5293   41.5085 N   0  0  0  0  0  0  0  0  0  0  0  0
   -4.2668   12.1651   40.0593 C   0  0  2  0  0  0  0  0  0  0  0  0
   -2.8834   12.8240   39.7599 C   0  0  2  0  0  0  0  0  0  0  0  0
   -3.0330   13.7516   38.6765 O   0  0  0  0  0  0  0  0  0  0  0  0
   -1.8415   11.7546   39.3513 C   0  0  1  0  0  0  0  0  0  0  0  0
   -0.5907   12.4429   39.1033 O   0  0  0  0  0  0  0  0  0  0  0  0
    0.4935   11.6292   38.5973 C   0  0  2  0  0  0  0  0  0  0  0  0
    1.6409   12.6290   38.1959 C   0  0  2  0  0  0  0  0  0  0  0  0
    2.0642   13.3597   39.3362 O   0  0  0  0  0  0  0  0  0  0  0  0
    1.1076   13.5961   37.0721 C   0  0  1  0  0  0  0  0  0  0  0  0
    2.1639   14.5726   36.6659 N   0  0  0  0  0  0  0  0  0  0  0  0
    1.8269   15.9009   37.2216 C   0  0  0  0  0  0  0  0  0  0  0  0
    0.6666   12.7367   35.8484 C   0  0  2  0  0  0  0  0  0  0  0  0
    1.7987   12.0162   35.3638 O   0  0  0  0  0  0  0  0  0  0  0  0
    0.1265   13.6021   34.7128 C   0  0  0  0  0  0  0  0  0  0  0  0
   -0.4337   11.7249   36.3032 C   0  0  0  0  0  0  0  0  0  0  0  0
    0.0560   10.8726   37.4070 O   0  0  0  0  0  0  0  0  0  0  0  0
  1  3  1  0  0  0  0
  1  2  1  6  0  0  0
  3  5  1  0  0  0  0
  3  4  1  6  0  0  0
  5  6  1  6  0  0  0
  7  8  1  6  0  0  0
  7  5  1  0  0  0  0
  9 10  1  1  0  0  0
  9  7  1  0  0  0  0
 10  1  1  0  0  0  0
 11 13  1  1  0  0  0
 11  9  1  0  0  0  0
 12 11  1  0  0  0  0
 14 15  1  6  0  0  0
 16 14  1  0  0  0  0
 17 18  1  6  0  0  0
 17 16  1  0  0  0  0
 19  2  1  1  0  0  0
 19 20  1  0  0  0  0
 19 17  1  0  0  0  0
 20 21  1  6  0  0  0
 20 22  1  0  0  0  0
 22 23  1  1  0  0  0
 22 14  1  0  0  0  0
 24 23  1  6  0  0  0
 24 25  1  0  0  0  0
 25 27  1  0  0  0  0
 25 26  1  1  0  0  0
 27 28  1  6  0  0  0
 28 29  1  0  0  0  0
 30 31  1  6  0  0  0
 30 32  1  0  0  0  0
 30 27  1  0  0  0  0
 33 30  1  0  0  0  0
 34 33  1  0  0  0  0
 34 24  1  0  0  0  0
M  END
>  <CHROM.1>
-74.23621902,-178.28376471,-85.95274819,68.87767946,171.09277683,-106.10801046
-3.23854966,13.16530232,39.00695051,-3.08334191,0.40812888,-0.68462943

>  <Name>
lig.pdb

>  <RI>
0

>  <Rbt.Current_Directory>
/home/itssahil/PROJECTS/Mol_Feturizer/New_Systems/rnas/4k32

>  <Rbt.Executable>
rbdock ($Id: //depot/dev/client3/rdock/2013.1/src/exe/rbdock.cxx#4 $)

>  <Rbt.Library>
libRbt.so (2013.1, Build901 2013/11/27)

>  <Rbt.Parameter_File>
/export/apps/rDock/src/rDock_2013.1_src/data/scripts/dock_solv.prm

>  <Rbt.Receptor>
prm/pocket_docking_6.prm

>  <SCORE>
-4.05077

>  <SCORE.INTER>
0.0779805

>  <SCORE.INTER.CONST>
1

>  <SCORE.INTER.POLAR>
0

>  <SCORE.INTER.ROT>
6

>  <SCORE.INTER.SOLV>
16.2661

>  <SCORE.INTER.VDW>
-12.9701

>  <SCORE.INTER.norm>
0.00229354

>  <SCORE.INTRA>
-4.12875

>  <SCORE.INTRA.DIHEDRAL>
-12.319

>  <SCORE.INTRA.DIHEDRAL.0>
18.0069

>  <SCORE.INTRA.POLAR>
0

>  <SCORE.INTRA.POLAR.0>
0

>  <SCORE.INTRA.REPUL>
0

>  <SCORE.INTRA.REPUL.0>
0

>  <SCORE.INTRA.SOLV>
1.91604

>  <SCORE.INTRA.SOLV.lig_0>
-70.7393

>  <SCORE.INTRA.VDW>
1.07272

>  <SCORE.INTRA.VDW.0>
-3.23471

>  <SCORE.INTRA.norm>
-0.121434

>  <SCORE.RESTR>
0

>  <SCORE.RESTR.CAVITY>
0

>  <SCORE.RESTR.norm>
0

>  <SCORE.SYSTEM>
0

>  <SCORE.SYSTEM.CONST>
0

>  <SCORE.SYSTEM.DIHEDRAL>
0

>  <SCORE.SYSTEM.SOLV>
0

>  <SCORE.SYSTEM.norm>
0

>  <SCORE.heavy>
34

>  <SCORE.norm>
-0.11914

>  <RMSD>
8.569

$$$$
lig.pdb
 OpenBabel11021811503D
libRbt.so/2013.1/901 2013/11/27
 34 36  0  0  0  0  0  0  0  0999 V2000
   -5.5153   14.3282   38.8225 C   0  0  2  0  0  0  0  0  0  0  0  0
   -4.7028   14.9056   37.7946 O   0  0  0  0  0  0  0  0  0  0  0  0
   -4.5635   13.6333   39.8866 C   0  0  2  0  0  0  0  0  0  0  0  0
   -3.6347   14.6039   40.5114 N   0  0  0  0  0  0  0  0  0  0  0  0
   -3.7597   12.5020   39.1975 C   0  0  1  0  0  0  0  0  0  0  0  0
   -2.9011   11.8593   40.1425 O   0  0  0  0  0  0  0  0  0  0  0  0
   -4.7528   11.5048   38.5746 C   0  0  2  0  0  0  0  0  0  0  0  0
   -4.0244   10.4535   37.9385 O   0  0  0  0  0  0  0  0  0  0  0  0
   -5.6793   12.2530   37.5410 C   0  0  2  0  0  0  0  0  0  0  0  0
   -6.4160   13.3531   38.1989 O   0  0  0  0  0  0  0  0  0  0  0  0
   -6.7093   11.2910   36.8985 C   0  0  2  0  0  0  0  0  0  0  0  0
   -6.9559   10.1899   37.7751 O   0  0  0  0  0  0  0  0  0  0  0  0
   -6.2025   10.7503   35.5706 C   0  0  0  0  0  0  0  0  0  0  0  0
   -3.5697   18.9680   37.0666 C   0  0  2  0  0  0  0  0  0  0  0  0
   -3.1467   20.3524   37.2914 N   0  0  0  0  0  0  0  0  0  0  0  0
   -4.8040   18.7103   37.9742 C   0  0  0  0  0  0  0  0  0  0  0  0
   -5.2827   17.2532   37.7318 C   0  0  2  0  0  0  0  0  0  0  0  0
   -6.4576   16.9658   38.5696 N   0  0  0  0  0  0  0  0  0  0  0  0
   -4.1582   16.2364   38.0652 C   0  0  2  0  0  0  0  0  0  0  0  0
   -2.9133   16.5437   37.1743 C   0  0  2  0  0  0  0  0  0  0  0  0
   -1.8710   15.6110   37.4912 O   0  0  0  0  0  0  0  0  0  0  0  0
   -2.3882   17.9759   37.4376 C   0  0  1  0  0  0  0  0  0  0  0  0
   -1.2471   18.1840   36.5690 O   0  0  0  0  0  0  0  0  0  0  0  0
   -1.3553   17.6352   35.2345 C   0  0  2  0  0  0  0  0  0  0  0  0
    0.0397   17.8774   34.5471 C   0  0  2  0  0  0  0  0  0  0  0  0
    1.0579   17.2078   35.2740 O   0  0  0  0  0  0  0  0  0  0  0  0
    0.3175   19.4271   34.4843 C   0  0  1  0  0  0  0  0  0  0  0  0
    1.6405   19.7045   33.8463 N   0  0  0  0  0  0  0  0  0  0  0  0
    2.3880   20.6608   34.6909 C   0  0  0  0  0  0  0  0  0  0  0  0
   -0.8276   20.1022   33.6698 C   0  0  2  0  0  0  0  0  0  0  0  0
   -0.8300   19.5613   32.3495 O   0  0  0  0  0  0  0  0  0  0  0  0
   -0.6369   21.6134   33.5689 C   0  0  0  0  0  0  0  0  0  0  0  0
   -2.1961   19.7929   34.3573 C   0  0  0  0  0  0  0  0  0  0  0  0
   -2.4107   18.3352   34.4751 O   0  0  0  0  0  0  0  0  0  0  0  0
  1  3  1  0  0  0  0
  1  2  1  6  0  0  0
  3  5  1  0  0  0  0
  3  4  1  6  0  0  0
  5  6  1  1  0  0  0
  7  8  1  6  0  0  0
  7  5  1  0  0  0  0
  9 10  1  1  0  0  0
  9  7  1  0  0  0  0
 10  1  1  0  0  0  0
 11 13  1  6  0  0  0
 11  9  1  0  0  0  0
 12 11  1  0  0  0  0
 14 15  1  1  0  0  0
 16 14  1  0  0  0  0
 17 18  1  1  0  0  0
 17 16  1  0  0  0  0
 19  2  1  6  0  0  0
 19 20  1  0  0  0  0
 19 17  1  0  0  0  0
 20 21  1  1  0  0  0
 20 22  1  0  0  0  0
 22 23  1  6  0  0  0
 22 14  1  0  0  0  0
 24 23  1  1  0  0  0
 24 25  1  0  0  0  0
 25 27  1  0  0  0  0
 25 26  1  1  0  0  0
 27 28  1  6  0  0  0
 28 29  1  0  0  0  0
 30 31  1  6  0  0  0
 30 32  1  0  0  0  0
 30 27  1  0  0  0  0
 33 30  1  0  0  0  0
 34 33  1  0  0  0  0
 34 24  1  0  0  0  0
M  END
>  <CHROM.1>
-83.89107489,25.27948696,-81.93600227,-76.85676570,-175.05116660,-131.61455993
-3.05517486,16.14869268,36.76980643,2.24966720,-0.61426217,3.10959782

>  <Name>
lig.pdb

>  <RI>
0

>  <Rbt.Current_Directory>
/home/itssahil/PROJECTS/Mol_Feturizer/New_Systems/rnas/4k32

>  <Rbt.Executable>
rbdock ($Id: //depot/dev/client3/rdock/2013.1/src/exe/rbdock.cxx#4 $)

>  <Rbt.Library>
libRbt.so (2013.1, Build901 2013/11/27)

>  <Rbt.Parameter_File>
/export/apps/rDock/src/rDock_2013.1_src/data/scripts/dock_solv.prm

>  <Rbt.Receptor>
prm/pocket_docking_4.prm

>  <SCORE>
-9.48856

>  <SCORE.INTER>
-9.29388

>  <SCORE.INTER.CONST>
1

>  <SCORE.INTER.POLAR>
0

>  <SCORE.INTER.ROT>
6

>  <SCORE.INTER.SOLV>
21.9257

>  <SCORE.INTER.VDW>
-21.1045

>  <SCORE.INTER.norm>
-0.27335

>  <SCORE.INTRA>
-0.194674

>  <SCORE.INTRA.DIHEDRAL>
-7.51743

>  <SCORE.INTRA.DIHEDRAL.0>
18.0069

>  <SCORE.INTRA.POLAR>
0

>  <SCORE.INTRA.POLAR.0>
0

>  <SCORE.INTRA.REPUL>
0

>  <SCORE.INTRA.REPUL.0>
0

>  <SCORE.INTRA.SOLV>
2.23752

>  <SCORE.INTRA.SOLV.lig_0>
-70.7393

>  <SCORE.INTRA.VDW>
2.44528

>  <SCORE.INTRA.VDW.0>
-3.23471

>  <SCORE.INTRA.norm>
-0.00572571

>  <SCORE.RESTR>
0

>  <SCORE.RESTR.CAVITY>
0

>  <SCORE.RESTR.norm>
0

>  <SCORE.SYSTEM>
0

>  <SCORE.SYSTEM.CONST>
0

>  <SCORE.SYSTEM.DIHEDRAL>
0

>  <SCORE.SYSTEM.SOLV>
0

>  <SCORE.SYSTEM.norm>
0

>  <SCORE.heavy>
34

>  <SCORE.norm>
-0.279075

>  <RMSD>
8.626

$$$$
lig.pdb
 OpenBabel11021811503D
libRbt.so/2013.1/901 2013/11/27
 34 36  0  0  0  0  0  0  0  0999 V2000
   -5.7580   13.2599   40.5549 C   0  0  2  0  0  0  0  0  0  0  0  0
   -4.9553   14.4344   40.3926 O   0  0  0  0  0  0  0  0  0  0  0  0
   -7.2478   13.6045   40.1273 C   0  0  2  0  0  0  0  0  0  0  0  0
   -7.3287   14.0371   38.7126 N   0  0  0  0  0  0  0  0  0  0  0  0
   -7.8050   14.7161   41.0519 C   0  0  1  0  0  0  0  0  0  0  0  0
   -9.1496   15.0354   40.6862 O   0  0  0  0  0  0  0  0  0  0  0  0
   -7.7219   14.2285   42.5093 C   0  0  2  0  0  0  0  0  0  0  0  0
   -8.2364   15.2433   43.3729 O   0  0  0  0  0  0  0  0  0  0  0  0
   -6.2255   13.8872   42.8708 C   0  0  2  0  0  0  0  0  0  0  0  0
   -5.6903   12.8513   41.9618 O   0  0  0  0  0  0  0  0  0  0  0  0
   -6.0936   13.3750   44.3267 C   0  0  2  0  0  0  0  0  0  0  0  0
   -6.9453   14.1348   45.1863 O   0  0  0  0  0  0  0  0  0  0  0  0
   -4.6627   13.5010   44.8261 C   0  0  0  0  0  0  0  0  0  0  0  0
   -0.8475   14.8276   39.2576 C   0  0  2  0  0  0  0  0  0  0  0  0
    0.6159   14.7775   39.3034 N   0  0  0  0  0  0  0  0  0  0  0  0
   -1.3229   15.5762   40.5334 C   0  0  0  0  0  0  0  0  0  0  0  0
   -2.8727   15.6610   40.4912 C   0  0  2  0  0  0  0  0  0  0  0  0
   -3.3684   16.3696   41.6816 N   0  0  0  0  0  0  0  0  0  0  0  0
   -3.5053   14.2443   40.4411 C   0  0  2  0  0  0  0  0  0  0  0  0
   -2.9779   13.4954   39.1768 C   0  0  2  0  0  0  0  0  0  0  0  0
   -3.5540   12.1827   39.1378 O   0  0  0  0  0  0  0  0  0  0  0  0
   -1.4370   13.3548   39.2234 C   0  0  1  0  0  0  0  0  0  0  0  0
   -1.0297   12.6634   38.0168 O   0  0  0  0  0  0  0  0  0  0  0  0
   -1.4203   13.2806   36.7677 C   0  0  2  0  0  0  0  0  0  0  0  0
   -1.3877   12.1378   35.6858 C   0  0  2  0  0  0  0  0  0  0  0  0
   -2.3054   11.1145   36.0378 O   0  0  0  0  0  0  0  0  0  0  0  0
    0.0787   11.5702   35.5846 C   0  0  1  0  0  0  0  0  0  0  0  0
    0.1550   10.4723   34.5731 N   0  0  0  0  0  0  0  0  0  0  0  0
    0.2480    9.1765   35.2795 C   0  0  0  0  0  0  0  0  0  0  0  0
    1.0344   12.7368   35.1893 C   0  0  2  0  0  0  0  0  0  0  0  0
    0.6299   13.2495   33.9208 O   0  0  0  0  0  0  0  0  0  0  0  0
    2.4835   12.2697   35.0780 C   0  0  0  0  0  0  0  0  0  0  0  0
    0.9311   13.8689   36.2610 C   0  0  0  0  0  0  0  0  0  0  0  0
   -0.4626   14.3419   36.3973 O   0  0  0  0  0  0  0  0  0  0  0  0
  1  3  1  0  0  0  0
  1  2  1  1  0  0  0
  3  5  1  0  0  0  0
  3  4  1  6  0  0  0
  5  6  1  6  0  0  0
  7  8  1  1  0  0  0
  7  5  1  0  0  0  0
  9 10  1  6  0  0  0
  9  7  1  0  0  0  0
 10  1  1  0  0  0  0
 11 13  1  1  0  0  0
 11  9  1  0  0  0  0
 12 11  1  0  0  0  0
 14 15  1  1  0  0  0
 16 14  1  0  0  0  0
 17 18  1  1  0  0  0
 17 16  1  0  0  0  0
 19  2  1  6  0  0  0
 19 20  1  0  0  0  0
 19 17  1  0  0  0  0
 20 21  1  1  0  0  0
 20 22  1  0  0  0  0
 22 23  1  6  0  0  0
 22 14  1  0  0  0  0
 24 23  1  1  0  0  0
 24 25  1  0  0  0  0
 25 27  1  0  0  0  0
 25 26  1  1  0  0  0
 27 28  1  6  0  0  0
 28 29  1  0  0  0  0
 30 31  1  6  0  0  0
 30 32  1  0  0  0  0
 30 27  1  0  0  0  0
 33 30  1  0  0  0  0
 34 33  1  0  0  0  0
 34 24  1  0  0  0  0
M  END
>  <CHROM.1>
-166.48705413,-40.27083185,-170.40711824,-58.89172063,-158.42637179,-104.97266453
-3.20035247,13.50677515,39.25788664,2.37609346,0.22060162,1.06297813

>  <Name>
lig.pdb

>  <RI>
0

>  <Rbt.Current_Directory>
/home/itssahil/PROJECTS/Mol_Feturizer/New_Systems/rnas/4k32

>  <Rbt.Executable>
rbdock ($Id: //depot/dev/client3/rdock/2013.1/src/exe/rbdock.cxx#4 $)

>  <Rbt.Library>
libRbt.so (2013.1, Build901 2013/11/27)

>  <Rbt.Parameter_File>
/export/apps/rDock/src/rDock_2013.1_src/data/scripts/dock_solv.prm

>  <Rbt.Receptor>
prm/pocket_docking_8.prm

>  <SCORE>
-6.00568

>  <SCORE.INTER>
-0.976333

>  <SCORE.INTER.CONST>
1

>  <SCORE.INTER.POLAR>
0

>  <SCORE.INTER.ROT>
6

>  <SCORE.INTER.SOLV>
11.0913

>  <SCORE.INTER.VDW>
-11.948

>  <SCORE.INTER.norm>
-0.0287157

>  <SCORE.INTRA>
-5.02935

>  <SCORE.INTRA.DIHEDRAL>
-12.2039

>  <SCORE.INTRA.DIHEDRAL.0>
18.0069

>  <SCORE.INTRA.POLAR>
0

>  <SCORE.INTRA.POLAR.0>
0

>  <SCORE.INTRA.REPUL>
0

>  <SCORE.INTRA.REPUL.0>
0

>  <SCORE.INTRA.SOLV>
-0.227942

>  <SCORE.INTRA.SOLV.lig_0>
-70.7393

>  <SCORE.INTRA.VDW>
1.18655

>  <SCORE.INTRA.VDW.0>
-3.23471

>  <SCORE.INTRA.norm>
-0.147922

>  <SCORE.RESTR>
0

>  <SCORE.RESTR.CAVITY>
0

>  <SCORE.RESTR.norm>
0

>  <SCORE.SYSTEM>
0

>  <SCORE.SYSTEM.CONST>
0

>  <SCORE.SYSTEM.DIHEDRAL>
0

>  <SCORE.SYSTEM.SOLV>
0

>  <SCORE.SYSTEM.norm>
0

>  <SCORE.heavy>
34

>  <SCORE.norm>
-0.176638

>  <RMSD>
8.628

$$$$
lig.pdb
 OpenBabel11021811503D
libRbt.so/2013.1/901 2013/11/27
 34 36  0  0  0  0  0  0  0  0999 V2000
   -4.0448   10.5277   37.5110 C   0  0  2  0  0  0  0  0  0  0  0  0
   -3.8608   10.3032   38.9131 O   0  0  0  0  0  0  0  0  0  0  0  0
   -4.9392    9.3534   36.9256 C   0  0  2  0  0  0  0  0  0  0  0  0
   -6.2712    9.3011   37.5720 N   0  0  0  0  0  0  0  0  0  0  0  0
   -4.2056    8.0022   37.1181 C   0  0  1  0  0  0  0  0  0  0  0  0
   -4.9932    6.9325   36.5903 O   0  0  0  0  0  0  0  0  0  0  0  0
   -2.8354    8.0851   36.4220 C   0  0  2  0  0  0  0  0  0  0  0  0
   -2.1493    6.8434   36.5886 O   0  0  0  0  0  0  0  0  0  0  0  0
   -2.0006    9.2757   37.0320 C   0  0  2  0  0  0  0  0  0  0  0  0
   -2.7233   10.5560   36.8757 O   0  0  0  0  0  0  0  0  0  0  0  0
   -0.6165    9.4095   36.3497 C   0  0  2  0  0  0  0  0  0  0  0  0
    0.1263    8.2009   36.5203 O   0  0  0  0  0  0  0  0  0  0  0  0
    0.1816   10.5583   36.9464 C   0  0  0  0  0  0  0  0  0  0  0  0
   -3.0104   13.0764   42.0599 C   0  0  2  0  0  0  0  0  0  0  0  0
   -2.3013   14.0352   42.9109 N   0  0  0  0  0  0  0  0  0  0  0  0
   -2.1146   11.8122   41.9448 C   0  0  0  0  0  0  0  0  0  0  0  0
   -2.8610   10.7730   41.0650 C   0  0  2  0  0  0  0  0  0  0  0  0
   -2.0491    9.5530   40.9330 N   0  0  0  0  0  0  0  0  0  0  0  0
   -3.1512   11.3475   39.6524 C   0  0  2  0  0  0  0  0  0  0  0  0
   -4.0130   12.6414   39.7960 C   0  0  2  0  0  0  0  0  0  0  0  0
   -4.2708   13.1776   38.4911 O   0  0  0  0  0  0  0  0  0  0  0  0
   -3.2651   13.7112   40.6282 C   0  0  1  0  0  0  0  0  0  0  0  0
   -4.1322   14.8684   40.7231 O   0  0  0  0  0  0  0  0  0  0  0  0
   -3.5930   16.0108   41.4287 C   0  0  2  0  0  0  0  0  0  0  0  0
   -4.7379   17.0906   41.4530 C   0  0  2  0  0  0  0  0  0  0  0  0
   -5.8697   16.5777   42.1381 O   0  0  0  0  0  0  0  0  0  0  0  0
   -5.1047   17.4815   39.9713 C   0  0  1  0  0  0  0  0  0  0  0  0
   -6.1982   18.5003   39.9455 N   0  0  0  0  0  0  0  0  0  0  0  0
   -7.4119   17.8850   39.3668 C   0  0  0  0  0  0  0  0  0  0  0  0
   -3.8265   18.0427   39.2771 C   0  0  2  0  0  0  0  0  0  0  0  0
   -3.3929   19.2025   39.9860 O   0  0  0  0  0  0  0  0  0  0  0  0
   -4.0961   18.4391   37.8277 C   0  0  0  0  0  0  0  0  0  0  0  0
   -2.7018   16.9592   39.3221 C   0  0  0  0  0  0  0  0  0  0  0  0
   -2.4185   16.5490   40.7136 O   0  0  0  0  0  0  0  0  0  0  0  0
  1  3  1  0  0  0  0
  1  2  1  1  0  0  0
  3  5  1  0  0  0  0
  3  4  1  1  0  0  0
  5  6  1  6  0  0  0
  7  8  1  1  0  0  0
  7  5  1  0  0  0  0
  9 10  1  6  0  0  0
  9  7  1  0  0  0  0
 10  1  1  0  0  0  0
 11 13  1  1  0  0  0
 11  9  1  0  0  0  0
 12 11  1  0  0  0  0
 14 15  1  1  0  0  0
 16 14  1  0  0  0  0
 17 18  1  6  0  0  0
 17 16  1  0  0  0  0
 19  2  1  6  0  0  0
 19 20  1  0  0  0  0
 19 17  1  0  0  0  0
 20 21  1  6  0  0  0
 20 22  1  0  0  0  0
 22 23  1  1  0  0  0
 22 14  1  0  0  0  0
 24 23  1  6  0  0  0
 24 25  1  0  0  0  0
 25 27  1  0  0  0  0
 25 26  1  6  0  0  0
 27 28  1  1  0  0  0
 28 29  1  0  0  0  0
 30 31  1  1  0  0  0
 30 32  1  0  0  0  0
 30 27  1  0  0  0  0
 33 30  1  0  0  0  0
 34 33  1  0  0  0  0
 34 24  1  0  0  0  0
M  END
>  <CHROM.1>
-175.05185780,-59.66187327,-170.30165166,66.05378616,-177.30565530,-112.66419026
-3.49187863,12.79877247,39.12471367,1.32402557,0.68004946,-2.63744846

>  <Name>
lig.pdb

>  <RI>
0

>  <Rbt.Current_Directory>
/home/itssahil/PROJECTS/Mol_Feturizer/New_Systems/rnas/4k32

>  <Rbt.Executable>
rbdock ($Id: //depot/dev/client3/rdock/2013.1/src/exe/rbdock.cxx#4 $)

>  <Rbt.Library>
libRbt.so (2013.1, Build901 2013/11/27)

>  <Rbt.Parameter_File>
/export/apps/rDock/src/rDock_2013.1_src/data/scripts/dock_solv.prm

>  <Rbt.Receptor>
prm/pocket_docking_7.prm

>  <SCORE>
-6.40154

>  <SCORE.INTER>
1.8032

>  <SCORE.INTER.CONST>
1

>  <SCORE.INTER.POLAR>
0

>  <SCORE.INTER.ROT>
6

>  <SCORE.INTER.SOLV>
17.4847

>  <SCORE.INTER.VDW>
-12.2261

>  <SCORE.INTER.norm>
0.0530352

>  <SCORE.INTRA>
-8.20473

>  <SCORE.INTRA.DIHEDRAL>
-15.9919

>  <SCORE.INTRA.DIHEDRAL.0>
18.0069

>  <SCORE.INTRA.POLAR>
0

>  <SCORE.INTRA.POLAR.0>
0

>  <SCORE.INTRA.REPUL>
0

>  <SCORE.INTRA.REPUL.0>
0

>  <SCORE.INTRA.SOLV>
-1.43188

>  <SCORE.INTRA.SOLV.lig_0>
-70.7393

>  <SCORE.INTRA.VDW>
0.507158

>  <SCORE.INTRA.VDW.0>
-3.23471

>  <SCORE.INTRA.norm>
-0.241316

>  <SCORE.RESTR>
0

>  <SCORE.RESTR.CAVITY>
0

>  <SCORE.RESTR.norm>
0

>  <SCORE.SYSTEM>
0

>  <SCORE.SYSTEM.CONST>
0

>  <SCORE.SYSTEM.DIHEDRAL>
0

>  <SCORE.SYSTEM.SOLV>
0

>  <SCORE.SYSTEM.norm>
0

>  <SCORE.heavy>
34

>  <SCORE.norm>
-0.18828

>  <RMSD>
8.647

$$$$
lig.pdb
 OpenBabel11021811503D
libRbt.so/2013.1/901 2013/11/27
 34 36  0  0  0  0  0  0  0  0999 V2000
   -4.9969   13.9803   37.7110 C   0  0  2  0  0  0  0  0  0  0  0  0
   -4.3660   14.8728   36.7860 O   0  0  0  0  0  0  0  0  0  0  0  0
   -3.8791   13.0664   38.3717 C   0  0  2  0  0  0  0  0  0  0  0  0
   -2.8734   13.8697   39.1052 N   0  0  0  0  0  0  0  0  0  0  0  0
   -3.1831   12.2269   37.2708 C   0  0  1  0  0  0  0  0  0  0  0  0
   -2.1770   11.3915   37.8480 O   0  0  0  0  0  0  0  0  0  0  0  0
   -4.2517   11.3938   36.5409 C   0  0  2  0  0  0  0  0  0  0  0  0
   -3.6226   10.6115   35.5248 O   0  0  0  0  0  0  0  0  0  0  0  0
   -5.3402   12.3515   35.9209 C   0  0  2  0  0  0  0  0  0  0  0  0
   -5.9746   13.1739   36.9731 O   0  0  0  0  0  0  0  0  0  0  0  0
   -6.4488   11.5556   35.1883 C   0  0  2  0  0  0  0  0  0  0  0  0
   -6.8132   10.4099   35.9605 O   0  0  0  0  0  0  0  0  0  0  0  0
   -5.9772   11.0887   33.8199 C   0  0  0  0  0  0  0  0  0  0  0  0
   -3.5521   19.0671   37.0340 C   0  0  2  0  0  0  0  0  0  0  0  0
   -3.1772   20.3790   37.5676 N   0  0  0  0  0  0  0  0  0  0  0  0
   -4.6436   18.4829   37.9727 C   0  0  0  0  0  0  0  0  0  0  0  0
   -5.0721   17.1009   37.4093 C   0  0  2  0  0  0  0  0  0  0  0  0
   -6.1122   16.5109   38.2666 N   0  0  0  0  0  0  0  0  0  0  0  0
   -3.8619   16.1316   37.3358 C   0  0  2  0  0  0  0  0  0  0  0  0
   -2.7605   16.7602   36.4251 C   0  0  2  0  0  0  0  0  0  0  0  0
   -1.6383   15.8691   36.3672 O   0  0  0  0  0  0  0  0  0  0  0  0
   -2.2820   18.1168   36.9969 C   0  0  1  0  0  0  0  0  0  0  0  0
   -1.2751   18.6354   36.0929 O   0  0  0  0  0  0  0  0  0  0  0  0
   -1.5968   18.5795   34.6833 C   0  0  2  0  0  0  0  0  0  0  0  0
   -0.2782   18.9699   33.9176 C   0  0  2  0  0  0  0  0  0  0  0  0
    0.7504   18.0421   34.2252 O   0  0  0  0  0  0  0  0  0  0  0  0
    0.1394   20.4323   34.3295 C   0  0  1  0  0  0  0  0  0  0  0  0
    1.3962   20.8425   33.6320 N   0  0  0  0  0  0  0  0  0  0  0  0
    2.4892   20.9252   34.6245 C   0  0  0  0  0  0  0  0  0  0  0  0
   -1.0247   21.4014   33.9605 C   0  0  2  0  0  0  0  0  0  0  0  0
   -1.2394   21.3427   32.5512 O   0  0  0  0  0  0  0  0  0  0  0  0
   -0.7015   22.8451   34.3369 C   0  0  0  0  0  0  0  0  0  0  0  0
   -2.3236   20.9466   34.7003 C   0  0  0  0  0  0  0  0  0  0  0  0
   -2.6631   19.5488   34.3607 O   0  0  0  0  0  0  0  0  0  0  0  0
  1  3  1  0  0  0  0
  1  2  1  6  0  0  0
  3  5  1  0  0  0  0
  3  4  1  6  0  0  0
  5  6  1  1  0  0  0
  7  8  1  6  0  0  0
  7  5  1  0  0  0  0
  9 10  1  1  0  0  0
  9  7  1  0  0  0  0
 10  1  1  0  0  0  0
 11 13  1  6  0  0  0
 11  9  1  0  0  0  0
 12 11  1  0  0  0  0
 14 15  1  1  0  0  0
 16 14  1  0  0  0  0
 17 18  1  1  0  0  0
 17 16  1  0  0  0  0
 19  2  1  6  0  0  0
 19 20  1  0  0  0  0
 19 17  1  0  0  0  0
 20 21  1  1  0  0  0
 20 22  1  0  0  0  0
 22 23  1  6  0  0  0
 22 14  1  0  0  0  0
 24 23  1  1  0  0  0
 24 25  1  0  0  0  0
 25 27  1  0  0  0  0
 25 26  1  1  0  0  0
 27 28  1  6  0  0  0
 28 29  1  0  0  0  0
 30 31  1  6  0  0  0
 30 32  1  0  0  0  0
 30 27  1  0  0  0  0
 33 30  1  0  0  0  0
 34 33  1  0  0  0  0
 34 24  1  0  0  0  0
M  END
>  <CHROM.1>
-86.96058023,42.19545709,-82.47368527,-69.88633158,-170.95535455,-110.39057383
-2.90563262,16.46643449,35.96773131,2.15550843,-0.62706885,-3.00980832

>  <Name>
lig.pdb

>  <RI>
0

>  <Rbt.Current_Directory>
/home/itssahil/PROJECTS/Mol_Feturizer/New_Systems/rnas/4k32

>  <Rbt.Executable>
rbdock ($Id: //depot/dev/client3/rdock/2013.1/src/exe/rbdock.cxx#4 $)

>  <Rbt.Library>
libRbt.so (2013.1, Build901 2013/11/27)

>  <Rbt.Parameter_File>
/export/apps/rDock/src/rDock_2013.1_src/data/scripts/dock_solv.prm

>  <Rbt.Receptor>
prm/pocket_docking_4.prm

>  <SCORE>
-8.51169

>  <SCORE.INTER>
-6.55327

>  <SCORE.INTER.CONST>
1

>  <SCORE.INTER.POLAR>
0

>  <SCORE.INTER.ROT>
6

>  <SCORE.INTER.SOLV>
20.7737

>  <SCORE.INTER.VDW>
-18.8934

>  <SCORE.INTER.norm>
-0.192743

>  <SCORE.INTRA>
-1.95842

>  <SCORE.INTRA.DIHEDRAL>
-9.64077

>  <SCORE.INTRA.DIHEDRAL.0>
18.0069

>  <SCORE.INTRA.POLAR>
0

>  <SCORE.INTRA.POLAR.0>
0

>  <SCORE.INTRA.REPUL>
0

>  <SCORE.INTRA.REPUL.0>
0

>  <SCORE.INTRA.SOLV>
2.2068

>  <SCORE.INTRA.SOLV.lig_0>
-70.7393

>  <SCORE.INTRA.VDW>
1.75857

>  <SCORE.INTRA.VDW.0>
-3.23471

>  <SCORE.INTRA.norm>
-0.0576005

>  <SCORE.RESTR>
0

>  <SCORE.RESTR.CAVITY>
0

>  <SCORE.RESTR.norm>
0

>  <SCORE.SYSTEM>
0

>  <SCORE.SYSTEM.CONST>
0

>  <SCORE.SYSTEM.DIHEDRAL>
0

>  <SCORE.SYSTEM.SOLV>
0

>  <SCORE.SYSTEM.norm>
0

>  <SCORE.heavy>
34

>  <SCORE.norm>
-0.250344

>  <RMSD>
8.673

$$$$
lig.pdb
 OpenBabel11021811503D
libRbt.so/2013.1/901 2013/11/27
 34 36  0  0  0  0  0  0  0  0999 V2000
   -6.2159   17.5103   38.4819 C   0  0  2  0  0  0  0  0  0  0  0  0
   -5.3162   17.6313   39.5892 O   0  0  0  0  0  0  0  0  0  0  0  0
   -7.5783   18.2339   38.8581 C   0  0  2  0  0  0  0  0  0  0  0  0
   -7.3765   19.6734   39.1445 N   0  0  0  0  0  0  0  0  0  0  0  0
   -8.2104   17.5346   40.0879 C   0  0  1  0  0  0  0  0  0  0  0  0
   -9.4430   18.1686   40.4377 O   0  0  0  0  0  0  0  0  0  0  0  0
   -8.4214   16.0477   39.7512 C   0  0  2  0  0  0  0  0  0  0  0  0
   -9.0077   15.3911   40.8762 O   0  0  0  0  0  0  0  0  0  0  0  0
   -7.0406   15.3879   39.3712 C   0  0  2  0  0  0  0  0  0  0  0  0
   -6.4275   16.0830   38.2193 O   0  0  0  0  0  0  0  0  0  0  0  0
   -7.2051   13.8913   39.0074 C   0  0  2  0  0  0  0  0  0  0  0  0
   -7.6828   13.1667   40.1425 O   0  0  0  0  0  0  0  0  0  0  0  0
   -5.8825   13.2845   38.5654 C   0  0  0  0  0  0  0  0  0  0  0  0
   -1.0717   17.0848   39.6376 C   0  0  2  0  0  0  0  0  0  0  0  0
    0.2450   16.4426   39.6401 N   0  0  0  0  0  0  0  0  0  0  0  0
   -1.8991   16.4438   40.7857 C   0  0  0  0  0  0  0  0  0  0  0  0
   -3.2920   17.1295   40.8148 C   0  0  2  0  0  0  0  0  0  0  0  0
   -4.1105   16.5556   41.8944 N   0  0  0  0  0  0  0  0  0  0  0  0
   -4.0305   16.9446   39.4621 C   0  0  2  0  0  0  0  0  0  0  0  0
   -3.1597   17.5549   38.3188 C   0  0  2  0  0  0  0  0  0  0  0  0
   -3.8376   17.3733   37.0682 O   0  0  0  0  0  0  0  0  0  0  0  0
   -1.7837   16.8501   38.2391 C   0  0  1  0  0  0  0  0  0  0  0  0
   -1.0378   17.4790   37.1677 O   0  0  0  0  0  0  0  0  0  0  0  0
   -1.0156   16.7697   35.9068 C   0  0  2  0  0  0  0  0  0  0  0  0
    0.2407   17.3060   35.1248 C   0  0  2  0  0  0  0  0  0  0  0  0
    1.4208   17.0337   35.8640 O   0  0  0  0  0  0  0  0  0  0  0  0
    0.0710   18.8538   34.8830 C   0  0  1  0  0  0  0  0  0  0  0  0
    1.2493   19.4095   34.1501 N   0  0  0  0  0  0  0  0  0  0  0  0
    2.0427   20.2412   35.0804 C   0  0  0  0  0  0  0  0  0  0  0  0
   -1.2344   19.0859   34.0629 C   0  0  2  0  0  0  0  0  0  0  0  0
   -1.1126   18.4150   32.8096 O   0  0  0  0  0  0  0  0  0  0  0  0
   -1.4776   20.5684   33.7919 C   0  0  0  0  0  0  0  0  0  0  0  0
   -2.4463   18.4929   34.8507 C   0  0  0  0  0  0  0  0  0  0  0  0
   -2.2407   17.0569   35.1340 O   0  0  0  0  0  0  0  0  0  0  0  0
  1  3  1  0  0  0  0
  1  2  1  1  0  0  0
  3  5  1  0  0  0  0
  3  4  1  1  0  0  0
  5  6  1  6  0  0  0
  7  8  1  1  0  0  0
  7  5  1  0  0  0  0
  9 10  1  6  0  0  0
  9  7  1  0  0  0  0
 10  1  1  0  0  0  0
 11 13  1  1  0  0  0
 11  9  1  0  0  0  0
 12 11  1  0  0  0  0
 14 15  1  6  0  0  0
 16 14  1  0  0  0  0
 17 18  1  1  0  0  0
 17 16  1  0  0  0  0
 19  2  1  1  0  0  0
 19 20  1  0  0  0  0
 19 17  1  0  0  0  0
 20 21  1  6  0  0  0
 20 22  1  0  0  0  0
 22 23  1  6  0  0  0
 22 14  1  0  0  0  0
 24 23  1  1  0  0  0
 24 25  1  0  0  0  0
 25 27  1  0  0  0  0
 25 26  1  1  0  0  0
 27 28  1  6  0  0  0
 28 29  1  0  0  0  0
 30 31  1  6  0  0  0
 30 32  1  0  0  0  0
 30 27  1  0  0  0  0
 33 30  1  0  0  0  0
 34 33  1  0  0  0  0
 34 24  1  0  0  0  0
M  END
>  <CHROM.1>
176.07965366,-63.03437787,-175.64590705,143.77416165,-158.69222939,-108.66540048
-3.67151455,17.19634609,37.84053239,2.51920877,-0.09482669,2.16348392

>  <Name>
lig.pdb

>  <RI>
0

>  <Rbt.Current_Directory>
/home/itssahil/PROJECTS/Mol_Feturizer/New_Systems/rnas/4k32

>  <Rbt.Executable>
rbdock ($Id: //depot/dev/client3/rdock/2013.1/src/exe/rbdock.cxx#4 $)

>  <Rbt.Library>
libRbt.so (2013.1, Build901 2013/11/27)

>  <Rbt.Parameter_File>
/export/apps/rDock/src/rDock_2013.1_src/data/scripts/dock_solv.prm

>  <Rbt.Receptor>
prm/pocket_docking_7.prm

>  <SCORE>
-14.9842

>  <SCORE.INTER>
-9.56426

>  <SCORE.INTER.CONST>
1

>  <SCORE.INTER.POLAR>
0

>  <SCORE.INTER.ROT>
6

>  <SCORE.INTER.SOLV>
18.216

>  <SCORE.INTER.VDW>
-20.0482

>  <SCORE.INTER.norm>
-0.281302

>  <SCORE.INTRA>
-5.41995

>  <SCORE.INTRA.DIHEDRAL>
-9.93849

>  <SCORE.INTRA.DIHEDRAL.0>
18.0069

>  <SCORE.INTRA.POLAR>
0

>  <SCORE.INTRA.POLAR.0>
0

>  <SCORE.INTRA.REPUL>
0

>  <SCORE.INTRA.REPUL.0>
0

>  <SCORE.INTRA.SOLV>
-2.51244

>  <SCORE.INTRA.SOLV.lig_0>
-70.7393

>  <SCORE.INTRA.VDW>
0.805514

>  <SCORE.INTRA.VDW.0>
-3.23471

>  <SCORE.INTRA.norm>
-0.15941

>  <SCORE.RESTR>
0

>  <SCORE.RESTR.CAVITY>
0

>  <SCORE.RESTR.norm>
0

>  <SCORE.SYSTEM>
0

>  <SCORE.SYSTEM.CONST>
0

>  <SCORE.SYSTEM.DIHEDRAL>
0

>  <SCORE.SYSTEM.SOLV>
0

>  <SCORE.SYSTEM.norm>
0

>  <SCORE.heavy>
34

>  <SCORE.norm>
-0.440712

>  <RMSD>
8.678

$$$$
lig.pdb
 OpenBabel11021811503D
libRbt.so/2013.1/901 2013/11/27
 34 36  0  0  0  0  0  0  0  0999 V2000
   -6.1869   17.5686   38.3602 C   0  0  2  0  0  0  0  0  0  0  0  0
   -5.2735   17.6586   39.4592 O   0  0  0  0  0  0  0  0  0  0  0  0
   -7.5535   18.2577   38.7830 C   0  0  2  0  0  0  0  0  0  0  0  0
   -7.3671   19.6876   39.1232 N   0  0  0  0  0  0  0  0  0  0  0  0
   -8.1589   17.5019   39.9926 C   0  0  1  0  0  0  0  0  0  0  0  0
   -9.3949   18.1043   40.3837 O   0  0  0  0  0  0  0  0  0  0  0  0
   -8.3546   16.0266   39.6003 C   0  0  2  0  0  0  0  0  0  0  0  0
   -8.9162   15.3182   40.7063 O   0  0  0  0  0  0  0  0  0  0  0  0
   -6.9705   15.4015   39.1760 C   0  0  2  0  0  0  0  0  0  0  0  0
   -6.3830   16.1499   38.0443 O   0  0  0  0  0  0  0  0  0  0  0  0
   -7.1199   13.9183   38.7556 C   0  0  2  0  0  0  0  0  0  0  0  0
   -7.5419   13.1377   39.8756 O   0  0  0  0  0  0  0  0  0  0  0  0
   -5.8032   13.3574   38.2414 C   0  0  0  0  0  0  0  0  0  0  0  0
   -1.0295   17.1066   39.4540 C   0  0  2  0  0  0  0  0  0  0  0  0
    0.2864   16.4634   39.4227 N   0  0  0  0  0  0  0  0  0  0  0  0
   -1.8486   16.4249   40.5845 C   0  0  0  0  0  0  0  0  0  0  0  0
   -3.2403   17.1104   40.6496 C   0  0  2  0  0  0  0  0  0  0  0  0
   -4.0511   16.4983   41.7140 N   0  0  0  0  0  0  0  0  0  0  0  0
   -3.9897   16.9757   39.2969 C   0  0  2  0  0  0  0  0  0  0  0  0
   -3.1272   17.6265   38.1698 C   0  0  2  0  0  0  0  0  0  0  0  0
   -3.8151   17.4913   36.9188 O   0  0  0  0  0  0  0  0  0  0  0  0
   -1.7528   16.9237   38.0536 C   0  0  1  0  0  0  0  0  0  0  0  0
   -1.0145   17.5906   37.0000 O   0  0  0  0  0  0  0  0  0  0  0  0
   -1.0029   16.9275   35.7139 C   0  0  2  0  0  0  0  0  0  0  0  0
    0.2702   17.4612   34.9578 C   0  0  2  0  0  0  0  0  0  0  0  0
    1.4395   17.1333   35.6916 O   0  0  0  0  0  0  0  0  0  0  0  0
    0.1394   19.0205   34.7721 C   0  0  1  0  0  0  0  0  0  0  0  0
    1.3347   19.5737   34.0653 N   0  0  0  0  0  0  0  0  0  0  0  0
    2.1654   20.3152   35.0384 C   0  0  0  0  0  0  0  0  0  0  0  0
   -1.1556   19.3144   33.9554 C   0  0  2  0  0  0  0  0  0  0  0  0
   -1.0435   18.6870   32.6789 O   0  0  0  0  0  0  0  0  0  0  0  0
   -1.3613   20.8113   33.7379 C   0  0  0  0  0  0  0  0  0  0  0  0
   -2.3857   18.7227   34.7156 C   0  0  0  0  0  0  0  0  0  0  0  0
   -2.2166   17.2727   34.9468 O   0  0  0  0  0  0  0  0  0  0  0  0
  1  3  1  0  0  0  0
  1  2  1  1  0  0  0
  3  5  1  0  0  0  0
  3  4  1  1  0  0  0
  5  6  1  6  0  0  0
  7  8  1  1  0  0  0
  7  5  1  0  0  0  0
  9 10  1  6  0  0  0
  9  7  1  0  0  0  0
 10  1  1  0  0  0  0
 11 13  1  1  0  0  0
 11  9  1  0  0  0  0
 12 11  1  0  0  0  0
 14 15  1  6  0  0  0
 16 14  1  0  0  0  0
 17 18  1  1  0  0  0
 17 16  1  0  0  0  0
 19  2  1  1  0  0  0
 19 20  1  0  0  0  0
 19 17  1  0  0  0  0
 20 21  1  6  0  0  0
 20 22  1  0  0  0  0
 22 23  1  6  0  0  0
 22 14  1  0  0  0  0
 24 23  1  1  0  0  0
 24 25  1  0  0  0  0
 25 27  1  0  0  0  0
 25 26  1  1  0  0  0
 27 28  1  6  0  0  0
 28 29  1  0  0  0  0
 30 31  1  6  0  0  0
 30 32  1  0  0  0  0
 30 27  1  0  0  0  0
 33 30  1  0  0  0  0
 34 33  1  0  0  0  0
 34 24  1  0  0  0  0
M  END
>  <CHROM.1>
175.04761941,-64.37624841,-175.09173405,143.76031373,-157.16652613,-106.89385329
-3.61624310,17.26861627,37.68790552,2.51503355,-0.10148450,2.20112306

>  <Name>
lig.pdb

>  <RI>
0

>  <Rbt.Current_Directory>
/home/itssahil/PROJECTS/Mol_Feturizer/New_Systems/rnas/4k32

>  <Rbt.Executable>
rbdock ($Id: //depot/dev/client3/rdock/2013.1/src/exe/rbdock.cxx#4 $)

>  <Rbt.Library>
libRbt.so (2013.1, Build901 2013/11/27)

>  <Rbt.Parameter_File>
/export/apps/rDock/src/rDock_2013.1_src/data/scripts/dock_solv.prm

>  <Rbt.Receptor>
prm/pocket_docking_7.prm

>  <SCORE>
-15.1058

>  <SCORE.INTER>
-9.7234

>  <SCORE.INTER.CONST>
1

>  <SCORE.INTER.POLAR>
0

>  <SCORE.INTER.ROT>
6

>  <SCORE.INTER.SOLV>
18.8197

>  <SCORE.INTER.VDW>
-20.3555

>  <SCORE.INTER.norm>
-0.285982

>  <SCORE.INTRA>
-5.38235

>  <SCORE.INTRA.DIHEDRAL>
-9.6022

>  <SCORE.INTRA.DIHEDRAL.0>
18.0069

>  <SCORE.INTRA.POLAR>
0

>  <SCORE.INTRA.POLAR.0>
0

>  <SCORE.INTRA.REPUL>
0

>  <SCORE.INTRA.REPUL.0>
0

>  <SCORE.INTRA.SOLV>
-2.45896

>  <SCORE.INTRA.SOLV.lig_0>
-70.7393

>  <SCORE.INTRA.VDW>
0.648231

>  <SCORE.INTRA.VDW.0>
-3.23471

>  <SCORE.INTRA.norm>
-0.158304

>  <SCORE.RESTR>
0

>  <SCORE.RESTR.CAVITY>
0

>  <SCORE.RESTR.norm>
0

>  <SCORE.SYSTEM>
0

>  <SCORE.SYSTEM.CONST>
0

>  <SCORE.SYSTEM.DIHEDRAL>
0

>  <SCORE.SYSTEM.SOLV>
0

>  <SCORE.SYSTEM.norm>
0

>  <SCORE.heavy>
34

>  <SCORE.norm>
-0.444287

>  <RMSD>
8.698

$$$$
lig.pdb
 OpenBabel11021811503D
libRbt.so/2013.1/901 2013/11/27
 34 36  0  0  0  0  0  0  0  0999 V2000
   -1.7290   11.8314   32.1664 C   0  0  2  0  0  0  0  0  0  0  0  0
   -2.8085   11.6531   33.0901 O   0  0  0  0  0  0  0  0  0  0  0  0
   -2.1806   11.2742   30.7498 C   0  0  2  0  0  0  0  0  0  0  0  0
   -3.3679   11.9910   30.2290 N   0  0  0  0  0  0  0  0  0  0  0  0
   -2.4871    9.7598   30.8659 C   0  0  1  0  0  0  0  0  0  0  0  0
   -2.8891    9.2380   29.5972 O   0  0  0  0  0  0  0  0  0  0  0  0
   -1.2303    9.0445   31.3927 C   0  0  2  0  0  0  0  0  0  0  0  0
   -1.4981    7.6456   31.5011 O   0  0  0  0  0  0  0  0  0  0  0  0
   -0.8214    9.6491   32.7904 C   0  0  2  0  0  0  0  0  0  0  0  0
   -0.5648   11.1009   32.6780 O   0  0  0  0  0  0  0  0  0  0  0  0
    0.4515    8.9704   33.3545 C   0  0  2  0  0  0  0  0  0  0  0  0
    0.7646    9.5182   34.6365 O   0  0  0  0  0  0  0  0  0  0  0  0
    1.6420    9.1821   32.4322 C   0  0  0  0  0  0  0  0  0  0  0  0
   -3.6461   13.8827   36.6458 C   0  0  2  0  0  0  0  0  0  0  0  0
   -3.5766   14.3754   38.0237 N   0  0  0  0  0  0  0  0  0  0  0  0
   -3.7626   12.3350   36.7154 C   0  0  0  0  0  0  0  0  0  0  0  0
   -3.8621   11.7950   35.2629 C   0  0  2  0  0  0  0  0  0  0  0  0
   -3.9800   10.3285   35.2805 N   0  0  0  0  0  0  0  0  0  0  0  0
   -2.6120   12.1959   34.4345 C   0  0  2  0  0  0  0  0  0  0  0  0
   -2.4900   13.7524   34.4174 C   0  0  2  0  0  0  0  0  0  0  0  0
   -1.3285   14.1211   33.6615 O   0  0  0  0  0  0  0  0  0  0  0  0
   -2.3386   14.3083   35.8541 C   0  0  1  0  0  0  0  0  0  0  0  0
   -2.2435   15.7506   35.7513 O   0  0  0  0  0  0  0  0  0  0  0  0
   -1.9585   16.4583   36.9807 C   0  0  2  0  0  0  0  0  0  0  0  0
   -2.0841   17.9905   36.6430 C   0  0  2  0  0  0  0  0  0  0  0  0
   -3.4011   18.2804   36.2018 O   0  0  0  0  0  0  0  0  0  0  0  0
   -1.0244   18.3597   35.5369 C   0  0  1  0  0  0  0  0  0  0  0  0
   -1.1145   19.8076   35.1766 N   0  0  0  0  0  0  0  0  0  0  0  0
   -1.4664   19.9235   33.7451 C   0  0  0  0  0  0  0  0  0  0  0  0
    0.3972   18.0260   36.0831 C   0  0  2  0  0  0  0  0  0  0  0  0
    0.6328   18.8078   37.2531 O   0  0  0  0  0  0  0  0  0  0  0  0
    1.4865   18.3483   35.0632 C   0  0  0  0  0  0  0  0  0  0  0  0
    0.4605   16.5095   36.4536 C   0  0  0  0  0  0  0  0  0  0  0  0
   -0.5860   16.1620   37.4379 O   0  0  0  0  0  0  0  0  0  0  0  0
  1  3  1  0  0  0  0
  1  2  1  1  0  0  0
  3  5  1  0  0  0  0
  3  4  1  1  0  0  0
  5  6  1  6  0  0  0
  7  8  1  1  0  0  0
  7  5  1  0  0  0  0
  9 10  1  6  0  0  0
  9  7  1  0  0  0  0
 10  1  1  0  0  0  0
 11 13  1  6  0  0  0
 11  9  1  0  0  0  0
 12 11  1  0  0  0  0
 14 15  1  1  0  0  0
 16 14  1  0  0  0  0
 17 18  1  1  0  0  0
 17 16  1  0  0  0  0
 19  2  1  6  0  0  0
 19 20  1  0  0  0  0
 19 17  1  0  0  0  0
 20 21  1  6  0  0  0
 20 22  1  0  0  0  0
 22 23  1  6  0  0  0
 22 14  1  0  0  0  0
 24 23  1  6  0  0  0
 24 25  1  0  0  0  0
 25 27  1  0  0  0  0
 25 26  1  6  0  0  0
 27 28  1  1  0  0  0
 28 29  1  0  0  0  0
 30 31  1  1  0  0  0
 30 32  1  0  0  0  0
 30 27  1  0  0  0  0
 33 30  1  0  0  0  0
 34 33  1  0  0  0  0
 34 24  1  0  0  0  0
M  END
>  <CHROM.1>
-175.83449657,-178.29969707,-176.20871715,69.99484221,-173.14715536,-118.56647733
-1.59813392,13.60266573,34.34595457,-1.63585852,0.73638460,0.50584467

>  <Name>
lig.pdb

>  <RI>
0

>  <Rbt.Current_Directory>
/home/itssahil/PROJECTS/Mol_Feturizer/New_Systems/rnas/4k32

>  <Rbt.Executable>
rbdock ($Id: //depot/dev/client3/rdock/2013.1/src/exe/rbdock.cxx#4 $)

>  <Rbt.Library>
libRbt.so (2013.1, Build901 2013/11/27)

>  <Rbt.Parameter_File>
/export/apps/rDock/src/rDock_2013.1_src/data/scripts/dock_solv.prm

>  <Rbt.Receptor>
prm/pocket_docking_8.prm

>  <SCORE>
-10.0857

>  <SCORE.INTER>
-2.28819

>  <SCORE.INTER.CONST>
1

>  <SCORE.INTER.POLAR>
0

>  <SCORE.INTER.ROT>
6

>  <SCORE.INTER.SOLV>
9.65136

>  <SCORE.INTER.VDW>
-12.3426

>  <SCORE.INTER.norm>
-0.0672996

>  <SCORE.INTRA>
-7.7975

>  <SCORE.INTRA.DIHEDRAL>
-15.8643

>  <SCORE.INTRA.DIHEDRAL.0>
18.0069

>  <SCORE.INTRA.POLAR>
0

>  <SCORE.INTRA.POLAR.0>
0

>  <SCORE.INTRA.REPUL>
0

>  <SCORE.INTRA.REPUL.0>
0

>  <SCORE.INTRA.SOLV>
-2.03917

>  <SCORE.INTRA.SOLV.lig_0>
-70.7393

>  <SCORE.INTRA.VDW>
1.15425

>  <SCORE.INTRA.VDW.0>
-3.23471

>  <SCORE.INTRA.norm>
-0.229338

>  <SCORE.RESTR>
0

>  <SCORE.RESTR.CAVITY>
0

>  <SCORE.RESTR.norm>
0

>  <SCORE.SYSTEM>
0

>  <SCORE.SYSTEM.CONST>
0

>  <SCORE.SYSTEM.DIHEDRAL>
0

>  <SCORE.SYSTEM.SOLV>
0

>  <SCORE.SYSTEM.norm>
0

>  <SCORE.heavy>
34

>  <SCORE.norm>
-0.296638

>  <RMSD>
8.698

$$$$
lig.pdb
 OpenBabel11021811503D
libRbt.so/2013.1/901 2013/11/27
 34 36  0  0  0  0  0  0  0  0999 V2000
   -6.1298   17.5628   38.4210 C   0  0  2  0  0  0  0  0  0  0  0  0
   -5.2090   17.6337   39.5152 O   0  0  0  0  0  0  0  0  0  0  0  0
   -7.4813   18.2760   38.8525 C   0  0  2  0  0  0  0  0  0  0  0  0
   -7.2668   19.7015   39.1946 N   0  0  0  0  0  0  0  0  0  0  0  0
   -8.0940   17.5289   40.0638 C   0  0  1  0  0  0  0  0  0  0  0  0
   -9.3165   18.1531   40.4628 O   0  0  0  0  0  0  0  0  0  0  0  0
   -8.3188   16.0582   39.6697 C   0  0  2  0  0  0  0  0  0  0  0  0
   -8.8874   15.3580   40.7772 O   0  0  0  0  0  0  0  0  0  0  0  0
   -6.9487   15.4088   39.2366 C   0  0  2  0  0  0  0  0  0  0  0  0
   -6.3536   16.1486   38.1033 O   0  0  0  0  0  0  0  0  0  0  0  0
   -7.1277   13.9294   38.8141 C   0  0  2  0  0  0  0  0  0  0  0  0
   -7.5707   13.1569   39.9315 O   0  0  0  0  0  0  0  0  0  0  0  0
   -5.8209   13.3413   38.3048 C   0  0  0  0  0  0  0  0  0  0  0  0
   -0.9661   17.0759   39.4621 C   0  0  2  0  0  0  0  0  0  0  0  0
    0.3484   16.4312   39.4118 N   0  0  0  0  0  0  0  0  0  0  0  0
   -1.7748   16.3855   40.5948 C   0  0  0  0  0  0  0  0  0  0  0  0
   -3.1647   17.0723   40.6801 C   0  0  2  0  0  0  0  0  0  0  0  0
   -3.9655   16.4521   41.7473 N   0  0  0  0  0  0  0  0  0  0  0  0
   -3.9280   16.9505   39.3339 C   0  0  2  0  0  0  0  0  0  0  0  0
   -3.0760   17.6099   38.2039 C   0  0  2  0  0  0  0  0  0  0  0  0
   -3.7767   17.4866   36.9588 O   0  0  0  0  0  0  0  0  0  0  0  0
   -1.7038   16.9063   38.0676 C   0  0  1  0  0  0  0  0  0  0  0  0
   -0.9753   17.5814   37.0124 O   0  0  0  0  0  0  0  0  0  0  0  0
   -0.9645   16.9217   35.7246 C   0  0  2  0  0  0  0  0  0  0  0  0
    0.2816   17.4926   34.9508 C   0  0  2  0  0  0  0  0  0  0  0  0
    1.4705   17.1960   35.6662 O   0  0  0  0  0  0  0  0  0  0  0  0
    0.1043   19.0479   34.7711 C   0  0  1  0  0  0  0  0  0  0  0  0
    1.2728   19.6360   34.0479 N   0  0  0  0  0  0  0  0  0  0  0  0
    2.1577   20.3003   35.0288 C   0  0  0  0  0  0  0  0  0  0  0  0
   -1.2106   19.3070   33.9747 C   0  0  2  0  0  0  0  0  0  0  0  0
   -1.1002   18.6858   32.6950 O   0  0  0  0  0  0  0  0  0  0  0  0
   -1.4616   20.7981   33.7642 C   0  0  0  0  0  0  0  0  0  0  0  0
   -2.4120   18.6794   34.7517 C   0  0  0  0  0  0  0  0  0  0  0  0
   -2.1988   17.2343   34.9767 O   0  0  0  0  0  0  0  0  0  0  0  0
  1  3  1  0  0  0  0
  1  2  1  1  0  0  0
  3  5  1  0  0  0  0
  3  4  1  1  0  0  0
  5  6  1  6  0  0  0
  7  8  1  1  0  0  0
  7  5  1  0  0  0  0
  9 10  1  6  0  0  0
  9  7  1  0  0  0  0
 10  1  1  0  0  0  0
 11 13  1  1  0  0  0
 11  9  1  0  0  0  0
 12 11  1  0  0  0  0
 14 15  1  6  0  0  0
 16 14  1  0  0  0  0
 17 18  1  1  0  0  0
 17 16  1  0  0  0  0
 19  2  1  1  0  0  0
 19 20  1  0  0  0  0
 19 17  1  0  0  0  0
 20 21  1  6  0  0  0
 20 22  1  0  0  0  0
 22 23  1  6  0  0  0
 22 14  1  0  0  0  0
 24 23  1  1  0  0  0
 24 25  1  0  0  0  0
 25 27  1  0  0  0  0
 25 26  1  1  0  0  0
 27 28  1  6  0  0  0
 28 29  1  0  0  0  0
 30 31  1  6  0  0  0
 30 32  1  0  0  0  0
 30 27  1  0  0  0  0
 33 30  1  0  0  0  0
 34 33  1  0  0  0  0
 34 24  1  0  0  0  0
M  END
>  <CHROM.1>
176.24887215,-63.80210920,-175.53297960,143.05643757,-158.49252608,-102.10310282
-3.59167835,17.26799841,37.72136867,2.50827268,-0.10500139,2.19925438

>  <Name>
lig.pdb

>  <RI>
0

>  <Rbt.Current_Directory>
/home/itssahil/PROJECTS/Mol_Feturizer/New_Systems/rnas/4k32

>  <Rbt.Executable>
rbdock ($Id: //depot/dev/client3/rdock/2013.1/src/exe/rbdock.cxx#4 $)

>  <Rbt.Library>
libRbt.so (2013.1, Build901 2013/11/27)

>  <Rbt.Parameter_File>
/export/apps/rDock/src/rDock_2013.1_src/data/scripts/dock_solv.prm

>  <Rbt.Receptor>
prm/pocket_docking_6.prm

>  <SCORE>
-15.0884

>  <SCORE.INTER>
-9.67934

>  <SCORE.INTER.CONST>
1

>  <SCORE.INTER.POLAR>
0

>  <SCORE.INTER.ROT>
6

>  <SCORE.INTER.SOLV>
18.5036

>  <SCORE.INTER.VDW>
-20.2208

>  <SCORE.INTER.norm>
-0.284686

>  <SCORE.INTRA>
-5.40909

>  <SCORE.INTRA.DIHEDRAL>
-9.90451

>  <SCORE.INTRA.DIHEDRAL.0>
18.0069

>  <SCORE.INTRA.POLAR>
0

>  <SCORE.INTRA.POLAR.0>
0

>  <SCORE.INTRA.REPUL>
0

>  <SCORE.INTRA.REPUL.0>
0

>  <SCORE.INTRA.SOLV>
-2.48115

>  <SCORE.INTRA.SOLV.lig_0>
-70.7393

>  <SCORE.INTRA.VDW>
0.78374

>  <SCORE.INTRA.VDW.0>
-3.23471

>  <SCORE.INTRA.norm>
-0.159091

>  <SCORE.RESTR>
0

>  <SCORE.RESTR.CAVITY>
0

>  <SCORE.RESTR.norm>
0

>  <SCORE.SYSTEM>
0

>  <SCORE.SYSTEM.CONST>
0

>  <SCORE.SYSTEM.DIHEDRAL>
0

>  <SCORE.SYSTEM.SOLV>
0

>  <SCORE.SYSTEM.norm>
0

>  <SCORE.heavy>
34

>  <SCORE.norm>
-0.443777

>  <RMSD>
8.699

$$$$
lig.pdb
 OpenBabel11021811503D
libRbt.so/2013.1/901 2013/11/27
 34 36  0  0  0  0  0  0  0  0999 V2000
   -3.8394   13.2670   37.3983 C   0  0  2  0  0  0  0  0  0  0  0  0
   -4.7127   14.3918   37.2486 O   0  0  0  0  0  0  0  0  0  0  0  0
   -4.5710   11.9808   36.8224 C   0  0  2  0  0  0  0  0  0  0  0  0
   -4.9010   12.1317   35.3860 N   0  0  0  0  0  0  0  0  0  0  0  0
   -5.8629   11.7157   37.6358 C   0  0  1  0  0  0  0  0  0  0  0  0
   -6.5326   10.5559   37.1359 O   0  0  0  0  0  0  0  0  0  0  0  0
   -5.4830   11.5476   39.1178 C   0  0  2  0  0  0  0  0  0  0  0  0
   -6.6655   11.2986   39.8793 O   0  0  0  0  0  0  0  0  0  0  0  0
   -4.7477   12.8458   39.6283 C   0  0  2  0  0  0  0  0  0  0  0  0
   -3.5355   13.1113   38.8246 O   0  0  0  0  0  0  0  0  0  0  0  0
   -4.3300   12.7170   41.1142 C   0  0  2  0  0  0  0  0  0  0  0  0
   -3.8296   13.9692   41.5868 O   0  0  0  0  0  0  0  0  0  0  0  0
   -3.2476   11.6636   41.2917 C   0  0  0  0  0  0  0  0  0  0  0  0
   -3.7398   18.5585   37.1545 C   0  0  2  0  0  0  0  0  0  0  0  0
   -3.3523   19.9034   37.5874 N   0  0  0  0  0  0  0  0  0  0  0  0
   -4.9275   18.1106   38.0503 C   0  0  0  0  0  0  0  0  0  0  0  0
   -5.3691   16.6949   37.5902 C   0  0  2  0  0  0  0  0  0  0  0  0
   -6.4993   16.2313   38.4102 N   0  0  0  0  0  0  0  0  0  0  0  0
   -4.2001   15.6810   37.7137 C   0  0  2  0  0  0  0  0  0  0  0  0
   -3.0028   16.1755   36.8421 C   0  0  2  0  0  0  0  0  0  0  0  0
   -1.9194   15.2441   36.9659 O   0  0  0  0  0  0  0  0  0  0  0  0
   -2.5133   17.5651   37.3172 C   0  0  1  0  0  0  0  0  0  0  0  0
   -1.4155   17.9542   36.4550 O   0  0  0  0  0  0  0  0  0  0  0  0
   -1.5573   17.6190   35.0545 C   0  0  2  0  0  0  0  0  0  0  0  0
   -0.2050   18.0361   34.3656 C   0  0  2  0  0  0  0  0  0  0  0  0
    0.8717   17.3114   34.9390 O   0  0  0  0  0  0  0  0  0  0  0  0
    0.0023   19.5881   34.5420 C   0  0  1  0  0  0  0  0  0  0  0  0
    1.2832   20.0285   33.9099 N   0  0  0  0  0  0  0  0  0  0  0  0
    2.2507   20.3681   34.9754 C   0  0  0  0  0  0  0  0  0  0  0  0
   -1.2052   20.3258   33.8875 C   0  0  2  0  0  0  0  0  0  0  0  0
   -1.2410   20.0014   32.4986 O   0  0  0  0  0  0  0  0  0  0  0  0
   -1.0849   21.8416   34.0233 C   0  0  0  0  0  0  0  0  0  0  0  0
   -2.5280   19.8438   34.5649 C   0  0  0  0  0  0  0  0  0  0  0  0
   -2.6739   18.3770   34.4552 O   0  0  0  0  0  0  0  0  0  0  0  0
  1  3  1  0  0  0  0
  1  2  1  1  0  0  0
  3  5  1  0  0  0  0
  3  4  1  6  0  0  0
  5  6  1  6  0  0  0
  7  8  1  1  0  0  0
  7  5  1  0  0  0  0
  9 10  1  6  0  0  0
  9  7  1  0  0  0  0
 10  1  1  0  0  0  0
 11 13  1  6  0  0  0
 11  9  1  0  0  0  0
 12 11  1  0  0  0  0
 14 15  1  1  0  0  0
 16 14  1  0  0  0  0
 17 18  1  1  0  0  0
 17 16  1  0  0  0  0
 19  2  1  6  0  0  0
 19 20  1  0  0  0  0
 19 17  1  0  0  0  0
 20 21  1  1  0  0  0
 20 22  1  0  0  0  0
 22 23  1  6  0  0  0
 22 14  1  0  0  0  0
 24 23  1  1  0  0  0
 24 25  1  0  0  0  0
 25 27  1  0  0  0  0
 25 26  1  1  0  0  0
 27 28  1  6  0  0  0
 28 29  1  0  0  0  0
 30 31  1  6  0  0  0
 30 32  1  0  0  0  0
 30 27  1  0  0  0  0
 33 30  1  0  0  0  0
 34 33  1  0  0  0  0
 34 24  1  0  0  0  0
M  END
>  <CHROM.1>
-179.33703846,-172.39609420,-173.97678352,-77.15829798,-175.57164168,-108.31114825
-3.07959301,16.06016640,36.89734471,-2.44157170,0.91954585,0.20962547

>  <Name>
lig.pdb

>  <RI>
0

>  <Rbt.Current_Directory>
/home/itssahil/PROJECTS/Mol_Feturizer/New_Systems/rnas/4k32

>  <Rbt.Executable>
rbdock ($Id: //depot/dev/client3/rdock/2013.1/src/exe/rbdock.cxx#4 $)

>  <Rbt.Library>
libRbt.so (2013.1, Build901 2013/11/27)

>  <Rbt.Parameter_File>
/export/apps/rDock/src/rDock_2013.1_src/data/scripts/dock_solv.prm

>  <Rbt.Receptor>
prm/pocket_docking_5.prm

>  <SCORE>
-12.574

>  <SCORE.INTER>
-7.071

>  <SCORE.INTER.CONST>
1

>  <SCORE.INTER.POLAR>
0

>  <SCORE.INTER.ROT>
6

>  <SCORE.INTER.SOLV>
20.5762

>  <SCORE.INTER.VDW>
-19.1727

>  <SCORE.INTER.norm>
-0.20797

>  <SCORE.INTRA>
-5.50299

>  <SCORE.INTRA.DIHEDRAL>
-15.0092

>  <SCORE.INTRA.DIHEDRAL.0>
18.0069

>  <SCORE.INTRA.POLAR>
0

>  <SCORE.INTRA.POLAR.0>
0

>  <SCORE.INTRA.REPUL>
0

>  <SCORE.INTRA.REPUL.0>
0

>  <SCORE.INTRA.SOLV>
-1.23207

>  <SCORE.INTRA.SOLV.lig_0>
-70.7393

>  <SCORE.INTRA.VDW>
2.61763

>  <SCORE.INTRA.VDW.0>
-3.23471

>  <SCORE.INTRA.norm>
-0.161853

>  <SCORE.RESTR>
0

>  <SCORE.RESTR.CAVITY>
0

>  <SCORE.RESTR.norm>
0

>  <SCORE.SYSTEM>
0

>  <SCORE.SYSTEM.CONST>
0

>  <SCORE.SYSTEM.DIHEDRAL>
0

>  <SCORE.SYSTEM.SOLV>
0

>  <SCORE.SYSTEM.norm>
0

>  <SCORE.heavy>
34

>  <SCORE.norm>
-0.369823

>  <RMSD>
8.721

$$$$
lig.pdb
 OpenBabel11021811503D
libRbt.so/2013.1/901 2013/11/27
 34 36  0  0  0  0  0  0  0  0999 V2000
   -4.1947   12.4288   36.6800 C   0  0  2  0  0  0  0  0  0  0  0  0
   -5.0669   13.5642   36.6650 O   0  0  0  0  0  0  0  0  0  0  0  0
   -5.0250   11.1495   36.2381 C   0  0  2  0  0  0  0  0  0  0  0  0
   -5.5799   11.2978   34.8724 N   0  0  0  0  0  0  0  0  0  0  0  0
   -6.1723   10.9052   37.2505 C   0  0  1  0  0  0  0  0  0  0  0  0
   -6.9278    9.7519   36.8727 O   0  0  0  0  0  0  0  0  0  0  0  0
   -5.5610   10.7393   38.6531 C   0  0  2  0  0  0  0  0  0  0  0  0
   -6.6085   10.5094   39.5966 O   0  0  0  0  0  0  0  0  0  0  0  0
   -4.7374   12.0301   39.0299 C   0  0  2  0  0  0  0  0  0  0  0  0
   -3.6672   12.2759   38.0399 O   0  0  0  0  0  0  0  0  0  0  0  0
   -4.0876   11.9030   40.4301 C   0  0  2  0  0  0  0  0  0  0  0  0
   -3.5199   10.6008   40.5841 O   0  0  0  0  0  0  0  0  0  0  0  0
   -5.1119   12.1196   41.5331 C   0  0  0  0  0  0  0  0  0  0  0  0
   -4.0434   17.6895   37.1662 C   0  0  2  0  0  0  0  0  0  0  0  0
   -3.6713   18.9610   37.7913 N   0  0  0  0  0  0  0  0  0  0  0  0
   -5.2942   17.1556   37.9174 C   0  0  0  0  0  0  0  0  0  0  0  0
   -5.7192   15.8182   37.2528 C   0  0  2  0  0  0  0  0  0  0  0  0
   -6.9077   15.2771   37.9308 N   0  0  0  0  0  0  0  0  0  0  0  0
   -4.5728   14.7740   37.3231 C   0  0  2  0  0  0  0  0  0  0  0  0
   -3.3136   15.3508   36.6024 C   0  0  2  0  0  0  0  0  0  0  0  0
   -2.2516   14.3901   36.6781 O   0  0  0  0  0  0  0  0  0  0  0  0
   -2.8420   16.6595   37.2817 C   0  0  1  0  0  0  0  0  0  0  0  0
   -1.6839   17.1326   36.5504 O   0  0  0  0  0  0  0  0  0  0  0  0
   -1.6960   16.9018   35.1220 C   0  0  2  0  0  0  0  0  0  0  0  0
   -0.3058   17.4080   34.5850 C   0  0  2  0  0  0  0  0  0  0  0  0
    0.7432   16.6717   35.1940 O   0  0  0  0  0  0  0  0  0  0  0  0
   -0.1674   18.9471   34.8930 C   0  0  1  0  0  0  0  0  0  0  0  0
    1.1462   19.4701   34.4080 N   0  0  0  0  0  0  0  0  0  0  0  0
    1.9984   19.7804   35.5760 C   0  0  0  0  0  0  0  0  0  0  0  0
   -1.3402   19.6988   34.1931 C   0  0  2  0  0  0  0  0  0  0  0  0
   -1.2482   19.4810   32.7861 O   0  0  0  0  0  0  0  0  0  0  0  0
   -1.2837   21.2025   34.4505 C   0  0  0  0  0  0  0  0  0  0  0  0
   -2.6979   19.1297   34.7164 C   0  0  0  0  0  0  0  0  0  0  0  0
   -2.7837   17.6722   34.4863 O   0  0  0  0  0  0  0  0  0  0  0  0
  1  3  1  0  0  0  0
  1  2  1  1  0  0  0
  3  5  1  0  0  0  0
  3  4  1  6  0  0  0
  5  6  1  6  0  0  0
  7  8  1  1  0  0  0
  7  5  1  0  0  0  0
  9 10  1  6  0  0  0
  9  7  1  0  0  0  0
 10  1  1  0  0  0  0
 11 13  1  1  0  0  0
 11  9  1  0  0  0  0
 12 11  1  0  0  0  0
 14 15  1  1  0  0  0
 16 14  1  0  0  0  0
 17 18  1  1  0  0  0
 17 16  1  0  0  0  0
 19  2  1  6  0  0  0
 19 20  1  0  0  0  0
 19 17  1  0  0  0  0
 20 21  1  1  0  0  0
 20 22  1  0  0  0  0
 22 23  1  6  0  0  0
 22 14  1  0  0  0  0
 24 23  1  1  0  0  0
 24 25  1  0  0  0  0
 25 27  1  0  0  0  0
 25 26  1  1  0  0  0
 27 28  1  6  0  0  0
 28 29  1  0  0  0  0
 30 31  1  6  0  0  0
 30 32  1  0  0  0  0
 30 27  1  0  0  0  0
 33 30  1  0  0  0  0
 34 33  1  0  0  0  0
 34 24  1  0  0  0  0
M  END
>  <CHROM.1>
166.77713496,43.22585345,-176.46647928,-80.99628378,-176.13718601,-109.47690791
-3.34154894,15.23654349,36.75058550,-2.10164767,0.31250437,-0.27038654

>  <Name>
lig.pdb

>  <RI>
0

>  <Rbt.Current_Directory>
/home/itssahil/PROJECTS/Mol_Feturizer/New_Systems/rnas/4k32

>  <Rbt.Executable>
rbdock ($Id: //depot/dev/client3/rdock/2013.1/src/exe/rbdock.cxx#4 $)

>  <Rbt.Library>
libRbt.so (2013.1, Build901 2013/11/27)

>  <Rbt.Parameter_File>
/export/apps/rDock/src/rDock_2013.1_src/data/scripts/dock_solv.prm

>  <Rbt.Receptor>
prm/pocket_docking_3.prm

>  <SCORE>
-10.8191

>  <SCORE.INTER>
-6.8705

>  <SCORE.INTER.CONST>
1

>  <SCORE.INTER.POLAR>
0

>  <SCORE.INTER.ROT>
6

>  <SCORE.INTER.SOLV>
22.4398

>  <SCORE.INTER.VDW>
-19.6603

>  <SCORE.INTER.norm>
-0.202074

>  <SCORE.INTRA>
-3.94858

>  <SCORE.INTRA.DIHEDRAL>
-12.972

>  <SCORE.INTRA.DIHEDRAL.0>
18.0069

>  <SCORE.INTRA.POLAR>
0

>  <SCORE.INTRA.POLAR.0>
0

>  <SCORE.INTRA.REPUL>
0

>  <SCORE.INTRA.REPUL.0>
0

>  <SCORE.INTRA.SOLV>
-0.880326

>  <SCORE.INTRA.SOLV.lig_0>
-70.7393

>  <SCORE.INTRA.VDW>
2.97761

>  <SCORE.INTRA.VDW.0>
-3.23471

>  <SCORE.INTRA.norm>
-0.116135

>  <SCORE.RESTR>
0

>  <SCORE.RESTR.CAVITY>
0

>  <SCORE.RESTR.norm>
0

>  <SCORE.SYSTEM>
0

>  <SCORE.SYSTEM.CONST>
0

>  <SCORE.SYSTEM.DIHEDRAL>
0

>  <SCORE.SYSTEM.SOLV>
0

>  <SCORE.SYSTEM.norm>
0

>  <SCORE.heavy>
34

>  <SCORE.norm>
-0.318208

>  <RMSD>
8.723

$$$$
lig.pdb
 OpenBabel11021811503D
libRbt.so/2013.1/901 2013/11/27
 34 36  0  0  0  0  0  0  0  0999 V2000
   -6.7327   14.3458   37.9870 C   0  0  2  0  0  0  0  0  0  0  0  0
   -5.3881   14.5699   37.5485 O   0  0  0  0  0  0  0  0  0  0  0  0
   -6.7242   14.1604   39.5639 C   0  0  2  0  0  0  0  0  0  0  0  0
   -6.1977   15.3595   40.2566 N   0  0  0  0  0  0  0  0  0  0  0  0
   -5.8708   12.9207   39.9322 C   0  0  1  0  0  0  0  0  0  0  0  0
   -5.8570   12.7332   41.3493 O   0  0  0  0  0  0  0  0  0  0  0  0
   -6.4538   11.6926   39.2106 C   0  0  2  0  0  0  0  0  0  0  0  0
   -5.6779   10.5408   39.5446 O   0  0  0  0  0  0  0  0  0  0  0  0
   -6.4513   11.9406   37.6534 C   0  0  2  0  0  0  0  0  0  0  0  0
   -7.2385   13.1451   37.3137 O   0  0  0  0  0  0  0  0  0  0  0  0
   -7.0460   10.7353   36.8834 C   0  0  2  0  0  0  0  0  0  0  0  0
   -6.5738    9.5143   37.4560 O   0  0  0  0  0  0  0  0  0  0  0  0
   -6.6474   10.7696   35.4162 C   0  0  0  0  0  0  0  0  0  0  0  0
   -3.9181   18.5752   37.2123 C   0  0  2  0  0  0  0  0  0  0  0  0
   -3.4155   19.9038   37.5707 N   0  0  0  0  0  0  0  0  0  0  0  0
   -5.2313   18.3487   38.0111 C   0  0  0  0  0  0  0  0  0  0  0  0
   -5.7933   16.9534   37.6259 C   0  0  2  0  0  0  0  0  0  0  0  0
   -7.0443   16.6978   38.3570 N   0  0  0  0  0  0  0  0  0  0  0  0
   -4.7716   15.8325   37.9566 C   0  0  2  0  0  0  0  0  0  0  0  0
   -3.4457   16.1063   37.1790 C   0  0  2  0  0  0  0  0  0  0  0  0
   -2.4987   15.0766   37.4941 O   0  0  0  0  0  0  0  0  0  0  0  0
   -2.8409   17.4719   37.5863 C   0  0  1  0  0  0  0  0  0  0  0  0
   -1.6269   17.6534   36.8162 O   0  0  0  0  0  0  0  0  0  0  0  0
   -1.6398   17.1163   35.4727 C   0  0  2  0  0  0  0  0  0  0  0  0
   -0.2124   17.4010   34.8736 C   0  0  2  0  0  0  0  0  0  0  0  0
    0.7768   16.7496   35.6550 O   0  0  0  0  0  0  0  0  0  0  0  0
    0.0285   18.9578   34.8419 C   0  0  1  0  0  0  0  0  0  0  0  0
    1.3801   19.2753   34.2881 N   0  0  0  0  0  0  0  0  0  0  0  0
    2.1364   20.0566   35.2901 C   0  0  0  0  0  0  0  0  0  0  0  0
   -1.0823   19.6123   33.9654 C   0  0  2  0  0  0  0  0  0  0  0  0
   -0.9907   19.0857   32.6426 O   0  0  0  0  0  0  0  0  0  0  0  0
   -0.9249   21.1289   33.8901 C   0  0  0  0  0  0  0  0  0  0  0  0
   -2.4814   19.2612   34.5656 C   0  0  0  0  0  0  0  0  0  0  0  0
   -2.6650   17.7975   34.6568 O   0  0  0  0  0  0  0  0  0  0  0  0
  1  3  1  0  0  0  0
  1  2  1  6  0  0  0
  3  5  1  0  0  0  0
  3  4  1  1  0  0  0
  5  6  1  1  0  0  0
  7  8  1  6  0  0  0
  7  5  1  0  0  0  0
  9 10  1  1  0  0  0
  9  7  1  0  0  0  0
 10  1  1  0  0  0  0
 11 13  1  6  0  0  0
 11  9  1  0  0  0  0
 12 11  1  0  0  0  0
 14 15  1  1  0  0  0
 16 14  1  0  0  0  0
 17 18  1  1  0  0  0
 17 16  1  0  0  0  0
 19  2  1  6  0  0  0
 19 20  1  0  0  0  0
 19 17  1  0  0  0  0
 20 21  1  1  0  0  0
 20 22  1  0  0  0  0
 22 23  1  6  0  0  0
 22 14  1  0  0  0  0
 24 23  1  1  0  0  0
 24 25  1  0  0  0  0
 25 27  1  0  0  0  0
 25 26  1  1  0  0  0
 27 28  1  6  0  0  0
 28 29  1  0  0  0  0
 30 31  1  6  0  0  0
 30 32  1  0  0  0  0
 30 27  1  0  0  0  0
 33 30  1  0  0  0  0
 34 33  1  0  0  0  0
 34 24  1  0  0  0  0
M  END
>  <CHROM.1>
-67.87452382,-41.58973324,-48.60090242,-81.54298949,-178.34782382,-122.22594540
-3.77744234,15.88686162,36.93258696,2.51690987,-0.73111165,-2.88494551

>  <Name>
lig.pdb

>  <RI>
0

>  <Rbt.Current_Directory>
/home/itssahil/PROJECTS/Mol_Feturizer/New_Systems/rnas/4k32

>  <Rbt.Executable>
rbdock ($Id: //depot/dev/client3/rdock/2013.1/src/exe/rbdock.cxx#4 $)

>  <Rbt.Library>
libRbt.so (2013.1, Build901 2013/11/27)

>  <Rbt.Parameter_File>
/export/apps/rDock/src/rDock_2013.1_src/data/scripts/dock_solv.prm

>  <Rbt.Receptor>
prm/pocket_docking_2.prm

>  <SCORE>
-2.62864

>  <SCORE.INTER>
-10.2555

>  <SCORE.INTER.CONST>
1

>  <SCORE.INTER.POLAR>
0

>  <SCORE.INTER.ROT>
6

>  <SCORE.INTER.SOLV>
24.4217

>  <SCORE.INTER.VDW>
-22.5776

>  <SCORE.INTER.norm>
-0.301634

>  <SCORE.INTRA>
5.94079

>  <SCORE.INTRA.DIHEDRAL>
-12.5963

>  <SCORE.INTRA.DIHEDRAL.0>
18.0069

>  <SCORE.INTRA.POLAR>
0

>  <SCORE.INTRA.POLAR.0>
0

>  <SCORE.INTRA.REPUL>
0

>  <SCORE.INTRA.REPUL.0>
0

>  <SCORE.INTRA.SOLV>
5.48435

>  <SCORE.INTRA.SOLV.lig_0>
-70.7393

>  <SCORE.INTRA.VDW>
9.49679

>  <SCORE.INTRA.VDW.0>
-3.23471

>  <SCORE.INTRA.norm>
0.174729

>  <SCORE.RESTR>
1.68611

>  <SCORE.RESTR.CAVITY>
1.68611

>  <SCORE.RESTR.norm>
0.0495915

>  <SCORE.SYSTEM>
0

>  <SCORE.SYSTEM.CONST>
0

>  <SCORE.SYSTEM.DIHEDRAL>
0

>  <SCORE.SYSTEM.SOLV>
0

>  <SCORE.SYSTEM.norm>
0

>  <SCORE.heavy>
34

>  <SCORE.norm>
-0.077313

>  <RMSD>
8.731

$$$$
lig.pdb
 OpenBabel11021811503D
libRbt.so/2013.1/901 2013/11/27
 34 36  0  0  0  0  0  0  0  0999 V2000
    0.8196   14.3222   35.6358 C   0  0  2  0  0  0  0  0  0  0  0  0
   -0.5137   14.2018   36.1438 O   0  0  0  0  0  0  0  0  0  0  0  0
    1.2662   12.9140   35.0538 C   0  0  2  0  0  0  0  0  0  0  0  0
    0.3820   12.4680   33.9519 N   0  0  0  0  0  0  0  0  0  0  0  0
    1.2635   11.8621   36.1915 C   0  0  1  0  0  0  0  0  0  0  0  0
    1.6702   10.5877   35.6875 O   0  0  0  0  0  0  0  0  0  0  0  0
    2.2027   12.3476   37.3099 C   0  0  2  0  0  0  0  0  0  0  0  0
    2.2125   11.3843   38.3646 O   0  0  0  0  0  0  0  0  0  0  0  0
    1.7200   13.7535   37.8361 C   0  0  2  0  0  0  0  0  0  0  0  0
    1.6918   14.7424   36.7374 O   0  0  0  0  0  0  0  0  0  0  0  0
    2.6465   14.2921   38.9544 C   0  0  2  0  0  0  0  0  0  0  0  0
    2.7078   13.3509   40.0277 O   0  0  0  0  0  0  0  0  0  0  0  0
    2.1371   15.6174   39.4994 C   0  0  0  0  0  0  0  0  0  0  0  0
   -2.4184   17.8188   34.8766 C   0  0  2  0  0  0  0  0  0  0  0  0
   -3.2727   19.0089   34.8703 N   0  0  0  0  0  0  0  0  0  0  0  0
   -3.3236   16.6038   35.2205 C   0  0  0  0  0  0  0  0  0  0  0  0
   -2.4396   15.3274   35.2081 C   0  0  2  0  0  0  0  0  0  0  0  0
   -3.2592   14.1471   35.5242 N   0  0  0  0  0  0  0  0  0  0  0  0
   -1.2875   15.4396   36.2425 C   0  0  2  0  0  0  0  0  0  0  0  0
   -0.4195   16.6925   35.9041 C   0  0  2  0  0  0  0  0  0  0  0  0
    0.6376   16.8017   36.8670 O   0  0  0  0  0  0  0  0  0  0  0  0
   -1.2714   17.9838   35.9606 C   0  0  1  0  0  0  0  0  0  0  0  0
   -0.3994   19.0915   35.6254 O   0  0  0  0  0  0  0  0  0  0  0  0
    0.5947   18.8324   34.6064 C   0  0  2  0  0  0  0  0  0  0  0  0
    1.3555   20.1917   34.3814 C   0  0  2  0  0  0  0  0  0  0  0  0
    1.9815   20.5991   35.5878 O   0  0  0  0  0  0  0  0  0  0  0  0
    0.3277   21.2778   33.8844 C   0  0  1  0  0  0  0  0  0  0  0  0
    1.0064   22.5916   33.6668 N   0  0  0  0  0  0  0  0  0  0  0  0
    1.0062   23.3468   34.9381 C   0  0  0  0  0  0  0  0  0  0  0  0
   -0.3182   20.7765   32.5570 C   0  0  2  0  0  0  0  0  0  0  0  0
    0.7105   20.6083   31.5828 O   0  0  0  0  0  0  0  0  0  0  0  0
   -1.3378   21.7729   32.0110 C   0  0  0  0  0  0  0  0  0  0  0  0
   -1.0161   19.4025   32.8141 C   0  0  0  0  0  0  0  0  0  0  0  0
   -0.0560   18.4140   33.3485 O   0  0  0  0  0  0  0  0  0  0  0  0
  1  3  1  0  0  0  0
  1  2  1  1  0  0  0
  3  5  1  0  0  0  0
  3  4  1  6  0  0  0
  5  6  1  6  0  0  0
  7  8  1  1  0  0  0
  7  5  1  0  0  0  0
  9 10  1  6  0  0  0
  9  7  1  0  0  0  0
 10  1  1  0  0  0  0
 11 13  1  1  0  0  0
 11  9  1  0  0  0  0
 12 11  1  0  0  0  0
 14 15  1  1  0  0  0
 16 14  1  0  0  0  0
 17 18  1  1  0  0  0
 17 16  1  0  0  0  0
 19  2  1  6  0  0  0
 19 20  1  0  0  0  0
 19 17  1  0  0  0  0
 20 21  1  1  0  0  0
 20 22  1  0  0  0  0
 22 23  1  6  0  0  0
 22 14  1  0  0  0  0
 24 23  1  1  0  0  0
 24 25  1  0  0  0  0
 25 27  1  0  0  0  0
 25 26  1  1  0  0  0
 27 28  1  6  0  0  0
 28 29  1  0  0  0  0
 30 31  1  6  0  0  0
 30 32  1  0  0  0  0
 30 27  1  0  0  0  0
 33 30  1  0  0  0  0
 34 33  1  0  0  0  0
 34 24  1  0  0  0  0
M  END
>  <CHROM.1>
-157.14600531,-57.15577018,112.85517475,-79.02529158,177.40894192,-87.78799706
0.24294386,16.72047312,35.52417386,1.35294672,0.64117716,2.85529408

>  <Name>
lig.pdb

>  <RI>
0

>  <Rbt.Current_Directory>
/home/itssahil/PROJECTS/Mol_Feturizer/New_Systems/rnas/4k32

>  <Rbt.Executable>
rbdock ($Id: //depot/dev/client3/rdock/2013.1/src/exe/rbdock.cxx#4 $)

>  <Rbt.Library>
libRbt.so (2013.1, Build901 2013/11/27)

>  <Rbt.Parameter_File>
/export/apps/rDock/src/rDock_2013.1_src/data/scripts/dock_solv.prm

>  <Rbt.Receptor>
prm/blind_docking_100.prm

>  <SCORE>
11.3925

>  <SCORE.INTER>
-3.29759

>  <SCORE.INTER.CONST>
1

>  <SCORE.INTER.POLAR>
0

>  <SCORE.INTER.ROT>
6

>  <SCORE.INTER.SOLV>
21.4513

>  <SCORE.INTER.VDW>
-16.9488

>  <SCORE.INTER.norm>
-0.0969879

>  <SCORE.INTRA>
3.98413

>  <SCORE.INTRA.DIHEDRAL>
-6.48933

>  <SCORE.INTRA.DIHEDRAL.0>
18.0069

>  <SCORE.INTRA.POLAR>
0

>  <SCORE.INTRA.POLAR.0>
0

>  <SCORE.INTRA.REPUL>
0

>  <SCORE.INTRA.REPUL.0>
0

>  <SCORE.INTRA.SOLV>
0.0378194

>  <SCORE.INTRA.SOLV.lig_0>
-70.7393

>  <SCORE.INTRA.VDW>
7.20989

>  <SCORE.INTRA.VDW.0>
-3.23471

>  <SCORE.INTRA.norm>
0.11718

>  <SCORE.RESTR>
10.706

>  <SCORE.RESTR.CAVITY>
10.706

>  <SCORE.RESTR.norm>
0.314881

>  <SCORE.SYSTEM>
0

>  <SCORE.SYSTEM.CONST>
0

>  <SCORE.SYSTEM.DIHEDRAL>
0

>  <SCORE.SYSTEM.SOLV>
0

>  <SCORE.SYSTEM.norm>
0

>  <SCORE.heavy>
34

>  <SCORE.norm>
0.335074

>  <RMSD>
8.737

$$$$
lig.pdb
 OpenBabel11021811503D
libRbt.so/2013.1/901 2013/11/27
 34 36  0  0  0  0  0  0  0  0999 V2000
   -5.7084   17.0220   38.4161 C   0  0  2  0  0  0  0  0  0  0  0  0
   -4.7754   17.2288   39.4824 O   0  0  0  0  0  0  0  0  0  0  0  0
   -7.1093   17.6329   38.8466 C   0  0  2  0  0  0  0  0  0  0  0  0
   -7.0170   19.0871   39.1148 N   0  0  0  0  0  0  0  0  0  0  0  0
   -7.6273   16.8955   40.1071 C   0  0  1  0  0  0  0  0  0  0  0  0
   -8.8926   17.4277   40.5062 O   0  0  0  0  0  0  0  0  0  0  0  0
   -7.7270   15.3929   39.7894 C   0  0  2  0  0  0  0  0  0  0  0  0
   -8.2074   14.7009   40.9429 O   0  0  0  0  0  0  0  0  0  0  0  0
   -6.3132   14.8470   39.3538 C   0  0  2  0  0  0  0  0  0  0  0  0
   -5.8105   15.5795   38.1720 O   0  0  0  0  0  0  0  0  0  0  0  0
   -6.3670   13.3384   39.0070 C   0  0  2  0  0  0  0  0  0  0  0  0
   -5.0480   12.8538   38.7481 O   0  0  0  0  0  0  0  0  0  0  0  0
   -7.2264   13.0873   37.7778 C   0  0  0  0  0  0  0  0  0  0  0  0
   -0.4974   17.1499   39.3865 C   0  0  2  0  0  0  0  0  0  0  0  0
    0.8804   16.6569   39.3170 N   0  0  0  0  0  0  0  0  0  0  0  0
   -1.2127   16.3599   40.5171 C   0  0  0  0  0  0  0  0  0  0  0  0
   -2.6699   16.8859   40.6228 C   0  0  2  0  0  0  0  0  0  0  0  0
   -3.3859   16.1674   41.6886 N   0  0  0  0  0  0  0  0  0  0  0  0
   -3.4278   16.6954   39.2816 C   0  0  2  0  0  0  0  0  0  0  0  0
   -2.6659   17.4594   38.1530 C   0  0  2  0  0  0  0  0  0  0  0  0
   -3.3607   17.2732   36.9124 O   0  0  0  0  0  0  0  0  0  0  0  0
   -1.2252   16.9154   37.9962 C   0  0  1  0  0  0  0  0  0  0  0  0
   -0.5870   17.6801   36.9437 O   0  0  0  0  0  0  0  0  0  0  0  0
   -0.5127   17.0400   35.6482 C   0  0  2  0  0  0  0  0  0  0  0  0
    0.6541   17.7566   34.8721 C   0  0  2  0  0  0  0  0  0  0  0  0
    1.8751   17.5886   35.5752 O   0  0  0  0  0  0  0  0  0  0  0  0
    0.3008   19.2838   34.7122 C   0  0  1  0  0  0  0  0  0  0  0  0
    1.3891   20.0081   33.9875 N   0  0  0  0  0  0  0  0  0  0  0  0
    2.1788   20.7873   34.9652 C   0  0  0  0  0  0  0  0  0  0  0  0
   -1.0418   19.4013   33.9284 C   0  0  2  0  0  0  0  0  0  0  0  0
   -0.8729   18.8106   32.6408 O   0  0  0  0  0  0  0  0  0  0  0  0
   -1.4614   20.8566   33.7375 C   0  0  0  0  0  0  0  0  0  0  0  0
   -2.1579   18.6334   34.7067 C   0  0  0  0  0  0  0  0  0  0  0  0
   -1.7808   17.2192   34.9130 O   0  0  0  0  0  0  0  0  0  0  0  0
  1  3  1  0  0  0  0
  1  2  1  1  0  0  0
  3  5  1  0  0  0  0
  3  4  1  1  0  0  0
  5  6  1  6  0  0  0
  7  8  1  1  0  0  0
  7  5  1  0  0  0  0
  9 10  1  6  0  0  0
  9  7  1  0  0  0  0
 10  1  1  0  0  0  0
 11 13  1  6  0  0  0
 11  9  1  0  0  0  0
 12 11  1  0  0  0  0
 14 15  1  6  0  0  0
 16 14  1  0  0  0  0
 17 18  1  1  0  0  0
 17 16  1  0  0  0  0
 19  2  1  1  0  0  0
 19 20  1  0  0  0  0
 19 17  1  0  0  0  0
 20 21  1  6  0  0  0
 20 22  1  0  0  0  0
 22 23  1  6  0  0  0
 22 14  1  0  0  0  0
 24 23  1  1  0  0  0
 24 25  1  0  0  0  0
 25 27  1  0  0  0  0
 25 26  1  1  0  0  0
 27 28  1  6  0  0  0
 28 29  1  0  0  0  0
 30 31  1  6  0  0  0
 30 32  1  0  0  0  0
 30 27  1  0  0  0  0
 33 30  1  0  0  0  0
 34 33  1  0  0  0  0
 34 24  1  0  0  0  0
M  END
>  <CHROM.1>
178.36418374,-174.24260066,-173.16014647,142.94067965,-158.47581962,-103.65696416
-3.17202885,17.09846012,37.64556887,2.45445307,0.04070609,2.12643890

>  <Name>
lig.pdb

>  <RI>
0

>  <Rbt.Current_Directory>
/home/itssahil/PROJECTS/Mol_Feturizer/New_Systems/rnas/4k32

>  <Rbt.Executable>
rbdock ($Id: //depot/dev/client3/rdock/2013.1/src/exe/rbdock.cxx#4 $)

>  <Rbt.Library>
libRbt.so (2013.1, Build901 2013/11/27)

>  <Rbt.Parameter_File>
/export/apps/rDock/src/rDock_2013.1_src/data/scripts/dock_solv.prm

>  <Rbt.Receptor>
prm/pocket_docking_6.prm

>  <SCORE>
-13.8292

>  <SCORE.INTER>
-8.75263

>  <SCORE.INTER.CONST>
1

>  <SCORE.INTER.POLAR>
0

>  <SCORE.INTER.ROT>
6

>  <SCORE.INTER.SOLV>
16.4741

>  <SCORE.INTER.VDW>
-18.9265

>  <SCORE.INTER.norm>
-0.25743

>  <SCORE.INTRA>
-5.07656

>  <SCORE.INTRA.DIHEDRAL>
-9.68776

>  <SCORE.INTRA.DIHEDRAL.0>
18.0069

>  <SCORE.INTRA.POLAR>
0

>  <SCORE.INTRA.POLAR.0>
0

>  <SCORE.INTRA.REPUL>
0

>  <SCORE.INTRA.REPUL.0>
0

>  <SCORE.INTRA.SOLV>
-2.651

>  <SCORE.INTRA.SOLV.lig_0>
-70.7393

>  <SCORE.INTRA.VDW>
1.09281

>  <SCORE.INTRA.VDW.0>
-3.23471

>  <SCORE.INTRA.norm>
-0.149311

>  <SCORE.RESTR>
0

>  <SCORE.RESTR.CAVITY>
0

>  <SCORE.RESTR.norm>
0

>  <SCORE.SYSTEM>
0

>  <SCORE.SYSTEM.CONST>
0

>  <SCORE.SYSTEM.DIHEDRAL>
0

>  <SCORE.SYSTEM.SOLV>
0

>  <SCORE.SYSTEM.norm>
0

>  <SCORE.heavy>
34

>  <SCORE.norm>
-0.406741

>  <RMSD>
8.738

$$$$
lig.pdb
 OpenBabel11021811503D
libRbt.so/2013.1/901 2013/11/27
 34 36  0  0  0  0  0  0  0  0999 V2000
   -3.9458   12.7945   38.0232 C   0  0  2  0  0  0  0  0  0  0  0  0
   -4.8310   13.8655   37.6772 O   0  0  0  0  0  0  0  0  0  0  0  0
   -4.6001   11.4272   37.5504 C   0  0  2  0  0  0  0  0  0  0  0  0
   -4.8208   11.3998   36.0856 N   0  0  0  0  0  0  0  0  0  0  0  0
   -5.9448   11.2164   38.2909 C   0  0  1  0  0  0  0  0  0  0  0  0
   -6.5462    9.9854   37.8828 O   0  0  0  0  0  0  0  0  0  0  0  0
   -5.6774   11.2337   39.8064 C   0  0  2  0  0  0  0  0  0  0  0  0
   -6.9095   11.0364   40.5018 O   0  0  0  0  0  0  0  0  0  0  0  0
   -5.0148   12.6053   40.2135 C   0  0  2  0  0  0  0  0  0  0  0  0
   -3.7503   12.8151   39.4766 O   0  0  0  0  0  0  0  0  0  0  0  0
   -4.7110   12.6633   41.7312 C   0  0  2  0  0  0  0  0  0  0  0  0
   -5.9232   12.5179   42.4736 O   0  0  0  0  0  0  0  0  0  0  0  0
   -4.0641   13.9858   42.1122 C   0  0  0  0  0  0  0  0  0  0  0  0
   -3.9920   18.0373   37.2199 C   0  0  2  0  0  0  0  0  0  0  0  0
   -3.6802   19.4331   37.5370 N   0  0  0  0  0  0  0  0  0  0  0  0
   -5.2237   17.6343   38.0769 C   0  0  0  0  0  0  0  0  0  0  0  0
   -5.5852   16.1631   37.7365 C   0  0  2  0  0  0  0  0  0  0  0  0
   -6.7539   15.7393   38.5236 N   0  0  0  0  0  0  0  0  0  0  0  0
   -4.3949   15.2142   38.0401 C   0  0  2  0  0  0  0  0  0  0  0  0
   -3.1568   15.6662   37.2031 C   0  0  2  0  0  0  0  0  0  0  0  0
   -2.0545   14.7959   37.4931 O   0  0  0  0  0  0  0  0  0  0  0  0
   -2.7477   17.1149   37.5642 C   0  0  1  0  0  0  0  0  0  0  0  0
   -1.6061   17.4591   36.7408 O   0  0  0  0  0  0  0  0  0  0  0  0
   -1.6786   17.0566   35.3528 C   0  0  2  0  0  0  0  0  0  0  0  0
   -0.2683   17.3744   34.7306 C   0  0  2  0  0  0  0  0  0  0  0  0
    0.7349   16.6328   35.4066 O   0  0  0  0  0  0  0  0  0  0  0  0
    0.0034   18.9225   34.8414 C   0  0  1  0  0  0  0  0  0  0  0  0
    1.3403   19.2698   34.2702 N   0  0  0  0  0  0  0  0  0  0  0  0
    2.0890   20.0745   35.2593 C   0  0  0  0  0  0  0  0  0  0  0  0
   -1.1246   19.6786   34.0757 C   0  0  2  0  0  0  0  0  0  0  0  0
   -1.0918   19.2828   32.7053 O   0  0  0  0  0  0  0  0  0  0  0  0
   -0.9389   21.1924   34.1424 C   0  0  0  0  0  0  0  0  0  0  0  0
   -2.5081   19.2942   34.6915 C   0  0  0  0  0  0  0  0  0  0  0  0
   -2.7184   17.8319   34.6468 O   0  0  0  0  0  0  0  0  0  0  0  0
  1  3  1  0  0  0  0
  1  2  1  1  0  0  0
  3  5  1  0  0  0  0
  3  4  1  6  0  0  0
  5  6  1  6  0  0  0
  7  8  1  1  0  0  0
  7  5  1  0  0  0  0
  9 10  1  6  0  0  0
  9  7  1  0  0  0  0
 10  1  1  0  0  0  0
 11 13  1  6  0  0  0
 11  9  1  0  0  0  0
 12 11  1  0  0  0  0
 14 15  1  1  0  0  0
 16 14  1  0  0  0  0
 17 18  1  1  0  0  0
 17 16  1  0  0  0  0
 19  2  1  6  0  0  0
 19 20  1  0  0  0  0
 19 17  1  0  0  0  0
 20 21  1  1  0  0  0
 20 22  1  0  0  0  0
 22 23  1  6  0  0  0
 22 14  1  0  0  0  0
 24 23  1  1  0  0  0
 24 25  1  0  0  0  0
 25 27  1  0  0  0  0
 25 26  1  1  0  0  0
 27 28  1  6  0  0  0
 28 29  1  0  0  0  0
 30 31  1  6  0  0  0
 30 32  1  0  0  0  0
 30 27  1  0  0  0  0
 33 30  1  0  0  0  0
 34 33  1  0  0  0  0
 34 24  1  0  0  0  0
M  END
>  <CHROM.1>
179.85474924,-60.13537569,-172.74776846,-73.21143039,-172.97257617,-128.78782226
-3.28685692,15.61275291,37.30481953,-2.54798463,0.92605678,0.25430369

>  <Name>
lig.pdb

>  <RI>
0

>  <Rbt.Current_Directory>
/home/itssahil/PROJECTS/Mol_Feturizer/New_Systems/rnas/4k32

>  <Rbt.Executable>
rbdock ($Id: //depot/dev/client3/rdock/2013.1/src/exe/rbdock.cxx#4 $)

>  <Rbt.Library>
libRbt.so (2013.1, Build901 2013/11/27)

>  <Rbt.Parameter_File>
/export/apps/rDock/src/rDock_2013.1_src/data/scripts/dock_solv.prm

>  <Rbt.Receptor>
prm/pocket_docking_4.prm

>  <SCORE>
-14.465

>  <SCORE.INTER>
-8.18519

>  <SCORE.INTER.CONST>
1

>  <SCORE.INTER.POLAR>
0

>  <SCORE.INTER.ROT>
6

>  <SCORE.INTER.SOLV>
20.7961

>  <SCORE.INTER.VDW>
-19.9888

>  <SCORE.INTER.norm>
-0.240741

>  <SCORE.INTRA>
-6.27979

>  <SCORE.INTRA.DIHEDRAL>
-15.4852

>  <SCORE.INTRA.DIHEDRAL.0>
18.0069

>  <SCORE.INTRA.POLAR>
0

>  <SCORE.INTRA.POLAR.0>
0

>  <SCORE.INTRA.REPUL>
0

>  <SCORE.INTRA.REPUL.0>
0

>  <SCORE.INTRA.SOLV>
-0.95871

>  <SCORE.INTRA.SOLV.lig_0>
-70.7393

>  <SCORE.INTRA.VDW>
1.94215

>  <SCORE.INTRA.VDW.0>
-3.23471

>  <SCORE.INTRA.norm>
-0.1847

>  <SCORE.RESTR>
0

>  <SCORE.RESTR.CAVITY>
0

>  <SCORE.RESTR.norm>
0

>  <SCORE.SYSTEM>
0

>  <SCORE.SYSTEM.CONST>
0

>  <SCORE.SYSTEM.DIHEDRAL>
0

>  <SCORE.SYSTEM.SOLV>
0

>  <SCORE.SYSTEM.norm>
0

>  <SCORE.heavy>
34

>  <SCORE.norm>
-0.42544

>  <RMSD>
8.743

$$$$
lig.pdb
 OpenBabel11021811503D
libRbt.so/2013.1/901 2013/11/27
 34 36  0  0  0  0  0  0  0  0999 V2000
   -5.8831   17.3202   38.4619 C   0  0  2  0  0  0  0  0  0  0  0  0
   -4.9635   17.4253   39.5543 O   0  0  0  0  0  0  0  0  0  0  0  0
   -7.2592   17.9829   38.8959 C   0  0  2  0  0  0  0  0  0  0  0  0
   -7.0971   19.4154   39.2374 N   0  0  0  0  0  0  0  0  0  0  0  0
   -7.8415   17.2138   40.1084 C   0  0  1  0  0  0  0  0  0  0  0  0
   -9.0856   17.7923   40.5097 O   0  0  0  0  0  0  0  0  0  0  0  0
   -8.0124   15.7357   39.7149 C   0  0  2  0  0  0  0  0  0  0  0  0
   -8.5526   15.0150   40.8236 O   0  0  0  0  0  0  0  0  0  0  0  0
   -6.6201   15.1374   39.2792 C   0  0  2  0  0  0  0  0  0  0  0  0
   -6.0549   15.8986   38.1447 O   0  0  0  0  0  0  0  0  0  0  0  0
   -6.7449   13.6523   38.8572 C   0  0  2  0  0  0  0  0  0  0  0  0
   -7.8338   13.4980   37.9450 O   0  0  0  0  0  0  0  0  0  0  0  0
   -6.9901   12.7573   40.0620 C   0  0  0  0  0  0  0  0  0  0  0  0
   -0.6971   17.1013   39.4584 C   0  0  2  0  0  0  0  0  0  0  0  0
    0.6503   16.5297   39.3951 N   0  0  0  0  0  0  0  0  0  0  0  0
   -1.4551   16.3686   40.5996 C   0  0  0  0  0  0  0  0  0  0  0  0
   -2.8798   16.9781   40.6987 C   0  0  2  0  0  0  0  0  0  0  0  0
   -3.6345   16.3159   41.7742 N   0  0  0  0  0  0  0  0  0  0  0  0
   -3.6487   16.8133   39.3603 C   0  0  2  0  0  0  0  0  0  0  0  0
   -2.8457   17.5174   38.2215 C   0  0  2  0  0  0  0  0  0  0  0  0
   -3.5512   17.3546   36.9836 O   0  0  0  0  0  0  0  0  0  0  0  0
   -1.4384   16.8901   38.0715 C   0  0  1  0  0  0  0  0  0  0  0  0
   -0.7588   17.6031   37.0088 O   0  0  0  0  0  0  0  0  0  0  0  0
   -0.7305   16.9468   35.7195 C   0  0  2  0  0  0  0  0  0  0  0  0
    0.4570   17.6018   34.9208 C   0  0  2  0  0  0  0  0  0  0  0  0
    1.6784   17.3862   35.6101 O   0  0  0  0  0  0  0  0  0  0  0  0
    0.1707   19.1416   34.7485 C   0  0  1  0  0  0  0  0  0  0  0  0
    1.2808   19.8085   34.0021 N   0  0  0  0  0  0  0  0  0  0  0  0
    2.1770   20.4745   34.9716 C   0  0  0  0  0  0  0  0  0  0  0  0
   -1.1755   19.3114   33.9807 C   0  0  2  0  0  0  0  0  0  0  0  0
   -1.0504   18.7003   32.6976 O   0  0  0  0  0  0  0  0  0  0  0  0
   -1.5316   20.7821   33.7791 C   0  0  0  0  0  0  0  0  0  0  0  0
   -2.3147   18.6029   34.7816 C   0  0  0  0  0  0  0  0  0  0  0  0
   -1.9989   17.1754   34.9987 O   0  0  0  0  0  0  0  0  0  0  0  0
  1  3  1  0  0  0  0
  1  2  1  1  0  0  0
  3  5  1  0  0  0  0
  3  4  1  1  0  0  0
  5  6  1  6  0  0  0
  7  8  1  1  0  0  0
  7  5  1  0  0  0  0
  9 10  1  6  0  0  0
  9  7  1  0  0  0  0
 10  1  1  0  0  0  0
 11 13  1  1  0  0  0
 11  9  1  0  0  0  0
 12 11  1  0  0  0  0
 14 15  1  6  0  0  0
 16 14  1  0  0  0  0
 17 18  1  1  0  0  0
 17 16  1  0  0  0  0
 19  2  1  1  0  0  0
 19 20  1  0  0  0  0
 19 17  1  0  0  0  0
 20 21  1  6  0  0  0
 20 22  1  0  0  0  0
 22 23  1  6  0  0  0
 22 14  1  0  0  0  0
 24 23  1  1  0  0  0
 24 25  1  0  0  0  0
 25 27  1  0  0  0  0
 25 26  1  1  0  0  0
 27 28  1  6  0  0  0
 28 29  1  0  0  0  0
 30 31  1  6  0  0  0
 30 32  1  0  0  0  0
 30 27  1  0  0  0  0
 33 30  1  0  0  0  0
 34 33  1  0  0  0  0
 34 24  1  0  0  0  0
M  END
>  <CHROM.1>
177.43974543,48.44641685,-176.43130721,143.35623262,-159.58160518,-99.32592901
-3.43993392,17.17307426,37.72286329,2.48675408,0.03142539,2.08586052

>  <Name>
lig.pdb

>  <RI>
0

>  <Rbt.Current_Directory>
/home/itssahil/PROJECTS/Mol_Feturizer/New_Systems/rnas/4k32

>  <Rbt.Executable>
rbdock ($Id: //depot/dev/client3/rdock/2013.1/src/exe/rbdock.cxx#4 $)

>  <Rbt.Library>
libRbt.so (2013.1, Build901 2013/11/27)

>  <Rbt.Parameter_File>
/export/apps/rDock/src/rDock_2013.1_src/data/scripts/dock_solv.prm

>  <Rbt.Receptor>
prm/pocket_docking_6.prm

>  <SCORE>
-14.2726

>  <SCORE.INTER>
-9.8734

>  <SCORE.INTER.CONST>
1

>  <SCORE.INTER.POLAR>
0

>  <SCORE.INTER.ROT>
6

>  <SCORE.INTER.SOLV>
18.2267

>  <SCORE.INTER.VDW>
-20.2578

>  <SCORE.INTER.norm>
-0.290394

>  <SCORE.INTRA>
-4.39915

>  <SCORE.INTRA.DIHEDRAL>
-9.87108

>  <SCORE.INTRA.DIHEDRAL.0>
18.0069

>  <SCORE.INTRA.POLAR>
0

>  <SCORE.INTRA.POLAR.0>
0

>  <SCORE.INTRA.REPUL>
0

>  <SCORE.INTRA.REPUL.0>
0

>  <SCORE.INTRA.SOLV>
-2.33954

>  <SCORE.INTRA.SOLV.lig_0>
-70.7393

>  <SCORE.INTRA.VDW>
1.70616

>  <SCORE.INTRA.VDW.0>
-3.23471

>  <SCORE.INTRA.norm>
-0.129387

>  <SCORE.RESTR>
0

>  <SCORE.RESTR.CAVITY>
0

>  <SCORE.RESTR.norm>
0

>  <SCORE.SYSTEM>
0

>  <SCORE.SYSTEM.CONST>
0

>  <SCORE.SYSTEM.DIHEDRAL>
0

>  <SCORE.SYSTEM.SOLV>
0

>  <SCORE.SYSTEM.norm>
0

>  <SCORE.heavy>
34

>  <SCORE.norm>
-0.419781

>  <RMSD>
8.751

$$$$
lig.pdb
 OpenBabel11021811503D
libRbt.so/2013.1/901 2013/11/27
 34 36  0  0  0  0  0  0  0  0999 V2000
    1.3856   15.9240   36.7991 C   0  0  2  0  0  0  0  0  0  0  0  0
    0.0904   16.2288   37.3280 O   0  0  0  0  0  0  0  0  0  0  0  0
    1.3521   14.4541   36.1995 C   0  0  2  0  0  0  0  0  0  0  0  0
    0.3573   14.3268   35.1090 N   0  0  0  0  0  0  0  0  0  0  0  0
    1.0289   13.4442   37.3294 C   0  0  1  0  0  0  0  0  0  0  0  0
    1.0013   12.1129   36.8095 O   0  0  0  0  0  0  0  0  0  0  0  0
    2.0886   13.5913   38.4358 C   0  0  2  0  0  0  0  0  0  0  0  0
    1.8046   12.6625   39.4832 O   0  0  0  0  0  0  0  0  0  0  0  0
    2.0865   15.0712   38.9802 C   0  0  2  0  0  0  0  0  0  0  0  0
    2.3608   16.0308   37.8894 O   0  0  0  0  0  0  0  0  0  0  0  0
    3.1510   15.2728   40.0871 C   0  0  2  0  0  0  0  0  0  0  0  0
    4.3737   14.6403   39.7040 O   0  0  0  0  0  0  0  0  0  0  0  0
    2.6897   14.6775   41.4083 C   0  0  0  0  0  0  0  0  0  0  0  0
   -2.5539   18.5610   34.9021 C   0  0  2  0  0  0  0  0  0  0  0  0
   -3.3373   19.6889   34.3918 N   0  0  0  0  0  0  0  0  0  0  0  0
   -2.8997   18.4042   36.4086 C   0  0  0  0  0  0  0  0  0  0  0  0
   -2.0963   17.1965   36.9627 C   0  0  2  0  0  0  0  0  0  0  0  0
   -2.3979   17.0065   38.3902 N   0  0  0  0  0  0  0  0  0  0  0  0
   -0.5698   17.4184   36.7895 C   0  0  2  0  0  0  0  0  0  0  0  0
   -0.2530   17.6191   35.2738 C   0  0  2  0  0  0  0  0  0  0  0  0
    1.1558   17.8354   35.1162 O   0  0  0  0  0  0  0  0  0  0  0  0
   -1.0053   18.8502   34.7128 C   0  0  1  0  0  0  0  0  0  0  0  0
   -0.6681   18.9588   33.3077 O   0  0  0  0  0  0  0  0  0  0  0  0
    0.3899   19.8891   32.9777 C   0  0  2  0  0  0  0  0  0  0  0  0
    0.3685   20.9923   34.1002 C   0  0  2  0  0  0  0  0  0  0  0  0
    0.6124   20.3976   35.3651 O   0  0  0  0  0  0  0  0  0  0  0  0
   -1.0297   21.7183   34.0782 C   0  0  1  0  0  0  0  0  0  0  0  0
   -1.0990   22.7706   35.1376 N   0  0  0  0  0  0  0  0  0  0  0  0
   -2.3896   22.6491   35.8491 C   0  0  0  0  0  0  0  0  0  0  0  0
   -1.2343   22.3549   32.6698 C   0  0  2  0  0  0  0  0  0  0  0  0
   -0.1960   23.3067   32.4429 O   0  0  0  0  0  0  0  0  0  0  0  0
   -2.5765   23.0743   32.5623 C   0  0  0  0  0  0  0  0  0  0  0  0
   -1.1538   21.2338   31.5846 C   0  0  0  0  0  0  0  0  0  0  0  0
    0.1342   20.5131   31.6640 O   0  0  0  0  0  0  0  0  0  0  0  0
  1  3  1  0  0  0  0
  1  2  1  1  0  0  0
  3  5  1  0  0  0  0
  3  4  1  6  0  0  0
  5  6  1  6  0  0  0
  7  8  1  1  0  0  0
  7  5  1  0  0  0  0
  9 10  1  6  0  0  0
  9  7  1  0  0  0  0
 10  1  1  0  0  0  0
 11 13  1  1  0  0  0
 11  9  1  0  0  0  0
 12 11  1  0  0  0  0
 14 15  1  1  0  0  0
 16 14  1  0  0  0  0
 17 18  1  1  0  0  0
 17 16  1  0  0  0  0
 19  2  1  6  0  0  0
 19 20  1  0  0  0  0
 19 17  1  0  0  0  0
 20 21  1  1  0  0  0
 20 22  1  0  0  0  0
 22 23  1  6  0  0  0
 22 14  1  0  0  0  0
 24 23  1  1  0  0  0
 24 25  1  0  0  0  0
 25 27  1  0  0  0  0
 25 26  1  1  0  0  0
 27 28  1  1  0  0  0
 28 29  1  0  0  0  0
 30 31  1  6  0  0  0
 30 32  1  0  0  0  0
 30 27  1  0  0  0  0
 33 30  1  0  0  0  0
 34 33  1  0  0  0  0
 34 24  1  0  0  0  0
M  END
>  <CHROM.1>
-123.02627154,43.57535537,154.27188570,146.68799671,-27.64795860,-134.05196727
0.06332328,17.89964316,35.89770763,-1.13253335,0.66735051,-0.90137407

>  <Name>
lig.pdb

>  <RI>
0

>  <Rbt.Current_Directory>
/home/itssahil/PROJECTS/Mol_Feturizer/New_Systems/rnas/4k32

>  <Rbt.Executable>
rbdock ($Id: //depot/dev/client3/rdock/2013.1/src/exe/rbdock.cxx#4 $)

>  <Rbt.Library>
libRbt.so (2013.1, Build901 2013/11/27)

>  <Rbt.Parameter_File>
/export/apps/rDock/src/rDock_2013.1_src/data/scripts/dock_solv.prm

>  <Rbt.Receptor>
prm/blind_docking_100.prm

>  <SCORE>
25.7384

>  <SCORE.INTER>
1.18489

>  <SCORE.INTER.CONST>
1

>  <SCORE.INTER.POLAR>
0

>  <SCORE.INTER.ROT>
6

>  <SCORE.INTER.SOLV>
24.7531

>  <SCORE.INTER.VDW>
-15.0611

>  <SCORE.INTER.norm>
0.0348496

>  <SCORE.INTRA>
14.4571

>  <SCORE.INTRA.DIHEDRAL>
2.17243

>  <SCORE.INTRA.DIHEDRAL.0>
18.0069

>  <SCORE.INTRA.POLAR>
0

>  <SCORE.INTRA.POLAR.0>
0

>  <SCORE.INTRA.REPUL>
0

>  <SCORE.INTRA.REPUL.0>
0

>  <SCORE.INTRA.SOLV>
3.70498

>  <SCORE.INTRA.SOLV.lig_0>
-70.7393

>  <SCORE.INTRA.VDW>
11.5184

>  <SCORE.INTRA.VDW.0>
-3.23471

>  <SCORE.INTRA.norm>
0.425209

>  <SCORE.RESTR>
10.0964

>  <SCORE.RESTR.CAVITY>
10.0964

>  <SCORE.RESTR.norm>
0.296952

>  <SCORE.SYSTEM>
0

>  <SCORE.SYSTEM.CONST>
0

>  <SCORE.SYSTEM.DIHEDRAL>
0

>  <SCORE.SYSTEM.SOLV>
0

>  <SCORE.SYSTEM.norm>
0

>  <SCORE.heavy>
34

>  <SCORE.norm>
0.75701

>  <RMSD>
8.754

$$$$
lig.pdb
 OpenBabel11021811503D
libRbt.so/2013.1/901 2013/11/27
 34 36  0  0  0  0  0  0  0  0999 V2000
   -5.5862   16.7980   38.3442 C   0  0  2  0  0  0  0  0  0  0  0  0
   -4.6653   16.9908   39.4235 O   0  0  0  0  0  0  0  0  0  0  0  0
   -6.9708   17.4686   38.7372 C   0  0  2  0  0  0  0  0  0  0  0  0
   -6.8290   18.9232   38.9798 N   0  0  0  0  0  0  0  0  0  0  0  0
   -7.5383   16.7754   40.0015 C   0  0  1  0  0  0  0  0  0  0  0  0
   -8.7897   17.3617   40.3671 O   0  0  0  0  0  0  0  0  0  0  0  0
   -7.6884   15.2716   39.7101 C   0  0  2  0  0  0  0  0  0  0  0  0
   -8.2148   14.6204   40.8673 O   0  0  0  0  0  0  0  0  0  0  0  0
   -6.2885   14.6655   39.3110 C   0  0  2  0  0  0  0  0  0  0  0  0
   -5.7378   15.3558   38.1252 O   0  0  0  0  0  0  0  0  0  0  0  0
   -6.3924   13.1534   38.9915 C   0  0  2  0  0  0  0  0  0  0  0  0
   -5.0850   12.6057   38.8110 O   0  0  0  0  0  0  0  0  0  0  0  0
   -7.1985   12.9135   37.7245 C   0  0  0  0  0  0  0  0  0  0  0  0
   -0.3868   17.0428   39.3328 C   0  0  2  0  0  0  0  0  0  0  0  0
    1.0053   16.5933   39.2533 N   0  0  0  0  0  0  0  0  0  0  0  0
   -1.0791   16.2035   40.4420 C   0  0  0  0  0  0  0  0  0  0  0  0
   -2.5514   16.6827   40.5585 C   0  0  2  0  0  0  0  0  0  0  0  0
   -3.2465   15.9165   41.6047 N   0  0  0  0  0  0  0  0  0  0  0  0
   -3.3021   16.5032   39.2116 C   0  0  2  0  0  0  0  0  0  0  0  0
   -2.5624   17.3178   38.1039 C   0  0  2  0  0  0  0  0  0  0  0  0
   -3.2501   17.1421   36.8578 O   0  0  0  0  0  0  0  0  0  0  0  0
   -1.1058   16.8214   37.9358 C   0  0  1  0  0  0  0  0  0  0  0  0
   -0.4900   17.6312   36.9039 O   0  0  0  0  0  0  0  0  0  0  0  0
   -0.3796   17.0198   35.5971 C   0  0  2  0  0  0  0  0  0  0  0  0
    0.7473   17.8129   34.8366 C   0  0  2  0  0  0  0  0  0  0  0  0
    1.9749   17.6988   35.5391 O   0  0  0  0  0  0  0  0  0  0  0  0
    0.3114   19.3212   34.7037 C   0  0  1  0  0  0  0  0  0  0  0  0
    1.3594   20.1168   33.9945 N   0  0  0  0  0  0  0  0  0  0  0  0
    2.2399   20.7514   34.9988 C   0  0  0  0  0  0  0  0  0  0  0  0
   -1.0347   19.3797   33.9195 C   0  0  2  0  0  0  0  0  0  0  0  0
   -0.8325   18.8226   32.6216 O   0  0  0  0  0  0  0  0  0  0  0  0
   -1.5328   20.8132   33.7541 C   0  0  0  0  0  0  0  0  0  0  0  0
   -2.1082   18.5381   34.6814 C   0  0  0  0  0  0  0  0  0  0  0  0
   -1.6548   17.1430   34.8628 O   0  0  0  0  0  0  0  0  0  0  0  0
  1  3  1  0  0  0  0
  1  2  1  1  0  0  0
  3  5  1  0  0  0  0
  3  4  1  1  0  0  0
  5  6  1  6  0  0  0
  7  8  1  1  0  0  0
  7  5  1  0  0  0  0
  9 10  1  6  0  0  0
  9  7  1  0  0  0  0
 10  1  1  0  0  0  0
 11 13  1  6  0  0  0
 11  9  1  0  0  0  0
 12 11  1  0  0  0  0
 14 15  1  6  0  0  0
 16 14  1  0  0  0  0
 17 18  1  1  0  0  0
 17 16  1  0  0  0  0
 19  2  1  1  0  0  0
 19 20  1  0  0  0  0
 19 17  1  0  0  0  0
 20 21  1  6  0  0  0
 20 22  1  0  0  0  0
 22 23  1  6  0  0  0
 22 14  1  0  0  0  0
 24 23  1  1  0  0  0
 24 25  1  0  0  0  0
 25 27  1  0  0  0  0
 25 26  1  1  0  0  0
 27 28  1  6  0  0  0
 28 29  1  0  0  0  0
 30 31  1  6  0  0  0
 30 32  1  0  0  0  0
 30 27  1  0  0  0  0
 33 30  1  0  0  0  0
 34 33  1  0  0  0  0
 34 24  1  0  0  0  0
M  END
>  <CHROM.1>
-176.63680530,-172.28532040,-173.92524734,142.16667217,-159.41430872,-94.78229559
-3.09769307,16.99453730,37.59721258,2.44964740,0.04832067,2.15478779

>  <Name>
lig.pdb

>  <RI>
0

>  <Rbt.Current_Directory>
/home/itssahil/PROJECTS/Mol_Feturizer/New_Systems/rnas/4k32

>  <Rbt.Executable>
rbdock ($Id: //depot/dev/client3/rdock/2013.1/src/exe/rbdock.cxx#4 $)

>  <Rbt.Library>
libRbt.so (2013.1, Build901 2013/11/27)

>  <Rbt.Parameter_File>
/export/apps/rDock/src/rDock_2013.1_src/data/scripts/dock_solv.prm

>  <Rbt.Receptor>
prm/pocket_docking_6.prm

>  <SCORE>
-13.857

>  <SCORE.INTER>
-8.91038

>  <SCORE.INTER.CONST>
1

>  <SCORE.INTER.POLAR>
0

>  <SCORE.INTER.ROT>
6

>  <SCORE.INTER.SOLV>
16.2702

>  <SCORE.INTER.VDW>
-18.9637

>  <SCORE.INTER.norm>
-0.26207

>  <SCORE.INTRA>
-4.94662

>  <SCORE.INTRA.DIHEDRAL>
-9.86462

>  <SCORE.INTRA.DIHEDRAL.0>
18.0069

>  <SCORE.INTRA.POLAR>
0

>  <SCORE.INTRA.POLAR.0>
0

>  <SCORE.INTRA.REPUL>
0

>  <SCORE.INTRA.REPUL.0>
0

>  <SCORE.INTRA.SOLV>
-2.69859

>  <SCORE.INTRA.SOLV.lig_0>
-70.7393

>  <SCORE.INTRA.VDW>
1.33499

>  <SCORE.INTRA.VDW.0>
-3.23471

>  <SCORE.INTRA.norm>
-0.145489

>  <SCORE.RESTR>
0

>  <SCORE.RESTR.CAVITY>
0

>  <SCORE.RESTR.norm>
0

>  <SCORE.SYSTEM>
0

>  <SCORE.SYSTEM.CONST>
0

>  <SCORE.SYSTEM.DIHEDRAL>
0

>  <SCORE.SYSTEM.SOLV>
0

>  <SCORE.SYSTEM.norm>
0

>  <SCORE.heavy>
34

>  <SCORE.norm>
-0.407559

>  <RMSD>
8.755

$$$$
lig.pdb
 OpenBabel11021811503D
libRbt.so/2013.1/901 2013/11/27
 34 36  0  0  0  0  0  0  0  0999 V2000
   -5.6421   16.9675   38.3800 C   0  0  2  0  0  0  0  0  0  0  0  0
   -4.7047   17.1711   39.4431 O   0  0  0  0  0  0  0  0  0  0  0  0
   -7.0165   17.6538   38.7817 C   0  0  2  0  0  0  0  0  0  0  0  0
   -6.8616   19.1111   38.9989 N   0  0  0  0  0  0  0  0  0  0  0  0
   -7.5707   16.9848   40.0647 C   0  0  1  0  0  0  0  0  0  0  0  0
   -8.8129   17.5854   40.4384 O   0  0  0  0  0  0  0  0  0  0  0  0
   -7.7348   15.4776   39.7996 C   0  0  2  0  0  0  0  0  0  0  0  0
   -8.2491   14.8485   40.9744 O   0  0  0  0  0  0  0  0  0  0  0  0
   -6.3448   14.8555   39.3907 C   0  0  2  0  0  0  0  0  0  0  0  0
   -5.8063   15.5230   38.1864 O   0  0  0  0  0  0  0  0  0  0  0  0
   -6.4633   13.3393   39.0970 C   0  0  2  0  0  0  0  0  0  0  0  0
   -5.1599   12.7651   38.9820 O   0  0  0  0  0  0  0  0  0  0  0  0
   -7.2206   13.0878   37.8025 C   0  0  0  0  0  0  0  0  0  0  0  0
   -0.4267   17.0891   39.3497 C   0  0  2  0  0  0  0  0  0  0  0  0
    0.9506   16.5959   39.2730 N   0  0  0  0  0  0  0  0  0  0  0  0
   -1.1439   16.2808   40.4660 C   0  0  0  0  0  0  0  0  0  0  0  0
   -2.6006   16.8064   40.5793 C   0  0  2  0  0  0  0  0  0  0  0  0
   -3.3183   16.0706   41.6321 N   0  0  0  0  0  0  0  0  0  0  0  0
   -3.3575   16.6397   39.2344 C   0  0  2  0  0  0  0  0  0  0  0  0
   -2.5938   17.4220   38.1198 C   0  0  2  0  0  0  0  0  0  0  0  0
   -3.2876   17.2578   36.8755 O   0  0  0  0  0  0  0  0  0  0  0  0
   -1.1534   16.8792   37.9549 C   0  0  1  0  0  0  0  0  0  0  0  0
   -0.5135   17.6611   36.9162 O   0  0  0  0  0  0  0  0  0  0  0  0
   -0.4318   17.0400   35.6119 C   0  0  2  0  0  0  0  0  0  0  0  0
    0.7138   17.7936   34.8392 C   0  0  2  0  0  0  0  0  0  0  0  0
    1.9422   17.6447   35.5335 O   0  0  0  0  0  0  0  0  0  0  0  0
    0.3243   19.3141   34.7015 C   0  0  1  0  0  0  0  0  0  0  0  0
    1.3914   20.0730   33.9806 N   0  0  0  0  0  0  0  0  0  0  0  0
    2.1628   20.8643   34.9633 C   0  0  0  0  0  0  0  0  0  0  0  0
   -1.0251   19.4107   33.9266 C   0  0  2  0  0  0  0  0  0  0  0  0
   -0.8498   18.8411   32.6303 O   0  0  0  0  0  0  0  0  0  0  0  0
   -1.4793   20.8583   33.7572 C   0  0  0  0  0  0  0  0  0  0  0  0
   -2.1187   18.6070   34.7005 C   0  0  0  0  0  0  0  0  0  0  0  0
   -1.7078   17.1993   34.8860 O   0  0  0  0  0  0  0  0  0  0  0  0
  1  3  1  0  0  0  0
  1  2  1  1  0  0  0
  3  5  1  0  0  0  0
  3  4  1  1  0  0  0
  5  6  1  6  0  0  0
  7  8  1  1  0  0  0
  7  5  1  0  0  0  0
  9 10  1  6  0  0  0
  9  7  1  0  0  0  0
 10  1  1  0  0  0  0
 11 13  1  6  0  0  0
 11  9  1  0  0  0  0
 12 11  1  0  0  0  0
 14 15  1  6  0  0  0
 16 14  1  0  0  0  0
 17 18  1  1  0  0  0
 17 16  1  0  0  0  0
 19  2  1  1  0  0  0
 19 20  1  0  0  0  0
 19 17  1  0  0  0  0
 20 21  1  6  0  0  0
 20 22  1  0  0  0  0
 22 23  1  6  0  0  0
 22 14  1  0  0  0  0
 24 23  1  1  0  0  0
 24 25  1  0  0  0  0
 25 27  1  0  0  0  0
 25 26  1  1  0  0  0
 27 28  1  6  0  0  0
 28 29  1  0  0  0  0
 30 31  1  6  0  0  0
 30 32  1  0  0  0  0
 30 27  1  0  0  0  0
 33 30  1  0  0  0  0
 34 33  1  0  0  0  0
 34 24  1  0  0  0  0
M  END
>  <CHROM.1>
-178.19691000,-169.02481407,-172.33749762,142.59381814,-159.74438614,-104.02255712
-3.13440009,17.09913368,37.63191033,2.45215893,0.01138238,2.16558369

>  <Name>
lig.pdb

>  <RI>
0

>  <Rbt.Current_Directory>
/home/itssahil/PROJECTS/Mol_Feturizer/New_Systems/rnas/4k32

>  <Rbt.Executable>
rbdock ($Id: //depot/dev/client3/rdock/2013.1/src/exe/rbdock.cxx#4 $)

>  <Rbt.Library>
libRbt.so (2013.1, Build901 2013/11/27)

>  <Rbt.Parameter_File>
/export/apps/rDock/src/rDock_2013.1_src/data/scripts/dock_solv.prm

>  <Rbt.Receptor>
prm/pocket_docking_8.prm

>  <SCORE>
-13.7215

>  <SCORE.INTER>
-8.8168

>  <SCORE.INTER.CONST>
1

>  <SCORE.INTER.POLAR>
0

>  <SCORE.INTER.ROT>
6

>  <SCORE.INTER.SOLV>
16.5592

>  <SCORE.INTER.VDW>
-18.9976

>  <SCORE.INTER.norm>
-0.259318

>  <SCORE.INTRA>
-4.9047

>  <SCORE.INTRA.DIHEDRAL>
-9.45381

>  <SCORE.INTRA.DIHEDRAL.0>
18.0069

>  <SCORE.INTRA.POLAR>
0

>  <SCORE.INTRA.POLAR.0>
0

>  <SCORE.INTRA.REPUL>
0

>  <SCORE.INTRA.REPUL.0>
0

>  <SCORE.INTRA.SOLV>
-2.69295

>  <SCORE.INTRA.SOLV.lig_0>
-70.7393

>  <SCORE.INTRA.VDW>
1.16868

>  <SCORE.INTRA.VDW.0>
-3.23471

>  <SCORE.INTRA.norm>
-0.144256

>  <SCORE.RESTR>
0

>  <SCORE.RESTR.CAVITY>
0

>  <SCORE.RESTR.norm>
0

>  <SCORE.SYSTEM>
0

>  <SCORE.SYSTEM.CONST>
0

>  <SCORE.SYSTEM.DIHEDRAL>
0

>  <SCORE.SYSTEM.SOLV>
0

>  <SCORE.SYSTEM.norm>
0

>  <SCORE.heavy>
34

>  <SCORE.norm>
-0.403574

>  <RMSD>
8.756

$$$$
lig.pdb
 OpenBabel11021811503D
libRbt.so/2013.1/901 2013/11/27
 34 36  0  0  0  0  0  0  0  0999 V2000
   -8.0940   17.7247   39.2002 C   0  0  2  0  0  0  0  0  0  0  0  0
   -7.0162   18.2372   39.9914 O   0  0  0  0  0  0  0  0  0  0  0  0
   -9.4646   18.1693   39.8672 C   0  0  2  0  0  0  0  0  0  0  0  0
   -9.5913   19.6439   39.9351 N   0  0  0  0  0  0  0  0  0  0  0  0
   -9.5647   17.5648   41.2904 C   0  0  1  0  0  0  0  0  0  0  0  0
  -10.7969   17.9488   41.9050 O   0  0  0  0  0  0  0  0  0  0  0  0
   -9.4463   16.0341   41.1820 C   0  0  2  0  0  0  0  0  0  0  0  0
   -9.5409   15.4632   42.4879 O   0  0  0  0  0  0  0  0  0  0  0  0
   -8.0765   15.6542   40.4995 C   0  0  2  0  0  0  0  0  0  0  0  0
   -7.9739   16.2637   39.1564 O   0  0  0  0  0  0  0  0  0  0  0  0
   -7.9189   14.1203   40.3531 C   0  0  2  0  0  0  0  0  0  0  0  0
   -7.7997   13.5204   41.6445 O   0  0  0  0  0  0  0  0  0  0  0  0
   -6.6830   13.7700   39.5391 C   0  0  0  0  0  0  0  0  0  0  0  0
   -2.7491   18.0028   39.7594 C   0  0  2  0  0  0  0  0  0  0  0  0
   -1.3930   17.4600   39.6472 N   0  0  0  0  0  0  0  0  0  0  0  0
   -3.4561   17.2409   40.9142 C   0  0  0  0  0  0  0  0  0  0  0  0
   -4.8891   17.8196   41.0650 C   0  0  2  0  0  0  0  0  0  0  0  0
   -5.5963   17.1290   42.1548 N   0  0  0  0  0  0  0  0  0  0  0  0
   -5.6959   17.6549   39.7491 C   0  0  2  0  0  0  0  0  0  0  0  0
   -4.9433   18.3891   38.5949 C   0  0  2  0  0  0  0  0  0  0  0  0
   -5.6836   18.2266   37.3775 O   0  0  0  0  0  0  0  0  0  0  0  0
   -3.5289   17.7929   38.3936 C   0  0  1  0  0  0  0  0  0  0  0  0
   -2.8974   18.5326   37.3193 O   0  0  0  0  0  0  0  0  0  0  0  0
   -3.2691   18.1445   35.9759 C   0  0  2  0  0  0  0  0  0  0  0  0
   -2.3939   16.8839   35.6264 C   0  0  2  0  0  0  0  0  0  0  0  0
   -2.6756   15.8338   36.5381 O   0  0  0  0  0  0  0  0  0  0  0  0
   -0.8714   17.2860   35.6820 C   0  0  1  0  0  0  0  0  0  0  0  0
   -0.0001   16.1135   35.3657 N   0  0  0  0  0  0  0  0  0  0  0  0
    0.8105   15.7842   36.5578 C   0  0  0  0  0  0  0  0  0  0  0  0
   -0.6256   18.4345   34.6566 C   0  0  2  0  0  0  0  0  0  0  0  0
   -0.9487   17.9588   33.3509 O   0  0  0  0  0  0  0  0  0  0  0  0
    0.8314   18.8902   34.6543 C   0  0  0  0  0  0  0  0  0  0  0  0
   -1.5506   19.6430   35.0099 C   0  0  0  0  0  0  0  0  0  0  0  0
   -2.9710   19.2344   35.0251 O   0  0  0  0  0  0  0  0  0  0  0  0
  1  3  1  0  0  0  0
  1  2  1  1  0  0  0
  3  5  1  0  0  0  0
  3  4  1  1  0  0  0
  5  6  1  6  0  0  0
  7  8  1  1  0  0  0
  7  5  1  0  0  0  0
  9 10  1  6  0  0  0
  9  7  1  0  0  0  0
 10  1  1  0  0  0  0
 11 13  1  6  0  0  0
 11  9  1  0  0  0  0
 12 11  1  0  0  0  0
 14 15  1  6  0  0  0
 16 14  1  0  0  0  0
 17 18  1  1  0  0  0
 17 16  1  0  0  0  0
 19  2  1  1  0  0  0
 19 20  1  0  0  0  0
 19 17  1  0  0  0  0
 20 21  1  6  0  0  0
 20 22  1  0  0  0  0
 22 23  1  6  0  0  0
 22 14  1  0  0  0  0
 24 23  1  1  0  0  0
 24 25  1  0  0  0  0
 25 27  1  0  0  0  0
 25 26  1  1  0  0  0
 27 28  1  6  0  0  0
 28 29  1  0  0  0  0
 30 31  1  6  0  0  0
 30 32  1  0  0  0  0
 30 27  1  0  0  0  0
 33 30  1  0  0  0  0
 34 33  1  0  0  0  0
 34 24  1  0  0  0  0
M  END
>  <CHROM.1>
164.58688651,-66.97274064,-153.84997584,163.40773211,-81.73144827,-115.89521588
-4.90617122,17.23545457,38.53061762,2.67927806,-0.44360715,2.50118353

>  <Name>
lig.pdb

>  <RI>
0

>  <Rbt.Current_Directory>
/home/itssahil/PROJECTS/Mol_Feturizer/New_Systems/rnas/4k32

>  <Rbt.Executable>
rbdock ($Id: //depot/dev/client3/rdock/2013.1/src/exe/rbdock.cxx#4 $)

>  <Rbt.Library>
libRbt.so (2013.1, Build901 2013/11/27)

>  <Rbt.Parameter_File>
/export/apps/rDock/src/rDock_2013.1_src/data/scripts/dock_solv.prm

>  <Rbt.Receptor>
prm/pocket_docking_6.prm

>  <SCORE>
-11.9784

>  <SCORE.INTER>
-7.71674

>  <SCORE.INTER.CONST>
1

>  <SCORE.INTER.POLAR>
0

>  <SCORE.INTER.ROT>
6

>  <SCORE.INTER.SOLV>
17.1306

>  <SCORE.INTER.VDW>
-18.4547

>  <SCORE.INTER.norm>
-0.226963

>  <SCORE.INTRA>
-4.26163

>  <SCORE.INTRA.DIHEDRAL>
-9.25139

>  <SCORE.INTRA.DIHEDRAL.0>
18.0069

>  <SCORE.INTRA.POLAR>
0

>  <SCORE.INTRA.POLAR.0>
0

>  <SCORE.INTRA.REPUL>
0

>  <SCORE.INTRA.REPUL.0>
0

>  <SCORE.INTRA.SOLV>
0.373608

>  <SCORE.INTRA.SOLV.lig_0>
-70.7393

>  <SCORE.INTRA.VDW>
0.177258

>  <SCORE.INTRA.VDW.0>
-3.23471

>  <SCORE.INTRA.norm>
-0.125342

>  <SCORE.RESTR>
0

>  <SCORE.RESTR.CAVITY>
0

>  <SCORE.RESTR.norm>
0

>  <SCORE.SYSTEM>
0

>  <SCORE.SYSTEM.CONST>
0

>  <SCORE.SYSTEM.DIHEDRAL>
0

>  <SCORE.SYSTEM.SOLV>
0

>  <SCORE.SYSTEM.norm>
0

>  <SCORE.heavy>
34

>  <SCORE.norm>
-0.352305

>  <RMSD>
8.759

$$$$
lig.pdb
 OpenBabel11021811503D
libRbt.so/2013.1/901 2013/11/27
 34 36  0  0  0  0  0  0  0  0999 V2000
   -5.8819   17.4351   38.2637 C   0  0  2  0  0  0  0  0  0  0  0  0
   -4.9438   17.4969   39.3437 O   0  0  0  0  0  0  0  0  0  0  0  0
   -7.2054   18.1952   38.7016 C   0  0  2  0  0  0  0  0  0  0  0  0
   -6.9443   19.6192   39.0162 N   0  0  0  0  0  0  0  0  0  0  0  0
   -7.8225   17.4869   39.9339 C   0  0  1  0  0  0  0  0  0  0  0  0
   -9.0203   18.1537   40.3390 O   0  0  0  0  0  0  0  0  0  0  0  0
   -8.0961   16.0172   39.5681 C   0  0  2  0  0  0  0  0  0  0  0  0
   -8.6691   15.3527   40.6952 O   0  0  0  0  0  0  0  0  0  0  0  0
   -6.7521   15.3203   39.1273 C   0  0  2  0  0  0  0  0  0  0  0  0
   -6.1517   16.0231   37.9734 O   0  0  0  0  0  0  0  0  0  0  0  0
   -6.9805   13.8400   38.7327 C   0  0  2  0  0  0  0  0  0  0  0  0
   -7.4696   13.1086   39.8586 O   0  0  0  0  0  0  0  0  0  0  0  0
   -5.6893   13.1925   38.2568 C   0  0  0  0  0  0  0  0  0  0  0  0
   -0.6908   17.0276   39.2543 C   0  0  2  0  0  0  0  0  0  0  0  0
    0.6361   16.4133   39.1642 N   0  0  0  0  0  0  0  0  0  0  0  0
   -1.4837   16.2536   40.3434 C   0  0  0  0  0  0  0  0  0  0  0  0
   -2.8868   16.9063   40.4711 C   0  0  2  0  0  0  0  0  0  0  0  0
   -3.6733   16.2065   41.4990 N   0  0  0  0  0  0  0  0  0  0  0  0
   -3.6498   16.8515   39.1204 C   0  0  2  0  0  0  0  0  0  0  0  0
   -2.8130   17.5953   38.0322 C   0  0  2  0  0  0  0  0  0  0  0  0
   -3.5135   17.5341   36.7823 O   0  0  0  0  0  0  0  0  0  0  0  0
   -1.4275   16.9286   37.8525 C   0  0  1  0  0  0  0  0  0  0  0  0
   -0.7144   17.6809   36.8399 O   0  0  0  0  0  0  0  0  0  0  0  0
   -0.6593   17.0821   35.5239 C   0  0  2  0  0  0  0  0  0  0  0  0
    0.5536   17.7604   34.7848 C   0  0  2  0  0  0  0  0  0  0  0  0
    1.7553   17.5027   35.4939 O   0  0  0  0  0  0  0  0  0  0  0  0
    0.2848   19.3090   34.6742 C   0  0  1  0  0  0  0  0  0  0  0  0
    1.4191   19.9976   33.9859 N   0  0  0  0  0  0  0  0  0  0  0  0
    2.1354   20.8388   34.9687 C   0  0  0  0  0  0  0  0  0  0  0  0
   -1.0401   19.5256   33.8816 C   0  0  2  0  0  0  0  0  0  0  0  0
   -0.8879   18.9708   32.5760 O   0  0  0  0  0  0  0  0  0  0  0  0
   -1.3785   21.0072   33.7368 C   0  0  0  0  0  0  0  0  0  0  0  0
   -2.2051   18.7933   34.6216 C   0  0  0  0  0  0  0  0  0  0  0  0
   -1.9071   17.3546   34.7827 O   0  0  0  0  0  0  0  0  0  0  0  0
  1  3  1  0  0  0  0
  1  2  1  1  0  0  0
  3  5  1  0  0  0  0
  3  4  1  1  0  0  0
  5  6  1  6  0  0  0
  7  8  1  1  0  0  0
  7  5  1  0  0  0  0
  9 10  1  6  0  0  0
  9  7  1  0  0  0  0
 10  1  1  0  0  0  0
 11 13  1  1  0  0  0
 11  9  1  0  0  0  0
 12 11  1  0  0  0  0
 14 15  1  6  0  0  0
 16 14  1  0  0  0  0
 17 18  1  1  0  0  0
 17 16  1  0  0  0  0
 19  2  1  1  0  0  0
 19 20  1  0  0  0  0
 19 17  1  0  0  0  0
 20 21  1  6  0  0  0
 20 22  1  0  0  0  0
 22 23  1  6  0  0  0
 22 14  1  0  0  0  0
 24 23  1  1  0  0  0
 24 25  1  0  0  0  0
 25 27  1  0  0  0  0
 25 26  1  1  0  0  0
 27 28  1  6  0  0  0
 28 29  1  0  0  0  0
 30 31  1  6  0  0  0
 30 32  1  0  0  0  0
 30 27  1  0  0  0  0
 33 30  1  0  0  0  0
 34 33  1  0  0  0  0
 34 24  1  0  0  0  0
M  END
>  <CHROM.1>
-179.65447069,-62.01674526,-173.48821947,141.30746965,-159.62811711,-110.85359137
-3.36335673,17.30768058,37.57607807,2.49041154,-0.11642830,2.27181832

>  <Name>
lig.pdb

>  <RI>
0

>  <Rbt.Current_Directory>
/home/itssahil/PROJECTS/Mol_Feturizer/New_Systems/rnas/4k32

>  <Rbt.Executable>
rbdock ($Id: //depot/dev/client3/rdock/2013.1/src/exe/rbdock.cxx#4 $)

>  <Rbt.Library>
libRbt.so (2013.1, Build901 2013/11/27)

>  <Rbt.Parameter_File>
/export/apps/rDock/src/rDock_2013.1_src/data/scripts/dock_solv.prm

>  <Rbt.Receptor>
prm/pocket_docking_6.prm

>  <SCORE>
-14.8195

>  <SCORE.INTER>
-9.35918

>  <SCORE.INTER.CONST>
1

>  <SCORE.INTER.POLAR>
0

>  <SCORE.INTER.ROT>
6

>  <SCORE.INTER.SOLV>
18.688

>  <SCORE.INTER.VDW>
-20.0688

>  <SCORE.INTER.norm>
-0.27527

>  <SCORE.INTRA>
-5.46031

>  <SCORE.INTRA.DIHEDRAL>
-9.61439

>  <SCORE.INTRA.DIHEDRAL.0>
18.0069

>  <SCORE.INTRA.POLAR>
0

>  <SCORE.INTRA.POLAR.0>
0

>  <SCORE.INTRA.REPUL>
0

>  <SCORE.INTRA.REPUL.0>
0

>  <SCORE.INTRA.SOLV>
-2.47858

>  <SCORE.INTRA.SOLV.lig_0>
-70.7393

>  <SCORE.INTRA.VDW>
0.586175

>  <SCORE.INTRA.VDW.0>
-3.23471

>  <SCORE.INTRA.norm>
-0.160597

>  <SCORE.RESTR>
0

>  <SCORE.RESTR.CAVITY>
0

>  <SCORE.RESTR.norm>
0

>  <SCORE.SYSTEM>
0

>  <SCORE.SYSTEM.CONST>
0

>  <SCORE.SYSTEM.DIHEDRAL>
0

>  <SCORE.SYSTEM.SOLV>
0

>  <SCORE.SYSTEM.norm>
0

>  <SCORE.heavy>
34

>  <SCORE.norm>
-0.435867

>  <RMSD>
8.762

$$$$
lig.pdb
 OpenBabel11021811503D
libRbt.so/2013.1/901 2013/11/27
 34 36  0  0  0  0  0  0  0  0999 V2000
   -5.8575   17.3611   38.3351 C   0  0  2  0  0  0  0  0  0  0  0  0
   -4.9302   17.4662   39.4210 O   0  0  0  0  0  0  0  0  0  0  0  0
   -7.2314   18.0212   38.7800 C   0  0  2  0  0  0  0  0  0  0  0  0
   -7.0690   19.4535   39.1222 N   0  0  0  0  0  0  0  0  0  0  0  0
   -7.8038   17.2496   39.9957 C   0  0  1  0  0  0  0  0  0  0  0  0
   -9.0458   17.8257   40.4068 O   0  0  0  0  0  0  0  0  0  0  0  0
   -7.9753   15.7718   39.6015 C   0  0  2  0  0  0  0  0  0  0  0  0
   -8.5063   15.0489   40.7131 O   0  0  0  0  0  0  0  0  0  0  0  0
   -6.5853   15.1762   39.1549 C   0  0  2  0  0  0  0  0  0  0  0  0
   -6.0295   15.9397   38.0174 O   0  0  0  0  0  0  0  0  0  0  0  0
   -6.7109   13.6915   38.7319 C   0  0  2  0  0  0  0  0  0  0  0  0
   -7.8246   13.5315   37.8511 O   0  0  0  0  0  0  0  0  0  0  0  0
   -6.9143   12.7909   39.9403 C   0  0  0  0  0  0  0  0  0  0  0  0
   -0.6657   17.1146   39.3359 C   0  0  2  0  0  0  0  0  0  0  0  0
    0.6780   16.5351   39.2663 N   0  0  0  0  0  0  0  0  0  0  0  0
   -1.4336   16.3639   40.4587 C   0  0  0  0  0  0  0  0  0  0  0  0
   -2.8544   16.9812   40.5644 C   0  0  2  0  0  0  0  0  0  0  0  0
   -3.6182   16.3023   41.6230 N   0  0  0  0  0  0  0  0  0  0  0  0
   -3.6188   16.8492   39.2199 C   0  0  2  0  0  0  0  0  0  0  0  0
   -2.8062   17.5709   38.0990 C   0  0  2  0  0  0  0  0  0  0  0  0
   -3.5075   17.4384   36.8551 O   0  0  0  0  0  0  0  0  0  0  0  0
   -1.4026   16.9370   37.9419 C   0  0  1  0  0  0  0  0  0  0  0  0
   -0.7137   17.6669   36.8968 O   0  0  0  0  0  0  0  0  0  0  0  0
   -0.6619   17.0250   35.6010 C   0  0  2  0  0  0  0  0  0  0  0  0
    0.5429   17.6855   34.8331 C   0  0  2  0  0  0  0  0  0  0  0  0
    1.7499   17.4585   35.5438 O   0  0  0  0  0  0  0  0  0  0  0  0
    0.2642   19.2280   34.6727 C   0  0  1  0  0  0  0  0  0  0  0  0
    1.3906   19.8999   33.9557 N   0  0  0  0  0  0  0  0  0  0  0  0
    2.1973   20.6581   34.9360 C   0  0  0  0  0  0  0  0  0  0  0  0
   -1.0661   19.4103   33.8806 C   0  0  2  0  0  0  0  0  0  0  0  0
   -0.9175   18.8133   32.5934 O   0  0  0  0  0  0  0  0  0  0  0  0
   -1.4143   20.8842   33.6886 C   0  0  0  0  0  0  0  0  0  0  0  0
   -2.2228   18.6962   34.6509 C   0  0  0  0  0  0  0  0  0  0  0  0
   -1.9152   17.2654   34.8580 O   0  0  0  0  0  0  0  0  0  0  0  0
  1  3  1  0  0  0  0
  1  2  1  1  0  0  0
  3  5  1  0  0  0  0
  3  4  1  1  0  0  0
  5  6  1  6  0  0  0
  7  8  1  1  0  0  0
  7  5  1  0  0  0  0
  9 10  1  6  0  0  0
  9  7  1  0  0  0  0
 10  1  1  0  0  0  0
 11 13  1  1  0  0  0
 11  9  1  0  0  0  0
 12 11  1  0  0  0  0
 14 15  1  6  0  0  0
 16 14  1  0  0  0  0
 17 18  1  1  0  0  0
 17 16  1  0  0  0  0
 19  2  1  1  0  0  0
 19 20  1  0  0  0  0
 19 17  1  0  0  0  0
 20 21  1  6  0  0  0
 20 22  1  0  0  0  0
 22 23  1  6  0  0  0
 22 14  1  0  0  0  0
 24 23  1  1  0  0  0
 24 25  1  0  0  0  0
 25 27  1  0  0  0  0
 25 26  1  1  0  0  0
 27 28  1  6  0  0  0
 28 29  1  0  0  0  0
 30 31  1  6  0  0  0
 30 32  1  0  0  0  0
 30 27  1  0  0  0  0
 33 30  1  0  0  0  0
 34 33  1  0  0  0  0
 34 24  1  0  0  0  0
M  END
>  <CHROM.1>
177.07022691,47.14990258,-174.93976564,142.19342209,-158.89587664,-104.60024438
-3.38809854,17.22856084,37.61052205,2.48730297,0.01852235,2.11532624

>  <Name>
lig.pdb

>  <RI>
0

>  <Rbt.Current_Directory>
/home/itssahil/PROJECTS/Mol_Feturizer/New_Systems/rnas/4k32

>  <Rbt.Executable>
rbdock ($Id: //depot/dev/client3/rdock/2013.1/src/exe/rbdock.cxx#4 $)

>  <Rbt.Library>
libRbt.so (2013.1, Build901 2013/11/27)

>  <Rbt.Parameter_File>
/export/apps/rDock/src/rDock_2013.1_src/data/scripts/dock_solv.prm

>  <Rbt.Receptor>
prm/pocket_docking_5.prm

>  <SCORE>
-14.3455

>  <SCORE.INTER>
-9.80971

>  <SCORE.INTER.CONST>
1

>  <SCORE.INTER.POLAR>
0

>  <SCORE.INTER.ROT>
6

>  <SCORE.INTER.SOLV>
18.8695

>  <SCORE.INTER.VDW>
-20.4296

>  <SCORE.INTER.norm>
-0.288521

>  <SCORE.INTRA>
-4.5358

>  <SCORE.INTRA.DIHEDRAL>
-9.24195

>  <SCORE.INTRA.DIHEDRAL.0>
18.0069

>  <SCORE.INTRA.POLAR>
0

>  <SCORE.INTRA.POLAR.0>
0

>  <SCORE.INTRA.REPUL>
0

>  <SCORE.INTRA.REPUL.0>
0

>  <SCORE.INTRA.SOLV>
-2.29174

>  <SCORE.INTRA.SOLV.lig_0>
-70.7393

>  <SCORE.INTRA.VDW>
1.23105

>  <SCORE.INTRA.VDW.0>
-3.23471

>  <SCORE.INTRA.norm>
-0.133406

>  <SCORE.RESTR>
0

>  <SCORE.RESTR.CAVITY>
0

>  <SCORE.RESTR.norm>
0

>  <SCORE.SYSTEM>
0

>  <SCORE.SYSTEM.CONST>
0

>  <SCORE.SYSTEM.DIHEDRAL>
0

>  <SCORE.SYSTEM.SOLV>
0

>  <SCORE.SYSTEM.norm>
0

>  <SCORE.heavy>
34

>  <SCORE.norm>
-0.421927

>  <RMSD>
8.768

$$$$
lig.pdb
 OpenBabel11021811503D
libRbt.so/2013.1/901 2013/11/27
 34 36  0  0  0  0  0  0  0  0999 V2000
    0.1275    9.8703   35.3933 C   0  0  2  0  0  0  0  0  0  0  0  0
    1.4937   10.2969   35.4354 O   0  0  0  0  0  0  0  0  0  0  0  0
    0.0523    8.4984   34.5973 C   0  0  2  0  0  0  0  0  0  0  0  0
    0.8557    7.4383   35.2498 N   0  0  0  0  0  0  0  0  0  0  0  0
    0.5470    8.7175   33.1454 C   0  0  1  0  0  0  0  0  0  0  0  0
    0.4799    7.4934   32.4102 O   0  0  0  0  0  0  0  0  0  0  0  0
   -0.3178    9.8107   32.4929 C   0  0  2  0  0  0  0  0  0  0  0  0
    0.1255   10.0203   31.1513 O   0  0  0  0  0  0  0  0  0  0  0  0
   -0.2163   11.1409   33.3335 C   0  0  2  0  0  0  0  0  0  0  0  0
   -0.6568   10.9149   34.7266 O   0  0  0  0  0  0  0  0  0  0  0  0
   -1.0854   12.2685   32.7232 C   0  0  2  0  0  0  0  0  0  0  0  0
   -0.9431   13.4617   33.4963 O   0  0  0  0  0  0  0  0  0  0  0  0
   -2.5549   11.8779   32.6993 C   0  0  0  0  0  0  0  0  0  0  0  0
    1.0415   12.6862   38.9572 C   0  0  2  0  0  0  0  0  0  0  0  0
    1.3576   13.5373   40.1070 N   0  0  0  0  0  0  0  0  0  0  0  0
    1.9642   11.4390   39.0399 C   0  0  0  0  0  0  0  0  0  0  0  0
    1.6268   10.5115   37.8412 C   0  0  2  0  0  0  0  0  0  0  0  0
    2.4758    9.3105   37.8823 N   0  0  0  0  0  0  0  0  0  0  0  0
    1.8477   11.2458   36.4915 C   0  0  2  0  0  0  0  0  0  0  0  0
    0.9451   12.5191   36.4507 C   0  0  2  0  0  0  0  0  0  0  0  0
    1.1585   13.2028   35.2083 O   0  0  0  0  0  0  0  0  0  0  0  0
    1.3001   13.4825   37.6093 C   0  0  1  0  0  0  0  0  0  0  0  0
    0.4154   14.6256   37.5068 O   0  0  0  0  0  0  0  0  0  0  0  0
    0.7358   15.7554   38.3521 C   0  0  2  0  0  0  0  0  0  0  0  0
   -0.4536   16.7736   38.1914 C   0  0  2  0  0  0  0  0  0  0  0  0
   -1.6656   16.1696   38.6151 O   0  0  0  0  0  0  0  0  0  0  0  0
   -0.5437   17.2221   36.6836 C   0  0  1  0  0  0  0  0  0  0  0  0
   -1.6694   18.1846   36.4817 N   0  0  0  0  0  0  0  0  0  0  0  0
   -2.7450   17.5107   35.7231 C   0  0  0  0  0  0  0  0  0  0  0  0
    0.8105   17.8821   36.2822 C   0  0  2  0  0  0  0  0  0  0  0  0
    1.0259   19.0239   37.1103 O   0  0  0  0  0  0  0  0  0  0  0  0
    0.8088   18.3392   34.8257 C   0  0  0  0  0  0  0  0  0  0  0  0
    1.9668   16.8556   36.5065 C   0  0  0  0  0  0  0  0  0  0  0  0
    1.9941   16.3885   37.9085 O   0  0  0  0  0  0  0  0  0  0  0  0
  1  3  1  0  0  0  0
  1  2  1  6  0  0  0
  3  5  1  0  0  0  0
  3  4  1  1  0  0  0
  5  6  1  6  0  0  0
  7  8  1  6  0  0  0
  7  5  1  0  0  0  0
  9 10  1  1  0  0  0
  9  7  1  0  0  0  0
 10  1  1  0  0  0  0
 11 13  1  1  0  0  0
 11  9  1  0  0  0  0
 12 11  1  0  0  0  0
 14 15  1  1  0  0  0
 16 14  1  0  0  0  0
 17 18  1  6  0  0  0
 17 16  1  0  0  0  0
 19  2  1  6  0  0  0
 19 20  1  0  0  0  0
 19 17  1  0  0  0  0
 20 21  1  6  0  0  0
 20 22  1  0  0  0  0
 22 23  1  1  0  0  0
 22 14  1  0  0  0  0
 24 23  1  6  0  0  0
 24 25  1  0  0  0  0
 25 27  1  0  0  0  0
 25 26  1  6  0  0  0
 27 28  1  1  0  0  0
 28 29  1  0  0  0  0
 30 31  1  1  0  0  0
 30 32  1  0  0  0  0
 30 27  1  0  0  0  0
 33 30  1  0  0  0  0
 34 33  1  0  0  0  0
 34 24  1  0  0  0  0
M  END
>  <CHROM.1>
-158.91304582,-178.76190588,63.80936231,74.45148980,-173.15206171,-108.98845534
0.34642198,13.10030014,35.86824732,-1.51287615,-1.09721429,0.44657444

>  <Name>
lig.pdb

>  <RI>
0

>  <Rbt.Current_Directory>
/home/itssahil/PROJECTS/Mol_Feturizer/New_Systems/rnas/4k32

>  <Rbt.Executable>
rbdock ($Id: //depot/dev/client3/rdock/2013.1/src/exe/rbdock.cxx#4 $)

>  <Rbt.Library>
libRbt.so (2013.1, Build901 2013/11/27)

>  <Rbt.Parameter_File>
/export/apps/rDock/src/rDock_2013.1_src/data/scripts/dock_solv.prm

>  <Rbt.Receptor>
prm/pocket_docking_8.prm

>  <SCORE>
-9.3699

>  <SCORE.INTER>
-3.50799

>  <SCORE.INTER.CONST>
1

>  <SCORE.INTER.POLAR>
0

>  <SCORE.INTER.ROT>
6

>  <SCORE.INTER.SOLV>
14.4866

>  <SCORE.INTER.VDW>
-14.7675

>  <SCORE.INTER.norm>
-0.103176

>  <SCORE.INTRA>
-5.86191

>  <SCORE.INTRA.DIHEDRAL>
-13.5774

>  <SCORE.INTRA.DIHEDRAL.0>
18.0069

>  <SCORE.INTRA.POLAR>
0

>  <SCORE.INTRA.POLAR.0>
0

>  <SCORE.INTRA.REPUL>
0.00484045

>  <SCORE.INTRA.REPUL.0>
0

>  <SCORE.INTRA.SOLV>
0.442236

>  <SCORE.INTRA.SOLV.lig_0>
-70.7393

>  <SCORE.INTRA.VDW>
0.681464

>  <SCORE.INTRA.VDW.0>
-3.23471

>  <SCORE.INTRA.norm>
-0.172409

>  <SCORE.RESTR>
0

>  <SCORE.RESTR.CAVITY>
0

>  <SCORE.RESTR.norm>
0

>  <SCORE.SYSTEM>
0

>  <SCORE.SYSTEM.CONST>
0

>  <SCORE.SYSTEM.DIHEDRAL>
0

>  <SCORE.SYSTEM.SOLV>
0

>  <SCORE.SYSTEM.norm>
0

>  <SCORE.heavy>
34

>  <SCORE.norm>
-0.275585

>  <RMSD>
8.771

$$$$
lig.pdb
 OpenBabel11021811503D
libRbt.so/2013.1/901 2013/11/27
 34 36  0  0  0  0  0  0  0  0999 V2000
    1.2297   14.9823   36.4639 C   0  0  2  0  0  0  0  0  0  0  0  0
   -0.1235   15.2081   36.8740 O   0  0  0  0  0  0  0  0  0  0  0  0
    1.4487   13.4197   36.2871 C   0  0  2  0  0  0  0  0  0  0  0  0
    0.5453   12.8496   35.2606 N   0  0  0  0  0  0  0  0  0  0  0  0
    1.2187   12.7104   37.6454 C   0  0  1  0  0  0  0  0  0  0  0  0
    1.4185   11.3016   37.5075 O   0  0  0  0  0  0  0  0  0  0  0  0
    2.1824   13.3137   38.6826 C   0  0  2  0  0  0  0  0  0  0  0  0
    1.9834   12.6656   39.9399 O   0  0  0  0  0  0  0  0  0  0  0  0
    1.9297   14.8655   38.8031 C   0  0  2  0  0  0  0  0  0  0  0  0
    2.1169   15.5296   37.4955 O   0  0  0  0  0  0  0  0  0  0  0  0
    2.8901   15.5216   39.8261 C   0  0  2  0  0  0  0  0  0  0  0  0
    4.1606   14.8690   39.7849 O   0  0  0  0  0  0  0  0  0  0  0  0
    2.3387   15.4220   41.2398 C   0  0  0  0  0  0  0  0  0  0  0  0
   -2.6160   18.6658   36.4899 C   0  0  2  0  0  0  0  0  0  0  0  0
   -3.1539   20.0162   36.6725 N   0  0  0  0  0  0  0  0  0  0  0  0
   -2.4588   18.0378   37.9022 C   0  0  0  0  0  0  0  0  0  0  0  0
   -1.9119   16.5950   37.7282 C   0  0  2  0  0  0  0  0  0  0  0  0
   -1.7519   15.9575   39.0446 N   0  0  0  0  0  0  0  0  0  0  0  0
   -0.5427   16.6045   36.9968 C   0  0  2  0  0  0  0  0  0  0  0  0
   -0.7159   17.2810   35.6003 C   0  0  2  0  0  0  0  0  0  0  0  0
    0.5519   17.2995   34.9303 O   0  0  0  0  0  0  0  0  0  0  0  0
   -1.2127   18.7391   35.7531 C   0  0  1  0  0  0  0  0  0  0  0  0
   -1.3574   19.2879   34.4198 O   0  0  0  0  0  0  0  0  0  0  0  0
   -0.2933   18.9832   33.4878 C   0  0  2  0  0  0  0  0  0  0  0  0
    0.8277   20.0598   33.7361 C   0  0  2  0  0  0  0  0  0  0  0  0
    1.2998   19.9650   35.0708 O   0  0  0  0  0  0  0  0  0  0  0  0
    0.2360   21.4913   33.4473 C   0  0  1  0  0  0  0  0  0  0  0  0
    1.2660   22.5492   33.6807 N   0  0  0  0  0  0  0  0  0  0  0  0
    1.0931   23.0926   35.0451 C   0  0  0  0  0  0  0  0  0  0  0  0
   -0.2569   21.5336   31.9689 C   0  0  2  0  0  0  0  0  0  0  0  0
    0.8555   21.2919   31.1088 O   0  0  0  0  0  0  0  0  0  0  0  0
   -0.8553   22.8912   31.6093 C   0  0  0  0  0  0  0  0  0  0  0  0
   -1.3283   20.4168   31.7542 C   0  0  0  0  0  0  0  0  0  0  0  0
   -0.7819   19.0873   32.0981 O   0  0  0  0  0  0  0  0  0  0  0  0
  1  3  1  0  0  0  0
  1  2  1  1  0  0  0
  3  5  1  0  0  0  0
  3  4  1  6  0  0  0
  5  6  1  6  0  0  0
  7  8  1  1  0  0  0
  7  5  1  0  0  0  0
  9 10  1  6  0  0  0
  9  7  1  0  0  0  0
 10  1  1  0  0  0  0
 11 13  1  1  0  0  0
 11  9  1  0  0  0  0
 12 11  1  0  0  0  0
 14 15  1  1  0  0  0
 16 14  1  0  0  0  0
 17 18  1  1  0  0  0
 17 16  1  0  0  0  0
 19  2  1  6  0  0  0
 19 20  1  0  0  0  0
 19 17  1  0  0  0  0
 20 21  1  1  0  0  0
 20 22  1  0  0  0  0
 22 23  1  6  0  0  0
 22 14  1  0  0  0  0
 24 23  1  1  0  0  0
 24 25  1  0  0  0  0
 25 27  1  0  0  0  0
 25 26  1  1  0  0  0
 27 28  1  6  0  0  0
 28 29  1  0  0  0  0
 30 31  1  6  0  0  0
 30 32  1  0  0  0  0
 30 27  1  0  0  0  0
 33 30  1  0  0  0  0
 34 33  1  0  0  0  0
 34 24  1  0  0  0  0
M  END
>  <CHROM.1>
-175.79648277,34.75057635,-168.28378970,-158.92611190,-84.71749154,-96.07731612
0.33503221,17.41916862,36.00923730,-1.21905376,0.92516084,-0.93560014

>  <Name>
lig.pdb

>  <RI>
0

>  <Rbt.Current_Directory>
/home/itssahil/PROJECTS/Mol_Feturizer/New_Systems/rnas/4k32

>  <Rbt.Executable>
rbdock ($Id: //depot/dev/client3/rdock/2013.1/src/exe/rbdock.cxx#4 $)

>  <Rbt.Library>
libRbt.so (2013.1, Build901 2013/11/27)

>  <Rbt.Parameter_File>
/export/apps/rDock/src/rDock_2013.1_src/data/scripts/dock_solv.prm

>  <Rbt.Receptor>
prm/blind_docking_100.prm

>  <SCORE>
9.47263

>  <SCORE.INTER>
-4.14542

>  <SCORE.INTER.CONST>
1

>  <SCORE.INTER.POLAR>
0

>  <SCORE.INTER.ROT>
6

>  <SCORE.INTER.SOLV>
20.6198

>  <SCORE.INTER.VDW>
-17.2369

>  <SCORE.INTER.norm>
-0.121924

>  <SCORE.INTRA>
0.509687

>  <SCORE.INTRA.DIHEDRAL>
-9.84066

>  <SCORE.INTRA.DIHEDRAL.0>
18.0069

>  <SCORE.INTRA.POLAR>
0

>  <SCORE.INTRA.POLAR.0>
0

>  <SCORE.INTRA.REPUL>
0

>  <SCORE.INTRA.REPUL.0>
0

>  <SCORE.INTRA.SOLV>
-2.09253

>  <SCORE.INTRA.SOLV.lig_0>
-70.7393

>  <SCORE.INTRA.VDW>
6.47628

>  <SCORE.INTRA.VDW.0>
-3.23471

>  <SCORE.INTRA.norm>
0.0149908

>  <SCORE.RESTR>
13.1084

>  <SCORE.RESTR.CAVITY>
13.1084

>  <SCORE.RESTR.norm>
0.38554

>  <SCORE.SYSTEM>
0

>  <SCORE.SYSTEM.CONST>
0

>  <SCORE.SYSTEM.DIHEDRAL>
0

>  <SCORE.SYSTEM.SOLV>
0

>  <SCORE.SYSTEM.norm>
0

>  <SCORE.heavy>
34

>  <SCORE.norm>
0.278607

>  <RMSD>
8.776

$$$$
lig.pdb
 OpenBabel11021811503D
libRbt.so/2013.1/901 2013/11/27
 34 36  0  0  0  0  0  0  0  0999 V2000
   -3.6080   10.3151   37.0295 C   0  0  2  0  0  0  0  0  0  0  0  0
   -3.3988   10.2663   38.4452 O   0  0  0  0  0  0  0  0  0  0  0  0
   -4.6433    9.1783   36.6335 C   0  0  2  0  0  0  0  0  0  0  0  0
   -5.9493    9.3634   37.3082 N   0  0  0  0  0  0  0  0  0  0  0  0
   -4.0521    7.7933   36.9987 C   0  0  1  0  0  0  0  0  0  0  0  0
   -4.9682    6.7553   36.6427 O   0  0  0  0  0  0  0  0  0  0  0  0
   -2.7069    7.6272   36.2696 C   0  0  2  0  0  0  0  0  0  0  0  0
   -2.1521    6.3517   36.5948 O   0  0  0  0  0  0  0  0  0  0  0  0
   -1.7281    8.7901   36.6890 C   0  0  2  0  0  0  0  0  0  0  0  0
   -2.3147   10.1091   36.3693 O   0  0  0  0  0  0  0  0  0  0  0  0
   -0.3630    8.6746   35.9662 C   0  0  2  0  0  0  0  0  0  0  0  0
    0.2475    7.4219   36.2819 O   0  0  0  0  0  0  0  0  0  0  0  0
    0.5779    9.7929   36.3867 C   0  0  0  0  0  0  0  0  0  0  0  0
   -2.1061   13.4747   40.9654 C   0  0  2  0  0  0  0  0  0  0  0  0
   -1.2425   14.4365   41.6549 N   0  0  0  0  0  0  0  0  0  0  0  0
   -1.5294   12.0584   41.2401 C   0  0  0  0  0  0  0  0  0  0  0  0
   -2.4465   11.0215   40.5366 C   0  0  2  0  0  0  0  0  0  0  0  0
   -1.9398    9.6610   40.7753 N   0  0  0  0  0  0  0  0  0  0  0  0
   -2.5078   11.2816   39.0075 C   0  0  2  0  0  0  0  0  0  0  0  0
   -3.0462   12.7256   38.7576 C   0  0  2  0  0  0  0  0  0  0  0  0
   -3.0916   12.9688   37.3450 O   0  0  0  0  0  0  0  0  0  0  0  0
   -2.1176   13.7794   39.4083 C   0  0  1  0  0  0  0  0  0  0  0  0
   -2.6905   15.0834   39.1414 O   0  0  0  0  0  0  0  0  0  0  0  0
   -1.8042   16.2144   39.3121 C   0  0  2  0  0  0  0  0  0  0  0  0
   -2.7013   17.4994   39.1662 C   0  0  2  0  0  0  0  0  0  0  0  0
   -3.7041   17.5037   40.1701 O   0  0  0  0  0  0  0  0  0  0  0  0
   -3.3433   17.5152   37.7274 C   0  0  1  0  0  0  0  0  0  0  0  0
   -4.2142   18.7166   37.5471 N   0  0  0  0  0  0  0  0  0  0  0  0
   -5.6114   18.3460   37.8589 C   0  0  0  0  0  0  0  0  0  0  0  0
   -2.1946   17.5172   36.6733 C   0  0  2  0  0  0  0  0  0  0  0  0
   -1.4052   18.6910   36.8593 O   0  0  0  0  0  0  0  0  0  0  0  0
   -2.7351   17.5237   35.2456 C   0  0  0  0  0  0  0  0  0  0  0  0
   -1.3006   16.2540   36.8879 C   0  0  0  0  0  0  0  0  0  0  0  0
   -0.7636   16.2143   38.2644 O   0  0  0  0  0  0  0  0  0  0  0  0
  1  3  1  0  0  0  0
  1  2  1  1  0  0  0
  3  5  1  0  0  0  0
  3  4  1  1  0  0  0
  5  6  1  6  0  0  0
  7  8  1  1  0  0  0
  7  5  1  0  0  0  0
  9 10  1  6  0  0  0
  9  7  1  0  0  0  0
 10  1  1  0  0  0  0
 11 13  1  1  0  0  0
 11  9  1  0  0  0  0
 12 11  1  0  0  0  0
 14 15  1  1  0  0  0
 16 14  1  0  0  0  0
 17 18  1  6  0  0  0
 17 16  1  0  0  0  0
 19  2  1  6  0  0  0
 19 20  1  0  0  0  0
 19 17  1  0  0  0  0
 20 21  1  6  0  0  0
 20 22  1  0  0  0  0
 22 23  1  1  0  0  0
 22 14  1  0  0  0  0
 24 23  1  6  0  0  0
 24 25  1  0  0  0  0
 25 27  1  0  0  0  0
 25 26  1  1  0  0  0
 27 28  1  1  0  0  0
 28 29  1  0  0  0  0
 30 31  1  1  0  0  0
 30 32  1  0  0  0  0
 30 27  1  0  0  0  0
 33 30  1  0  0  0  0
 34 33  1  0  0  0  0
 34 24  1  0  0  0  0
M  END
>  <CHROM.1>
-177.67148781,-59.24896984,179.91560290,81.31762203,-172.21833963,-94.85570535
-2.56819062,12.67208904,37.97953551,1.47947920,1.30656389,-2.92895168

>  <Name>
lig.pdb

>  <RI>
0

>  <Rbt.Current_Directory>
/home/itssahil/PROJECTS/Mol_Feturizer/New_Systems/rnas/4k32

>  <Rbt.Executable>
rbdock ($Id: //depot/dev/client3/rdock/2013.1/src/exe/rbdock.cxx#4 $)

>  <Rbt.Library>
libRbt.so (2013.1, Build901 2013/11/27)

>  <Rbt.Parameter_File>
/export/apps/rDock/src/rDock_2013.1_src/data/scripts/dock_solv.prm

>  <Rbt.Receptor>
prm/pocket_docking_8.prm

>  <SCORE>
-6.50616

>  <SCORE.INTER>
1.24321

>  <SCORE.INTER.CONST>
1

>  <SCORE.INTER.POLAR>
0

>  <SCORE.INTER.ROT>
6

>  <SCORE.INTER.SOLV>
15.9729

>  <SCORE.INTER.VDW>
-12.0955

>  <SCORE.INTER.norm>
0.036565

>  <SCORE.INTRA>
-7.74938

>  <SCORE.INTRA.DIHEDRAL>
-14.8693

>  <SCORE.INTRA.DIHEDRAL.0>
18.0069

>  <SCORE.INTRA.POLAR>
0

>  <SCORE.INTRA.POLAR.0>
0

>  <SCORE.INTRA.REPUL>
0

>  <SCORE.INTRA.REPUL.0>
0

>  <SCORE.INTRA.SOLV>
-2.00432

>  <SCORE.INTRA.SOLV.lig_0>
-70.7393

>  <SCORE.INTRA.VDW>
0.687459

>  <SCORE.INTRA.VDW.0>
-3.23471

>  <SCORE.INTRA.norm>
-0.227923

>  <SCORE.RESTR>
0

>  <SCORE.RESTR.CAVITY>
0

>  <SCORE.RESTR.norm>
0

>  <SCORE.SYSTEM>
0

>  <SCORE.SYSTEM.CONST>
0

>  <SCORE.SYSTEM.DIHEDRAL>
0

>  <SCORE.SYSTEM.SOLV>
0

>  <SCORE.SYSTEM.norm>
0

>  <SCORE.heavy>
34

>  <SCORE.norm>
-0.191358

>  <RMSD>
8.779

$$$$
lig.pdb
 OpenBabel11021811503D
libRbt.so/2013.1/901 2013/11/27
 34 36  0  0  0  0  0  0  0  0999 V2000
    0.8406   14.5257   35.9843 C   0  0  2  0  0  0  0  0  0  0  0  0
   -0.4596   14.4750   36.5818 O   0  0  0  0  0  0  0  0  0  0  0  0
    1.1873   13.0870   35.4089 C   0  0  2  0  0  0  0  0  0  0  0  0
    0.2133   12.6564   34.3789 N   0  0  0  0  0  0  0  0  0  0  0  0
    1.2160   12.0611   36.5698 C   0  0  1  0  0  0  0  0  0  0  0  0
    1.5338   10.7595   36.0716 O   0  0  0  0  0  0  0  0  0  0  0  0
    2.2476   12.5291   37.6117 C   0  0  2  0  0  0  0  0  0  0  0  0
    2.2871   11.5894   38.6868 O   0  0  0  0  0  0  0  0  0  0  0  0
    1.8612   13.9659   38.1339 C   0  0  2  0  0  0  0  0  0  0  0  0
    1.8016   14.9310   37.0154 O   0  0  0  0  0  0  0  0  0  0  0  0
    2.8824   14.4875   39.1752 C   0  0  2  0  0  0  0  0  0  0  0  0
    3.0887   13.5005   40.1875 O   0  0  0  0  0  0  0  0  0  0  0  0
    2.3893   15.7653   39.8362 C   0  0  0  0  0  0  0  0  0  0  0  0
   -2.3215   17.9797   34.9796 C   0  0  2  0  0  0  0  0  0  0  0  0
   -3.1744   19.1642   34.8545 N   0  0  0  0  0  0  0  0  0  0  0  0
   -3.2378   16.7934   35.3882 C   0  0  0  0  0  0  0  0  0  0  0  0
   -2.3547   15.5214   35.5023 C   0  0  2  0  0  0  0  0  0  0  0  0
   -3.1845   14.3677   35.8832 N   0  0  0  0  0  0  0  0  0  0  0  0
   -1.2353   15.7155   36.5602 C   0  0  2  0  0  0  0  0  0  0  0  0
   -0.3563   16.9399   36.1528 C   0  0  2  0  0  0  0  0  0  0  0  0
    0.6703   17.1252   37.1368 O   0  0  0  0  0  0  0  0  0  0  0  0
   -1.2088   18.2301   36.0827 C   0  0  1  0  0  0  0  0  0  0  0  0
   -0.3260   19.3101   35.6899 O   0  0  0  0  0  0  0  0  0  0  0  0
    0.6466   18.9958   34.6657 C   0  0  2  0  0  0  0  0  0  0  0  0
    1.4040   20.3399   34.3541 C   0  0  2  0  0  0  0  0  0  0  0  0
    2.0551   20.8087   35.5244 O   0  0  0  0  0  0  0  0  0  0  0  0
    0.3673   21.4005   33.8221 C   0  0  1  0  0  0  0  0  0  0  0  0
    1.0427   22.6997   33.5219 N   0  0  0  0  0  0  0  0  0  0  0  0
    1.0240   23.5410   34.7378 C   0  0  0  0  0  0  0  0  0  0  0  0
   -0.3064   20.8317   32.5363 C   0  0  2  0  0  0  0  0  0  0  0  0
    0.7019   20.6104   31.5514 O   0  0  0  0  0  0  0  0  0  0  0  0
   -1.3360   21.8002   31.9598 C   0  0  0  0  0  0  0  0  0  0  0  0
   -1.0002   19.4745   32.8794 C   0  0  0  0  0  0  0  0  0  0  0  0
   -0.0302   18.5134   33.4451 O   0  0  0  0  0  0  0  0  0  0  0  0
  1  3  1  0  0  0  0
  1  2  1  1  0  0  0
  3  5  1  0  0  0  0
  3  4  1  6  0  0  0
  5  6  1  6  0  0  0
  7  8  1  1  0  0  0
  7  5  1  0  0  0  0
  9 10  1  6  0  0  0
  9  7  1  0  0  0  0
 10  1  1  0  0  0  0
 11 13  1  1  0  0  0
 11  9  1  0  0  0  0
 12 11  1  0  0  0  0
 14 15  1  1  0  0  0
 16 14  1  0  0  0  0
 17 18  1  1  0  0  0
 17 16  1  0  0  0  0
 19  2  1  6  0  0  0
 19 20  1  0  0  0  0
 19 17  1  0  0  0  0
 20 21  1  1  0  0  0
 20 22  1  0  0  0  0
 22 23  1  6  0  0  0
 22 14  1  0  0  0  0
 24 23  1  1  0  0  0
 24 25  1  0  0  0  0
 25 27  1  0  0  0  0
 25 26  1  1  0  0  0
 27 28  1  6  0  0  0
 28 29  1  0  0  0  0
 30 31  1  6  0  0  0
 30 32  1  0  0  0  0
 30 27  1  0  0  0  0
 33 30  1  0  0  0  0
 34 33  1  0  0  0  0
 34 24  1  0  0  0  0
M  END
>  <CHROM.1>
-150.25250952,-50.63596244,106.75662062,-75.39528498,176.28790296,-89.90618153
0.30029449,16.89470222,35.69432049,1.34923622,0.61938136,2.80720719

>  <Name>
lig.pdb

>  <RI>
0

>  <Rbt.Current_Directory>
/home/itssahil/PROJECTS/Mol_Feturizer/New_Systems/rnas/4k32

>  <Rbt.Executable>
rbdock ($Id: //depot/dev/client3/rdock/2013.1/src/exe/rbdock.cxx#4 $)

>  <Rbt.Library>
libRbt.so (2013.1, Build901 2013/11/27)

>  <Rbt.Parameter_File>
/export/apps/rDock/src/rDock_2013.1_src/data/scripts/dock_solv.prm

>  <Rbt.Receptor>
prm/blind_docking_100.prm

>  <SCORE>
10.612

>  <SCORE.INTER>
-3.66064

>  <SCORE.INTER.CONST>
1

>  <SCORE.INTER.POLAR>
0

>  <SCORE.INTER.ROT>
6

>  <SCORE.INTER.SOLV>
20.1305

>  <SCORE.INTER.VDW>
-16.7506

>  <SCORE.INTER.norm>
-0.107666

>  <SCORE.INTRA>
3.2267

>  <SCORE.INTRA.DIHEDRAL>
-5.93526

>  <SCORE.INTRA.DIHEDRAL.0>
18.0069

>  <SCORE.INTRA.POLAR>
0

>  <SCORE.INTRA.POLAR.0>
0

>  <SCORE.INTRA.REPUL>
0

>  <SCORE.INTRA.REPUL.0>
0

>  <SCORE.INTRA.SOLV>
0.731011

>  <SCORE.INTRA.SOLV.lig_0>
-70.7393

>  <SCORE.INTRA.VDW>
5.82883

>  <SCORE.INTRA.VDW.0>
-3.23471

>  <SCORE.INTRA.norm>
0.0949031

>  <SCORE.RESTR>
11.046

>  <SCORE.RESTR.CAVITY>
11.046

>  <SCORE.RESTR.norm>
0.324881

>  <SCORE.SYSTEM>
0

>  <SCORE.SYSTEM.CONST>
0

>  <SCORE.SYSTEM.DIHEDRAL>
0

>  <SCORE.SYSTEM.SOLV>
0

>  <SCORE.SYSTEM.norm>
0

>  <SCORE.heavy>
34

>  <SCORE.norm>
0.312119

>  <RMSD>
8.783

$$$$
lig.pdb
 OpenBabel11021811503D
libRbt.so/2013.1/901 2013/11/27
 34 36  0  0  0  0  0  0  0  0999 V2000
    0.1271    9.8308   35.4335 C   0  0  2  0  0  0  0  0  0  0  0  0
    1.4908   10.2666   35.4568 O   0  0  0  0  0  0  0  0  0  0  0  0
    0.0526    8.4495   34.6540 C   0  0  2  0  0  0  0  0  0  0  0  0
    0.8695    7.4020   35.3101 N   0  0  0  0  0  0  0  0  0  0  0  0
    0.5312    8.6552   33.1946 C   0  0  1  0  0  0  0  0  0  0  0  0
    0.4646    7.4224   32.4741 O   0  0  0  0  0  0  0  0  0  0  0  0
   -0.3473    9.7353   32.5387 C   0  0  2  0  0  0  0  0  0  0  0  0
    0.0810    9.9325   31.1903 O   0  0  0  0  0  0  0  0  0  0  0  0
   -0.2459   11.0756   33.3631 C   0  0  2  0  0  0  0  0  0  0  0  0
   -0.6708   10.8627   34.7631 O   0  0  0  0  0  0  0  0  0  0  0  0
   -1.1284   12.1906   32.7490 C   0  0  2  0  0  0  0  0  0  0  0  0
   -0.9528   13.4053   33.4807 O   0  0  0  0  0  0  0  0  0  0  0  0
   -2.6003   11.8098   32.7864 C   0  0  0  0  0  0  0  0  0  0  0  0
    1.0669   12.6821   38.9643 C   0  0  2  0  0  0  0  0  0  0  0  0
    1.3905   13.5512   40.0983 N   0  0  0  0  0  0  0  0  0  0  0  0
    2.0171   11.4551   39.0385 C   0  0  0  0  0  0  0  0  0  0  0  0
    1.6726   10.5086   37.8568 C   0  0  2  0  0  0  0  0  0  0  0  0
    2.5473    9.3259   37.8907 N   0  0  0  0  0  0  0  0  0  0  0  0
    1.8481   11.2333   36.4953 C   0  0  2  0  0  0  0  0  0  0  0  0
    0.9185   12.4873   36.4623 C   0  0  2  0  0  0  0  0  0  0  0  0
    1.0899   13.1624   35.2088 O   0  0  0  0  0  0  0  0  0  0  0  0
    1.2788   13.4696   37.6032 C   0  0  1  0  0  0  0  0  0  0  0  0
    0.3683   14.5930   37.5093 O   0  0  0  0  0  0  0  0  0  0  0  0
    0.6601   15.7213   38.3670 C   0  0  2  0  0  0  0  0  0  0  0  0
   -0.5264   16.7371   38.1728 C   0  0  2  0  0  0  0  0  0  0  0  0
   -1.7493   16.1291   38.5577 O   0  0  0  0  0  0  0  0  0  0  0  0
   -0.5716   17.1895   36.6642 C   0  0  1  0  0  0  0  0  0  0  0  0
   -1.6929   18.1499   36.4306 N   0  0  0  0  0  0  0  0  0  0  0  0
   -2.7007   17.5065   35.5605 C   0  0  0  0  0  0  0  0  0  0  0  0
    0.7926   17.8539   36.3061 C   0  0  2  0  0  0  0  0  0  0  0  0
    0.9799   18.9938   37.1433 O   0  0  0  0  0  0  0  0  0  0  0  0
    0.8342   18.3149   34.8513 C   0  0  0  0  0  0  0  0  0  0  0  0
    1.9440   16.8295   36.5628 C   0  0  0  0  0  0  0  0  0  0  0  0
    1.9297   16.3585   37.9637 O   0  0  0  0  0  0  0  0  0  0  0  0
  1  3  1  0  0  0  0
  1  2  1  6  0  0  0
  3  5  1  0  0  0  0
  3  4  1  1  0  0  0
  5  6  1  6  0  0  0
  7  8  1  6  0  0  0
  7  5  1  0  0  0  0
  9 10  1  1  0  0  0
  9  7  1  0  0  0  0
 10  1  1  0  0  0  0
 11 13  1  1  0  0  0
 11  9  1  0  0  0  0
 12 11  1  0  0  0  0
 14 15  1  1  0  0  0
 16 14  1  0  0  0  0
 17 18  1  6  0  0  0
 17 16  1  0  0  0  0
 19  2  1  6  0  0  0
 19 20  1  0  0  0  0
 19 17  1  0  0  0  0
 20 21  1  6  0  0  0
 20 22  1  0  0  0  0
 22 23  1  1  0  0  0
 22 14  1  0  0  0  0
 24 23  1  6  0  0  0
 24 25  1  0  0  0  0
 25 27  1  0  0  0  0
 25 26  1  6  0  0  0
 27 28  1  1  0  0  0
 28 29  1  0  0  0  0
 30 31  1  1  0  0  0
 30 32  1  0  0  0  0
 30 27  1  0  0  0  0
 33 30  1  0  0  0  0
 34 33  1  0  0  0  0
 34 24  1  0  0  0  0
M  END
>  <CHROM.1>
-159.12835749,-176.88438512,64.96582206,72.58735057,-175.15794693,-112.81596138
0.32995325,13.06503832,35.88195831,-1.51123775,-1.08243609,0.44087327

>  <Name>
lig.pdb

>  <RI>
0

>  <Rbt.Current_Directory>
/home/itssahil/PROJECTS/Mol_Feturizer/New_Systems/rnas/4k32

>  <Rbt.Executable>
rbdock ($Id: //depot/dev/client3/rdock/2013.1/src/exe/rbdock.cxx#4 $)

>  <Rbt.Library>
libRbt.so (2013.1, Build901 2013/11/27)

>  <Rbt.Parameter_File>
/export/apps/rDock/src/rDock_2013.1_src/data/scripts/dock_solv.prm

>  <Rbt.Receptor>
prm/pocket_docking_8.prm

>  <SCORE>
-9.30792

>  <SCORE.INTER>
-3.37209

>  <SCORE.INTER.CONST>
1

>  <SCORE.INTER.POLAR>
0

>  <SCORE.INTER.ROT>
6

>  <SCORE.INTER.SOLV>
14.3233

>  <SCORE.INTER.VDW>
-14.6225

>  <SCORE.INTER.norm>
-0.0991792

>  <SCORE.INTRA>
-5.93688

>  <SCORE.INTRA.DIHEDRAL>
-13.8151

>  <SCORE.INTRA.DIHEDRAL.0>
18.0069

>  <SCORE.INTRA.POLAR>
0

>  <SCORE.INTRA.POLAR.0>
0

>  <SCORE.INTRA.REPUL>
0

>  <SCORE.INTRA.REPUL.0>
0

>  <SCORE.INTRA.SOLV>
0.431594

>  <SCORE.INTRA.SOLV.lig_0>
-70.7393

>  <SCORE.INTRA.VDW>
0.754879

>  <SCORE.INTRA.VDW.0>
-3.23471

>  <SCORE.INTRA.norm>
-0.174614

>  <SCORE.RESTR>
0.00105525

>  <SCORE.RESTR.CAVITY>
0.00105525

>  <SCORE.RESTR.norm>
3.10368e-05

>  <SCORE.SYSTEM>
0

>  <SCORE.SYSTEM.CONST>
0

>  <SCORE.SYSTEM.DIHEDRAL>
0

>  <SCORE.SYSTEM.SOLV>
0

>  <SCORE.SYSTEM.norm>
0

>  <SCORE.heavy>
34

>  <SCORE.norm>
-0.273762

>  <RMSD>
8.784

$$$$
lig.pdb
 OpenBabel11021811503D
libRbt.so/2013.1/901 2013/11/27
 34 36  0  0  0  0  0  0  0  0999 V2000
   -5.9641   17.6095   38.1248 C   0  0  2  0  0  0  0  0  0  0  0  0
   -5.0077   17.6868   39.1876 O   0  0  0  0  0  0  0  0  0  0  0  0
   -7.2730   18.3921   38.5669 C   0  0  2  0  0  0  0  0  0  0  0  0
   -6.9935   19.8203   38.8444 N   0  0  0  0  0  0  0  0  0  0  0  0
   -7.8760   17.7180   39.8250 C   0  0  1  0  0  0  0  0  0  0  0  0
   -9.0607   18.4053   40.2343 O   0  0  0  0  0  0  0  0  0  0  0  0
   -8.1693   16.2430   39.4975 C   0  0  2  0  0  0  0  0  0  0  0  0
   -8.7296   15.6099   40.6488 O   0  0  0  0  0  0  0  0  0  0  0  0
   -6.8393   15.5233   39.0508 C   0  0  2  0  0  0  0  0  0  0  0  0
   -6.2517   16.1939   37.8714 O   0  0  0  0  0  0  0  0  0  0  0  0
   -7.0879   14.0367   38.6940 C   0  0  2  0  0  0  0  0  0  0  0  0
   -7.5312   13.3282   39.8530 O   0  0  0  0  0  0  0  0  0  0  0  0
   -5.8196   13.3761   38.1766 C   0  0  0  0  0  0  0  0  0  0  0  0
   -0.7619   17.1543   39.1065 C   0  0  2  0  0  0  0  0  0  0  0  0
    0.5559   16.5216   39.0097 N   0  0  0  0  0  0  0  0  0  0  0  0
   -1.5713   16.3712   40.1768 C   0  0  0  0  0  0  0  0  0  0  0  0
   -2.9648   17.0427   40.3116 C   0  0  2  0  0  0  0  0  0  0  0  0
   -3.7665   16.3350   41.3222 N   0  0  0  0  0  0  0  0  0  0  0  0
   -3.7226   17.0262   38.9569 C   0  0  2  0  0  0  0  0  0  0  0  0
   -2.8698   17.7783   37.8870 C   0  0  2  0  0  0  0  0  0  0  0  0
   -3.5655   17.7525   36.6333 O   0  0  0  0  0  0  0  0  0  0  0  0
   -1.4938   17.0942   37.6999 C   0  0  1  0  0  0  0  0  0  0  0  0
   -0.7648   17.8552   36.7054 O   0  0  0  0  0  0  0  0  0  0  0  0
   -0.6994   17.2739   35.3820 C   0  0  2  0  0  0  0  0  0  0  0  0
    0.5401   17.9364   34.6736 C   0  0  2  0  0  0  0  0  0  0  0  0
    1.7236   17.6432   35.3994 O   0  0  0  0  0  0  0  0  0  0  0  0
    0.3061   19.4918   34.5807 C   0  0  1  0  0  0  0  0  0  0  0  0
    1.4664   20.1656   33.9219 N   0  0  0  0  0  0  0  0  0  0  0  0
    2.2996   20.8082   34.9608 C   0  0  0  0  0  0  0  0  0  0  0  0
   -1.0000   19.7477   33.7687 C   0  0  2  0  0  0  0  0  0  0  0  0
   -0.8368   19.2081   32.4581 O   0  0  0  0  0  0  0  0  0  0  0  0
   -1.3044   21.2381   33.6395 C   0  0  0  0  0  0  0  0  0  0  0  0
   -2.1929   19.0302   34.4781 C   0  0  0  0  0  0  0  0  0  0  0  0
   -1.9281   17.5833   34.6235 O   0  0  0  0  0  0  0  0  0  0  0  0
  1  3  1  0  0  0  0
  1  2  1  1  0  0  0
  3  5  1  0  0  0  0
  3  4  1  1  0  0  0
  5  6  1  6  0  0  0
  7  8  1  1  0  0  0
  7  5  1  0  0  0  0
  9 10  1  6  0  0  0
  9  7  1  0  0  0  0
 10  1  1  0  0  0  0
 11 13  1  1  0  0  0
 11  9  1  0  0  0  0
 12 11  1  0  0  0  0
 14 15  1  6  0  0  0
 16 14  1  0  0  0  0
 17 18  1  1  0  0  0
 17 16  1  0  0  0  0
 19  2  1  1  0  0  0
 19 20  1  0  0  0  0
 19 17  1  0  0  0  0
 20 21  1  6  0  0  0
 20 22  1  0  0  0  0
 22 23  1  6  0  0  0
 22 14  1  0  0  0  0
 24 23  1  1  0  0  0
 24 25  1  0  0  0  0
 25 27  1  0  0  0  0
 25 26  1  1  0  0  0
 27 28  1  6  0  0  0
 28 29  1  0  0  0  0
 30 31  1  6  0  0  0
 30 32  1  0  0  0  0
 30 27  1  0  0  0  0
 33 30  1  0  0  0  0
 34 33  1  0  0  0  0
 34 24  1  0  0  0  0
M  END
>  <CHROM.1>
-179.54477628,-63.54064350,-170.80486556,140.59645188,-158.71439999,-102.32854362
-3.40336690,17.49114256,37.46134809,2.50077448,-0.13780726,2.29602757

>  <Name>
lig.pdb

>  <RI>
0

>  <Rbt.Current_Directory>
/home/itssahil/PROJECTS/Mol_Feturizer/New_Systems/rnas/4k32

>  <Rbt.Executable>
rbdock ($Id: //depot/dev/client3/rdock/2013.1/src/exe/rbdock.cxx#4 $)

>  <Rbt.Library>
libRbt.so (2013.1, Build901 2013/11/27)

>  <Rbt.Parameter_File>
/export/apps/rDock/src/rDock_2013.1_src/data/scripts/dock_solv.prm

>  <Rbt.Receptor>
prm/pocket_docking_5.prm

>  <SCORE>
-14.894

>  <SCORE.INTER>
-9.47642

>  <SCORE.INTER.CONST>
1

>  <SCORE.INTER.POLAR>
0

>  <SCORE.INTER.ROT>
6

>  <SCORE.INTER.SOLV>
19.9867

>  <SCORE.INTER.VDW>
-20.5798

>  <SCORE.INTER.norm>
-0.278718

>  <SCORE.INTRA>
-5.41755

>  <SCORE.INTRA.DIHEDRAL>
-9.28454

>  <SCORE.INTRA.DIHEDRAL.0>
18.0069

>  <SCORE.INTRA.POLAR>
0

>  <SCORE.INTRA.POLAR.0>
0

>  <SCORE.INTRA.REPUL>
0

>  <SCORE.INTRA.REPUL.0>
0

>  <SCORE.INTRA.SOLV>
-2.32802

>  <SCORE.INTRA.SOLV.lig_0>
-70.7393

>  <SCORE.INTRA.VDW>
0.388729

>  <SCORE.INTRA.VDW.0>
-3.23471

>  <SCORE.INTRA.norm>
-0.15934

>  <SCORE.RESTR>
0

>  <SCORE.RESTR.CAVITY>
0

>  <SCORE.RESTR.norm>
0

>  <SCORE.SYSTEM>
0

>  <SCORE.SYSTEM.CONST>
0

>  <SCORE.SYSTEM.DIHEDRAL>
0

>  <SCORE.SYSTEM.SOLV>
0

>  <SCORE.SYSTEM.norm>
0

>  <SCORE.heavy>
34

>  <SCORE.norm>
-0.438058

>  <RMSD>
8.802

$$$$
lig.pdb
 OpenBabel11021811503D
libRbt.so/2013.1/901 2013/11/27
 34 36  0  0  0  0  0  0  0  0999 V2000
   -3.8480   13.3475   37.1846 C   0  0  2  0  0  0  0  0  0  0  0  0
   -4.7239   14.4734   37.0605 O   0  0  0  0  0  0  0  0  0  0  0  0
   -4.2293   12.2867   36.0663 C   0  0  2  0  0  0  0  0  0  0  0  0
   -4.0837   12.8474   34.7027 N   0  0  0  0  0  0  0  0  0  0  0  0
   -5.6860   11.8068   36.2869 C   0  0  1  0  0  0  0  0  0  0  0  0
   -6.0455   10.8448   35.2926 O   0  0  0  0  0  0  0  0  0  0  0  0
   -5.7980   11.2162   37.7037 C   0  0  2  0  0  0  0  0  0  0  0  0
   -7.1364   10.7660   37.9193 O   0  0  0  0  0  0  0  0  0  0  0  0
   -5.3930   12.3072   38.7677 C   0  0  2  0  0  0  0  0  0  0  0  0
   -4.0145   12.7853   38.5288 O   0  0  0  0  0  0  0  0  0  0  0  0
   -5.4744   11.7529   40.2117 C   0  0  2  0  0  0  0  0  0  0  0  0
   -6.8006   11.2935   40.4800 O   0  0  0  0  0  0  0  0  0  0  0  0
   -5.1152   12.8219   41.2320 C   0  0  0  0  0  0  0  0  0  0  0  0
   -3.6875   18.6258   37.0462 C   0  0  2  0  0  0  0  0  0  0  0  0
   -3.3028   19.9618   37.5079 N   0  0  0  0  0  0  0  0  0  0  0  0
   -4.9247   18.1894   37.8786 C   0  0  0  0  0  0  0  0  0  0  0  0
   -5.3632   16.7835   37.3864 C   0  0  2  0  0  0  0  0  0  0  0  0
   -6.5394   16.3311   38.1458 N   0  0  0  0  0  0  0  0  0  0  0  0
   -4.2166   15.7516   37.5602 C   0  0  2  0  0  0  0  0  0  0  0  0
   -2.9704   16.2343   36.7529 C   0  0  2  0  0  0  0  0  0  0  0  0
   -1.9081   15.2861   36.9234 O   0  0  0  0  0  0  0  0  0  0  0  0
   -2.4852   17.6132   37.2622 C   0  0  1  0  0  0  0  0  0  0  0  0
   -1.3403   17.9919   36.4585 O   0  0  0  0  0  0  0  0  0  0  0  0
   -1.4012   17.6359   35.0574 C   0  0  2  0  0  0  0  0  0  0  0  0
   -0.0058   18.0292   34.4447 C   0  0  2  0  0  0  0  0  0  0  0  0
    1.0269   17.3034   35.0929 O   0  0  0  0  0  0  0  0  0  0  0  0
    0.2067   19.5817   34.6096 C   0  0  1  0  0  0  0  0  0  0  0  0
    1.5278   19.9998   34.0490 N   0  0  0  0  0  0  0  0  0  0  0  0
    2.3407   20.5941   35.1320 C   0  0  0  0  0  0  0  0  0  0  0  0
   -0.9515   20.3203   33.8724 C   0  0  2  0  0  0  0  0  0  0  0  0
   -0.9073   19.9743   32.4890 O   0  0  0  0  0  0  0  0  0  0  0  0
   -0.8237   21.8369   33.9920 C   0  0  0  0  0  0  0  0  0  0  0  0
   -2.3176   19.8617   34.4763 C   0  0  0  0  0  0  0  0  0  0  0  0
   -2.4719   18.3949   34.3804 O   0  0  0  0  0  0  0  0  0  0  0  0
  1  3  1  0  0  0  0
  1  2  1  1  0  0  0
  3  5  1  0  0  0  0
  3  4  1  6  0  0  0
  5  6  1  6  0  0  0
  7  8  1  1  0  0  0
  7  5  1  0  0  0  0
  9 10  1  6  0  0  0
  9  7  1  0  0  0  0
 10  1  1  0  0  0  0
 11 13  1  1  0  0  0
 11  9  1  0  0  0  0
 12 11  1  0  0  0  0
 14 15  1  1  0  0  0
 16 14  1  0  0  0  0
 17 18  1  1  0  0  0
 17 16  1  0  0  0  0
 19  2  1  6  0  0  0
 19 20  1  0  0  0  0
 19 17  1  0  0  0  0
 20 21  1  1  0  0  0
 20 22  1  0  0  0  0
 22 23  1  6  0  0  0
 22 14  1  0  0  0  0
 24 23  1  1  0  0  0
 24 25  1  0  0  0  0
 25 27  1  0  0  0  0
 25 26  1  1  0  0  0
 27 28  1  6  0  0  0
 28 29  1  0  0  0  0
 30 31  1  6  0  0  0
 30 32  1  0  0  0  0
 30 27  1  0  0  0  0
 33 30  1  0  0  0  0
 34 33  1  0  0  0  0
 34 24  1  0  0  0  0
M  END
>  <CHROM.1>
-154.44919961,-58.36872797,-176.99349764,-78.78099919,-174.88205505,-119.21371553
-3.19662512,16.00013595,36.52784088,-2.52386719,0.86012638,0.36886333

>  <Name>
lig.pdb

>  <RI>
0

>  <Rbt.Current_Directory>
/home/itssahil/PROJECTS/Mol_Feturizer/New_Systems/rnas/4k32

>  <Rbt.Executable>
rbdock ($Id: //depot/dev/client3/rdock/2013.1/src/exe/rbdock.cxx#4 $)

>  <Rbt.Library>
libRbt.so (2013.1, Build901 2013/11/27)

>  <Rbt.Parameter_File>
/export/apps/rDock/src/rDock_2013.1_src/data/scripts/dock_solv.prm

>  <Rbt.Receptor>
prm/pocket_docking_6.prm

>  <SCORE>
-12.5494

>  <SCORE.INTER>
-8.51787

>  <SCORE.INTER.CONST>
1

>  <SCORE.INTER.POLAR>
0

>  <SCORE.INTER.ROT>
6

>  <SCORE.INTER.SOLV>
22.3837

>  <SCORE.INTER.VDW>
-20.7398

>  <SCORE.INTER.norm>
-0.250526

>  <SCORE.INTRA>
-4.0315

>  <SCORE.INTRA.DIHEDRAL>
-12.2013

>  <SCORE.INTRA.DIHEDRAL.0>
18.0069

>  <SCORE.INTRA.POLAR>
0

>  <SCORE.INTRA.POLAR.0>
0

>  <SCORE.INTRA.REPUL>
0

>  <SCORE.INTRA.REPUL.0>
0

>  <SCORE.INTRA.SOLV>
-0.710285

>  <SCORE.INTRA.SOLV.lig_0>
-70.7393

>  <SCORE.INTRA.VDW>
2.42429

>  <SCORE.INTRA.VDW.0>
-3.23471

>  <SCORE.INTRA.norm>
-0.118574

>  <SCORE.RESTR>
0

>  <SCORE.RESTR.CAVITY>
0

>  <SCORE.RESTR.norm>
0

>  <SCORE.SYSTEM>
0

>  <SCORE.SYSTEM.CONST>
0

>  <SCORE.SYSTEM.DIHEDRAL>
0

>  <SCORE.SYSTEM.SOLV>
0

>  <SCORE.SYSTEM.norm>
0

>  <SCORE.heavy>
34

>  <SCORE.norm>
-0.369099

>  <RMSD>
8.805

$$$$
lig.pdb
 OpenBabel11021811503D
libRbt.so/2013.1/901 2013/11/27
 34 36  0  0  0  0  0  0  0  0999 V2000
   -5.8823   17.3593   38.3165 C   0  0  2  0  0  0  0  0  0  0  0  0
   -4.9287   17.4650   39.3794 O   0  0  0  0  0  0  0  0  0  0  0  0
   -7.2458   18.0173   38.7954 C   0  0  2  0  0  0  0  0  0  0  0  0
   -7.0769   19.4496   39.1344 N   0  0  0  0  0  0  0  0  0  0  0  0
   -7.7871   17.2442   40.0242 C   0  0  1  0  0  0  0  0  0  0  0  0
   -9.0194   17.8184   40.4660 O   0  0  0  0  0  0  0  0  0  0  0  0
   -7.9663   15.7664   39.6333 C   0  0  2  0  0  0  0  0  0  0  0  0
   -8.4690   15.0421   40.7572 O   0  0  0  0  0  0  0  0  0  0  0  0
   -6.5868   15.1729   39.1525 C   0  0  2  0  0  0  0  0  0  0  0  0
   -6.0601   15.9379   38.0022 O   0  0  0  0  0  0  0  0  0  0  0  0
   -6.7208   13.6883   38.7317 C   0  0  2  0  0  0  0  0  0  0  0  0
   -7.8404   13.5319   37.8578 O   0  0  0  0  0  0  0  0  0  0  0  0
   -6.9206   12.7898   39.9422 C   0  0  0  0  0  0  0  0  0  0  0  0
   -0.6678   17.0831   39.2552 C   0  0  2  0  0  0  0  0  0  0  0  0
    0.6707   16.4959   39.1563 N   0  0  0  0  0  0  0  0  0  0  0  0
   -1.4352   16.2979   40.3546 C   0  0  0  0  0  0  0  0  0  0  0  0
   -2.8503   16.9221   40.4916 C   0  0  2  0  0  0  0  0  0  0  0  0
   -3.6134   16.2110   41.5293 N   0  0  0  0  0  0  0  0  0  0  0  0
   -3.6236   16.8454   39.1478 C   0  0  2  0  0  0  0  0  0  0  0  0
   -2.8117   17.6012   38.0490 C   0  0  2  0  0  0  0  0  0  0  0  0
   -3.5214   17.5199   36.8055 O   0  0  0  0  0  0  0  0  0  0  0  0
   -1.4143   16.9625   37.8603 C   0  0  1  0  0  0  0  0  0  0  0  0
   -0.7256   17.7247   36.8383 O   0  0  0  0  0  0  0  0  0  0  0  0
   -0.6689   17.1208   35.5246 C   0  0  2  0  0  0  0  0  0  0  0  0
    0.5440   17.7972   34.7838 C   0  0  2  0  0  0  0  0  0  0  0  0
    1.7453   17.5432   35.4949 O   0  0  0  0  0  0  0  0  0  0  0  0
    0.2740   19.3452   34.6671 C   0  0  1  0  0  0  0  0  0  0  0  0
    1.4082   20.0320   33.9771 N   0  0  0  0  0  0  0  0  0  0  0  0
    2.2284   20.7342   34.9875 C   0  0  0  0  0  0  0  0  0  0  0  0
   -1.0504   19.5577   33.8726 C   0  0  2  0  0  0  0  0  0  0  0  0
   -0.8967   18.9979   32.5693 O   0  0  0  0  0  0  0  0  0  0  0  0
   -1.3899   21.0384   33.7218 C   0  0  0  0  0  0  0  0  0  0  0  0
   -2.2154   18.8273   34.6145 C   0  0  0  0  0  0  0  0  0  0  0  0
   -1.9164   17.3895   34.7813 O   0  0  0  0  0  0  0  0  0  0  0  0
  1  3  1  0  0  0  0
  1  2  1  1  0  0  0
  3  5  1  0  0  0  0
  3  4  1  1  0  0  0
  5  6  1  6  0  0  0
  7  8  1  1  0  0  0
  7  5  1  0  0  0  0
  9 10  1  6  0  0  0
  9  7  1  0  0  0  0
 10  1  1  0  0  0  0
 11 13  1  1  0  0  0
 11  9  1  0  0  0  0
 12 11  1  0  0  0  0
 14 15  1  6  0  0  0
 16 14  1  0  0  0  0
 17 18  1  1  0  0  0
 17 16  1  0  0  0  0
 19  2  1  1  0  0  0
 19 20  1  0  0  0  0
 19 17  1  0  0  0  0
 20 21  1  6  0  0  0
 20 22  1  0  0  0  0
 22 23  1  6  0  0  0
 22 14  1  0  0  0  0
 24 23  1  1  0  0  0
 24 25  1  0  0  0  0
 25 27  1  0  0  0  0
 25 26  1  1  0  0  0
 27 28  1  6  0  0  0
 28 29  1  0  0  0  0
 30 31  1  6  0  0  0
 30 32  1  0  0  0  0
 30 27  1  0  0  0  0
 33 30  1  0  0  0  0
 34 33  1  0  0  0  0
 34 24  1  0  0  0  0
M  END
>  <CHROM.1>
176.84453885,48.25834550,-172.47084901,141.28342362,-158.35973940,-103.45774768
-3.38665562,17.26532706,37.58555745,2.47839664,-0.00672082,2.16391714

>  <Name>
lig.pdb

>  <RI>
0

>  <Rbt.Current_Directory>
/home/itssahil/PROJECTS/Mol_Feturizer/New_Systems/rnas/4k32

>  <Rbt.Executable>
rbdock ($Id: //depot/dev/client3/rdock/2013.1/src/exe/rbdock.cxx#4 $)

>  <Rbt.Library>
libRbt.so (2013.1, Build901 2013/11/27)

>  <Rbt.Parameter_File>
/export/apps/rDock/src/rDock_2013.1_src/data/scripts/dock_solv.prm

>  <Rbt.Receptor>
prm/pocket_docking_5.prm

>  <SCORE>
-14.3408

>  <SCORE.INTER>
-9.86312

>  <SCORE.INTER.CONST>
1

>  <SCORE.INTER.POLAR>
0

>  <SCORE.INTER.ROT>
6

>  <SCORE.INTER.SOLV>
18.6631

>  <SCORE.INTER.VDW>
-20.3964

>  <SCORE.INTER.norm>
-0.290092

>  <SCORE.INTRA>
-4.47764

>  <SCORE.INTRA.DIHEDRAL>
-8.95952

>  <SCORE.INTRA.DIHEDRAL.0>
18.0069

>  <SCORE.INTRA.POLAR>
0

>  <SCORE.INTRA.POLAR.0>
0

>  <SCORE.INTRA.REPUL>
0

>  <SCORE.INTRA.REPUL.0>
0

>  <SCORE.INTRA.SOLV>
-2.18934

>  <SCORE.INTRA.SOLV.lig_0>
-70.7393

>  <SCORE.INTRA.VDW>
1.09679

>  <SCORE.INTRA.VDW.0>
-3.23471

>  <SCORE.INTRA.norm>
-0.131695

>  <SCORE.RESTR>
0

>  <SCORE.RESTR.CAVITY>
0

>  <SCORE.RESTR.norm>
0

>  <SCORE.SYSTEM>
0

>  <SCORE.SYSTEM.CONST>
0

>  <SCORE.SYSTEM.DIHEDRAL>
0

>  <SCORE.SYSTEM.SOLV>
0

>  <SCORE.SYSTEM.norm>
0

>  <SCORE.heavy>
34

>  <SCORE.norm>
-0.421787

>  <RMSD>
8.806

$$$$
lig.pdb
 OpenBabel11021811503D
libRbt.so/2013.1/901 2013/11/27
 34 36  0  0  0  0  0  0  0  0999 V2000
   -3.8881   13.3018   37.0794 C   0  0  2  0  0  0  0  0  0  0  0  0
   -4.7416   14.4466   36.9732 O   0  0  0  0  0  0  0  0  0  0  0  0
   -4.2985   12.2610   35.9526 C   0  0  2  0  0  0  0  0  0  0  0  0
   -4.1503   12.8332   34.5941 N   0  0  0  0  0  0  0  0  0  0  0  0
   -5.7632   11.8086   36.1781 C   0  0  1  0  0  0  0  0  0  0  0  0
   -6.1489   10.8648   35.1761 O   0  0  0  0  0  0  0  0  0  0  0  0
   -5.8779   11.2053   37.5893 C   0  0  2  0  0  0  0  0  0  0  0  0
   -7.2238   10.7802   37.8092 O   0  0  0  0  0  0  0  0  0  0  0  0
   -5.4436   12.2764   38.6619 C   0  0  2  0  0  0  0  0  0  0  0  0
   -4.0572   12.7287   38.4187 O   0  0  0  0  0  0  0  0  0  0  0  0
   -5.5268   11.7084   40.1006 C   0  0  2  0  0  0  0  0  0  0  0  0
   -6.8459   11.2207   40.3530 O   0  0  0  0  0  0  0  0  0  0  0  0
   -5.1980   12.7757   41.1327 C   0  0  0  0  0  0  0  0  0  0  0  0
   -3.6858   18.5925   37.0870 C   0  0  2  0  0  0  0  0  0  0  0  0
   -3.2828   19.9088   37.5881 N   0  0  0  0  0  0  0  0  0  0  0  0
   -4.9032   18.1301   37.9343 C   0  0  0  0  0  0  0  0  0  0  0  0
   -5.3611   16.7453   37.4016 C   0  0  2  0  0  0  0  0  0  0  0  0
   -6.5195   16.2693   38.1738 N   0  0  0  0  0  0  0  0  0  0  0  0
   -4.2154   15.7032   37.5069 C   0  0  2  0  0  0  0  0  0  0  0  0
   -2.9881   16.2109   36.6861 C   0  0  2  0  0  0  0  0  0  0  0  0
   -1.9263   15.2529   36.7935 O   0  0  0  0  0  0  0  0  0  0  0  0
   -2.4832   17.5679   37.2337 C   0  0  1  0  0  0  0  0  0  0  0  0
   -1.3576   17.9720   36.4153 O   0  0  0  0  0  0  0  0  0  0  0  0
   -1.4409   17.6380   35.0099 C   0  0  2  0  0  0  0  0  0  0  0  0
   -0.0609   18.0550   34.3783 C   0  0  2  0  0  0  0  0  0  0  0  0
    0.9906   17.3293   34.9956 O   0  0  0  0  0  0  0  0  0  0  0  0
    0.1395   19.6068   34.5645 C   0  0  1  0  0  0  0  0  0  0  0  0
    1.4459   20.0471   33.9868 N   0  0  0  0  0  0  0  0  0  0  0  0
    2.3008   20.5651   35.0765 C   0  0  0  0  0  0  0  0  0  0  0  0
   -1.0392   20.3455   33.8608 C   0  0  2  0  0  0  0  0  0  0  0  0
   -1.0172   20.0223   32.4713 O   0  0  0  0  0  0  0  0  0  0  0  0
   -0.9240   21.8611   34.0027 C   0  0  0  0  0  0  0  0  0  0  0  0
   -2.3894   19.8636   34.4820 C   0  0  0  0  0  0  0  0  0  0  0  0
   -2.5312   18.3970   34.3651 O   0  0  0  0  0  0  0  0  0  0  0  0
  1  3  1  0  0  0  0
  1  2  1  1  0  0  0
  3  5  1  0  0  0  0
  3  4  1  6  0  0  0
  5  6  1  6  0  0  0
  7  8  1  1  0  0  0
  7  5  1  0  0  0  0
  9 10  1  6  0  0  0
  9  7  1  0  0  0  0
 10  1  1  0  0  0  0
 11 13  1  1  0  0  0
 11  9  1  0  0  0  0
 12 11  1  0  0  0  0
 14 15  1  1  0  0  0
 16 14  1  0  0  0  0
 17 18  1  1  0  0  0
 17 16  1  0  0  0  0
 19  2  1  6  0  0  0
 19 20  1  0  0  0  0
 19 17  1  0  0  0  0
 20 21  1  1  0  0  0
 20 22  1  0  0  0  0
 22 23  1  6  0  0  0
 22 14  1  0  0  0  0
 24 23  1  1  0  0  0
 24 25  1  0  0  0  0
 25 27  1  0  0  0  0
 25 26  1  1  0  0  0
 27 28  1  6  0  0  0
 28 29  1  0  0  0  0
 30 31  1  6  0  0  0
 30 32  1  0  0  0  0
 30 27  1  0  0  0  0
 33 30  1  0  0  0  0
 34 33  1  0  0  0  0
 34 24  1  0  0  0  0
M  END
>  <CHROM.1>
-155.62098628,-55.89023121,-174.65242292,-80.32880530,-174.82939728,-116.20546158
-3.24273190,15.98401667,36.47024035,-2.55870165,0.87941050,0.42425823

>  <Name>
lig.pdb

>  <RI>
0

>  <Rbt.Current_Directory>
/home/itssahil/PROJECTS/Mol_Feturizer/New_Systems/rnas/4k32

>  <Rbt.Executable>
rbdock ($Id: //depot/dev/client3/rdock/2013.1/src/exe/rbdock.cxx#4 $)

>  <Rbt.Library>
libRbt.so (2013.1, Build901 2013/11/27)

>  <Rbt.Parameter_File>
/export/apps/rDock/src/rDock_2013.1_src/data/scripts/dock_solv.prm

>  <Rbt.Receptor>
prm/pocket_docking_3.prm

>  <SCORE>
-12.5685

>  <SCORE.INTER>
-8.56691

>  <SCORE.INTER.CONST>
1

>  <SCORE.INTER.POLAR>
0

>  <SCORE.INTER.ROT>
6

>  <SCORE.INTER.SOLV>
22.4848

>  <SCORE.INTER.VDW>
-20.8062

>  <SCORE.INTER.norm>
-0.251968

>  <SCORE.INTRA>
-4.00163

>  <SCORE.INTRA.DIHEDRAL>
-12.0261

>  <SCORE.INTRA.DIHEDRAL.0>
18.0069

>  <SCORE.INTRA.POLAR>
0

>  <SCORE.INTRA.POLAR.0>
0

>  <SCORE.INTRA.REPUL>
0

>  <SCORE.INTRA.REPUL.0>
0

>  <SCORE.INTRA.SOLV>
-0.742117

>  <SCORE.INTRA.SOLV.lig_0>
-70.7393

>  <SCORE.INTRA.VDW>
2.38249

>  <SCORE.INTRA.VDW.0>
-3.23471

>  <SCORE.INTRA.norm>
-0.117695

>  <SCORE.RESTR>
0

>  <SCORE.RESTR.CAVITY>
0

>  <SCORE.RESTR.norm>
0

>  <SCORE.SYSTEM>
0

>  <SCORE.SYSTEM.CONST>
0

>  <SCORE.SYSTEM.DIHEDRAL>
0

>  <SCORE.SYSTEM.SOLV>
0

>  <SCORE.SYSTEM.norm>
0

>  <SCORE.heavy>
34

>  <SCORE.norm>
-0.369663

>  <RMSD>
8.811

$$$$
lig.pdb
 OpenBabel11021811503D
libRbt.so/2013.1/901 2013/11/27
 34 36  0  0  0  0  0  0  0  0999 V2000
   -3.4457   12.7777   37.7729 C   0  0  2  0  0  0  0  0  0  0  0  0
   -4.3869   13.7818   37.3780 O   0  0  0  0  0  0  0  0  0  0  0  0
   -3.5219   11.5791   36.7342 C   0  0  2  0  0  0  0  0  0  0  0  0
   -3.1897   12.0199   35.3594 N   0  0  0  0  0  0  0  0  0  0  0  0
   -4.9434   10.9630   36.7621 C   0  0  1  0  0  0  0  0  0  0  0  0
   -5.0294    9.8765   35.8372 O   0  0  0  0  0  0  0  0  0  0  0  0
   -5.2493   10.5015   38.1981 C   0  0  2  0  0  0  0  0  0  0  0  0
   -6.5567    9.9275   38.2373 O   0  0  0  0  0  0  0  0  0  0  0  0
   -5.1430   11.7274   39.1842 C   0  0  2  0  0  0  0  0  0  0  0  0
   -3.7948   12.3312   39.1256 O   0  0  0  0  0  0  0  0  0  0  0  0
   -5.4272   11.3078   40.6478 C   0  0  2  0  0  0  0  0  0  0  0  0
   -6.7151   10.6950   40.7346 O   0  0  0  0  0  0  0  0  0  0  0  0
   -5.3974   12.5092   41.5797 C   0  0  0  0  0  0  0  0  0  0  0  0
   -3.9476   18.0273   37.0617 C   0  0  2  0  0  0  0  0  0  0  0  0
   -3.7751   19.4357   37.4262 N   0  0  0  0  0  0  0  0  0  0  0  0
   -5.1446   17.4810   37.8881 C   0  0  0  0  0  0  0  0  0  0  0  0
   -5.3591   15.9936   37.4973 C   0  0  2  0  0  0  0  0  0  0  0  0
   -6.4905   15.4349   38.2541 N   0  0  0  0  0  0  0  0  0  0  0  0
   -4.0866   15.1537   37.7886 C   0  0  2  0  0  0  0  0  0  0  0  0
   -2.8883   15.7488   36.9838 C   0  0  2  0  0  0  0  0  0  0  0  0
   -1.7108   14.9791   37.2627 O   0  0  0  0  0  0  0  0  0  0  0  0
   -2.6244   17.2176   37.3953 C   0  0  1  0  0  0  0  0  0  0  0  0
   -1.5119   17.6958   36.5994 O   0  0  0  0  0  0  0  0  0  0  0  0
   -1.5365   17.3441   35.1960 C   0  0  2  0  0  0  0  0  0  0  0  0
   -0.1351   17.7637   34.6150 C   0  0  2  0  0  0  0  0  0  0  0  0
    0.8957   17.0532   35.2828 O   0  0  0  0  0  0  0  0  0  0  0  0
    0.0470   19.3190   34.7898 C   0  0  1  0  0  0  0  0  0  0  0  0
    1.3724   19.7619   34.2593 N   0  0  0  0  0  0  0  0  0  0  0  0
    2.2162   20.2058   35.3897 C   0  0  0  0  0  0  0  0  0  0  0  0
   -1.1076   20.0405   34.0304 C   0  0  2  0  0  0  0  0  0  0  0  0
   -1.0277   19.7006   32.6470 O   0  0  0  0  0  0  0  0  0  0  0  0
   -1.0086   21.5585   34.1580 C   0  0  0  0  0  0  0  0  0  0  0  0
   -2.4783   19.5562   34.6030 C   0  0  0  0  0  0  0  0  0  0  0  0
   -2.6052   18.0873   34.4987 O   0  0  0  0  0  0  0  0  0  0  0  0
  1  3  1  0  0  0  0
  1  2  1  6  0  0  0
  3  5  1  0  0  0  0
  3  4  1  6  0  0  0
  5  6  1  6  0  0  0
  7  8  1  6  0  0  0
  7  5  1  0  0  0  0
  9 10  1  1  0  0  0
  9  7  1  0  0  0  0
 10  1  1  0  0  0  0
 11 13  1  1  0  0  0
 11  9  1  0  0  0  0
 12 11  1  0  0  0  0
 14 15  1  1  0  0  0
 16 14  1  0  0  0  0
 17 18  1  1  0  0  0
 17 16  1  0  0  0  0
 19  2  1  6  0  0  0
 19 20  1  0  0  0  0
 19 17  1  0  0  0  0
 20 21  1  1  0  0  0
 20 22  1  0  0  0  0
 22 23  1  6  0  0  0
 22 14  1  0  0  0  0
 24 23  1  1  0  0  0
 24 25  1  0  0  0  0
 25 27  1  0  0  0  0
 25 26  1  1  0  0  0
 27 28  1  6  0  0  0
 28 29  1  0  0  0  0
 30 31  1  6  0  0  0
 30 32  1  0  0  0  0
 30 27  1  0  0  0  0
 33 30  1  0  0  0  0
 34 33  1  0  0  0  0
 34 24  1  0  0  0  0
M  END
>  <CHROM.1>
-153.49163584,-56.65770188,-169.15352720,-72.62167721,-170.93022270,-112.05069757
-3.10232660,15.49298089,36.79957421,-2.27667755,0.75921498,0.06893435

>  <Name>
lig.pdb

>  <RI>
0

>  <Rbt.Current_Directory>
/home/itssahil/PROJECTS/Mol_Feturizer/New_Systems/rnas/4k32

>  <Rbt.Executable>
rbdock ($Id: //depot/dev/client3/rdock/2013.1/src/exe/rbdock.cxx#4 $)

>  <Rbt.Library>
libRbt.so (2013.1, Build901 2013/11/27)

>  <Rbt.Parameter_File>
/export/apps/rDock/src/rDock_2013.1_src/data/scripts/dock_solv.prm

>  <Rbt.Receptor>
prm/pocket_docking_3.prm

>  <SCORE>
-12.7613

>  <SCORE.INTER>
-8.20501

>  <SCORE.INTER.CONST>
1

>  <SCORE.INTER.POLAR>
0

>  <SCORE.INTER.ROT>
6

>  <SCORE.INTER.SOLV>
21.05

>  <SCORE.INTER.VDW>
-20.0867

>  <SCORE.INTER.norm>
-0.241324

>  <SCORE.INTRA>
-4.55631

>  <SCORE.INTRA.DIHEDRAL>
-12.0873

>  <SCORE.INTRA.DIHEDRAL.0>
18.0069

>  <SCORE.INTRA.POLAR>
0

>  <SCORE.INTRA.POLAR.0>
0

>  <SCORE.INTRA.REPUL>
0

>  <SCORE.INTRA.REPUL.0>
0

>  <SCORE.INTRA.SOLV>
-0.124114

>  <SCORE.INTRA.SOLV.lig_0>
-70.7393

>  <SCORE.INTRA.VDW>
1.54942

>  <SCORE.INTRA.VDW.0>
-3.23471

>  <SCORE.INTRA.norm>
-0.134009

>  <SCORE.RESTR>
0

>  <SCORE.RESTR.CAVITY>
0

>  <SCORE.RESTR.norm>
0

>  <SCORE.SYSTEM>
0

>  <SCORE.SYSTEM.CONST>
0

>  <SCORE.SYSTEM.DIHEDRAL>
0

>  <SCORE.SYSTEM.SOLV>
0

>  <SCORE.SYSTEM.norm>
0

>  <SCORE.heavy>
34

>  <SCORE.norm>
-0.375333

>  <RMSD>
8.816

$$$$
lig.pdb
 OpenBabel11021811503D
libRbt.so/2013.1/901 2013/11/27
 34 36  0  0  0  0  0  0  0  0999 V2000
   -4.3440   14.4898   40.3896 C   0  0  2  0  0  0  0  0  0  0  0  0
   -3.1368   13.7199   40.4013 O   0  0  0  0  0  0  0  0  0  0  0  0
   -5.1391   14.2009   41.7333 C   0  0  2  0  0  0  0  0  0  0  0  0
   -4.3526   14.5784   42.9307 N   0  0  0  0  0  0  0  0  0  0  0  0
   -5.5114   12.6982   41.7985 C   0  0  1  0  0  0  0  0  0  0  0  0
   -6.2349   12.4198   42.9996 O   0  0  0  0  0  0  0  0  0  0  0  0
   -6.3402   12.3442   40.5509 C   0  0  2  0  0  0  0  0  0  0  0  0
   -6.6937   10.9611   40.6002 O   0  0  0  0  0  0  0  0  0  0  0  0
   -5.5077   12.6663   39.2510 C   0  0  2  0  0  0  0  0  0  0  0  0
   -5.1265   14.0943   39.2139 O   0  0  0  0  0  0  0  0  0  0  0  0
   -6.3090   12.3411   37.9660 C   0  0  2  0  0  0  0  0  0  0  0  0
   -7.6461   12.8288   38.0926 O   0  0  0  0  0  0  0  0  0  0  0  0
   -6.3606   10.8421   37.7150 C   0  0  0  0  0  0  0  0  0  0  0  0
   -0.4711   16.9681   39.5891 C   0  0  2  0  0  0  0  0  0  0  0  0
    0.7475   17.7182   39.2753 N   0  0  0  0  0  0  0  0  0  0  0  0
   -0.1473   16.0486   40.7989 C   0  0  0  0  0  0  0  0  0  0  0  0
   -1.4356   15.2618   41.1627 C   0  0  2  0  0  0  0  0  0  0  0  0
   -1.1763   14.3791   42.3109 N   0  0  0  0  0  0  0  0  0  0  0  0
   -1.9218   14.4066   39.9619 C   0  0  2  0  0  0  0  0  0  0  0  0
   -2.1966   15.3461   38.7456 C   0  0  2  0  0  0  0  0  0  0  0  0
   -2.6347   14.5537   37.6335 O   0  0  0  0  0  0  0  0  0  0  0  0
   -0.9108   16.1032   38.3336 C   0  0  1  0  0  0  0  0  0  0  0  0
   -1.2521   16.9561   37.2129 O   0  0  0  0  0  0  0  0  0  0  0  0
   -1.2528   16.3251   35.9108 C   0  0  2  0  0  0  0  0  0  0  0  0
    0.0316   16.8515   35.1687 C   0  0  2  0  0  0  0  0  0  0  0  0
    1.1933   16.4816   35.8947 O   0  0  0  0  0  0  0  0  0  0  0  0
   -0.0672   18.4172   35.0219 C   0  0  1  0  0  0  0  0  0  0  0  0
    1.1397   18.9634   34.3296 N   0  0  0  0  0  0  0  0  0  0  0  0
    1.9088   19.7872   35.2871 C   0  0  0  0  0  0  0  0  0  0  0  0
   -1.3552   18.7577   34.2121 C   0  0  2  0  0  0  0  0  0  0  0  0
   -1.2547   18.1602   32.9205 O   0  0  0  0  0  0  0  0  0  0  0  0
   -1.5303   20.2634   34.0320 C   0  0  0  0  0  0  0  0  0  0  0  0
   -2.5978   18.1725   34.9568 C   0  0  0  0  0  0  0  0  0  0  0  0
   -2.4584   16.7140   35.1520 O   0  0  0  0  0  0  0  0  0  0  0  0
  1  3  1  0  0  0  0
  1  2  1  1  0  0  0
  3  5  1  0  0  0  0
  3  4  1  1  0  0  0
  5  6  1  1  0  0  0
  7  8  1  1  0  0  0
  7  5  1  0  0  0  0
  9 10  1  6  0  0  0
  9  7  1  0  0  0  0
 10  1  1  0  0  0  0
 11 13  1  1  0  0  0
 11  9  1  0  0  0  0
 12 11  1  0  0  0  0
 14 15  1  6  0  0  0
 16 14  1  0  0  0  0
 17 18  1  1  0  0  0
 17 16  1  0  0  0  0
 19  2  1  1  0  0  0
 19 20  1  0  0  0  0
 19 17  1  0  0  0  0
 20 21  1  6  0  0  0
 20 22  1  0  0  0  0
 22 23  1  6  0  0  0
 22 14  1  0  0  0  0
 24 23  1  1  0  0  0
 24 25  1  0  0  0  0
 25 27  1  0  0  0  0
 25 26  1  1  0  0  0
 27 28  1  6  0  0  0
 28 29  1  0  0  0  0
 30 31  1  6  0  0  0
 30 32  1  0  0  0  0
 30 27  1  0  0  0  0
 33 30  1  0  0  0  0
 34 33  1  0  0  0  0
 34 24  1  0  0  0  0
M  END
>  <CHROM.1>
-136.31490656,44.68132769,79.70274591,160.93912987,-106.63423506,-113.00058821
-2.68544528,15.41697262,38.25033663,-2.31775458,-0.58723704,-1.25419285

>  <Name>
lig.pdb

>  <RI>
0

>  <Rbt.Current_Directory>
/home/itssahil/PROJECTS/Mol_Feturizer/New_Systems/rnas/4k32

>  <Rbt.Executable>
rbdock ($Id: //depot/dev/client3/rdock/2013.1/src/exe/rbdock.cxx#4 $)

>  <Rbt.Library>
libRbt.so (2013.1, Build901 2013/11/27)

>  <Rbt.Parameter_File>
/export/apps/rDock/src/rDock_2013.1_src/data/scripts/dock_solv.prm

>  <Rbt.Receptor>
prm/pocket_docking_7.prm

>  <SCORE>
-7.64617

>  <SCORE.INTER>
-8.71494

>  <SCORE.INTER.CONST>
1

>  <SCORE.INTER.POLAR>
0

>  <SCORE.INTER.ROT>
6

>  <SCORE.INTER.SOLV>
17.2273

>  <SCORE.INTER.VDW>
-19.1524

>  <SCORE.INTER.norm>
-0.256322

>  <SCORE.INTRA>
1.06877

>  <SCORE.INTRA.DIHEDRAL>
-0.293374

>  <SCORE.INTRA.DIHEDRAL.0>
18.0069

>  <SCORE.INTRA.POLAR>
0

>  <SCORE.INTRA.POLAR.0>
0

>  <SCORE.INTRA.REPUL>
0

>  <SCORE.INTRA.REPUL.0>
0

>  <SCORE.INTRA.SOLV>
0.781161

>  <SCORE.INTRA.SOLV.lig_0>
-70.7393

>  <SCORE.INTRA.VDW>
0.824873

>  <SCORE.INTRA.VDW.0>
-3.23471

>  <SCORE.INTRA.norm>
0.0314343

>  <SCORE.RESTR>
0

>  <SCORE.RESTR.CAVITY>
0

>  <SCORE.RESTR.norm>
0

>  <SCORE.SYSTEM>
0

>  <SCORE.SYSTEM.CONST>
0

>  <SCORE.SYSTEM.DIHEDRAL>
0

>  <SCORE.SYSTEM.SOLV>
0

>  <SCORE.SYSTEM.norm>
0

>  <SCORE.heavy>
34

>  <SCORE.norm>
-0.224887

>  <RMSD>
8.820

$$$$
lig.pdb
 OpenBabel11021811503D
libRbt.so/2013.1/901 2013/11/27
 34 36  0  0  0  0  0  0  0  0999 V2000
   -3.4883   12.8450   37.9399 C   0  0  2  0  0  0  0  0  0  0  0  0
   -4.4282   13.8463   37.5344 O   0  0  0  0  0  0  0  0  0  0  0  0
   -3.5428   11.6502   36.8955 C   0  0  2  0  0  0  0  0  0  0  0  0
   -3.1916   12.0979   35.5276 N   0  0  0  0  0  0  0  0  0  0  0  0
   -4.9616   11.0273   36.8991 C   0  0  1  0  0  0  0  0  0  0  0  0
   -5.0282    9.9439   35.9688 O   0  0  0  0  0  0  0  0  0  0  0  0
   -5.2873   10.5587   38.3285 C   0  0  2  0  0  0  0  0  0  0  0  0
   -6.5924    9.9783   38.3453 O   0  0  0  0  0  0  0  0  0  0  0  0
   -5.2021   11.7812   39.3207 C   0  0  2  0  0  0  0  0  0  0  0  0
   -3.8560   12.3916   39.2853 O   0  0  0  0  0  0  0  0  0  0  0  0
   -5.5067   11.3545   40.7782 C   0  0  2  0  0  0  0  0  0  0  0  0
   -6.7285   10.6149   40.8210 O   0  0  0  0  0  0  0  0  0  0  0  0
   -5.6399   12.5651   41.6889 C   0  0  0  0  0  0  0  0  0  0  0  0
   -3.9678   18.0814   37.1241 C   0  0  2  0  0  0  0  0  0  0  0  0
   -3.7831   19.4960   37.4570 N   0  0  0  0  0  0  0  0  0  0  0  0
   -5.1589   17.5598   37.9745 C   0  0  0  0  0  0  0  0  0  0  0  0
   -5.3862   16.0659   37.6174 C   0  0  2  0  0  0  0  0  0  0  0  0
   -6.5125   15.5299   38.3979 N   0  0  0  0  0  0  0  0  0  0  0  0
   -4.1155   15.2246   37.9128 C   0  0  2  0  0  0  0  0  0  0  0  0
   -2.9226   15.7955   37.0829 C   0  0  2  0  0  0  0  0  0  0  0  0
   -1.7466   15.0247   37.3652 O   0  0  0  0  0  0  0  0  0  0  0  0
   -2.6458   17.2710   37.4605 C   0  0  1  0  0  0  0  0  0  0  0  0
   -1.5391   17.7256   36.6428 O   0  0  0  0  0  0  0  0  0  0  0  0
   -1.5809   17.3447   35.2475 C   0  0  2  0  0  0  0  0  0  0  0  0
   -0.1668   17.6995   34.6544 C   0  0  2  0  0  0  0  0  0  0  0  0
    0.8392   16.9663   35.3353 O   0  0  0  0  0  0  0  0  0  0  0  0
    0.0729   19.2505   34.7947 C   0  0  1  0  0  0  0  0  0  0  0  0
    1.4121   19.6327   34.2518 N   0  0  0  0  0  0  0  0  0  0  0  0
    2.1554   20.3766   35.2914 C   0  0  0  0  0  0  0  0  0  0  0  0
   -1.0567   19.9974   34.0223 C   0  0  2  0  0  0  0  0  0  0  0  0
   -0.9935   19.6248   32.6465 O   0  0  0  0  0  0  0  0  0  0  0  0
   -0.9015   21.5131   34.1165 C   0  0  0  0  0  0  0  0  0  0  0  0
   -2.4425   19.5765   34.6084 C   0  0  0  0  0  0  0  0  0  0  0  0
   -2.6237   18.1114   34.5366 O   0  0  0  0  0  0  0  0  0  0  0  0
  1  3  1  0  0  0  0
  1  2  1  6  0  0  0
  3  5  1  0  0  0  0
  3  4  1  6  0  0  0
  5  6  1  6  0  0  0
  7  8  1  6  0  0  0
  7  5  1  0  0  0  0
  9 10  1  1  0  0  0
  9  7  1  0  0  0  0
 10  1  1  0  0  0  0
 11 13  1  1  0  0  0
 11  9  1  0  0  0  0
 12 11  1  0  0  0  0
 14 15  1  1  0  0  0
 16 14  1  0  0  0  0
 17 18  1  1  0  0  0
 17 16  1  0  0  0  0
 19  2  1  6  0  0  0
 19 20  1  0  0  0  0
 19 17  1  0  0  0  0
 20 21  1  1  0  0  0
 20 22  1  0  0  0  0
 22 23  1  6  0  0  0
 22 14  1  0  0  0  0
 24 23  1  1  0  0  0
 24 25  1  0  0  0  0
 25 27  1  0  0  0  0
 25 26  1  1  0  0  0
 27 28  1  6  0  0  0
 28 29  1  0  0  0  0
 30 31  1  6  0  0  0
 30 32  1  0  0  0  0
 30 27  1  0  0  0  0
 33 30  1  0  0  0  0
 34 33  1  0  0  0  0
 34 24  1  0  0  0  0
M  END
>  <CHROM.1>
-151.32561911,-50.76115501,-169.17412629,-72.62655350,-169.09600659,-125.95398567
-3.12659164,15.52089342,36.87834225,-2.28743506,0.76184208,0.06135432

>  <Name>
lig.pdb

>  <RI>
0

>  <Rbt.Current_Directory>
/home/itssahil/PROJECTS/Mol_Feturizer/New_Systems/rnas/4k32

>  <Rbt.Executable>
rbdock ($Id: //depot/dev/client3/rdock/2013.1/src/exe/rbdock.cxx#4 $)

>  <Rbt.Library>
libRbt.so (2013.1, Build901 2013/11/27)

>  <Rbt.Parameter_File>
/export/apps/rDock/src/rDock_2013.1_src/data/scripts/dock_solv.prm

>  <Rbt.Receptor>
prm/pocket_docking_4.prm

>  <SCORE>
-12.7291

>  <SCORE.INTER>
-8.73883

>  <SCORE.INTER.CONST>
1

>  <SCORE.INTER.POLAR>
0

>  <SCORE.INTER.ROT>
6

>  <SCORE.INTER.SOLV>
21.1188

>  <SCORE.INTER.VDW>
-20.4655

>  <SCORE.INTER.norm>
-0.257024

>  <SCORE.INTRA>
-3.99025

>  <SCORE.INTRA.DIHEDRAL>
-11.2143

>  <SCORE.INTRA.DIHEDRAL.0>
18.0069

>  <SCORE.INTRA.POLAR>
0

>  <SCORE.INTRA.POLAR.0>
0

>  <SCORE.INTRA.REPUL>
0

>  <SCORE.INTRA.REPUL.0>
0

>  <SCORE.INTRA.SOLV>
-0.0762069

>  <SCORE.INTRA.SOLV.lig_0>
-70.7393

>  <SCORE.INTRA.VDW>
1.65502

>  <SCORE.INTRA.VDW.0>
-3.23471

>  <SCORE.INTRA.norm>
-0.11736

>  <SCORE.RESTR>
0

>  <SCORE.RESTR.CAVITY>
0

>  <SCORE.RESTR.norm>
0

>  <SCORE.SYSTEM>
0

>  <SCORE.SYSTEM.CONST>
0

>  <SCORE.SYSTEM.DIHEDRAL>
0

>  <SCORE.SYSTEM.SOLV>
0

>  <SCORE.SYSTEM.norm>
0

>  <SCORE.heavy>
34

>  <SCORE.norm>
-0.374385

>  <RMSD>
8.823

$$$$
lig.pdb
 OpenBabel11021811503D
libRbt.so/2013.1/901 2013/11/27
 34 36  0  0  0  0  0  0  0  0999 V2000
   -3.8918   13.1495   37.1635 C   0  0  2  0  0  0  0  0  0  0  0  0
   -4.4291   14.3499   36.5974 O   0  0  0  0  0  0  0  0  0  0  0  0
   -4.4307   11.9124   36.3266 C   0  0  2  0  0  0  0  0  0  0  0  0
   -4.0184   11.9872   34.9056 N   0  0  0  0  0  0  0  0  0  0  0  0
   -5.9760   11.8574   36.4258 C   0  0  1  0  0  0  0  0  0  0  0  0
   -6.4797   10.7445   35.6834 O   0  0  0  0  0  0  0  0  0  0  0  0
   -6.3686   11.7635   37.9110 C   0  0  2  0  0  0  0  0  0  0  0  0
   -7.7920   11.7082   38.0168 O   0  0  0  0  0  0  0  0  0  0  0  0
   -5.7940   13.0069   38.6921 C   0  0  2  0  0  0  0  0  0  0  0  0
   -4.3226   13.0720   38.5633 O   0  0  0  0  0  0  0  0  0  0  0  0
   -6.1503   12.9480   40.1984 C   0  0  2  0  0  0  0  0  0  0  0  0
   -6.0501   11.6020   40.6674 O   0  0  0  0  0  0  0  0  0  0  0  0
   -7.5656   13.4452   40.4483 C   0  0  0  0  0  0  0  0  0  0  0  0
   -3.4773   18.5146   36.8533 C   0  0  2  0  0  0  0  0  0  0  0  0
   -3.1457   19.8312   37.4035 N   0  0  0  0  0  0  0  0  0  0  0  0
   -4.7498   18.0143   37.5910 C   0  0  0  0  0  0  0  0  0  0  0  0
   -5.1319   16.6286   37.0039 C   0  0  2  0  0  0  0  0  0  0  0  0
   -6.3391   16.1171   37.6715 N   0  0  0  0  0  0  0  0  0  0  0  0
   -3.9762   15.6090   37.1894 C   0  0  2  0  0  0  0  0  0  0  0  0
   -2.6970   16.1543   36.4795 C   0  0  2  0  0  0  0  0  0  0  0  0
   -1.6269   15.2170   36.6613 O   0  0  0  0  0  0  0  0  0  0  0  0
   -2.2686   17.5131   37.0850 C   0  0  1  0  0  0  0  0  0  0  0  0
   -1.0888   17.9527   36.3677 O   0  0  0  0  0  0  0  0  0  0  0  0
   -0.9518   17.4680   35.0112 C   0  0  2  0  0  0  0  0  0  0  0  0
    0.4059   18.0539   34.4720 C   0  0  2  0  0  0  0  0  0  0  0  0
    1.4823   17.5901   35.2717 O   0  0  0  0  0  0  0  0  0  0  0  0
    0.3274   19.6275   34.4892 C   0  0  1  0  0  0  0  0  0  0  0  0
    1.6029   20.2287   33.9932 N   0  0  0  0  0  0  0  0  0  0  0  0
    2.2240   21.0043   35.0883 C   0  0  0  0  0  0  0  0  0  0  0  0
   -0.8658   20.0730   33.5900 C   0  0  2  0  0  0  0  0  0  0  0  0
   -0.6293   19.6189   32.2583 O   0  0  0  0  0  0  0  0  0  0  0  0
   -1.0166   21.5918   33.5595 C   0  0  0  0  0  0  0  0  0  0  0  0
   -2.1824   19.4278   34.1297 C   0  0  0  0  0  0  0  0  0  0  0  0
   -2.0685   17.9549   34.1765 O   0  0  0  0  0  0  0  0  0  0  0  0
  1  3  1  0  0  0  0
  1  2  1  6  0  0  0
  3  5  1  0  0  0  0
  3  4  1  6  0  0  0
  5  6  1  6  0  0  0
  7  8  1  6  0  0  0
  7  5  1  0  0  0  0
  9 10  1  1  0  0  0
  9  7  1  0  0  0  0
 10  1  1  0  0  0  0
 11 13  1  6  0  0  0
 11  9  1  0  0  0  0
 12 11  1  0  0  0  0
 14 15  1  1  0  0  0
 16 14  1  0  0  0  0
 17 18  1  1  0  0  0
 17 16  1  0  0  0  0
 19  2  1  6  0  0  0
 19 20  1  0  0  0  0
 19 17  1  0  0  0  0
 20 21  1  1  0  0  0
 20 22  1  0  0  0  0
 22 23  1  6  0  0  0
 22 14  1  0  0  0  0
 24 23  1  1  0  0  0
 24 25  1  0  0  0  0
 25 27  1  0  0  0  0
 25 26  1  1  0  0  0
 27 28  1  6  0  0  0
 28 29  1  0  0  0  0
 30 31  1  6  0  0  0
 30 32  1  0  0  0  0
 30 27  1  0  0  0  0
 33 30  1  0  0  0  0
 34 33  1  0  0  0  0
 34 24  1  0  0  0  0
M  END
>  <CHROM.1>
-176.39046247,39.05314685,-150.92686065,-89.31472093,-178.77823962,-116.59212746
-3.21410000,16.02884714,36.41078216,-2.55595839,0.78125506,0.33548366

>  <Name>
lig.pdb

>  <RI>
0

>  <Rbt.Current_Directory>
/home/itssahil/PROJECTS/Mol_Feturizer/New_Systems/rnas/4k32

>  <Rbt.Executable>
rbdock ($Id: //depot/dev/client3/rdock/2013.1/src/exe/rbdock.cxx#4 $)

>  <Rbt.Library>
libRbt.so (2013.1, Build901 2013/11/27)

>  <Rbt.Parameter_File>
/export/apps/rDock/src/rDock_2013.1_src/data/scripts/dock_solv.prm

>  <Rbt.Receptor>
prm/pocket_docking_2.prm

>  <SCORE>
-7.87968

>  <SCORE.INTER>
-7.44624

>  <SCORE.INTER.CONST>
1

>  <SCORE.INTER.POLAR>
0

>  <SCORE.INTER.ROT>
6

>  <SCORE.INTER.SOLV>
21.8154

>  <SCORE.INTER.VDW>
-19.836

>  <SCORE.INTER.norm>
-0.219007

>  <SCORE.INTRA>
-1.37716

>  <SCORE.INTRA.DIHEDRAL>
-8.39078

>  <SCORE.INTRA.DIHEDRAL.0>
18.0069

>  <SCORE.INTRA.POLAR>
0

>  <SCORE.INTRA.POLAR.0>
0

>  <SCORE.INTRA.REPUL>
0

>  <SCORE.INTRA.REPUL.0>
0

>  <SCORE.INTRA.SOLV>
0.367359

>  <SCORE.INTRA.SOLV.lig_0>
-70.7393

>  <SCORE.INTRA.VDW>
2.63455

>  <SCORE.INTRA.VDW.0>
-3.23471

>  <SCORE.INTRA.norm>
-0.0405047

>  <SCORE.RESTR>
0.943715

>  <SCORE.RESTR.CAVITY>
0.943715

>  <SCORE.RESTR.norm>
0.0277563

>  <SCORE.SYSTEM>
0

>  <SCORE.SYSTEM.CONST>
0

>  <SCORE.SYSTEM.DIHEDRAL>
0

>  <SCORE.SYSTEM.SOLV>
0

>  <SCORE.SYSTEM.norm>
0

>  <SCORE.heavy>
34

>  <SCORE.norm>
-0.231755

>  <RMSD>
8.824

$$$$
lig.pdb
 OpenBabel11021811503D
libRbt.so/2013.1/901 2013/11/27
 34 36  0  0  0  0  0  0  0  0999 V2000
   -3.9139   13.2043   37.1927 C   0  0  2  0  0  0  0  0  0  0  0  0
   -4.4416   14.4015   36.6108 O   0  0  0  0  0  0  0  0  0  0  0  0
   -4.4386   11.9625   36.3537 C   0  0  2  0  0  0  0  0  0  0  0  0
   -4.0023   12.0294   34.9394 N   0  0  0  0  0  0  0  0  0  0  0  0
   -5.9854   11.9079   36.4269 C   0  0  1  0  0  0  0  0  0  0  0  0
   -6.4765   10.7909   35.6822 O   0  0  0  0  0  0  0  0  0  0  0  0
   -6.4031   11.8223   37.9057 C   0  0  2  0  0  0  0  0  0  0  0  0
   -7.8281   11.7675   37.9877 O   0  0  0  0  0  0  0  0  0  0  0  0
   -5.8419   13.0701   38.6895 C   0  0  2  0  0  0  0  0  0  0  0  0
   -4.3685   13.1345   38.5853 O   0  0  0  0  0  0  0  0  0  0  0  0
   -6.2236   13.0196   40.1898 C   0  0  2  0  0  0  0  0  0  0  0  0
   -6.1573   11.6723   40.6613 O   0  0  0  0  0  0  0  0  0  0  0  0
   -7.6329   13.5443   40.4163 C   0  0  0  0  0  0  0  0  0  0  0  0
   -3.4622   18.5622   36.8238 C   0  0  2  0  0  0  0  0  0  0  0  0
   -3.1251   19.8830   37.3606 N   0  0  0  0  0  0  0  0  0  0  0  0
   -4.7432   18.0796   37.5585 C   0  0  0  0  0  0  0  0  0  0  0  0
   -5.1310   16.6897   36.9852 C   0  0  2  0  0  0  0  0  0  0  0  0
   -6.3465   16.1946   37.6504 N   0  0  0  0  0  0  0  0  0  0  0  0
   -3.9839   15.6643   37.1910 C   0  0  2  0  0  0  0  0  0  0  0  0
   -2.6960   16.1922   36.4836 C   0  0  2  0  0  0  0  0  0  0  0  0
   -1.6338   15.2497   36.6841 O   0  0  0  0  0  0  0  0  0  0  0  0
   -2.2622   17.5551   37.0759 C   0  0  1  0  0  0  0  0  0  0  0  0
   -1.0744   17.9779   36.3617 O   0  0  0  0  0  0  0  0  0  0  0  0
   -0.9397   17.4895   35.0064 C   0  0  2  0  0  0  0  0  0  0  0  0
    0.4325   18.0475   34.4743 C   0  0  2  0  0  0  0  0  0  0  0  0
    1.4950   17.5630   35.2803 O   0  0  0  0  0  0  0  0  0  0  0  0
    0.3855   19.6224   34.4899 C   0  0  1  0  0  0  0  0  0  0  0  0
    1.6755   20.1975   34.0005 N   0  0  0  0  0  0  0  0  0  0  0  0
    2.2875   20.9927   35.0867 C   0  0  0  0  0  0  0  0  0  0  0  0
   -0.7935   20.0910   33.5838 C   0  0  2  0  0  0  0  0  0  0  0  0
   -0.5588   19.6312   32.2537 O   0  0  0  0  0  0  0  0  0  0  0  0
   -0.9137   21.6125   33.5513 C   0  0  0  0  0  0  0  0  0  0  0  0
   -2.1258   19.4727   34.1166 C   0  0  0  0  0  0  0  0  0  0  0  0
   -2.0417   17.9979   34.1651 O   0  0  0  0  0  0  0  0  0  0  0  0
  1  3  1  0  0  0  0
  1  2  1  6  0  0  0
  3  5  1  0  0  0  0
  3  4  1  6  0  0  0
  5  6  1  6  0  0  0
  7  8  1  6  0  0  0
  7  5  1  0  0  0  0
  9 10  1  1  0  0  0
  9  7  1  0  0  0  0
 10  1  1  0  0  0  0
 11 13  1  6  0  0  0
 11  9  1  0  0  0  0
 12 11  1  0  0  0  0
 14 15  1  1  0  0  0
 16 14  1  0  0  0  0
 17 18  1  1  0  0  0
 17 16  1  0  0  0  0
 19  2  1  6  0  0  0
 19 20  1  0  0  0  0
 19 17  1  0  0  0  0
 20 21  1  1  0  0  0
 20 22  1  0  0  0  0
 22 23  1  6  0  0  0
 22 14  1  0  0  0  0
 24 23  1  1  0  0  0
 24 25  1  0  0  0  0
 25 27  1  0  0  0  0
 25 26  1  1  0  0  0
 27 28  1  6  0  0  0
 28 29  1  0  0  0  0
 30 31  1  6  0  0  0
 30 32  1  0  0  0  0
 30 27  1  0  0  0  0
 33 30  1  0  0  0  0
 34 33  1  0  0  0  0
 34 24  1  0  0  0  0
M  END
>  <CHROM.1>
-175.54349057,37.90552802,-151.08475279,-88.57968046,-178.36905415,-118.15593475
-3.20933719,16.06860952,36.40728518,-2.55124035,0.76420829,0.31777199

>  <Name>
lig.pdb

>  <RI>
0

>  <Rbt.Current_Directory>
/home/itssahil/PROJECTS/Mol_Feturizer/New_Systems/rnas/4k32

>  <Rbt.Executable>
rbdock ($Id: //depot/dev/client3/rdock/2013.1/src/exe/rbdock.cxx#4 $)

>  <Rbt.Library>
libRbt.so (2013.1, Build901 2013/11/27)

>  <Rbt.Parameter_File>
/export/apps/rDock/src/rDock_2013.1_src/data/scripts/dock_solv.prm

>  <Rbt.Receptor>
prm/pocket_docking_2.prm

>  <SCORE>
-7.83839

>  <SCORE.INTER>
-7.32669

>  <SCORE.INTER.CONST>
1

>  <SCORE.INTER.POLAR>
0

>  <SCORE.INTER.ROT>
6

>  <SCORE.INTER.SOLV>
22.1623

>  <SCORE.INTER.VDW>
-19.8719

>  <SCORE.INTER.norm>
-0.215491

>  <SCORE.INTRA>
-1.49146

>  <SCORE.INTRA.DIHEDRAL>
-8.36578

>  <SCORE.INTRA.DIHEDRAL.0>
18.0069

>  <SCORE.INTRA.POLAR>
0

>  <SCORE.INTRA.POLAR.0>
0

>  <SCORE.INTRA.REPUL>
0

>  <SCORE.INTRA.REPUL.0>
0

>  <SCORE.INTRA.SOLV>
0.355307

>  <SCORE.INTRA.SOLV.lig_0>
-70.7393

>  <SCORE.INTRA.VDW>
2.51377

>  <SCORE.INTRA.VDW.0>
-3.23471

>  <SCORE.INTRA.norm>
-0.0438666

>  <SCORE.RESTR>
0.979766

>  <SCORE.RESTR.CAVITY>
0.979766

>  <SCORE.RESTR.norm>
0.0288166

>  <SCORE.SYSTEM>
0

>  <SCORE.SYSTEM.CONST>
0

>  <SCORE.SYSTEM.DIHEDRAL>
0

>  <SCORE.SYSTEM.SOLV>
0

>  <SCORE.SYSTEM.norm>
0

>  <SCORE.heavy>
34

>  <SCORE.norm>
-0.230541

>  <RMSD>
8.828

$$$$
lig.pdb
 OpenBabel11021811503D
libRbt.so/2013.1/901 2013/11/27
 34 36  0  0  0  0  0  0  0  0999 V2000
   -3.8922   13.1901   37.2318 C   0  0  2  0  0  0  0  0  0  0  0  0
   -4.4471   14.3801   36.6607 O   0  0  0  0  0  0  0  0  0  0  0  0
   -4.3980   11.9433   36.3888 C   0  0  2  0  0  0  0  0  0  0  0  0
   -3.9726   12.0271   34.9721 N   0  0  0  0  0  0  0  0  0  0  0  0
   -5.9429   11.8578   36.4719 C   0  0  1  0  0  0  0  0  0  0  0  0
   -6.4169   10.7358   35.7237 O   0  0  0  0  0  0  0  0  0  0  0  0
   -6.3489   11.7552   37.9529 C   0  0  2  0  0  0  0  0  0  0  0  0
   -7.7720   11.6719   38.0439 O   0  0  0  0  0  0  0  0  0  0  0  0
   -5.8070   13.0092   38.7405 C   0  0  2  0  0  0  0  0  0  0  0  0
   -4.3359   13.1032   38.6269 O   0  0  0  0  0  0  0  0  0  0  0  0
   -6.1776   12.9423   40.2429 C   0  0  2  0  0  0  0  0  0  0  0  0
   -6.0183   11.6056   40.7219 O   0  0  0  0  0  0  0  0  0  0  0  0
   -7.6180   13.3722   40.4734 C   0  0  0  0  0  0  0  0  0  0  0  0
   -3.4918   18.5476   36.8496 C   0  0  2  0  0  0  0  0  0  0  0  0
   -3.1624   19.8734   37.3787 N   0  0  0  0  0  0  0  0  0  0  0  0
   -4.7701   18.0619   37.5870 C   0  0  0  0  0  0  0  0  0  0  0  0
   -5.1498   16.6664   37.0218 C   0  0  2  0  0  0  0  0  0  0  0  0
   -6.3624   16.1682   37.6898 N   0  0  0  0  0  0  0  0  0  0  0  0
   -3.9967   15.6490   37.2335 C   0  0  2  0  0  0  0  0  0  0  0  0
   -2.7119   16.1802   36.5231 C   0  0  2  0  0  0  0  0  0  0  0  0
   -1.6443   15.2451   36.7290 O   0  0  0  0  0  0  0  0  0  0  0  0
   -2.2861   17.5490   37.1075 C   0  0  1  0  0  0  0  0  0  0  0  0
   -1.1006   17.9745   36.3909 O   0  0  0  0  0  0  0  0  0  0  0  0
   -0.9602   17.4744   35.0404 C   0  0  2  0  0  0  0  0  0  0  0  0
    0.4224   18.0133   34.5156 C   0  0  2  0  0  0  0  0  0  0  0  0
    1.4728   17.5232   35.3340 O   0  0  0  0  0  0  0  0  0  0  0  0
    0.3926   19.5887   34.5190 C   0  0  1  0  0  0  0  0  0  0  0  0
    1.6929   20.1459   34.0361 N   0  0  0  0  0  0  0  0  0  0  0  0
    2.2681   21.0041   35.0941 C   0  0  0  0  0  0  0  0  0  0  0  0
   -0.7736   20.0633   33.5997 C   0  0  2  0  0  0  0  0  0  0  0  0
   -0.5331   19.5909   32.2751 O   0  0  0  0  0  0  0  0  0  0  0  0
   -0.8767   21.5857   33.5549 C   0  0  0  0  0  0  0  0  0  0  0  0
   -2.1170   19.4638   34.1260 C   0  0  0  0  0  0  0  0  0  0  0  0
   -2.0496   17.9885   34.1862 O   0  0  0  0  0  0  0  0  0  0  0  0
  1  3  1  0  0  0  0
  1  2  1  6  0  0  0
  3  5  1  0  0  0  0
  3  4  1  6  0  0  0
  5  6  1  6  0  0  0
  7  8  1  6  0  0  0
  7  5  1  0  0  0  0
  9 10  1  1  0  0  0
  9  7  1  0  0  0  0
 10  1  1  0  0  0  0
 11 13  1  6  0  0  0
 11  9  1  0  0  0  0
 12 11  1  0  0  0  0
 14 15  1  1  0  0  0
 16 14  1  0  0  0  0
 17 18  1  1  0  0  0
 17 16  1  0  0  0  0
 19  2  1  6  0  0  0
 19 20  1  0  0  0  0
 19 17  1  0  0  0  0
 20 21  1  1  0  0  0
 20 22  1  0  0  0  0
 22 23  1  6  0  0  0
 22 14  1  0  0  0  0
 24 23  1  1  0  0  0
 24 25  1  0  0  0  0
 25 27  1  0  0  0  0
 25 26  1  1  0  0  0
 27 28  1  6  0  0  0
 28 29  1  0  0  0  0
 30 31  1  6  0  0  0
 30 32  1  0  0  0  0
 30 27  1  0  0  0  0
 33 30  1  0  0  0  0
 34 33  1  0  0  0  0
 34 24  1  0  0  0  0
M  END
>  <CHROM.1>
-174.75072581,40.73437195,-152.29140358,-88.83516366,-177.20523769,-121.29621538
-3.19747008,16.03463009,36.44327514,-2.54068498,0.76659938,0.30651016

>  <Name>
lig.pdb

>  <RI>
0

>  <Rbt.Current_Directory>
/home/itssahil/PROJECTS/Mol_Feturizer/New_Systems/rnas/4k32

>  <Rbt.Executable>
rbdock ($Id: //depot/dev/client3/rdock/2013.1/src/exe/rbdock.cxx#4 $)

>  <Rbt.Library>
libRbt.so (2013.1, Build901 2013/11/27)

>  <Rbt.Parameter_File>
/export/apps/rDock/src/rDock_2013.1_src/data/scripts/dock_solv.prm

>  <Rbt.Receptor>
prm/pocket_docking_2.prm

>  <SCORE>
-8.08501

>  <SCORE.INTER>
-7.3203

>  <SCORE.INTER.CONST>
1

>  <SCORE.INTER.POLAR>
0

>  <SCORE.INTER.ROT>
6

>  <SCORE.INTER.SOLV>
22.0471

>  <SCORE.INTER.VDW>
-19.8292

>  <SCORE.INTER.norm>
-0.215303

>  <SCORE.INTRA>
-1.7633

>  <SCORE.INTRA.DIHEDRAL>
-8.83007

>  <SCORE.INTRA.DIHEDRAL.0>
18.0069

>  <SCORE.INTRA.POLAR>
0

>  <SCORE.INTRA.POLAR.0>
0

>  <SCORE.INTRA.REPUL>
0

>  <SCORE.INTRA.REPUL.0>
0

>  <SCORE.INTRA.SOLV>
0.0945924

>  <SCORE.INTRA.SOLV.lig_0>
-70.7393

>  <SCORE.INTRA.VDW>
2.60444

>  <SCORE.INTRA.VDW.0>
-3.23471

>  <SCORE.INTRA.norm>
-0.0518616

>  <SCORE.RESTR>
0.998585

>  <SCORE.RESTR.CAVITY>
0.998585

>  <SCORE.RESTR.norm>
0.0293702

>  <SCORE.SYSTEM>
0

>  <SCORE.SYSTEM.CONST>
0

>  <SCORE.SYSTEM.DIHEDRAL>
0

>  <SCORE.SYSTEM.SOLV>
0

>  <SCORE.SYSTEM.norm>
0

>  <SCORE.heavy>
34

>  <SCORE.norm>
-0.237794

>  <RMSD>
8.829

$$$$
lig.pdb
 OpenBabel11021811503D
libRbt.so/2013.1/901 2013/11/27
 34 36  0  0  0  0  0  0  0  0999 V2000
   -6.7276   13.0728   40.1691 C   0  0  2  0  0  0  0  0  0  0  0  0
   -5.3139   13.2659   40.0491 O   0  0  0  0  0  0  0  0  0  0  0  0
   -7.4642   14.2532   39.4040 C   0  0  2  0  0  0  0  0  0  0  0  0
   -7.1141   14.2797   37.9647 N   0  0  0  0  0  0  0  0  0  0  0  0
   -7.0920   15.6054   40.0629 C   0  0  1  0  0  0  0  0  0  0  0  0
   -7.7521   16.6808   39.3912 O   0  0  0  0  0  0  0  0  0  0  0  0
   -7.4835   15.5498   41.5503 C   0  0  2  0  0  0  0  0  0  0  0  0
   -7.1489   16.7928   42.1696 O   0  0  0  0  0  0  0  0  0  0  0  0
   -6.7357   14.3521   42.2521 C   0  0  2  0  0  0  0  0  0  0  0  0
   -7.0687   13.0700   41.5954 O   0  0  0  0  0  0  0  0  0  0  0  0
   -7.1116   14.2453   43.7509 C   0  0  2  0  0  0  0  0  0  0  0  0
   -6.8210   15.4783   44.4120 O   0  0  0  0  0  0  0  0  0  0  0  0
   -6.3331   13.1324   44.4350 C   0  0  0  0  0  0  0  0  0  0  0  0
   -2.7138   11.8131   36.9758 C   0  0  2  0  0  0  0  0  0  0  0  0
   -2.1611   11.5126   35.6527 N   0  0  0  0  0  0  0  0  0  0  0  0
   -4.1790   11.2967   36.9909 C   0  0  0  0  0  0  0  0  0  0  0  0
   -4.7754   11.5846   38.3954 C   0  0  2  0  0  0  0  0  0  0  0  0
   -6.1651   11.1055   38.4576 N   0  0  0  0  0  0  0  0  0  0  0  0
   -4.7456   13.1043   38.7105 C   0  0  2  0  0  0  0  0  0  0  0  0
   -3.2698   13.6094   38.6442 C   0  0  2  0  0  0  0  0  0  0  0  0
   -3.2448   15.0157   38.9242 O   0  0  0  0  0  0  0  0  0  0  0  0
   -2.6717   13.3779   37.2353 C   0  0  1  0  0  0  0  0  0  0  0  0
   -1.3056   13.8605   37.2615 O   0  0  0  0  0  0  0  0  0  0  0  0
   -0.6710   14.0432   35.9741 C   0  0  2  0  0  0  0  0  0  0  0  0
    0.8534   14.3006   36.2700 C   0  0  2  0  0  0  0  0  0  0  0  0
    1.4103   13.1801   36.9390 O   0  0  0  0  0  0  0  0  0  0  0  0
    0.9926   15.6052   37.1425 C   0  0  1  0  0  0  0  0  0  0  0  0
    2.4271   15.8836   37.4572 N   0  0  0  0  0  0  0  0  0  0  0  0
    2.7237   15.3864   38.8179 C   0  0  0  0  0  0  0  0  0  0  0  0
    0.3712   16.7970   36.3527 C   0  0  2  0  0  0  0  0  0  0  0  0
    1.0885   16.9589   35.1300 O   0  0  0  0  0  0  0  0  0  0  0  0
    0.4586   18.1039   37.1368 C   0  0  0  0  0  0  0  0  0  0  0  0
   -1.1248   16.4768   36.0356 C   0  0  0  0  0  0  0  0  0  0  0  0
   -1.2457   15.2127   35.2793 O   0  0  0  0  0  0  0  0  0  0  0  0
  1  3  1  0  0  0  0
  1  2  1  1  0  0  0
  3  5  1  0  0  0  0
  3  4  1  6  0  0  0
  5  6  1  6  0  0  0
  7  8  1  1  0  0  0
  7  5  1  0  0  0  0
  9 10  1  6  0  0  0
  9  7  1  0  0  0  0
 10  1  1  0  0  0  0
 11 13  1  1  0  0  0
 11  9  1  0  0  0  0
 12 11  1  0  0  0  0
 14 15  1  6  0  0  0
 16 14  1  0  0  0  0
 17 18  1  6  0  0  0
 17 16  1  0  0  0  0
 19  2  1  1  0  0  0
 19 20  1  0  0  0  0
 19 17  1  0  0  0  0
 20 21  1  6  0  0  0
 20 22  1  0  0  0  0
 22 23  1  1  0  0  0
 22 14  1  0  0  0  0
 24 23  1  1  0  0  0
 24 25  1  0  0  0  0
 25 27  1  0  0  0  0
 25 26  1  1  0  0  0
 27 28  1  6  0  0  0
 28 29  1  0  0  0  0
 30 31  1  6  0  0  0
 30 32  1  0  0  0  0
 30 27  1  0  0  0  0
 33 30  1  0  0  0  0
 34 33  1  0  0  0  0
 34 24  1  0  0  0  0
M  END
>  <CHROM.1>
-67.87365536,-56.90013974,-72.25823492,78.59154963,-169.59518855,-98.70641991
-3.46284101,14.38840065,38.76052461,2.86096970,0.54021704,0.67503491

>  <Name>
lig.pdb

>  <RI>
0

>  <Rbt.Current_Directory>
/home/itssahil/PROJECTS/Mol_Feturizer/New_Systems/rnas/4k32

>  <Rbt.Executable>
rbdock ($Id: //depot/dev/client3/rdock/2013.1/src/exe/rbdock.cxx#4 $)

>  <Rbt.Library>
libRbt.so (2013.1, Build901 2013/11/27)

>  <Rbt.Parameter_File>
/export/apps/rDock/src/rDock_2013.1_src/data/scripts/dock_solv.prm

>  <Rbt.Receptor>
prm/pocket_docking_7.prm

>  <SCORE>
-7.26702

>  <SCORE.INTER>
-3.27531

>  <SCORE.INTER.CONST>
1

>  <SCORE.INTER.POLAR>
0

>  <SCORE.INTER.ROT>
6

>  <SCORE.INTER.SOLV>
14.6873

>  <SCORE.INTER.VDW>
-14.6793

>  <SCORE.INTER.norm>
-0.0963325

>  <SCORE.INTRA>
-3.99172

>  <SCORE.INTRA.DIHEDRAL>
-13.9408

>  <SCORE.INTRA.DIHEDRAL.0>
18.0069

>  <SCORE.INTRA.POLAR>
0

>  <SCORE.INTRA.POLAR.0>
0

>  <SCORE.INTRA.REPUL>
0

>  <SCORE.INTRA.REPUL.0>
0

>  <SCORE.INTRA.SOLV>
2.863

>  <SCORE.INTRA.SOLV.lig_0>
-70.7393

>  <SCORE.INTRA.VDW>
1.54718

>  <SCORE.INTRA.VDW.0>
-3.23471

>  <SCORE.INTRA.norm>
-0.117403

>  <SCORE.RESTR>
0

>  <SCORE.RESTR.CAVITY>
0

>  <SCORE.RESTR.norm>
0

>  <SCORE.SYSTEM>
0

>  <SCORE.SYSTEM.CONST>
0

>  <SCORE.SYSTEM.DIHEDRAL>
0

>  <SCORE.SYSTEM.SOLV>
0

>  <SCORE.SYSTEM.norm>
0

>  <SCORE.heavy>
34

>  <SCORE.norm>
-0.213736

>  <RMSD>
8.851

$$$$
lig.pdb
 OpenBabel11021811503D
libRbt.so/2013.1/901 2013/11/27
 34 36  0  0  0  0  0  0  0  0999 V2000
   -3.1444   12.7565   36.2125 C   0  0  2  0  0  0  0  0  0  0  0  0
   -3.2980   14.0054   35.5291 O   0  0  0  0  0  0  0  0  0  0  0  0
   -2.7676   11.6417   35.1465 C   0  0  2  0  0  0  0  0  0  0  0  0
   -1.4991   11.9542   34.4478 N   0  0  0  0  0  0  0  0  0  0  0  0
   -3.9173   11.5041   34.1168 C   0  0  1  0  0  0  0  0  0  0  0  0
   -3.5989   10.4988   33.1517 O   0  0  0  0  0  0  0  0  0  0  0  0
   -5.2139   11.1638   34.8729 C   0  0  2  0  0  0  0  0  0  0  0  0
   -6.2824   11.0302   33.9342 O   0  0  0  0  0  0  0  0  0  0  0  0
   -5.5278   12.2950   35.9255 C   0  0  2  0  0  0  0  0  0  0  0  0
   -4.4109   12.4440   36.8828 O   0  0  0  0  0  0  0  0  0  0  0  0
   -6.8184   11.9876   36.7248 C   0  0  2  0  0  0  0  0  0  0  0  0
   -7.0598   13.0283   37.6736 O   0  0  0  0  0  0  0  0  0  0  0  0
   -6.7014   10.6677   37.4712 C   0  0  0  0  0  0  0  0  0  0  0  0
   -3.2118   18.1772   36.4805 C   0  0  2  0  0  0  0  0  0  0  0  0
   -3.1769   19.4257   37.2462 N   0  0  0  0  0  0  0  0  0  0  0  0
   -4.3921   17.3311   37.0326 C   0  0  0  0  0  0  0  0  0  0  0  0
   -4.4609   16.0122   36.2162 C   0  0  2  0  0  0  0  0  0  0  0  0
   -5.5718   15.1790   36.7026 N   0  0  0  0  0  0  0  0  0  0  0  0
   -3.1348   15.2144   36.3370 C   0  0  2  0  0  0  0  0  0  0  0  0
   -1.9582   16.1008   35.8196 C   0  0  2  0  0  0  0  0  0  0  0  0
   -0.7322   15.3671   35.9423 O   0  0  0  0  0  0  0  0  0  0  0  0
   -1.8396   17.3995   36.6537 C   0  0  1  0  0  0  0  0  0  0  0  0
   -0.7388   18.1659   36.1054 O   0  0  0  0  0  0  0  0  0  0  0  0
   -0.5584   18.0836   34.6721 C   0  0  2  0  0  0  0  0  0  0  0  0
    0.7171   18.9444   34.3413 C   0  0  2  0  0  0  0  0  0  0  0  0
    1.8472   18.4088   35.0116 O   0  0  0  0  0  0  0  0  0  0  0  0
    0.4562   20.4355   34.7786 C   0  0  1  0  0  0  0  0  0  0  0  0
    1.6486   21.2900   34.4917 N   0  0  0  0  0  0  0  0  0  0  0  0
    2.1347   20.9907   33.1276 C   0  0  0  0  0  0  0  0  0  0  0  0
   -0.7886   20.9671   34.0050 C   0  0  2  0  0  0  0  0  0  0  0  0
   -0.5127   20.9188   32.6061 O   0  0  0  0  0  0  0  0  0  0  0  0
   -1.1155   22.4104   34.3801 C   0  0  0  0  0  0  0  0  0  0  0  0
   -2.0164   20.0541   34.3213 C   0  0  0  0  0  0  0  0  0  0  0  0
   -1.7314   18.6461   33.9734 O   0  0  0  0  0  0  0  0  0  0  0  0
  1  3  1  0  0  0  0
  1  2  1  6  0  0  0
  3  5  1  0  0  0  0
  3  4  1  6  0  0  0
  5  6  1  6  0  0  0
  7  8  1  6  0  0  0
  7  5  1  0  0  0  0
  9 10  1  1  0  0  0
  9  7  1  0  0  0  0
 10  1  1  0  0  0  0
 11 13  1  1  0  0  0
 11  9  1  0  0  0  0
 12 11  1  0  0  0  0
 14 15  1  1  0  0  0
 16 14  1  0  0  0  0
 17 18  1  1  0  0  0
 17 16  1  0  0  0  0
 19  2  1  6  0  0  0
 19 20  1  0  0  0  0
 19 17  1  0  0  0  0
 20 21  1  1  0  0  0
 20 22  1  0  0  0  0
 22 23  1  6  0  0  0
 22 14  1  0  0  0  0
 24 23  1  1  0  0  0
 24 25  1  0  0  0  0
 25 27  1  0  0  0  0
 25 26  1  1  0  0  0
 27 28  1  6  0  0  0
 28 29  1  0  0  0  0
 30 31  1  6  0  0  0
 30 32  1  0  0  0  0
 30 27  1  0  0  0  0
 33 30  1  0  0  0  0
 34 33  1  0  0  0  0
 34 24  1  0  0  0  0
M  END
>  <CHROM.1>
-157.24106925,179.48379296,-121.59526494,-81.15666884,-177.79071230,45.74843099
-2.62325725,16.00134601,35.34785512,-2.22648196,0.55684654,0.22868597

>  <Name>
lig.pdb

>  <RI>
0

>  <Rbt.Current_Directory>
/home/itssahil/PROJECTS/Mol_Feturizer/New_Systems/rnas/4k32

>  <Rbt.Executable>
rbdock ($Id: //depot/dev/client3/rdock/2013.1/src/exe/rbdock.cxx#4 $)

>  <Rbt.Library>
libRbt.so (2013.1, Build901 2013/11/27)

>  <Rbt.Parameter_File>
/export/apps/rDock/src/rDock_2013.1_src/data/scripts/dock_solv.prm

>  <Rbt.Receptor>
prm/pocket_docking_4.prm

>  <SCORE>
-2.8187

>  <SCORE.INTER>
-8.65979

>  <SCORE.INTER.CONST>
1

>  <SCORE.INTER.POLAR>
0

>  <SCORE.INTER.ROT>
6

>  <SCORE.INTER.SOLV>
17.1434

>  <SCORE.INTER.VDW>
-19.0877

>  <SCORE.INTER.norm>
-0.2547

>  <SCORE.INTRA>
5.84109

>  <SCORE.INTRA.DIHEDRAL>
-6.33957

>  <SCORE.INTRA.DIHEDRAL.0>
18.0069

>  <SCORE.INTRA.POLAR>
0

>  <SCORE.INTRA.POLAR.0>
0

>  <SCORE.INTRA.REPUL>
0

>  <SCORE.INTRA.REPUL.0>
0

>  <SCORE.INTRA.SOLV>
2.84357

>  <SCORE.INTRA.SOLV.lig_0>
-70.7393

>  <SCORE.INTRA.VDW>
7.5891

>  <SCORE.INTRA.VDW.0>
-3.23471

>  <SCORE.INTRA.norm>
0.171797

>  <SCORE.RESTR>
0

>  <SCORE.RESTR.CAVITY>
0

>  <SCORE.RESTR.norm>
0

>  <SCORE.SYSTEM>
0

>  <SCORE.SYSTEM.CONST>
0

>  <SCORE.SYSTEM.DIHEDRAL>
0

>  <SCORE.SYSTEM.SOLV>
0

>  <SCORE.SYSTEM.norm>
0

>  <SCORE.heavy>
34

>  <SCORE.norm>
-0.0829029

>  <RMSD>
8.867

$$$$
lig.pdb
 OpenBabel11021811503D
libRbt.so/2013.1/901 2013/11/27
 34 36  0  0  0  0  0  0  0  0999 V2000
   -4.9300   15.2728   36.2139 C   0  0  2  0  0  0  0  0  0  0  0  0
   -3.8743   15.0454   37.1541 O   0  0  0  0  0  0  0  0  0  0  0  0
   -6.2594   14.6142   36.7798 C   0  0  2  0  0  0  0  0  0  0  0  0
   -6.6545   15.2018   38.0811 N   0  0  0  0  0  0  0  0  0  0  0  0
   -6.0529   13.0860   36.9315 C   0  0  1  0  0  0  0  0  0  0  0  0
   -7.2430   12.4738   37.4339 O   0  0  0  0  0  0  0  0  0  0  0  0
   -5.6606   12.5062   35.5609 C   0  0  2  0  0  0  0  0  0  0  0  0
   -5.4706   11.0959   35.6858 O   0  0  0  0  0  0  0  0  0  0  0  0
   -4.3464   13.2075   35.0438 C   0  0  2  0  0  0  0  0  0  0  0  0
   -4.5408   14.6691   34.9353 O   0  0  0  0  0  0  0  0  0  0  0  0
   -3.9203   12.6671   33.6561 C   0  0  2  0  0  0  0  0  0  0  0  0
   -3.7061   11.2563   33.7308 O   0  0  0  0  0  0  0  0  0  0  0  0
   -2.6367   13.3285   33.1791 C   0  0  0  0  0  0  0  0  0  0  0  0
   -0.4440   17.5851   37.4683 C   0  0  2  0  0  0  0  0  0  0  0  0
    0.8993   18.1343   37.2679 N   0  0  0  0  0  0  0  0  0  0  0  0
   -0.2772   16.0892   37.8536 C   0  0  0  0  0  0  0  0  0  0  0  0
   -1.6913   15.4947   38.0943 C   0  0  2  0  0  0  0  0  0  0  0  0
   -1.5813   14.0759   38.4683 N   0  0  0  0  0  0  0  0  0  0  0  0
   -2.5704   15.6194   36.8210 C   0  0  2  0  0  0  0  0  0  0  0  0
   -2.6855   17.1258   36.4271 C   0  0  2  0  0  0  0  0  0  0  0  0
   -3.4883   17.2388   35.2441 O   0  0  0  0  0  0  0  0  0  0  0  0
   -1.2892   17.7259   36.1329 C   0  0  1  0  0  0  0  0  0  0  0  0
   -1.4822   19.1201   35.7884 O   0  0  0  0  0  0  0  0  0  0  0  0
   -1.9655   19.3834   34.4501 C   0  0  2  0  0  0  0  0  0  0  0  0
   -0.6881   19.6292   33.5639 C   0  0  2  0  0  0  0  0  0  0  0  0
    0.1339   18.4727   33.5721 O   0  0  0  0  0  0  0  0  0  0  0  0
    0.0910   20.8791   34.1239 C   0  0  1  0  0  0  0  0  0  0  0  0
    1.3206   21.1444   33.3165 N   0  0  0  0  0  0  0  0  0  0  0  0
    2.5050   20.7272   34.0974 C   0  0  0  0  0  0  0  0  0  0  0  0
   -0.8599   22.1139   34.0822 C   0  0  2  0  0  0  0  0  0  0  0  0
   -1.2402   22.3528   32.7279 O   0  0  0  0  0  0  0  0  0  0  0  0
   -0.1804   23.3712   34.6187 C   0  0  0  0  0  0  0  0  0  0  0  0
   -2.1355   21.8067   34.9304 C   0  0  0  0  0  0  0  0  0  0  0  0
   -2.8164   20.5902   34.4393 O   0  0  0  0  0  0  0  0  0  0  0  0
  1  3  1  0  0  0  0
  1  2  1  1  0  0  0
  3  5  1  0  0  0  0
  3  4  1  1  0  0  0
  5  6  1  6  0  0  0
  7  8  1  1  0  0  0
  7  5  1  0  0  0  0
  9 10  1  6  0  0  0
  9  7  1  0  0  0  0
 10  1  1  0  0  0  0
 11 13  1  1  0  0  0
 11  9  1  0  0  0  0
 12 11  1  0  0  0  0
 14 15  1  6  0  0  0
 16 14  1  0  0  0  0
 17 18  1  6  0  0  0
 17 16  1  0  0  0  0
 19  2  1  1  0  0  0
 19 20  1  0  0  0  0
 19 17  1  0  0  0  0
 20 21  1  6  0  0  0
 20 22  1  0  0  0  0
 22 23  1  1  0  0  0
 22 14  1  0  0  0  0
 24 23  1  1  0  0  0
 24 25  1  0  0  0  0
 25 27  1  0  0  0  0
 25 26  1  1  0  0  0
 27 28  1  6  0  0  0
 28 29  1  0  0  0  0
 30 31  1  6  0  0  0
 30 32  1  0  0  0  0
 30 27  1  0  0  0  0
 33 30  1  0  0  0  0
 34 33  1  0  0  0  0
 34 24  1  0  0  0  0
M  END
>  <CHROM.1>
-178.20965740,-58.58686107,168.74217294,166.42082765,-93.57244979,-106.07306939
-2.53369174,16.84618311,35.49507890,2.25459997,0.63307336,2.47675372

>  <Name>
lig.pdb

>  <RI>
0

>  <Rbt.Current_Directory>
/home/itssahil/PROJECTS/Mol_Feturizer/New_Systems/rnas/4k32

>  <Rbt.Executable>
rbdock ($Id: //depot/dev/client3/rdock/2013.1/src/exe/rbdock.cxx#4 $)

>  <Rbt.Library>
libRbt.so (2013.1, Build901 2013/11/27)

>  <Rbt.Parameter_File>
/export/apps/rDock/src/rDock_2013.1_src/data/scripts/dock_solv.prm

>  <Rbt.Receptor>
prm/pocket_docking_5.prm

>  <SCORE>
-10.6062

>  <SCORE.INTER>
-5.78866

>  <SCORE.INTER.CONST>
1

>  <SCORE.INTER.POLAR>
0

>  <SCORE.INTER.ROT>
6

>  <SCORE.INTER.SOLV>
18.2992

>  <SCORE.INTER.VDW>
-17.5588

>  <SCORE.INTER.norm>
-0.170255

>  <SCORE.INTRA>
-4.81752

>  <SCORE.INTRA.DIHEDRAL>
-11.1328

>  <SCORE.INTRA.DIHEDRAL.0>
18.0069

>  <SCORE.INTRA.POLAR>
0

>  <SCORE.INTRA.POLAR.0>
0

>  <SCORE.INTRA.REPUL>
0

>  <SCORE.INTRA.REPUL.0>
0

>  <SCORE.INTRA.SOLV>
-2.12859

>  <SCORE.INTRA.SOLV.lig_0>
-70.7393

>  <SCORE.INTRA.VDW>
1.81319

>  <SCORE.INTRA.VDW.0>
-3.23471

>  <SCORE.INTRA.norm>
-0.141692

>  <SCORE.RESTR>
0

>  <SCORE.RESTR.CAVITY>
0

>  <SCORE.RESTR.norm>
0

>  <SCORE.SYSTEM>
0

>  <SCORE.SYSTEM.CONST>
0

>  <SCORE.SYSTEM.DIHEDRAL>
0

>  <SCORE.SYSTEM.SOLV>
0

>  <SCORE.SYSTEM.norm>
0

>  <SCORE.heavy>
34

>  <SCORE.norm>
-0.311947

>  <RMSD>
8.939

$$$$
lig.pdb
 OpenBabel11021811503D
libRbt.so/2013.1/901 2013/11/27
 34 36  0  0  0  0  0  0  0  0999 V2000
   -5.8309   14.7535   37.3832 C   0  0  2  0  0  0  0  0  0  0  0  0
   -4.5065   14.3412   37.7386 O   0  0  0  0  0  0  0  0  0  0  0  0
   -6.8137   14.3699   38.5699 C   0  0  2  0  0  0  0  0  0  0  0  0
   -6.4366   15.0407   39.8359 N   0  0  0  0  0  0  0  0  0  0  0  0
   -6.8099   12.8328   38.7654 C   0  0  1  0  0  0  0  0  0  0  0  0
   -7.6954   12.4673   39.8264 O   0  0  0  0  0  0  0  0  0  0  0  0
   -7.2212   12.1692   37.4391 C   0  0  2  0  0  0  0  0  0  0  0  0
   -7.2255   10.7506   37.6064 O   0  0  0  0  0  0  0  0  0  0  0  0
   -6.2213   12.5982   36.2978 C   0  0  2  0  0  0  0  0  0  0  0  0
   -6.2047   14.0683   36.1415 O   0  0  0  0  0  0  0  0  0  0  0  0
   -6.6053   11.9666   34.9366 C   0  0  2  0  0  0  0  0  0  0  0  0
   -6.7738   10.5558   35.0877 O   0  0  0  0  0  0  0  0  0  0  0  0
   -5.5297   12.2179   33.8912 C   0  0  0  0  0  0  0  0  0  0  0  0
   -0.6973   14.5382   35.7977 C   0  0  2  0  0  0  0  0  0  0  0  0
    0.3559   14.3934   34.7897 N   0  0  0  0  0  0  0  0  0  0  0  0
   -1.3373   13.1370   35.9997 C   0  0  0  0  0  0  0  0  0  0  0  0
   -2.4415   13.2650   37.0839 C   0  0  2  0  0  0  0  0  0  0  0  0
   -3.0732   11.9560   37.3127 N   0  0  0  0  0  0  0  0  0  0  0  0
   -3.5276   14.2867   36.6525 C   0  0  2  0  0  0  0  0  0  0  0  0
   -2.8542   15.6745   36.4111 C   0  0  2  0  0  0  0  0  0  0  0  0
   -3.8567   16.6147   36.0016 O   0  0  0  0  0  0  0  0  0  0  0  0
   -1.7839   15.5803   35.2967 C   0  0  1  0  0  0  0  0  0  0  0  0
   -1.2029   16.8989   35.1434 O   0  0  0  0  0  0  0  0  0  0  0  0
   -0.7679   17.5476   36.3615 C   0  0  2  0  0  0  0  0  0  0  0  0
   -1.0776   19.0796   36.1763 C   0  0  2  0  0  0  0  0  0  0  0  0
   -2.4709   19.2703   35.9872 O   0  0  0  0  0  0  0  0  0  0  0  0
   -0.2615   19.6216   34.9422 C   0  0  1  0  0  0  0  0  0  0  0  0
   -0.5333   21.0748   34.7219 N   0  0  0  0  0  0  0  0  0  0  0  0
   -1.4739   21.2195   33.5900 C   0  0  0  0  0  0  0  0  0  0  0  0
    1.2563   19.3905   35.2131 C   0  0  2  0  0  0  0  0  0  0  0  0
    1.6264   20.1119   36.3871 O   0  0  0  0  0  0  0  0  0  0  0  0
    2.1204   19.8830   34.0550 C   0  0  0  0  0  0  0  0  0  0  0  0
    1.5093   17.8659   35.4424 C   0  0  0  0  0  0  0  0  0  0  0  0
    0.6831   17.3548   36.5563 O   0  0  0  0  0  0  0  0  0  0  0  0
  1  3  1  0  0  0  0
  1  2  1  1  0  0  0
  3  5  1  0  0  0  0
  3  4  1  1  0  0  0
  5  6  1  1  0  0  0
  7  8  1  1  0  0  0
  7  5  1  0  0  0  0
  9 10  1  6  0  0  0
  9  7  1  0  0  0  0
 10  1  1  0  0  0  0
 11 13  1  6  0  0  0
 11  9  1  0  0  0  0
 12 11  1  0  0  0  0
 14 15  1  6  0  0  0
 16 14  1  0  0  0  0
 17 18  1  6  0  0  0
 17 16  1  0  0  0  0
 19  2  1  1  0  0  0
 19 20  1  0  0  0  0
 19 17  1  0  0  0  0
 20 21  1  6  0  0  0
 20 22  1  0  0  0  0
 22 23  1  1  0  0  0
 22 14  1  0  0  0  0
 24 23  1  6  0  0  0
 24 25  1  0  0  0  0
 25 27  1  0  0  0  0
 25 26  1  6  0  0  0
 27 28  1  1  0  0  0
 28 29  1  0  0  0  0
 30 31  1  1  0  0  0
 30 32  1  0  0  0  0
 30 27  1  0  0  0  0
 33 30  1  0  0  0  0
 34 33  1  0  0  0  0
 34 24  1  0  0  0  0
M  END
>  <CHROM.1>
164.58171948,-51.49116282,-155.09932307,-66.55799362,-143.89164864,-102.31606827
-3.06646064,15.50267117,36.27314386,2.45046095,-0.46189644,-2.93970747

>  <Name>
lig.pdb

>  <RI>
0

>  <Rbt.Current_Directory>
/home/itssahil/PROJECTS/Mol_Feturizer/New_Systems/rnas/4k32

>  <Rbt.Executable>
rbdock ($Id: //depot/dev/client3/rdock/2013.1/src/exe/rbdock.cxx#4 $)

>  <Rbt.Library>
libRbt.so (2013.1, Build901 2013/11/27)

>  <Rbt.Parameter_File>
/export/apps/rDock/src/rDock_2013.1_src/data/scripts/dock_solv.prm

>  <Rbt.Receptor>
prm/pocket_docking_3.prm

>  <SCORE>
-8.65512

>  <SCORE.INTER>
-5.60458

>  <SCORE.INTER.CONST>
1

>  <SCORE.INTER.POLAR>
0

>  <SCORE.INTER.ROT>
6

>  <SCORE.INTER.SOLV>
19.4496

>  <SCORE.INTER.VDW>
-17.8196

>  <SCORE.INTER.norm>
-0.164841

>  <SCORE.INTRA>
-3.06881

>  <SCORE.INTRA.DIHEDRAL>
-8.01075

>  <SCORE.INTRA.DIHEDRAL.0>
18.0069

>  <SCORE.INTRA.POLAR>
0

>  <SCORE.INTRA.POLAR.0>
0

>  <SCORE.INTRA.REPUL>
0

>  <SCORE.INTRA.REPUL.0>
0

>  <SCORE.INTRA.SOLV>
0.581314

>  <SCORE.INTRA.SOLV.lig_0>
-70.7393

>  <SCORE.INTRA.VDW>
0.645906

>  <SCORE.INTRA.VDW.0>
-3.23471

>  <SCORE.INTRA.norm>
-0.0902592

>  <SCORE.RESTR>
0.0182767

>  <SCORE.RESTR.CAVITY>
0.0182767

>  <SCORE.RESTR.norm>
0.000537549

>  <SCORE.SYSTEM>
0

>  <SCORE.SYSTEM.CONST>
0

>  <SCORE.SYSTEM.DIHEDRAL>
0

>  <SCORE.SYSTEM.SOLV>
0

>  <SCORE.SYSTEM.norm>
0

>  <SCORE.heavy>
34

>  <SCORE.norm>
-0.254562

>  <RMSD>
8.963

$$$$
lig.pdb
 OpenBabel11021811503D
libRbt.so/2013.1/901 2013/11/27
 34 36  0  0  0  0  0  0  0  0999 V2000
   -5.8263   17.6127   37.8260 C   0  0  2  0  0  0  0  0  0  0  0  0
   -4.7834   17.5873   38.8068 O   0  0  0  0  0  0  0  0  0  0  0  0
   -7.0827   18.3603   38.4456 C   0  0  2  0  0  0  0  0  0  0  0  0
   -6.7610   19.7557   38.8256 N   0  0  0  0  0  0  0  0  0  0  0  0
   -7.5877   17.5788   39.6846 C   0  0  1  0  0  0  0  0  0  0  0  0
   -8.7243   18.2337   40.2527 O   0  0  0  0  0  0  0  0  0  0  0  0
   -7.9278   16.1415   39.2520 C   0  0  2  0  0  0  0  0  0  0  0  0
   -8.3988   15.4102   40.3851 O   0  0  0  0  0  0  0  0  0  0  0  0
   -6.6501   15.4568   38.6317 C   0  0  2  0  0  0  0  0  0  0  0  0
   -6.1539   16.2277   37.4718 O   0  0  0  0  0  0  0  0  0  0  0  0
   -6.9484   14.0102   38.1652 C   0  0  2  0  0  0  0  0  0  0  0  0
   -7.3370   13.2111   39.2842 O   0  0  0  0  0  0  0  0  0  0  0  0
   -5.7257   13.3781   37.5185 C   0  0  0  0  0  0  0  0  0  0  0  0
   -0.5506   17.0641   38.4510 C   0  0  2  0  0  0  0  0  0  0  0  0
    0.7547   16.4592   38.1744 N   0  0  0  0  0  0  0  0  0  0  0  0
   -1.3289   16.0809   39.3683 C   0  0  0  0  0  0  0  0  0  0  0  0
   -2.7079   16.7164   39.6930 C   0  0  2  0  0  0  0  0  0  0  0  0
   -3.4798   15.8191   40.5671 N   0  0  0  0  0  0  0  0  0  0  0  0
   -3.5162   16.9827   38.3948 C   0  0  2  0  0  0  0  0  0  0  0  0
   -2.6949   17.9354   37.4698 C   0  0  2  0  0  0  0  0  0  0  0  0
   -3.4375   18.1715   36.2660 O   0  0  0  0  0  0  0  0  0  0  0  0
   -1.3355   17.2984   37.0921 C   0  0  1  0  0  0  0  0  0  0  0  0
   -0.6350   18.2448   36.2475 O   0  0  0  0  0  0  0  0  0  0  0  0
   -0.5720   17.9157   34.8399 C   0  0  2  0  0  0  0  0  0  0  0  0
    0.6232   18.7514   34.2479 C   0  0  2  0  0  0  0  0  0  0  0  0
    1.8328   18.3864   34.8937 O   0  0  0  0  0  0  0  0  0  0  0  0
    0.3209   20.2856   34.4416 C   0  0  1  0  0  0  0  0  0  0  0  0
    1.4375   21.1197   33.9015 N   0  0  0  0  0  0  0  0  0  0  0  0
    2.2780   21.5812   35.0272 C   0  0  0  0  0  0  0  0  0  0  0  0
   -1.0113   20.6238   33.7059 C   0  0  2  0  0  0  0  0  0  0  0  0
   -0.8522   20.3378   32.3172 O   0  0  0  0  0  0  0  0  0  0  0  0
   -1.3819   22.0974   33.8529 C   0  0  0  0  0  0  0  0  0  0  0  0
   -2.1576   19.7361   34.2882 C   0  0  0  0  0  0  0  0  0  0  0  0
   -1.8282   18.3004   34.1655 O   0  0  0  0  0  0  0  0  0  0  0  0
  1  3  1  0  0  0  0
  1  2  1  1  0  0  0
  3  5  1  0  0  0  0
  3  4  1  1  0  0  0
  5  6  1  6  0  0  0
  7  8  1  1  0  0  0
  7  5  1  0  0  0  0
  9 10  1  6  0  0  0
  9  7  1  0  0  0  0
 10  1  1  0  0  0  0
 11 13  1  1  0  0  0
 11  9  1  0  0  0  0
 12 11  1  0  0  0  0
 14 15  1  6  0  0  0
 16 14  1  0  0  0  0
 17 18  1  1  0  0  0
 17 16  1  0  0  0  0
 19  2  1  1  0  0  0
 19 20  1  0  0  0  0
 19 17  1  0  0  0  0
 20 21  1  6  0  0  0
 20 22  1  0  0  0  0
 22 23  1  6  0  0  0
 22 14  1  0  0  0  0
 24 23  1  1  0  0  0
 24 25  1  0  0  0  0
 25 27  1  0  0  0  0
 25 26  1  1  0  0  0
 27 28  1  6  0  0  0
 28 29  1  0  0  0  0
 30 31  1  6  0  0  0
 30 32  1  0  0  0  0
 30 27  1  0  0  0  0
 33 30  1  0  0  0  0
 34 33  1  0  0  0  0
 34 24  1  0  0  0  0
M  END
>  <CHROM.1>
-177.53689837,-62.02825775,-164.73424348,137.76682066,-160.01342032,-101.30459022
-3.25651083,17.72714821,37.10112273,2.46156976,-0.19978662,2.49810550

>  <Name>
lig.pdb

>  <RI>
0

>  <Rbt.Current_Directory>
/home/itssahil/PROJECTS/Mol_Feturizer/New_Systems/rnas/4k32

>  <Rbt.Executable>
rbdock ($Id: //depot/dev/client3/rdock/2013.1/src/exe/rbdock.cxx#4 $)

>  <Rbt.Library>
libRbt.so (2013.1, Build901 2013/11/27)

>  <Rbt.Parameter_File>
/export/apps/rDock/src/rDock_2013.1_src/data/scripts/dock_solv.prm

>  <Rbt.Receptor>
prm/pocket_docking_4.prm

>  <SCORE>
-14.1157

>  <SCORE.INTER>
-9.10053

>  <SCORE.INTER.CONST>
1

>  <SCORE.INTER.POLAR>
0

>  <SCORE.INTER.ROT>
6

>  <SCORE.INTER.SOLV>
18.8838

>  <SCORE.INTER.VDW>
-19.9616

>  <SCORE.INTER.norm>
-0.267663

>  <SCORE.INTRA>
-5.01514

>  <SCORE.INTRA.DIHEDRAL>
-8.40265

>  <SCORE.INTRA.DIHEDRAL.0>
18.0069

>  <SCORE.INTRA.POLAR>
0

>  <SCORE.INTRA.POLAR.0>
0

>  <SCORE.INTRA.REPUL>
0

>  <SCORE.INTRA.REPUL.0>
0

>  <SCORE.INTRA.SOLV>
-1.89618

>  <SCORE.INTRA.SOLV.lig_0>
-70.7393

>  <SCORE.INTRA.VDW>
0.13427

>  <SCORE.INTRA.VDW.0>
-3.23471

>  <SCORE.INTRA.norm>
-0.147504

>  <SCORE.RESTR>
0

>  <SCORE.RESTR.CAVITY>
0

>  <SCORE.RESTR.norm>
0

>  <SCORE.SYSTEM>
0

>  <SCORE.SYSTEM.CONST>
0

>  <SCORE.SYSTEM.DIHEDRAL>
0

>  <SCORE.SYSTEM.SOLV>
0

>  <SCORE.SYSTEM.norm>
0

>  <SCORE.heavy>
34

>  <SCORE.norm>
-0.415167

>  <RMSD>
8.971

$$$$
lig.pdb
 OpenBabel11021811503D
libRbt.so/2013.1/901 2013/11/27
 34 36  0  0  0  0  0  0  0  0999 V2000
   -1.5998   15.5585   37.4036 C   0  0  2  0  0  0  0  0  0  0  0  0
   -1.3311   15.4727   35.9998 O   0  0  0  0  0  0  0  0  0  0  0  0
   -2.5038   14.3214   37.8202 C   0  0  2  0  0  0  0  0  0  0  0  0
   -1.8296   13.0304   37.5488 N   0  0  0  0  0  0  0  0  0  0  0  0
   -3.8492   14.3855   37.0543 C   0  0  1  0  0  0  0  0  0  0  0  0
   -4.6805   13.2822   37.4220 O   0  0  0  0  0  0  0  0  0  0  0  0
   -4.5297   15.7292   37.3710 C   0  0  2  0  0  0  0  0  0  0  0  0
   -5.7742   15.8000   36.6735 O   0  0  0  0  0  0  0  0  0  0  0  0
   -3.5811   16.9170   36.9516 C   0  0  2  0  0  0  0  0  0  0  0  0
   -2.2866   16.8286   37.6604 O   0  0  0  0  0  0  0  0  0  0  0  0
   -4.2177   18.2933   37.2671 C   0  0  2  0  0  0  0  0  0  0  0  0
   -3.3115   19.3391   36.9111 O   0  0  0  0  0  0  0  0  0  0  0  0
   -4.5484   18.4199   38.7461 C   0  0  0  0  0  0  0  0  0  0  0  0
    1.0609   19.0187   35.8569 C   0  0  2  0  0  0  0  0  0  0  0  0
    2.0251   20.0252   35.4057 N   0  0  0  0  0  0  0  0  0  0  0  0
    1.7937   17.6487   35.8620 C   0  0  0  0  0  0  0  0  0  0  0  0
    0.7936   16.5710   36.3615 C   0  0  2  0  0  0  0  0  0  0  0  0
    1.4485   15.2537   36.3880 N   0  0  0  0  0  0  0  0  0  0  0  0
   -0.4539   16.5015   35.4403 C   0  0  2  0  0  0  0  0  0  0  0  0
   -1.1467   17.9005   35.4147 C   0  0  2  0  0  0  0  0  0  0  0  0
   -2.2924   17.8382   34.5544 O   0  0  0  0  0  0  0  0  0  0  0  0
   -0.1820   18.9823   34.8713 C   0  0  1  0  0  0  0  0  0  0  0  0
   -0.8937   20.2445   34.8906 O   0  0  0  0  0  0  0  0  0  0  0  0
   -1.9809   20.3760   33.9449 C   0  0  2  0  0  0  0  0  0  0  0  0
   -1.3131   20.5062   32.5256 C   0  0  2  0  0  0  0  0  0  0  0  0
   -0.5521   19.3426   32.2424 O   0  0  0  0  0  0  0  0  0  0  0  0
   -0.4049   21.7936   32.5030 C   0  0  1  0  0  0  0  0  0  0  0  0
    0.2594   21.9522   31.1734 N   0  0  0  0  0  0  0  0  0  0  0  0
    1.7172   21.7702   31.3420 C   0  0  0  0  0  0  0  0  0  0  0  0
   -1.2973   23.0338   32.8128 C   0  0  2  0  0  0  0  0  0  0  0  0
   -2.3019   23.1377   31.8049 O   0  0  0  0  0  0  0  0  0  0  0  0
   -0.4875   24.3279   32.8182 C   0  0  0  0  0  0  0  0  0  0  0  0
   -1.9800   22.8386   34.2045 C   0  0  0  0  0  0  0  0  0  0  0  0
   -2.7702   21.5899   34.2350 O   0  0  0  0  0  0  0  0  0  0  0  0
  1  3  1  0  0  0  0
  1  2  1  6  0  0  0
  3  5  1  0  0  0  0
  3  4  1  6  0  0  0
  5  6  1  1  0  0  0
  7  8  1  6  0  0  0
  7  5  1  0  0  0  0
  9 10  1  1  0  0  0
  9  7  1  0  0  0  0
 10  1  1  0  0  0  0
 11 13  1  1  0  0  0
 11  9  1  0  0  0  0
 12 11  1  0  0  0  0
 14 15  1  6  0  0  0
 16 14  1  0  0  0  0
 17 18  1  6  0  0  0
 17 16  1  0  0  0  0
 19  2  1  1  0  0  0
 19 20  1  0  0  0  0
 19 17  1  0  0  0  0
 20 21  1  6  0  0  0
 20 22  1  0  0  0  0
 22 23  1  1  0  0  0
 22 14  1  0  0  0  0
 24 23  1  1  0  0  0
 24 25  1  0  0  0  0
 25 27  1  0  0  0  0
 25 26  1  1  0  0  0
 27 28  1  6  0  0  0
 28 29  1  0  0  0  0
 30 31  1  6  0  0  0
 30 32  1  0  0  0  0
 30 27  1  0  0  0  0
 33 30  1  0  0  0  0
 34 33  1  0  0  0  0
 34 24  1  0  0  0  0
M  END
>  <CHROM.1>
-177.25967835,178.21665887,49.14279478,174.82330572,-71.72401749,-113.38272432
-1.59638868,18.48859059,35.26710738,-1.87429547,0.26049731,-0.50507861

>  <Name>
lig.pdb

>  <RI>
0

>  <Rbt.Current_Directory>
/home/itssahil/PROJECTS/Mol_Feturizer/New_Systems/rnas/4k32

>  <Rbt.Executable>
rbdock ($Id: //depot/dev/client3/rdock/2013.1/src/exe/rbdock.cxx#4 $)

>  <Rbt.Library>
libRbt.so (2013.1, Build901 2013/11/27)

>  <Rbt.Parameter_File>
/export/apps/rDock/src/rDock_2013.1_src/data/scripts/dock_solv.prm

>  <Rbt.Receptor>
prm/pocket_docking_4.prm

>  <SCORE>
-14.6329

>  <SCORE.INTER>
-10.0638

>  <SCORE.INTER.CONST>
1

>  <SCORE.INTER.POLAR>
0

>  <SCORE.INTER.ROT>
6

>  <SCORE.INTER.SOLV>
19.7564

>  <SCORE.INTER.VDW>
-20.8947

>  <SCORE.INTER.norm>
-0.295994

>  <SCORE.INTRA>
-4.68079

>  <SCORE.INTRA.DIHEDRAL>
-15.3735

>  <SCORE.INTRA.DIHEDRAL.0>
18.0069

>  <SCORE.INTRA.POLAR>
0

>  <SCORE.INTRA.POLAR.0>
0

>  <SCORE.INTRA.REPUL>
0

>  <SCORE.INTRA.REPUL.0>
0

>  <SCORE.INTRA.SOLV>
0.220789

>  <SCORE.INTRA.SOLV.lig_0>
-70.7393

>  <SCORE.INTRA.VDW>
2.89554

>  <SCORE.INTRA.VDW.0>
-3.23471

>  <SCORE.INTRA.norm>
-0.13767

>  <SCORE.RESTR>
0.111692

>  <SCORE.RESTR.CAVITY>
0.111692

>  <SCORE.RESTR.norm>
0.00328504

>  <SCORE.SYSTEM>
0

>  <SCORE.SYSTEM.CONST>
0

>  <SCORE.SYSTEM.DIHEDRAL>
0

>  <SCORE.SYSTEM.SOLV>
0

>  <SCORE.SYSTEM.norm>
0

>  <SCORE.heavy>
34

>  <SCORE.norm>
-0.430379

>  <RMSD>
8.981

$$$$
lig.pdb
 OpenBabel11021811503D
libRbt.so/2013.1/901 2013/11/27
 34 36  0  0  0  0  0  0  0  0999 V2000
   -1.3949   15.5072   37.5816 C   0  0  2  0  0  0  0  0  0  0  0  0
   -1.2724   15.4634   36.1557 O   0  0  0  0  0  0  0  0  0  0  0  0
   -2.1595   14.2012   38.0621 C   0  0  2  0  0  0  0  0  0  0  0  0
   -1.4284   12.9672   37.6910 N   0  0  0  0  0  0  0  0  0  0  0  0
   -3.5802   14.1792   37.4440 C   0  0  1  0  0  0  0  0  0  0  0  0
   -4.2872   13.0126   37.8713 O   0  0  0  0  0  0  0  0  0  0  0  0
   -4.3162   15.4646   37.8620 C   0  0  2  0  0  0  0  0  0  0  0  0
   -5.6301   15.4555   37.3015 O   0  0  0  0  0  0  0  0  0  0  0  0
   -3.5044   16.7248   37.3730 C   0  0  2  0  0  0  0  0  0  0  0  0
   -2.1386   16.7197   37.9391 O   0  0  0  0  0  0  0  0  0  0  0  0
   -4.1994   18.0459   37.7860 C   0  0  2  0  0  0  0  0  0  0  0  0
   -5.4659   18.1515   37.1329 O   0  0  0  0  0  0  0  0  0  0  0  0
   -3.3555   19.2529   37.4067 C   0  0  0  0  0  0  0  0  0  0  0  0
    1.0876   19.0211   35.8550 C   0  0  2  0  0  0  0  0  0  0  0  0
    2.0231   20.0270   35.3461 N   0  0  0  0  0  0  0  0  0  0  0  0
    1.8285   17.6555   35.8437 C   0  0  0  0  0  0  0  0  0  0  0  0
    0.8598   16.5787   36.4033 C   0  0  2  0  0  0  0  0  0  0  0  0
    1.5237   15.2657   36.4163 N   0  0  0  0  0  0  0  0  0  0  0  0
   -0.4289   16.4898   35.5425 C   0  0  2  0  0  0  0  0  0  0  0  0
   -1.1311   17.8842   35.5312 C   0  0  2  0  0  0  0  0  0  0  0  0
   -2.3153   17.8038   34.7263 O   0  0  0  0  0  0  0  0  0  0  0  0
   -0.1998   18.9644   34.9292 C   0  0  1  0  0  0  0  0  0  0  0  0
   -0.9179   20.2225   34.9654 O   0  0  0  0  0  0  0  0  0  0  0  0
   -1.9986   20.3655   34.0139 C   0  0  2  0  0  0  0  0  0  0  0  0
   -1.3205   20.6166   32.6159 C   0  0  2  0  0  0  0  0  0  0  0  0
   -0.5036   19.5091   32.2705 O   0  0  0  0  0  0  0  0  0  0  0  0
   -0.4722   21.9424   32.6888 C   0  0  1  0  0  0  0  0  0  0  0  0
    0.2000   22.2159   31.3821 N   0  0  0  0  0  0  0  0  0  0  0  0
    1.6197   21.8140   31.4808 C   0  0  0  0  0  0  0  0  0  0  0  0
   -1.4242   23.1187   33.0637 C   0  0  2  0  0  0  0  0  0  0  0  0
   -2.4203   23.2418   32.0497 O   0  0  0  0  0  0  0  0  0  0  0  0
   -0.6748   24.4449   33.1636 C   0  0  0  0  0  0  0  0  0  0  0  0
   -2.1138   22.8038   34.4298 C   0  0  0  0  0  0  0  0  0  0  0  0
   -2.8462   21.5214   34.3689 O   0  0  0  0  0  0  0  0  0  0  0  0
  1  3  1  0  0  0  0
  1  2  1  6  0  0  0
  3  5  1  0  0  0  0
  3  4  1  6  0  0  0
  5  6  1  1  0  0  0
  7  8  1  6  0  0  0
  7  5  1  0  0  0  0
  9 10  1  1  0  0  0
  9  7  1  0  0  0  0
 10  1  1  0  0  0  0
 11 13  1  6  0  0  0
 11  9  1  0  0  0  0
 12 11  1  0  0  0  0
 14 15  1  6  0  0  0
 16 14  1  0  0  0  0
 17 18  1  6  0  0  0
 17 16  1  0  0  0  0
 19  2  1  1  0  0  0
 19 20  1  0  0  0  0
 19 17  1  0  0  0  0
 20 21  1  6  0  0  0
 20 22  1  0  0  0  0
 22 23  1  1  0  0  0
 22 14  1  0  0  0  0
 24 23  1  1  0  0  0
 24 25  1  0  0  0  0
 25 27  1  0  0  0  0
 25 26  1  1  0  0  0
 27 28  1  6  0  0  0
 28 29  1  0  0  0  0
 30 31  1  6  0  0  0
 30 32  1  0  0  0  0
 30 27  1  0  0  0  0
 33 30  1  0  0  0  0
 34 33  1  0  0  0  0
 34 24  1  0  0  0  0
M  END
>  <CHROM.1>
-171.62193115,-64.23572355,44.63791385,171.24305381,-75.27069724,-101.49456970
-1.58424297,18.44487139,35.41916813,-1.84015198,0.25638035,-0.50502563

>  <Name>
lig.pdb

>  <RI>
0

>  <Rbt.Current_Directory>
/home/itssahil/PROJECTS/Mol_Feturizer/New_Systems/rnas/4k32

>  <Rbt.Executable>
rbdock ($Id: //depot/dev/client3/rdock/2013.1/src/exe/rbdock.cxx#4 $)

>  <Rbt.Library>
libRbt.so (2013.1, Build901 2013/11/27)

>  <Rbt.Parameter_File>
/export/apps/rDock/src/rDock_2013.1_src/data/scripts/dock_solv.prm

>  <Rbt.Receptor>
prm/pocket_docking_7.prm

>  <SCORE>
-14.2093

>  <SCORE.INTER>
-9.14325

>  <SCORE.INTER.CONST>
1

>  <SCORE.INTER.POLAR>
0

>  <SCORE.INTER.ROT>
6

>  <SCORE.INTER.SOLV>
19.3957

>  <SCORE.INTER.VDW>
-20.1607

>  <SCORE.INTER.norm>
-0.268919

>  <SCORE.INTRA>
-5.06609

>  <SCORE.INTRA.DIHEDRAL>
-14.0373

>  <SCORE.INTRA.DIHEDRAL.0>
18.0069

>  <SCORE.INTRA.POLAR>
0

>  <SCORE.INTRA.POLAR.0>
0

>  <SCORE.INTRA.REPUL>
0

>  <SCORE.INTRA.REPUL.0>
0

>  <SCORE.INTRA.SOLV>
0.206787

>  <SCORE.INTRA.SOLV.lig_0>
-70.7393

>  <SCORE.INTRA.VDW>
1.84915

>  <SCORE.INTRA.VDW.0>
-3.23471

>  <SCORE.INTRA.norm>
-0.149003

>  <SCORE.RESTR>
0

>  <SCORE.RESTR.CAVITY>
0

>  <SCORE.RESTR.norm>
0

>  <SCORE.SYSTEM>
0

>  <SCORE.SYSTEM.CONST>
0

>  <SCORE.SYSTEM.DIHEDRAL>
0

>  <SCORE.SYSTEM.SOLV>
0

>  <SCORE.SYSTEM.norm>
0

>  <SCORE.heavy>
34

>  <SCORE.norm>
-0.417922

>  <RMSD>
8.988

$$$$
lig.pdb
 OpenBabel11021811503D
libRbt.so/2013.1/901 2013/11/27
 34 36  0  0  0  0  0  0  0  0999 V2000
   -1.5987   15.5306   37.3674 C   0  0  2  0  0  0  0  0  0  0  0  0
   -1.3434   15.4724   35.9597 O   0  0  0  0  0  0  0  0  0  0  0  0
   -2.4980   14.2849   37.7684 C   0  0  2  0  0  0  0  0  0  0  0  0
   -1.8257   12.9999   37.4654 N   0  0  0  0  0  0  0  0  0  0  0  0
   -3.8507   14.3631   37.0167 C   0  0  1  0  0  0  0  0  0  0  0  0
   -4.6779   13.2522   37.3707 O   0  0  0  0  0  0  0  0  0  0  0  0
   -4.5288   15.6998   37.3661 C   0  0  2  0  0  0  0  0  0  0  0  0
   -5.7800   15.7834   36.6820 O   0  0  0  0  0  0  0  0  0  0  0  0
   -3.5850   16.8962   36.9610 C   0  0  2  0  0  0  0  0  0  0  0  0
   -2.2837   16.7949   37.6555 O   0  0  0  0  0  0  0  0  0  0  0  0
   -4.2193   18.2657   37.3094 C   0  0  2  0  0  0  0  0  0  0  0  0
   -3.3210   19.3193   36.9563 O   0  0  0  0  0  0  0  0  0  0  0  0
   -4.5263   18.3671   38.7954 C   0  0  0  0  0  0  0  0  0  0  0  0
    1.0381   19.0271   35.8617 C   0  0  2  0  0  0  0  0  0  0  0  0
    1.9958   20.0443   35.4208 N   0  0  0  0  0  0  0  0  0  0  0  0
    1.7744   17.6592   35.8352 C   0  0  0  0  0  0  0  0  0  0  0  0
    0.7815   16.5697   36.3233 C   0  0  2  0  0  0  0  0  0  0  0  0
    1.4400   15.2539   36.3198 N   0  0  0  0  0  0  0  0  0  0  0  0
   -0.4737   16.5138   35.4118 C   0  0  2  0  0  0  0  0  0  0  0  0
   -1.1703   17.9110   35.4180 C   0  0  2  0  0  0  0  0  0  0  0  0
   -2.3233   17.8615   34.5666 O   0  0  0  0  0  0  0  0  0  0  0  0
   -0.2132   19.0054   34.8863 C   0  0  1  0  0  0  0  0  0  0  0  0
   -0.9280   20.2650   34.9351 O   0  0  0  0  0  0  0  0  0  0  0  0
   -1.9967   20.4274   33.9733 C   0  0  2  0  0  0  0  0  0  0  0  0
   -1.3010   20.6923   32.5865 C   0  0  2  0  0  0  0  0  0  0  0  0
   -0.4872   19.5840   32.2361 O   0  0  0  0  0  0  0  0  0  0  0  0
   -0.4451   22.0115   32.6865 C   0  0  1  0  0  0  0  0  0  0  0  0
    0.2438   22.2976   31.3912 N   0  0  0  0  0  0  0  0  0  0  0  0
    1.6392   21.8153   31.4746 C   0  0  0  0  0  0  0  0  0  0  0  0
   -1.3940   23.1889   33.0658 C   0  0  2  0  0  0  0  0  0  0  0  0
   -2.3775   23.3317   32.0422 O   0  0  0  0  0  0  0  0  0  0  0  0
   -0.6373   24.5088   33.1916 C   0  0  0  0  0  0  0  0  0  0  0  0
   -2.1013   22.8608   34.4197 C   0  0  0  0  0  0  0  0  0  0  0  0
   -2.8410   21.5841   34.3337 O   0  0  0  0  0  0  0  0  0  0  0  0
  1  3  1  0  0  0  0
  1  2  1  6  0  0  0
  3  5  1  0  0  0  0
  3  4  1  6  0  0  0
  5  6  1  1  0  0  0
  7  8  1  6  0  0  0
  7  5  1  0  0  0  0
  9 10  1  1  0  0  0
  9  7  1  0  0  0  0
 10  1  1  0  0  0  0
 11 13  1  1  0  0  0
 11  9  1  0  0  0  0
 12 11  1  0  0  0  0
 14 15  1  6  0  0  0
 16 14  1  0  0  0  0
 17 18  1  6  0  0  0
 17 16  1  0  0  0  0
 19  2  1  1  0  0  0
 19 20  1  0  0  0  0
 19 17  1  0  0  0  0
 20 21  1  6  0  0  0
 20 22  1  0  0  0  0
 22 23  1  1  0  0  0
 22 14  1  0  0  0  0
 24 23  1  1  0  0  0
 24 25  1  0  0  0  0
 25 27  1  0  0  0  0
 25 26  1  1  0  0  0
 27 28  1  6  0  0  0
 28 29  1  0  0  0  0
 30 31  1  6  0  0  0
 30 32  1  0  0  0  0
 30 27  1  0  0  0  0
 33 30  1  0  0  0  0
 34 33  1  0  0  0  0
 34 24  1  0  0  0  0
M  END
>  <CHROM.1>
-177.34980129,178.64011512,49.06597168,172.95846249,-74.97950166,-98.32085271
-1.62040333,18.53005708,35.31391529,-1.86552398,0.27350614,-0.47184107

>  <Name>
lig.pdb

>  <RI>
0

>  <Rbt.Current_Directory>
/home/itssahil/PROJECTS/Mol_Feturizer/New_Systems/rnas/4k32

>  <Rbt.Executable>
rbdock ($Id: //depot/dev/client3/rdock/2013.1/src/exe/rbdock.cxx#4 $)

>  <Rbt.Library>
libRbt.so (2013.1, Build901 2013/11/27)

>  <Rbt.Parameter_File>
/export/apps/rDock/src/rDock_2013.1_src/data/scripts/dock_solv.prm

>  <Rbt.Receptor>
prm/pocket_docking_5.prm

>  <SCORE>
-15.0631

>  <SCORE.INTER>
-10.2401

>  <SCORE.INTER.CONST>
1

>  <SCORE.INTER.POLAR>
0

>  <SCORE.INTER.ROT>
6

>  <SCORE.INTER.SOLV>
19.3054

>  <SCORE.INTER.VDW>
-20.8618

>  <SCORE.INTER.norm>
-0.301178

>  <SCORE.INTRA>
-4.82308

>  <SCORE.INTRA.DIHEDRAL>
-15.1807

>  <SCORE.INTRA.DIHEDRAL.0>
18.0069

>  <SCORE.INTRA.POLAR>
0

>  <SCORE.INTRA.POLAR.0>
0

>  <SCORE.INTRA.REPUL>
0

>  <SCORE.INTRA.REPUL.0>
0

>  <SCORE.INTRA.SOLV>
0.342223

>  <SCORE.INTRA.SOLV.lig_0>
-70.7393

>  <SCORE.INTRA.VDW>
2.59615

>  <SCORE.INTRA.VDW.0>
-3.23471

>  <SCORE.INTRA.norm>
-0.141855

>  <SCORE.RESTR>
0

>  <SCORE.RESTR.CAVITY>
0

>  <SCORE.RESTR.norm>
0

>  <SCORE.SYSTEM>
0

>  <SCORE.SYSTEM.CONST>
0

>  <SCORE.SYSTEM.DIHEDRAL>
0

>  <SCORE.SYSTEM.SOLV>
0

>  <SCORE.SYSTEM.norm>
0

>  <SCORE.heavy>
34

>  <SCORE.norm>
-0.443034

>  <RMSD>
9.000

$$$$
lig.pdb
 OpenBabel11021811503D
libRbt.so/2013.1/901 2013/11/27
 34 36  0  0  0  0  0  0  0  0999 V2000
   -1.6126   15.5532   37.3089 C   0  0  2  0  0  0  0  0  0  0  0  0
   -1.3131   15.4804   35.9106 O   0  0  0  0  0  0  0  0  0  0  0  0
   -2.5170   14.3069   37.6962 C   0  0  2  0  0  0  0  0  0  0  0  0
   -1.8284   13.0225   37.4293 N   0  0  0  0  0  0  0  0  0  0  0  0
   -3.8460   14.3683   36.9019 C   0  0  1  0  0  0  0  0  0  0  0  0
   -4.6775   13.2566   37.2429 O   0  0  0  0  0  0  0  0  0  0  0  0
   -4.5422   15.7048   37.2143 C   0  0  2  0  0  0  0  0  0  0  0  0
   -5.7719   15.7730   36.4906 O   0  0  0  0  0  0  0  0  0  0  0  0
   -3.5929   16.9021   36.8249 C   0  0  2  0  0  0  0  0  0  0  0  0
   -2.3134   16.8166   37.5607 O   0  0  0  0  0  0  0  0  0  0  0  0
   -4.2454   18.2717   37.1373 C   0  0  2  0  0  0  0  0  0  0  0  0
   -3.3406   19.3264   36.8046 O   0  0  0  0  0  0  0  0  0  0  0  0
   -4.6040   18.3864   38.6107 C   0  0  0  0  0  0  0  0  0  0  0  0
    1.0324   19.0595   35.8441 C   0  0  2  0  0  0  0  0  0  0  0  0
    1.9853   20.0867   35.4161 N   0  0  0  0  0  0  0  0  0  0  0  0
    1.7832   17.6994   35.8280 C   0  0  0  0  0  0  0  0  0  0  0  0
    0.7951   16.5997   36.3028 C   0  0  2  0  0  0  0  0  0  0  0  0
    1.4672   15.2908   36.3087 N   0  0  0  0  0  0  0  0  0  0  0  0
   -0.4470   16.5306   35.3743 C   0  0  2  0  0  0  0  0  0  0  0  0
   -1.1581   17.9206   35.3707 C   0  0  2  0  0  0  0  0  0  0  0  0
   -2.2988   17.8590   34.5038 O   0  0  0  0  0  0  0  0  0  0  0  0
   -0.2053   19.0248   34.8519 C   0  0  1  0  0  0  0  0  0  0  0  0
   -0.9337   20.2769   34.8907 O   0  0  0  0  0  0  0  0  0  0  0  0
   -1.9912   20.4278   33.9147 C   0  0  2  0  0  0  0  0  0  0  0  0
   -1.2805   20.7137   32.5397 C   0  0  2  0  0  0  0  0  0  0  0  0
   -0.4432   19.6216   32.1938 O   0  0  0  0  0  0  0  0  0  0  0  0
   -0.4485   22.0463   32.6606 C   0  0  1  0  0  0  0  0  0  0  0  0
    0.2538   22.3526   31.3771 N   0  0  0  0  0  0  0  0  0  0  0  0
    1.6563   21.8947   31.4779 C   0  0  0  0  0  0  0  0  0  0  0  0
   -1.4223   23.2051   33.0339 C   0  0  2  0  0  0  0  0  0  0  0  0
   -2.3935   23.3383   31.9972 O   0  0  0  0  0  0  0  0  0  0  0  0
   -0.6899   24.5366   33.1791 C   0  0  0  0  0  0  0  0  0  0  0  0
   -2.1431   22.8561   34.3754 C   0  0  0  0  0  0  0  0  0  0  0  0
   -2.8599   21.5678   34.2705 O   0  0  0  0  0  0  0  0  0  0  0  0
  1  3  1  0  0  0  0
  1  2  1  6  0  0  0
  3  5  1  0  0  0  0
  3  4  1  6  0  0  0
  5  6  1  1  0  0  0
  7  8  1  6  0  0  0
  7  5  1  0  0  0  0
  9 10  1  1  0  0  0
  9  7  1  0  0  0  0
 10  1  1  0  0  0  0
 11 13  1  1  0  0  0
 11  9  1  0  0  0  0
 12 11  1  0  0  0  0
 14 15  1  6  0  0  0
 16 14  1  0  0  0  0
 17 18  1  6  0  0  0
 17 16  1  0  0  0  0
 19  2  1  1  0  0  0
 19 20  1  0  0  0  0
 19 17  1  0  0  0  0
 20 21  1  6  0  0  0
 20 22  1  0  0  0  0
 22 23  1  1  0  0  0
 22 14  1  0  0  0  0
 24 23  1  1  0  0  0
 24 25  1  0  0  0  0
 25 27  1  0  0  0  0
 25 26  1  1  0  0  0
 27 28  1  6  0  0  0
 28 29  1  0  0  0  0
 30 31  1  6  0  0  0
 30 32  1  0  0  0  0
 30 27  1  0  0  0  0
 33 30  1  0  0  0  0
 34 33  1  0  0  0  0
 34 24  1  0  0  0  0
M  END
>  <CHROM.1>
-178.13277511,178.42765387,50.42676190,172.98501405,-75.52616327,-98.38847210
-1.62425810,18.54845616,35.24804315,-1.86220424,0.24531446,-0.47107288

>  <Name>
lig.pdb

>  <RI>
0

>  <Rbt.Current_Directory>
/home/itssahil/PROJECTS/Mol_Feturizer/New_Systems/rnas/4k32

>  <Rbt.Executable>
rbdock ($Id: //depot/dev/client3/rdock/2013.1/src/exe/rbdock.cxx#4 $)

>  <Rbt.Library>
libRbt.so (2013.1, Build901 2013/11/27)

>  <Rbt.Parameter_File>
/export/apps/rDock/src/rDock_2013.1_src/data/scripts/dock_solv.prm

>  <Rbt.Receptor>
prm/pocket_docking_5.prm

>  <SCORE>
-14.9596

>  <SCORE.INTER>
-10.2133

>  <SCORE.INTER.CONST>
1

>  <SCORE.INTER.POLAR>
0

>  <SCORE.INTER.ROT>
6

>  <SCORE.INTER.SOLV>
19.421

>  <SCORE.INTER.VDW>
-20.8825

>  <SCORE.INTER.norm>
-0.300391

>  <SCORE.INTRA>
-4.74626

>  <SCORE.INTRA.DIHEDRAL>
-15.2533

>  <SCORE.INTRA.DIHEDRAL.0>
18.0069

>  <SCORE.INTRA.POLAR>
0

>  <SCORE.INTRA.POLAR.0>
0

>  <SCORE.INTRA.REPUL>
0

>  <SCORE.INTRA.REPUL.0>
0

>  <SCORE.INTRA.SOLV>
0.341379

>  <SCORE.INTRA.SOLV.lig_0>
-70.7393

>  <SCORE.INTRA.VDW>
2.70969

>  <SCORE.INTRA.VDW.0>
-3.23471

>  <SCORE.INTRA.norm>
-0.139596

>  <SCORE.RESTR>
0

>  <SCORE.RESTR.CAVITY>
0

>  <SCORE.RESTR.norm>
0

>  <SCORE.SYSTEM>
0

>  <SCORE.SYSTEM.CONST>
0

>  <SCORE.SYSTEM.DIHEDRAL>
0

>  <SCORE.SYSTEM.SOLV>
0

>  <SCORE.SYSTEM.norm>
0

>  <SCORE.heavy>
34

>  <SCORE.norm>
-0.439987

>  <RMSD>
9.005

$$$$
lig.pdb
 OpenBabel11021811503D
libRbt.so/2013.1/901 2013/11/27
 34 36  0  0  0  0  0  0  0  0999 V2000
   -5.7643   14.8683   38.2609 C   0  0  2  0  0  0  0  0  0  0  0  0
   -4.6738   15.1506   39.1448 O   0  0  0  0  0  0  0  0  0  0  0  0
   -7.1165   14.9387   39.0902 C   0  0  2  0  0  0  0  0  0  0  0  0
   -7.3286   16.2789   39.6851 N   0  0  0  0  0  0  0  0  0  0  0  0
   -7.0931   13.8636   40.2058 C   0  0  1  0  0  0  0  0  0  0  0  0
   -8.3068   13.9071   40.9597 O   0  0  0  0  0  0  0  0  0  0  0  0
   -6.8883   12.4849   39.5532 C   0  0  2  0  0  0  0  0  0  0  0  0
   -6.8685   11.4830   40.5712 O   0  0  0  0  0  0  0  0  0  0  0  0
   -5.5418   12.4802   38.7327 C   0  0  2  0  0  0  0  0  0  0  0  0
   -5.5581   13.5317   37.6935 O   0  0  0  0  0  0  0  0  0  0  0  0
   -5.3000   11.1149   38.0422 C   0  0  2  0  0  0  0  0  0  0  0  0
   -4.0542   11.1399   37.3428 O   0  0  0  0  0  0  0  0  0  0  0  0
   -6.4076   10.7970   37.0498 C   0  0  0  0  0  0  0  0  0  0  0  0
   -0.9613   17.1068   38.3040 C   0  0  2  0  0  0  0  0  0  0  0  0
    0.3939   17.3578   37.8072 N   0  0  0  0  0  0  0  0  0  0  0  0
   -0.9164   15.7826   39.1153 C   0  0  0  0  0  0  0  0  0  0  0  0
   -2.3406   15.5115   39.6715 C   0  0  2  0  0  0  0  0  0  0  0  0
   -2.3441   14.2655   40.4541 N   0  0  0  0  0  0  0  0  0  0  0  0
   -3.3735   15.3922   38.5189 C   0  0  2  0  0  0  0  0  0  0  0  0
   -3.3677   16.7159   37.6908 C   0  0  2  0  0  0  0  0  0  0  0  0
   -4.3140   16.6002   36.6195 O   0  0  0  0  0  0  0  0  0  0  0  0
   -1.9680   16.9793   37.0842 C   0  0  1  0  0  0  0  0  0  0  0  0
   -2.0447   18.2236   36.3456 O   0  0  0  0  0  0  0  0  0  0  0  0
   -2.3839   18.1108   34.9434 C   0  0  2  0  0  0  0  0  0  0  0  0
   -1.0168   18.0622   34.1649 C   0  0  2  0  0  0  0  0  0  0  0  0
   -0.2645   16.9337   34.5820 O   0  0  0  0  0  0  0  0  0  0  0  0
   -0.2261   19.3982   34.4345 C   0  0  1  0  0  0  0  0  0  0  0  0
    1.0872   19.3919   33.7208 N   0  0  0  0  0  0  0  0  0  0  0  0
    2.1355   19.8788   34.6431 C   0  0  0  0  0  0  0  0  0  0  0  0
   -1.0989   20.5957   33.9499 C   0  0  2  0  0  0  0  0  0  0  0  0
   -1.3355   20.4524   32.5503 O   0  0  0  0  0  0  0  0  0  0  0  0
   -0.4046   21.9349   34.1845 C   0  0  0  0  0  0  0  0  0  0  0  0
   -2.4641   20.5747   34.7095 C   0  0  0  0  0  0  0  0  0  0  0  0
   -3.1618   19.2876   34.5067 O   0  0  0  0  0  0  0  0  0  0  0  0
  1  3  1  0  0  0  0
  1  2  1  1  0  0  0
  3  5  1  0  0  0  0
  3  4  1  1  0  0  0
  5  6  1  6  0  0  0
  7  8  1  1  0  0  0
  7  5  1  0  0  0  0
  9 10  1  6  0  0  0
  9  7  1  0  0  0  0
 10  1  1  0  0  0  0
 11 13  1  6  0  0  0
 11  9  1  0  0  0  0
 12 11  1  0  0  0  0
 14 15  1  6  0  0  0
 16 14  1  0  0  0  0
 17 18  1  6  0  0  0
 17 16  1  0  0  0  0
 19  2  1  1  0  0  0
 19 20  1  0  0  0  0
 19 17  1  0  0  0  0
 20 21  1  6  0  0  0
 20 22  1  0  0  0  0
 22 23  1  1  0  0  0
 22 14  1  0  0  0  0
 24 23  1  1  0  0  0
 24 25  1  0  0  0  0
 25 27  1  0  0  0  0
 25 26  1  1  0  0  0
 27 28  1  6  0  0  0
 28 29  1  0  0  0  0
 30 31  1  6  0  0  0
 30 32  1  0  0  0  0
 30 27  1  0  0  0  0
 33 30  1  0  0  0  0
 34 33  1  0  0  0  0
 34 24  1  0  0  0  0
M  END
>  <CHROM.1>
-168.33835720,-178.34061940,-173.74589977,152.32428265,-93.81435219,-135.11427478
-3.28760343,16.18277994,37.16460694,2.18174830,-0.10563562,2.59070893

>  <Name>
lig.pdb

>  <RI>
0

>  <Rbt.Current_Directory>
/home/itssahil/PROJECTS/Mol_Feturizer/New_Systems/rnas/4k32

>  <Rbt.Executable>
rbdock ($Id: //depot/dev/client3/rdock/2013.1/src/exe/rbdock.cxx#4 $)

>  <Rbt.Library>
libRbt.so (2013.1, Build901 2013/11/27)

>  <Rbt.Parameter_File>
/export/apps/rDock/src/rDock_2013.1_src/data/scripts/dock_solv.prm

>  <Rbt.Receptor>
prm/pocket_docking_5.prm

>  <SCORE>
-11.8809

>  <SCORE.INTER>
-7.81449

>  <SCORE.INTER.CONST>
1

>  <SCORE.INTER.POLAR>
0

>  <SCORE.INTER.ROT>
6

>  <SCORE.INTER.SOLV>
16.5953

>  <SCORE.INTER.VDW>
-18.3414

>  <SCORE.INTER.norm>
-0.229838

>  <SCORE.INTRA>
-4.06639

>  <SCORE.INTRA.DIHEDRAL>
-8.63328

>  <SCORE.INTRA.DIHEDRAL.0>
18.0069

>  <SCORE.INTRA.POLAR>
0

>  <SCORE.INTRA.POLAR.0>
0

>  <SCORE.INTRA.REPUL>
0

>  <SCORE.INTRA.REPUL.0>
0

>  <SCORE.INTRA.SOLV>
-1.47434

>  <SCORE.INTRA.SOLV.lig_0>
-70.7393

>  <SCORE.INTRA.VDW>
0.987422

>  <SCORE.INTRA.VDW.0>
-3.23471

>  <SCORE.INTRA.norm>
-0.1196

>  <SCORE.RESTR>
0

>  <SCORE.RESTR.CAVITY>
0

>  <SCORE.RESTR.norm>
0

>  <SCORE.SYSTEM>
0

>  <SCORE.SYSTEM.CONST>
0

>  <SCORE.SYSTEM.DIHEDRAL>
0

>  <SCORE.SYSTEM.SOLV>
0

>  <SCORE.SYSTEM.norm>
0

>  <SCORE.heavy>
34

>  <SCORE.norm>
-0.349437

>  <RMSD>
9.015

$$$$
lig.pdb
 OpenBabel11021811503D
libRbt.so/2013.1/901 2013/11/27
 34 36  0  0  0  0  0  0  0  0999 V2000
   -1.5613   15.6024   37.3724 C   0  0  2  0  0  0  0  0  0  0  0  0
   -1.3174   15.5324   35.9632 O   0  0  0  0  0  0  0  0  0  0  0  0
   -2.4389   14.3484   37.7948 C   0  0  2  0  0  0  0  0  0  0  0  0
   -1.7507   13.0700   37.5000 N   0  0  0  0  0  0  0  0  0  0  0  0
   -3.7991   14.3987   37.0544 C   0  0  1  0  0  0  0  0  0  0  0  0
   -4.6069   13.2800   37.4277 O   0  0  0  0  0  0  0  0  0  0  0  0
   -4.4935   15.7293   37.3951 C   0  0  2  0  0  0  0  0  0  0  0  0
   -5.7517   15.7872   36.7212 O   0  0  0  0  0  0  0  0  0  0  0  0
   -3.5706   16.9346   36.9686 C   0  0  2  0  0  0  0  0  0  0  0  0
   -2.2621   16.8598   37.6527 O   0  0  0  0  0  0  0  0  0  0  0  0
   -4.2217   18.2986   37.3077 C   0  0  2  0  0  0  0  0  0  0  0  0
   -3.3438   19.3612   36.9310 O   0  0  0  0  0  0  0  0  0  0  0  0
   -4.5130   18.4138   38.7958 C   0  0  0  0  0  0  0  0  0  0  0  0
    1.0565   19.0903   35.8133 C   0  0  2  0  0  0  0  0  0  0  0  0
    2.0109   20.1037   35.3570 N   0  0  0  0  0  0  0  0  0  0  0  0
    1.7956   17.7237   35.8025 C   0  0  0  0  0  0  0  0  0  0  0  0
    0.8062   16.6385   36.3071 C   0  0  2  0  0  0  0  0  0  0  0  0
    1.4674   15.3241   36.3188 N   0  0  0  0  0  0  0  0  0  0  0  0
   -0.4513   16.5684   35.3997 C   0  0  2  0  0  0  0  0  0  0  0  0
   -1.1508   17.9642   35.3898 C   0  0  2  0  0  0  0  0  0  0  0  0
   -2.3058   17.9014   34.5422 O   0  0  0  0  0  0  0  0  0  0  0  0
   -0.1973   19.0536   34.8417 C   0  0  1  0  0  0  0  0  0  0  0  0
   -0.9145   20.3123   34.8762 O   0  0  0  0  0  0  0  0  0  0  0  0
   -1.9921   20.4565   33.9214 C   0  0  2  0  0  0  0  0  0  0  0  0
   -1.3093   20.6959   32.5235 C   0  0  2  0  0  0  0  0  0  0  0  0
   -0.4982   19.5815   32.1863 O   0  0  0  0  0  0  0  0  0  0  0  0
   -0.4532   22.0169   32.5913 C   0  0  1  0  0  0  0  0  0  0  0  0
    0.2237   22.2792   31.2846 N   0  0  0  0  0  0  0  0  0  0  0  0
    1.6307   21.8335   31.3765 C   0  0  0  0  0  0  0  0  0  0  0  0
   -1.3990   23.2009   32.9574 C   0  0  2  0  0  0  0  0  0  0  0  0
   -2.3919   23.3244   31.9403 O   0  0  0  0  0  0  0  0  0  0  0  0
   -0.6418   24.5231   33.0518 C   0  0  0  0  0  0  0  0  0  0  0  0
   -2.0937   22.8978   34.3236 C   0  0  0  0  0  0  0  0  0  0  0  0
   -2.8336   21.6195   34.2680 O   0  0  0  0  0  0  0  0  0  0  0  0
  1  3  1  0  0  0  0
  1  2  1  6  0  0  0
  3  5  1  0  0  0  0
  3  4  1  6  0  0  0
  5  6  1  1  0  0  0
  7  8  1  6  0  0  0
  7  5  1  0  0  0  0
  9 10  1  1  0  0  0
  9  7  1  0  0  0  0
 10  1  1  0  0  0  0
 11 13  1  1  0  0  0
 11  9  1  0  0  0  0
 12 11  1  0  0  0  0
 14 15  1  6  0  0  0
 16 14  1  0  0  0  0
 17 18  1  6  0  0  0
 17 16  1  0  0  0  0
 19  2  1  1  0  0  0
 19 20  1  0  0  0  0
 19 17  1  0  0  0  0
 20 21  1  6  0  0  0
 20 22  1  0  0  0  0
 22 23  1  1  0  0  0
 22 14  1  0  0  0  0
 24 23  1  1  0  0  0
 24 25  1  0  0  0  0
 25 27  1  0  0  0  0
 25 26  1  1  0  0  0
 27 28  1  6  0  0  0
 28 29  1  0  0  0  0
 30 31  1  6  0  0  0
 30 32  1  0  0  0  0
 30 27  1  0  0  0  0
 33 30  1  0  0  0  0
 34 33  1  0  0  0  0
 34 24  1  0  0  0  0
M  END
>  <CHROM.1>
-176.45604255,178.83076944,48.62575110,173.37253424,-74.81513077,-99.88950111
-1.60466270,18.56740069,35.28166586,-1.86056380,0.27593025,-0.48731206

>  <Name>
lig.pdb

>  <RI>
0

>  <Rbt.Current_Directory>
/home/itssahil/PROJECTS/Mol_Feturizer/New_Systems/rnas/4k32

>  <Rbt.Executable>
rbdock ($Id: //depot/dev/client3/rdock/2013.1/src/exe/rbdock.cxx#4 $)

>  <Rbt.Library>
libRbt.so (2013.1, Build901 2013/11/27)

>  <Rbt.Parameter_File>
/export/apps/rDock/src/rDock_2013.1_src/data/scripts/dock_solv.prm

>  <Rbt.Receptor>
prm/pocket_docking_6.prm

>  <SCORE>
-15.0215

>  <SCORE.INTER>
-10.1655

>  <SCORE.INTER.CONST>
1

>  <SCORE.INTER.POLAR>
0

>  <SCORE.INTER.ROT>
6

>  <SCORE.INTER.SOLV>
19.3407

>  <SCORE.INTER.VDW>
-20.8239

>  <SCORE.INTER.norm>
-0.298984

>  <SCORE.INTRA>
-4.85602

>  <SCORE.INTRA.DIHEDRAL>
-15.1142

>  <SCORE.INTRA.DIHEDRAL.0>
18.0069

>  <SCORE.INTRA.POLAR>
0

>  <SCORE.INTRA.POLAR.0>
0

>  <SCORE.INTRA.REPUL>
0

>  <SCORE.INTRA.REPUL.0>
0

>  <SCORE.INTRA.SOLV>
0.314708

>  <SCORE.INTRA.SOLV.lig_0>
-70.7393

>  <SCORE.INTRA.VDW>
2.54374

>  <SCORE.INTRA.VDW.0>
-3.23471

>  <SCORE.INTRA.norm>
-0.142824

>  <SCORE.RESTR>
0

>  <SCORE.RESTR.CAVITY>
0

>  <SCORE.RESTR.norm>
0

>  <SCORE.SYSTEM>
0

>  <SCORE.SYSTEM.CONST>
0

>  <SCORE.SYSTEM.DIHEDRAL>
0

>  <SCORE.SYSTEM.SOLV>
0

>  <SCORE.SYSTEM.norm>
0

>  <SCORE.heavy>
34

>  <SCORE.norm>
-0.441808

>  <RMSD>
9.019

$$$$
lig.pdb
 OpenBabel11021811503D
libRbt.so/2013.1/901 2013/11/27
 34 36  0  0  0  0  0  0  0  0999 V2000
   -2.9226   13.0608   36.9624 C   0  0  2  0  0  0  0  0  0  0  0  0
   -3.0910   14.4738   37.1209 O   0  0  0  0  0  0  0  0  0  0  0  0
   -2.9888   12.7159   35.4139 C   0  0  2  0  0  0  0  0  0  0  0  0
   -1.9225   13.4048   34.6501 N   0  0  0  0  0  0  0  0  0  0  0  0
   -4.3787   13.1140   34.8565 C   0  0  1  0  0  0  0  0  0  0  0  0
   -4.4598   12.8043   33.4633 O   0  0  0  0  0  0  0  0  0  0  0  0
   -5.4602   12.3696   35.6595 C   0  0  2  0  0  0  0  0  0  0  0  0
   -6.7477   12.7249   35.1531 O   0  0  0  0  0  0  0  0  0  0  0  0
   -5.3352   12.7379   37.1876 C   0  0  2  0  0  0  0  0  0  0  0  0
   -3.9945   12.3872   37.7029 O   0  0  0  0  0  0  0  0  0  0  0  0
   -6.3952   11.9979   38.0408 C   0  0  2  0  0  0  0  0  0  0  0  0
   -7.7065   12.3443   37.5911 O   0  0  0  0  0  0  0  0  0  0  0  0
   -6.2728   12.3670   39.5110 C   0  0  0  0  0  0  0  0  0  0  0  0
   -0.2217   17.6401   37.3625 C   0  0  2  0  0  0  0  0  0  0  0  0
    0.9683   18.4568   37.1113 N   0  0  0  0  0  0  0  0  0  0  0  0
    0.2657   16.1948   37.6583 C   0  0  0  0  0  0  0  0  0  0  0  0
   -0.9817   15.3178   37.9515 C   0  0  2  0  0  0  0  0  0  0  0  0
   -0.5659   13.9370   38.2436 N   0  0  0  0  0  0  0  0  0  0  0  0
   -1.9535   15.3121   36.7411 C   0  0  2  0  0  0  0  0  0  0  0  0
   -2.3932   16.7785   36.4341 C   0  0  2  0  0  0  0  0  0  0  0  0
   -3.2819   16.7732   35.3086 O   0  0  0  0  0  0  0  0  0  0  0  0
   -1.1680   17.6595   36.0890 C   0  0  1  0  0  0  0  0  0  0  0  0
   -1.6580   18.9983   35.8299 O   0  0  0  0  0  0  0  0  0  0  0  0
   -2.1486   19.2481   34.4918 C   0  0  2  0  0  0  0  0  0  0  0  0
   -0.8748   19.4324   33.5858 C   0  0  2  0  0  0  0  0  0  0  0  0
   -0.0908   18.2500   33.6102 O   0  0  0  0  0  0  0  0  0  0  0  0
   -0.0488   20.6680   34.1089 C   0  0  1  0  0  0  0  0  0  0  0  0
    1.1790   20.8751   33.2818 N   0  0  0  0  0  0  0  0  0  0  0  0
    2.3701   20.6445   34.1273 C   0  0  0  0  0  0  0  0  0  0  0  0
   -0.9594   21.9321   34.0506 C   0  0  2  0  0  0  0  0  0  0  0  0
   -1.3481   22.1537   32.6959 O   0  0  0  0  0  0  0  0  0  0  0  0
   -0.2329   23.1778   34.5513 C   0  0  0  0  0  0  0  0  0  0  0  0
   -2.2339   21.6855   34.9200 C   0  0  0  0  0  0  0  0  0  0  0  0
   -2.9600   20.4816   34.4639 O   0  0  0  0  0  0  0  0  0  0  0  0
  1  3  1  0  0  0  0
  1  2  1  6  0  0  0
  3  5  1  0  0  0  0
  3  4  1  6  0  0  0
  5  6  1  6  0  0  0
  7  8  1  6  0  0  0
  7  5  1  0  0  0  0
  9 10  1  1  0  0  0
  9  7  1  0  0  0  0
 10  1  1  0  0  0  0
 11 13  1  1  0  0  0
 11  9  1  0  0  0  0
 12 11  1  0  0  0  0
 14 15  1  6  0  0  0
 16 14  1  0  0  0  0
 17 18  1  6  0  0  0
 17 16  1  0  0  0  0
 19  2  1  1  0  0  0
 19 20  1  0  0  0  0
 19 17  1  0  0  0  0
 20 21  1  6  0  0  0
 20 22  1  0  0  0  0
 22 23  1  1  0  0  0
 22 14  1  0  0  0  0
 24 23  1  1  0  0  0
 24 25  1  0  0  0  0
 25 27  1  0  0  0  0
 25 26  1  1  0  0  0
 27 28  1  6  0  0  0
 28 29  1  0  0  0  0
 30 31  1  6  0  0  0
 30 32  1  0  0  0  0
 30 27  1  0  0  0  0
 33 30  1  0  0  0  0
 34 33  1  0  0  0  0
 34 24  1  0  0  0  0
M  END
>  <CHROM.1>
-73.74777256,-59.36753782,-82.55049414,160.25727789,-77.63198785,-115.07007029
-2.39259873,16.53601316,35.74377144,-2.13294125,-0.42932674,-0.55906589

>  <Name>
lig.pdb

>  <RI>
0

>  <Rbt.Current_Directory>
/home/itssahil/PROJECTS/Mol_Feturizer/New_Systems/rnas/4k32

>  <Rbt.Executable>
rbdock ($Id: //depot/dev/client3/rdock/2013.1/src/exe/rbdock.cxx#4 $)

>  <Rbt.Library>
libRbt.so (2013.1, Build901 2013/11/27)

>  <Rbt.Parameter_File>
/export/apps/rDock/src/rDock_2013.1_src/data/scripts/dock_solv.prm

>  <Rbt.Receptor>
prm/pocket_docking_4.prm

>  <SCORE>
-8.80717

>  <SCORE.INTER>
-5.72166

>  <SCORE.INTER.CONST>
1

>  <SCORE.INTER.POLAR>
0

>  <SCORE.INTER.ROT>
6

>  <SCORE.INTER.SOLV>
17.7267

>  <SCORE.INTER.VDW>
-17.3233

>  <SCORE.INTER.norm>
-0.168284

>  <SCORE.INTRA>
-3.08551

>  <SCORE.INTRA.DIHEDRAL>
-10.4713

>  <SCORE.INTRA.DIHEDRAL.0>
18.0069

>  <SCORE.INTRA.POLAR>
0

>  <SCORE.INTRA.POLAR.0>
0

>  <SCORE.INTRA.REPUL>
0

>  <SCORE.INTRA.REPUL.0>
0

>  <SCORE.INTRA.SOLV>
2.66536

>  <SCORE.INTRA.SOLV.lig_0>
-70.7393

>  <SCORE.INTRA.VDW>
0.817463

>  <SCORE.INTRA.VDW.0>
-3.23471

>  <SCORE.INTRA.norm>
-0.0907503

>  <SCORE.RESTR>
0

>  <SCORE.RESTR.CAVITY>
0

>  <SCORE.RESTR.norm>
0

>  <SCORE.SYSTEM>
0

>  <SCORE.SYSTEM.CONST>
0

>  <SCORE.SYSTEM.DIHEDRAL>
0

>  <SCORE.SYSTEM.SOLV>
0

>  <SCORE.SYSTEM.norm>
0

>  <SCORE.heavy>
34

>  <SCORE.norm>
-0.259034

>  <RMSD>
9.027

$$$$
lig.pdb
 OpenBabel11021811503D
libRbt.so/2013.1/901 2013/11/27
 34 36  0  0  0  0  0  0  0  0999 V2000
   -4.9797   16.1807   37.1085 C   0  0  2  0  0  0  0  0  0  0  0  0
   -3.8621   16.1391   38.0027 O   0  0  0  0  0  0  0  0  0  0  0  0
   -6.2952   16.4435   37.9580 C   0  0  2  0  0  0  0  0  0  0  0  0
   -6.2305   17.7302   38.6895 N   0  0  0  0  0  0  0  0  0  0  0  0
   -6.5045   15.2781   38.9574 C   0  0  1  0  0  0  0  0  0  0  0  0
   -7.6894   15.4938   39.7273 O   0  0  0  0  0  0  0  0  0  0  0  0
   -6.5837   13.9612   38.1647 C   0  0  2  0  0  0  0  0  0  0  0  0
   -6.7805   12.8777   39.0746 O   0  0  0  0  0  0  0  0  0  0  0  0
   -5.2603   13.7625   37.3308 C   0  0  2  0  0  0  0  0  0  0  0  0
   -5.0497   14.8958   36.4049 O   0  0  0  0  0  0  0  0  0  0  0  0
   -5.3003   12.4550   36.5013 C   0  0  2  0  0  0  0  0  0  0  0  0
   -4.0485   12.2629   35.8397 O   0  0  0  0  0  0  0  0  0  0  0  0
   -6.4011   12.5025   35.4532 C   0  0  0  0  0  0  0  0  0  0  0  0
    0.3290   16.7259   37.3652 C   0  0  2  0  0  0  0  0  0  0  0  0
    1.6987   16.5386   36.8803 N   0  0  0  0  0  0  0  0  0  0  0  0
   -0.1290   15.3764   37.9841 C   0  0  0  0  0  0  0  0  0  0  0  0
   -1.5721   15.5619   38.5263 C   0  0  2  0  0  0  0  0  0  0  0  0
   -2.0464   14.3061   39.1287 N   0  0  0  0  0  0  0  0  0  0  0  0
   -2.5430   15.9805   37.3898 C   0  0  2  0  0  0  0  0  0  0  0  0
   -2.0373   17.3135   36.7532 C   0  0  2  0  0  0  0  0  0  0  0  0
   -2.9286   17.6932   35.6958 O   0  0  0  0  0  0  0  0  0  0  0  0
   -0.6183   17.1366   36.1604 C   0  0  1  0  0  0  0  0  0  0  0  0
   -0.2209   18.4138   35.6031 O   0  0  0  0  0  0  0  0  0  0  0  0
   -0.3480   18.5486   34.1680 C   0  0  2  0  0  0  0  0  0  0  0  0
    0.6356   19.7033   33.7479 C   0  0  2  0  0  0  0  0  0  0  0  0
    1.9663   19.3524   34.0937 O   0  0  0  0  0  0  0  0  0  0  0  0
    0.1984   21.0354   34.4669 C   0  0  1  0  0  0  0  0  0  0  0  0
    1.1135   22.1603   34.1040 N   0  0  0  0  0  0  0  0  0  0  0  0
    2.2527   22.1736   35.0466 C   0  0  0  0  0  0  0  0  0  0  0  0
   -1.2639   21.3696   34.0423 C   0  0  2  0  0  0  0  0  0  0  0  0
   -1.2986   21.5542   32.6279 O   0  0  0  0  0  0  0  0  0  0  0  0
   -1.7688   22.6485   34.7056 C   0  0  0  0  0  0  0  0  0  0  0  0
   -2.1952   20.1767   34.4306 C   0  0  0  0  0  0  0  0  0  0  0  0
   -1.7312   18.9194   33.8073 O   0  0  0  0  0  0  0  0  0  0  0  0
  1  3  1  0  0  0  0
  1  2  1  1  0  0  0
  3  5  1  0  0  0  0
  3  4  1  1  0  0  0
  5  6  1  6  0  0  0
  7  8  1  1  0  0  0
  7  5  1  0  0  0  0
  9 10  1  6  0  0  0
  9  7  1  0  0  0  0
 10  1  1  0  0  0  0
 11 13  1  6  0  0  0
 11  9  1  0  0  0  0
 12 11  1  0  0  0  0
 14 15  1  6  0  0  0
 16 14  1  0  0  0  0
 17 18  1  6  0  0  0
 17 16  1  0  0  0  0
 19  2  1  1  0  0  0
 19 20  1  0  0  0  0
 19 17  1  0  0  0  0
 20 21  1  6  0  0  0
 20 22  1  0  0  0  0
 22 23  1  1  0  0  0
 22 14  1  0  0  0  0
 24 23  1  1  0  0  0
 24 25  1  0  0  0  0
 25 27  1  0  0  0  0
 25 26  1  1  0  0  0
 27 28  1  6  0  0  0
 28 29  1  0  0  0  0
 30 31  1  6  0  0  0
 30 32  1  0  0  0  0
 30 27  1  0  0  0  0
 33 30  1  0  0  0  0
 34 33  1  0  0  0  0
 34 24  1  0  0  0  0
M  END
>  <CHROM.1>
-176.62933475,-175.75619933,-164.25393312,143.30894746,-157.72609818,-88.03345020
-2.58921526,17.13710232,36.33004493,2.25844792,-0.10767560,2.73164306

>  <Name>
lig.pdb

>  <RI>
0

>  <Rbt.Current_Directory>
/home/itssahil/PROJECTS/Mol_Feturizer/New_Systems/rnas/4k32

>  <Rbt.Executable>
rbdock ($Id: //depot/dev/client3/rdock/2013.1/src/exe/rbdock.cxx#4 $)

>  <Rbt.Library>
libRbt.so (2013.1, Build901 2013/11/27)

>  <Rbt.Parameter_File>
/export/apps/rDock/src/rDock_2013.1_src/data/scripts/dock_solv.prm

>  <Rbt.Receptor>
prm/pocket_docking_3.prm

>  <SCORE>
-10.0524

>  <SCORE.INTER>
-5.9314

>  <SCORE.INTER.CONST>
1

>  <SCORE.INTER.POLAR>
0

>  <SCORE.INTER.ROT>
6

>  <SCORE.INTER.SOLV>
14.348

>  <SCORE.INTER.VDW>
-16.3369

>  <SCORE.INTER.norm>
-0.174453

>  <SCORE.INTRA>
-4.61872

>  <SCORE.INTRA.DIHEDRAL>
-9.16619

>  <SCORE.INTRA.DIHEDRAL.0>
18.0069

>  <SCORE.INTRA.POLAR>
0

>  <SCORE.INTRA.POLAR.0>
0

>  <SCORE.INTRA.REPUL>
0

>  <SCORE.INTRA.REPUL.0>
0

>  <SCORE.INTRA.SOLV>
-2.29686

>  <SCORE.INTRA.SOLV.lig_0>
-70.7393

>  <SCORE.INTRA.VDW>
1.11281

>  <SCORE.INTRA.VDW.0>
-3.23471

>  <SCORE.INTRA.norm>
-0.135845

>  <SCORE.RESTR>
0.49771

>  <SCORE.RESTR.CAVITY>
0.49771

>  <SCORE.RESTR.norm>
0.0146385

>  <SCORE.SYSTEM>
0

>  <SCORE.SYSTEM.CONST>
0

>  <SCORE.SYSTEM.DIHEDRAL>
0

>  <SCORE.SYSTEM.SOLV>
0

>  <SCORE.SYSTEM.norm>
0

>  <SCORE.heavy>
34

>  <SCORE.norm>
-0.295659

>  <RMSD>
9.056

$$$$
lig.pdb
 OpenBabel11021811503D
libRbt.so/2013.1/901 2013/11/27
 34 36  0  0  0  0  0  0  0  0999 V2000
   -3.9855   15.5424   35.6098 C   0  0  2  0  0  0  0  0  0  0  0  0
   -2.8621   15.2820   36.4586 O   0  0  0  0  0  0  0  0  0  0  0  0
   -5.3036   15.0719   36.3598 C   0  0  2  0  0  0  0  0  0  0  0  0
   -5.5004   15.7984   37.6359 N   0  0  0  0  0  0  0  0  0  0  0  0
   -5.2281   13.5474   36.6265 C   0  0  1  0  0  0  0  0  0  0  0  0
   -6.4108   13.1035   37.2957 O   0  0  0  0  0  0  0  0  0  0  0  0
   -5.0407   12.8234   35.2813 C   0  0  2  0  0  0  0  0  0  0  0  0
   -4.9733   11.4154   35.5125 O   0  0  0  0  0  0  0  0  0  0  0  0
   -3.7284   13.3417   34.5773 C   0  0  2  0  0  0  0  0  0  0  0  0
   -3.7936   14.8024   34.3583 O   0  0  0  0  0  0  0  0  0  0  0  0
   -3.5056   12.6520   33.2084 C   0  0  2  0  0  0  0  0  0  0  0  0
   -2.2606   13.0755   32.6498 O   0  0  0  0  0  0  0  0  0  0  0  0
   -4.6187   12.9973   32.2314 C   0  0  0  0  0  0  0  0  0  0  0  0
    0.9567   17.2094   36.3243 C   0  0  2  0  0  0  0  0  0  0  0  0
    2.3242   17.5541   35.9276 N   0  0  0  0  0  0  0  0  0  0  0  0
    0.9253   15.6784   36.5867 C   0  0  0  0  0  0  0  0  0  0  0  0
   -0.5123   15.2968   37.0326 C   0  0  2  0  0  0  0  0  0  0  0  0
   -0.5875   13.8517   37.2984 N   0  0  0  0  0  0  0  0  0  0  0  0
   -1.5499   15.6687   35.9396 C   0  0  2  0  0  0  0  0  0  0  0  0
   -1.4679   17.2027   35.6604 C   0  0  2  0  0  0  0  0  0  0  0  0
   -2.4189   17.5431   34.6423 O   0  0  0  0  0  0  0  0  0  0  0  0
   -0.0552   17.5971   35.1653 C   0  0  1  0  0  0  0  0  0  0  0  0
   -0.0603   19.0288   34.9414 O   0  0  0  0  0  0  0  0  0  0  0  0
   -0.4170   19.4627   33.6080 C   0  0  2  0  0  0  0  0  0  0  0  0
    0.3301   20.8287   33.3775 C   0  0  2  0  0  0  0  0  0  0  0  0
    1.7322   20.6333   33.4733 O   0  0  0  0  0  0  0  0  0  0  0  0
   -0.1685   21.8721   34.4479 C   0  0  1  0  0  0  0  0  0  0  0  0
    0.5239   23.1852   34.2728 N   0  0  0  0  0  0  0  0  0  0  0  0
    1.5668   23.3186   35.3126 C   0  0  0  0  0  0  0  0  0  0  0  0
   -1.7093   22.0476   34.2870 C   0  0  2  0  0  0  0  0  0  0  0  0
   -1.9790   22.5399   32.9753 O   0  0  0  0  0  0  0  0  0  0  0  0
   -2.2753   23.0413   35.2982 C   0  0  0  0  0  0  0  0  0  0  0  0
   -2.4047   20.6608   34.4715 C   0  0  0  0  0  0  0  0  0  0  0  0
   -1.8755   19.6720   33.5088 O   0  0  0  0  0  0  0  0  0  0  0  0
  1  3  1  0  0  0  0
  1  2  1  1  0  0  0
  3  5  1  0  0  0  0
  3  4  1  1  0  0  0
  5  6  1  6  0  0  0
  7  8  1  1  0  0  0
  7  5  1  0  0  0  0
  9 10  1  6  0  0  0
  9  7  1  0  0  0  0
 10  1  1  0  0  0  0
 11 13  1  6  0  0  0
 11  9  1  0  0  0  0
 12 11  1  0  0  0  0
 14 15  1  6  0  0  0
 16 14  1  0  0  0  0
 17 18  1  6  0  0  0
 17 16  1  0  0  0  0
 19  2  1  1  0  0  0
 19 20  1  0  0  0  0
 19 17  1  0  0  0  0
 20 21  1  6  0  0  0
 20 22  1  0  0  0  0
 22 23  1  1  0  0  0
 22 14  1  0  0  0  0
 24 23  1  1  0  0  0
 24 25  1  0  0  0  0
 25 27  1  0  0  0  0
 25 26  1  1  0  0  0
 27 28  1  6  0  0  0
 28 29  1  0  0  0  0
 30 31  1  6  0  0  0
 30 32  1  0  0  0  0
 30 27  1  0  0  0  0
 33 30  1  0  0  0  0
 34 33  1  0  0  0  0
 34 24  1  0  0  0  0
M  END
>  <CHROM.1>
-179.22325521,-175.80436829,179.64797632,152.88780338,-151.21919807,-103.01064348
-1.96816319,17.16014333,35.04285478,2.04801155,0.15211008,2.93714021

>  <Name>
lig.pdb

>  <RI>
0

>  <Rbt.Current_Directory>
/home/itssahil/PROJECTS/Mol_Feturizer/New_Systems/rnas/4k32

>  <Rbt.Executable>
rbdock ($Id: //depot/dev/client3/rdock/2013.1/src/exe/rbdock.cxx#4 $)

>  <Rbt.Library>
libRbt.so (2013.1, Build901 2013/11/27)

>  <Rbt.Parameter_File>
/export/apps/rDock/src/rDock_2013.1_src/data/scripts/dock_solv.prm

>  <Rbt.Receptor>
prm/pocket_docking_6.prm

>  <SCORE>
-14.432

>  <SCORE.INTER>
-9.39431

>  <SCORE.INTER.CONST>
1

>  <SCORE.INTER.POLAR>
0

>  <SCORE.INTER.ROT>
6

>  <SCORE.INTER.SOLV>
19.6811

>  <SCORE.INTER.VDW>
-20.4232

>  <SCORE.INTER.norm>
-0.276303

>  <SCORE.INTRA>
-5.03766

>  <SCORE.INTRA.DIHEDRAL>
-10.5031

>  <SCORE.INTRA.DIHEDRAL.0>
18.0069

>  <SCORE.INTRA.POLAR>
0

>  <SCORE.INTRA.POLAR.0>
0

>  <SCORE.INTRA.REPUL>
0

>  <SCORE.INTRA.REPUL.0>
0

>  <SCORE.INTRA.SOLV>
-2.86759

>  <SCORE.INTRA.SOLV.lig_0>
-70.7393

>  <SCORE.INTRA.VDW>
1.64768

>  <SCORE.INTRA.VDW.0>
-3.23471

>  <SCORE.INTRA.norm>
-0.148166

>  <SCORE.RESTR>
0

>  <SCORE.RESTR.CAVITY>
0

>  <SCORE.RESTR.norm>
0

>  <SCORE.SYSTEM>
0

>  <SCORE.SYSTEM.CONST>
0

>  <SCORE.SYSTEM.DIHEDRAL>
0

>  <SCORE.SYSTEM.SOLV>
0

>  <SCORE.SYSTEM.norm>
0

>  <SCORE.heavy>
34

>  <SCORE.norm>
-0.424469

>  <RMSD>
9.080

$$$$
lig.pdb
 OpenBabel11021811503D
libRbt.so/2013.1/901 2013/11/27
 34 36  0  0  0  0  0  0  0  0999 V2000
   -4.4114   15.4736   35.7382 C   0  0  2  0  0  0  0  0  0  0  0  0
   -3.3770   15.2982   36.7127 O   0  0  0  0  0  0  0  0  0  0  0  0
   -5.8146   15.4364   36.4804 C   0  0  2  0  0  0  0  0  0  0  0  0
   -5.9324   16.5142   37.4900 N   0  0  0  0  0  0  0  0  0  0  0  0
   -6.0024   14.0556   37.1579 C   0  0  1  0  0  0  0  0  0  0  0  0
   -7.2648   14.0005   37.8263 O   0  0  0  0  0  0  0  0  0  0  0  0
   -5.8909   12.9620   36.0807 C   0  0  2  0  0  0  0  0  0  0  0  0
   -6.0661   11.6828   36.6917 O   0  0  0  0  0  0  0  0  0  0  0  0
   -4.4871   13.0583   35.3691 C   0  0  2  0  0  0  0  0  0  0  0  0
   -4.3014   14.3906   34.7554 O   0  0  0  0  0  0  0  0  0  0  0  0
   -4.3343   11.9853   34.2625 C   0  0  2  0  0  0  0  0  0  0  0  0
   -3.0372   12.0811   33.6710 O   0  0  0  0  0  0  0  0  0  0  0  0
   -5.3795   12.1668   33.1728 C   0  0  0  0  0  0  0  0  0  0  0  0
    0.6753   16.6738   36.6613 C   0  0  2  0  0  0  0  0  0  0  0  0
    2.0936   16.8009   36.3169 N   0  0  0  0  0  0  0  0  0  0  0  0
    0.4194   15.1831   37.0163 C   0  0  0  0  0  0  0  0  0  0  0  0
   -1.0755   15.0324   37.4083 C   0  0  2  0  0  0  0  0  0  0  0  0
   -1.3630   13.6327   37.7590 N   0  0  0  0  0  0  0  0  0  0  0  0
   -2.0022   15.4660   36.2409 C   0  0  2  0  0  0  0  0  0  0  0  0
   -1.6951   16.9516   35.8716 C   0  0  2  0  0  0  0  0  0  0  0  0
   -2.5437   17.3474   34.7854 O   0  0  0  0  0  0  0  0  0  0  0  0
   -0.2209   17.1149   35.4284 C   0  0  1  0  0  0  0  0  0  0  0  0
   -0.0165   18.5151   35.1161 O   0  0  0  0  0  0  0  0  0  0  0  0
   -0.1758   18.8865   33.7268 C   0  0  2  0  0  0  0  0  0  0  0  0
    0.6779   20.1929   33.5222 C   0  0  2  0  0  0  0  0  0  0  0  0
    2.0421   19.9268   33.8075 O   0  0  0  0  0  0  0  0  0  0  0  0
    0.1152   21.3250   34.4628 C   0  0  1  0  0  0  0  0  0  0  0  0
    0.9045   22.5850   34.3088 N   0  0  0  0  0  0  0  0  0  0  0  0
    1.9985   22.5889   35.3037 C   0  0  0  0  0  0  0  0  0  0  0  0
   -1.3793   21.5751   34.0961 C   0  0  2  0  0  0  0  0  0  0  0  0
   -1.4515   22.0012   32.7364 O   0  0  0  0  0  0  0  0  0  0  0  0
   -2.0045   22.6577   34.9721 C   0  0  0  0  0  0  0  0  0  0  0  0
   -2.1774   20.2423   34.2630 C   0  0  0  0  0  0  0  0  0  0  0  0
   -1.5945   19.1695   33.4300 O   0  0  0  0  0  0  0  0  0  0  0  0
  1  3  1  0  0  0  0
  1  2  1  1  0  0  0
  3  5  1  0  0  0  0
  3  4  1  1  0  0  0
  5  6  1  6  0  0  0
  7  8  1  1  0  0  0
  7  5  1  0  0  0  0
  9 10  1  6  0  0  0
  9  7  1  0  0  0  0
 10  1  1  0  0  0  0
 11 13  1  6  0  0  0
 11  9  1  0  0  0  0
 12 11  1  0  0  0  0
 14 15  1  6  0  0  0
 16 14  1  0  0  0  0
 17 18  1  6  0  0  0
 17 16  1  0  0  0  0
 19  2  1  1  0  0  0
 19 20  1  0  0  0  0
 19 17  1  0  0  0  0
 20 21  1  6  0  0  0
 20 22  1  0  0  0  0
 22 23  1  1  0  0  0
 22 14  1  0  0  0  0
 24 23  1  1  0  0  0
 24 25  1  0  0  0  0
 25 27  1  0  0  0  0
 25 26  1  1  0  0  0
 27 28  1  6  0  0  0
 28 29  1  0  0  0  0
 30 31  1  6  0  0  0
 30 32  1  0  0  0  0
 30 27  1  0  0  0  0
 33 30  1  0  0  0  0
 34 33  1  0  0  0  0
 34 24  1  0  0  0  0
M  END
>  <CHROM.1>
-172.82072775,-178.30014980,-172.10933713,149.47910069,-155.36633170,-91.57453145
-2.22388018,16.85352297,35.34764916,2.16326116,0.06211133,2.89227297

>  <Name>
lig.pdb

>  <RI>
0

>  <Rbt.Current_Directory>
/home/itssahil/PROJECTS/Mol_Feturizer/New_Systems/rnas/4k32

>  <Rbt.Executable>
rbdock ($Id: //depot/dev/client3/rdock/2013.1/src/exe/rbdock.cxx#4 $)

>  <Rbt.Library>
libRbt.so (2013.1, Build901 2013/11/27)

>  <Rbt.Parameter_File>
/export/apps/rDock/src/rDock_2013.1_src/data/scripts/dock_solv.prm

>  <Rbt.Receptor>
prm/pocket_docking_4.prm

>  <SCORE>
-13.186

>  <SCORE.INTER>
-8.24579

>  <SCORE.INTER.CONST>
1

>  <SCORE.INTER.POLAR>
0

>  <SCORE.INTER.ROT>
6

>  <SCORE.INTER.SOLV>
19.4624

>  <SCORE.INTER.VDW>
-19.5847

>  <SCORE.INTER.norm>
-0.242523

>  <SCORE.INTRA>
-4.94017

>  <SCORE.INTRA.DIHEDRAL>
-10.4745

>  <SCORE.INTRA.DIHEDRAL.0>
18.0069

>  <SCORE.INTRA.POLAR>
0

>  <SCORE.INTRA.POLAR.0>
0

>  <SCORE.INTRA.REPUL>
0

>  <SCORE.INTRA.REPUL.0>
0

>  <SCORE.INTRA.SOLV>
-2.66115

>  <SCORE.INTRA.SOLV.lig_0>
-70.7393

>  <SCORE.INTRA.VDW>
1.62768

>  <SCORE.INTRA.VDW.0>
-3.23471

>  <SCORE.INTRA.norm>
-0.145299

>  <SCORE.RESTR>
0

>  <SCORE.RESTR.CAVITY>
0

>  <SCORE.RESTR.norm>
0

>  <SCORE.SYSTEM>
0

>  <SCORE.SYSTEM.CONST>
0

>  <SCORE.SYSTEM.DIHEDRAL>
0

>  <SCORE.SYSTEM.SOLV>
0

>  <SCORE.SYSTEM.norm>
0

>  <SCORE.heavy>
34

>  <SCORE.norm>
-0.387822

>  <RMSD>
9.097

$$$$
lig.pdb
 OpenBabel11021811503D
libRbt.so/2013.1/901 2013/11/27
 34 36  0  0  0  0  0  0  0  0999 V2000
   -4.9036   16.6142   36.9559 C   0  0  2  0  0  0  0  0  0  0  0  0
   -3.7855   16.2246   37.7611 O   0  0  0  0  0  0  0  0  0  0  0  0
   -6.0998   17.0208   37.9175 C   0  0  2  0  0  0  0  0  0  0  0  0
   -5.7371   18.1554   38.7985 N   0  0  0  0  0  0  0  0  0  0  0  0
   -6.5103   15.7971   38.7748 C   0  0  1  0  0  0  0  0  0  0  0  0
   -7.5921   16.1423   39.6431 O   0  0  0  0  0  0  0  0  0  0  0  0
   -6.8961   14.6446   37.8305 C   0  0  2  0  0  0  0  0  0  0  0  0
   -7.2806   13.5101   38.6085 O   0  0  0  0  0  0  0  0  0  0  0  0
   -5.6780   14.2965   36.8917 C   0  0  2  0  0  0  0  0  0  0  0  0
   -5.2701   15.4788   36.1031 O   0  0  0  0  0  0  0  0  0  0  0  0
   -6.0248   13.1502   35.9095 C   0  0  2  0  0  0  0  0  0  0  0  0
   -6.4157   11.9870   36.6415 O   0  0  0  0  0  0  0  0  0  0  0  0
   -4.8320   12.7956   35.0353 C   0  0  0  0  0  0  0  0  0  0  0  0
    0.3925   16.6892   36.9581 C   0  0  2  0  0  0  0  0  0  0  0  0
    1.7266   16.4892   36.3869 N   0  0  0  0  0  0  0  0  0  0  0  0
   -0.0977   15.3094   37.4775 C   0  0  0  0  0  0  0  0  0  0  0  0
   -1.5024   15.5054   38.1095 C   0  0  2  0  0  0  0  0  0  0  0  0
   -2.0051   14.2209   38.6215 N   0  0  0  0  0  0  0  0  0  0  0  0
   -2.5067   16.0670   37.0677 C   0  0  2  0  0  0  0  0  0  0  0  0
   -1.9707   17.4300   36.5268 C   0  0  2  0  0  0  0  0  0  0  0  0
   -2.8936   17.9423   35.5560 O   0  0  0  0  0  0  0  0  0  0  0  0
   -0.5921   17.2482   35.8465 C   0  0  1  0  0  0  0  0  0  0  0  0
   -0.1627   18.5531   35.3852 O   0  0  0  0  0  0  0  0  0  0  0  0
   -0.2830   18.7963   33.9639 C   0  0  2  0  0  0  0  0  0  0  0  0
    0.6690   20.0085   33.6452 C   0  0  2  0  0  0  0  0  0  0  0  0
    2.0068   19.6705   33.9755 O   0  0  0  0  0  0  0  0  0  0  0  0
    0.1869   21.2668   34.4618 C   0  0  1  0  0  0  0  0  0  0  0  0
    1.0708   22.4429   34.1971 N   0  0  0  0  0  0  0  0  0  0  0  0
    2.0163   22.5942   35.3239 C   0  0  0  0  0  0  0  0  0  0  0  0
   -1.2815   21.5907   34.0502 C   0  0  2  0  0  0  0  0  0  0  0  0
   -1.3110   21.8846   32.6544 O   0  0  0  0  0  0  0  0  0  0  0  0
   -1.8292   22.7984   34.8066 C   0  0  0  0  0  0  0  0  0  0  0  0
   -2.1798   20.3444   34.3349 C   0  0  0  0  0  0  0  0  0  0  0  0
   -1.6738   19.1540   33.6197 O   0  0  0  0  0  0  0  0  0  0  0  0
  1  3  1  0  0  0  0
  1  2  1  1  0  0  0
  3  5  1  0  0  0  0
  3  4  1  1  0  0  0
  5  6  1  6  0  0  0
  7  8  1  1  0  0  0
  7  5  1  0  0  0  0
  9 10  1  6  0  0  0
  9  7  1  0  0  0  0
 10  1  1  0  0  0  0
 11 13  1  1  0  0  0
 11  9  1  0  0  0  0
 12 11  1  0  0  0  0
 14 15  1  6  0  0  0
 16 14  1  0  0  0  0
 17 18  1  6  0  0  0
 17 16  1  0  0  0  0
 19  2  1  1  0  0  0
 19 20  1  0  0  0  0
 19 17  1  0  0  0  0
 20 21  1  6  0  0  0
 20 22  1  0  0  0  0
 22 23  1  1  0  0  0
 22 14  1  0  0  0  0
 24 23  1  1  0  0  0
 24 25  1  0  0  0  0
 25 27  1  0  0  0  0
 25 26  1  1  0  0  0
 27 28  1  6  0  0  0
 28 29  1  0  0  0  0
 30 31  1  6  0  0  0
 30 32  1  0  0  0  0
 30 27  1  0  0  0  0
 33 30  1  0  0  0  0
 34 33  1  0  0  0  0
 34 24  1  0  0  0  0
M  END
>  <CHROM.1>
-168.38509486,-58.17535817,-174.25610952,139.93631061,-160.82941618,-100.82218262
-2.64679229,17.40622385,36.15697943,2.29907577,-0.18995366,2.83065835

>  <Name>
lig.pdb

>  <RI>
0

>  <Rbt.Current_Directory>
/home/itssahil/PROJECTS/Mol_Feturizer/New_Systems/rnas/4k32

>  <Rbt.Executable>
rbdock ($Id: //depot/dev/client3/rdock/2013.1/src/exe/rbdock.cxx#4 $)

>  <Rbt.Library>
libRbt.so (2013.1, Build901 2013/11/27)

>  <Rbt.Parameter_File>
/export/apps/rDock/src/rDock_2013.1_src/data/scripts/dock_solv.prm

>  <Rbt.Receptor>
prm/pocket_docking_4.prm

>  <SCORE>
-13.1625

>  <SCORE.INTER>
-8.20814

>  <SCORE.INTER.CONST>
1

>  <SCORE.INTER.POLAR>
0

>  <SCORE.INTER.ROT>
6

>  <SCORE.INTER.SOLV>
16.5283

>  <SCORE.INTER.VDW>
-18.5815

>  <SCORE.INTER.norm>
-0.241416

>  <SCORE.INTRA>
-4.95437

>  <SCORE.INTRA.DIHEDRAL>
-9.1929

>  <SCORE.INTRA.DIHEDRAL.0>
18.0069

>  <SCORE.INTRA.POLAR>
0

>  <SCORE.INTRA.POLAR.0>
0

>  <SCORE.INTRA.REPUL>
0

>  <SCORE.INTRA.REPUL.0>
0

>  <SCORE.INTRA.SOLV>
-2.38031

>  <SCORE.INTRA.SOLV.lig_0>
-70.7393

>  <SCORE.INTRA.VDW>
0.832238

>  <SCORE.INTRA.VDW.0>
-3.23471

>  <SCORE.INTRA.norm>
-0.145717

>  <SCORE.RESTR>
0

>  <SCORE.RESTR.CAVITY>
0

>  <SCORE.RESTR.norm>
0

>  <SCORE.SYSTEM>
0

>  <SCORE.SYSTEM.CONST>
0

>  <SCORE.SYSTEM.DIHEDRAL>
0

>  <SCORE.SYSTEM.SOLV>
0

>  <SCORE.SYSTEM.norm>
0

>  <SCORE.heavy>
34

>  <SCORE.norm>
-0.387133

>  <RMSD>
9.101

$$$$
lig.pdb
 OpenBabel11021811503D
libRbt.so/2013.1/901 2013/11/27
 34 36  0  0  0  0  0  0  0  0999 V2000
   -4.0054   15.6541   35.6207 C   0  0  2  0  0  0  0  0  0  0  0  0
   -2.8918   15.4313   36.4927 O   0  0  0  0  0  0  0  0  0  0  0  0
   -5.3339   15.2342   36.3825 C   0  0  2  0  0  0  0  0  0  0  0  0
   -5.5363   16.0297   37.6159 N   0  0  0  0  0  0  0  0  0  0  0  0
   -5.2728   13.7258   36.7312 C   0  0  1  0  0  0  0  0  0  0  0  0
   -6.4648   13.3271   37.4122 O   0  0  0  0  0  0  0  0  0  0  0  0
   -5.0790   12.9292   35.4287 C   0  0  2  0  0  0  0  0  0  0  0  0
   -5.0248   11.5352   35.7356 O   0  0  0  0  0  0  0  0  0  0  0  0
   -3.7565   13.3992   34.7101 C   0  0  2  0  0  0  0  0  0  0  0  0
   -3.8082   14.8465   34.4125 O   0  0  0  0  0  0  0  0  0  0  0  0
   -3.5269   12.6354   33.3824 C   0  0  2  0  0  0  0  0  0  0  0  0
   -2.2774   13.0251   32.8093 O   0  0  0  0  0  0  0  0  0  0  0  0
   -4.6330   12.9293   32.3809 C   0  0  0  0  0  0  0  0  0  0  0  0
    0.9914   17.2224   36.3215 C   0  0  2  0  0  0  0  0  0  0  0  0
    2.3670   17.5173   35.9129 N   0  0  0  0  0  0  0  0  0  0  0  0
    0.9081   15.6943   36.5897 C   0  0  0  0  0  0  0  0  0  0  0  0
   -0.5384   15.3651   37.0482 C   0  0  2  0  0  0  0  0  0  0  0  0
   -0.6624   13.9244   37.3196 N   0  0  0  0  0  0  0  0  0  0  0  0
   -1.5709   15.7698   35.9620 C   0  0  2  0  0  0  0  0  0  0  0  0
   -1.4372   17.2990   35.6767 C   0  0  2  0  0  0  0  0  0  0  0  0
   -2.3836   17.6695   34.6650 O   0  0  0  0  0  0  0  0  0  0  0  0
   -0.0155   17.6417   35.1692 C   0  0  1  0  0  0  0  0  0  0  0  0
    0.0282   19.0720   34.9403 O   0  0  0  0  0  0  0  0  0  0  0  0
   -0.3011   19.5121   33.6019 C   0  0  2  0  0  0  0  0  0  0  0  0
    0.4493   20.8799   33.3937 C   0  0  2  0  0  0  0  0  0  0  0  0
    1.8493   20.6852   33.5176 O   0  0  0  0  0  0  0  0  0  0  0  0
   -0.0724   21.9175   34.4585 C   0  0  1  0  0  0  0  0  0  0  0  0
    0.6223   23.2321   34.3044 N   0  0  0  0  0  0  0  0  0  0  0  0
    1.6208   23.3753   35.3856 C   0  0  0  0  0  0  0  0  0  0  0  0
   -1.6096   22.0926   34.2665 C   0  0  2  0  0  0  0  0  0  0  0  0
   -1.8524   22.5911   32.9519 O   0  0  0  0  0  0  0  0  0  0  0  0
   -2.1975   23.0809   35.2706 C   0  0  0  0  0  0  0  0  0  0  0  0
   -2.3074   20.7043   34.4297 C   0  0  0  0  0  0  0  0  0  0  0  0
   -1.7574   19.7207   33.4733 O   0  0  0  0  0  0  0  0  0  0  0  0
  1  3  1  0  0  0  0
  1  2  1  1  0  0  0
  3  5  1  0  0  0  0
  3  4  1  1  0  0  0
  5  6  1  6  0  0  0
  7  8  1  1  0  0  0
  7  5  1  0  0  0  0
  9 10  1  6  0  0  0
  9  7  1  0  0  0  0
 10  1  1  0  0  0  0
 11 13  1  6  0  0  0
 11  9  1  0  0  0  0
 12 11  1  0  0  0  0
 14 15  1  6  0  0  0
 16 14  1  0  0  0  0
 17 18  1  6  0  0  0
 17 16  1  0  0  0  0
 19  2  1  1  0  0  0
 19 20  1  0  0  0  0
 19 17  1  0  0  0  0
 20 21  1  6  0  0  0
 20 22  1  0  0  0  0
 22 23  1  1  0  0  0
 22 14  1  0  0  0  0
 24 23  1  1  0  0  0
 24 25  1  0  0  0  0
 25 27  1  0  0  0  0
 25 26  1  1  0  0  0
 27 28  1  6  0  0  0
 28 29  1  0  0  0  0
 30 31  1  6  0  0  0
 30 32  1  0  0  0  0
 30 27  1  0  0  0  0
 33 30  1  0  0  0  0
 34 33  1  0  0  0  0
 34 24  1  0  0  0  0
M  END
>  <CHROM.1>
-179.70050405,-176.15201407,-176.73624527,151.85344440,-153.28710924,-104.35605682
-1.94270107,17.22847344,35.08548802,2.05824500,0.09960349,2.95086557

>  <Name>
lig.pdb

>  <RI>
0

>  <Rbt.Current_Directory>
/home/itssahil/PROJECTS/Mol_Feturizer/New_Systems/rnas/4k32

>  <Rbt.Executable>
rbdock ($Id: //depot/dev/client3/rdock/2013.1/src/exe/rbdock.cxx#4 $)

>  <Rbt.Library>
libRbt.so (2013.1, Build901 2013/11/27)

>  <Rbt.Parameter_File>
/export/apps/rDock/src/rDock_2013.1_src/data/scripts/dock_solv.prm

>  <Rbt.Receptor>
prm/pocket_docking_8.prm

>  <SCORE>
-14.5196

>  <SCORE.INTER>
-9.34304

>  <SCORE.INTER.CONST>
1

>  <SCORE.INTER.POLAR>
0

>  <SCORE.INTER.ROT>
6

>  <SCORE.INTER.SOLV>
19.8418

>  <SCORE.INTER.VDW>
-20.4426

>  <SCORE.INTER.norm>
-0.274795

>  <SCORE.INTRA>
-5.17659

>  <SCORE.INTRA.DIHEDRAL>
-10.6282

>  <SCORE.INTRA.DIHEDRAL.0>
18.0069

>  <SCORE.INTRA.POLAR>
0

>  <SCORE.INTRA.POLAR.0>
0

>  <SCORE.INTRA.REPUL>
0

>  <SCORE.INTRA.REPUL.0>
0

>  <SCORE.INTRA.SOLV>
-2.81437

>  <SCORE.INTRA.SOLV.lig_0>
-70.7393

>  <SCORE.INTRA.VDW>
1.5447

>  <SCORE.INTRA.VDW.0>
-3.23471

>  <SCORE.INTRA.norm>
-0.152253

>  <SCORE.RESTR>
0

>  <SCORE.RESTR.CAVITY>
0

>  <SCORE.RESTR.norm>
0

>  <SCORE.SYSTEM>
0

>  <SCORE.SYSTEM.CONST>
0

>  <SCORE.SYSTEM.DIHEDRAL>
0

>  <SCORE.SYSTEM.SOLV>
0

>  <SCORE.SYSTEM.norm>
0

>  <SCORE.heavy>
34

>  <SCORE.norm>
-0.427048

>  <RMSD>
9.112

$$$$
lig.pdb
 OpenBabel11021811503D
libRbt.so/2013.1/901 2013/11/27
 34 36  0  0  0  0  0  0  0  0999 V2000
   -5.3965   16.9614   37.6987 C   0  0  2  0  0  0  0  0  0  0  0  0
   -4.2935   16.9979   38.6110 O   0  0  0  0  0  0  0  0  0  0  0  0
   -6.6546   17.6274   38.4021 C   0  0  2  0  0  0  0  0  0  0  0  0
   -6.3964   19.0388   38.7708 N   0  0  0  0  0  0  0  0  0  0  0  0
   -7.0302   16.8120   39.6650 C   0  0  1  0  0  0  0  0  0  0  0  0
   -8.1666   17.3931   40.3088 O   0  0  0  0  0  0  0  0  0  0  0  0
   -7.3076   15.3577   39.2447 C   0  0  2  0  0  0  0  0  0  0  0  0
   -7.6591   14.5949   40.4001 O   0  0  0  0  0  0  0  0  0  0  0  0
   -6.0321   14.7558   38.5396 C   0  0  2  0  0  0  0  0  0  0  0  0
   -5.6596   15.5598   37.3561 O   0  0  0  0  0  0  0  0  0  0  0  0
   -6.2694   13.2950   38.0827 C   0  0  2  0  0  0  0  0  0  0  0  0
   -7.5579   13.1807   37.4758 O   0  0  0  0  0  0  0  0  0  0  0  0
   -6.1996   12.3331   39.2585 C   0  0  0  0  0  0  0  0  0  0  0  0
   -0.0549   16.9944   38.0187 C   0  0  2  0  0  0  0  0  0  0  0  0
    1.2902   16.5738   37.6188 N   0  0  0  0  0  0  0  0  0  0  0  0
   -0.6729   15.8345   38.8473 C   0  0  0  0  0  0  0  0  0  0  0  0
   -2.0919   16.2716   39.3016 C   0  0  2  0  0  0  0  0  0  0  0  0
   -2.7150   15.2021   40.0970 N   0  0  0  0  0  0  0  0  0  0  0  0
   -2.9937   16.5884   38.0784 C   0  0  2  0  0  0  0  0  0  0  0  0
   -2.3301   17.7238   37.2369 C   0  0  2  0  0  0  0  0  0  0  0  0
   -3.1583   18.0076   36.1010 O   0  0  0  0  0  0  0  0  0  0  0  0
   -0.9334   17.2888   36.7306 C   0  0  1  0  0  0  0  0  0  0  0  0
   -0.3847   18.3957   35.9731 O   0  0  0  0  0  0  0  0  0  0  0  0
   -0.3216   18.2154   34.5388 C   0  0  2  0  0  0  0  0  0  0  0  0
    0.7581   19.2347   34.0166 C   0  0  2  0  0  0  0  0  0  0  0  0
    2.0168   18.9471   34.6050 O   0  0  0  0  0  0  0  0  0  0  0  0
    0.2925   20.6985   34.3675 C   0  0  1  0  0  0  0  0  0  0  0  0
    1.2956   21.7022   33.8978 N   0  0  0  0  0  0  0  0  0  0  0  0
    2.1822   22.0573   35.0268 C   0  0  0  0  0  0  0  0  0  0  0  0
   -1.0873   20.9547   33.6887 C   0  0  2  0  0  0  0  0  0  0  0  0
   -0.9330   20.8260   32.2761 O   0  0  0  0  0  0  0  0  0  0  0  0
   -1.6152   22.3554   33.9881 C   0  0  0  0  0  0  0  0  0  0  0  0
   -2.1128   19.8903   34.1954 C   0  0  0  0  0  0  0  0  0  0  0  0
   -1.6295   18.5201   33.9246 O   0  0  0  0  0  0  0  0  0  0  0  0
  1  3  1  0  0  0  0
  1  2  1  1  0  0  0
  3  5  1  0  0  0  0
  3  4  1  1  0  0  0
  5  6  1  6  0  0  0
  7  8  1  1  0  0  0
  7  5  1  0  0  0  0
  9 10  1  6  0  0  0
  9  7  1  0  0  0  0
 10  1  1  0  0  0  0
 11 13  1  1  0  0  0
 11  9  1  0  0  0  0
 12 11  1  0  0  0  0
 14 15  1  6  0  0  0
 16 14  1  0  0  0  0
 17 18  1  6  0  0  0
 17 16  1  0  0  0  0
 19  2  1  1  0  0  0
 19 20  1  0  0  0  0
 19 17  1  0  0  0  0
 20 21  1  6  0  0  0
 20 22  1  0  0  0  0
 22 23  1  1  0  0  0
 22 14  1  0  0  0  0
 24 23  1  1  0  0  0
 24 25  1  0  0  0  0
 25 27  1  0  0  0  0
 25 26  1  1  0  0  0
 27 28  1  6  0  0  0
 28 29  1  0  0  0  0
 30 31  1  6  0  0  0
 30 32  1  0  0  0  0
 30 27  1  0  0  0  0
 33 30  1  0  0  0  0
 34 33  1  0  0  0  0
 34 24  1  0  0  0  0
M  END
>  <CHROM.1>
-172.18070281,43.58422416,-162.20013874,135.71443694,-159.01320167,-96.54880252
-2.95918757,17.53331283,36.93547992,2.35603873,-0.12159721,2.51500354

>  <Name>
lig.pdb

>  <RI>
0

>  <Rbt.Current_Directory>
/home/itssahil/PROJECTS/Mol_Feturizer/New_Systems/rnas/4k32

>  <Rbt.Executable>
rbdock ($Id: //depot/dev/client3/rdock/2013.1/src/exe/rbdock.cxx#4 $)

>  <Rbt.Library>
libRbt.so (2013.1, Build901 2013/11/27)

>  <Rbt.Parameter_File>
/export/apps/rDock/src/rDock_2013.1_src/data/scripts/dock_solv.prm

>  <Rbt.Receptor>
prm/pocket_docking_4.prm

>  <SCORE>
-11.8807

>  <SCORE.INTER>
-8.0692

>  <SCORE.INTER.CONST>
1

>  <SCORE.INTER.POLAR>
0

>  <SCORE.INTER.ROT>
6

>  <SCORE.INTER.SOLV>
16.393

>  <SCORE.INTER.VDW>
-18.4438

>  <SCORE.INTER.norm>
-0.23733

>  <SCORE.INTRA>
-3.8115

>  <SCORE.INTRA.DIHEDRAL>
-6.54562

>  <SCORE.INTRA.DIHEDRAL.0>
18.0069

>  <SCORE.INTRA.POLAR>
0

>  <SCORE.INTRA.POLAR.0>
0

>  <SCORE.INTRA.REPUL>
0

>  <SCORE.INTRA.REPUL.0>
0

>  <SCORE.INTRA.SOLV>
-1.56851

>  <SCORE.INTRA.SOLV.lig_0>
-70.7393

>  <SCORE.INTRA.VDW>
0.245561

>  <SCORE.INTRA.VDW.0>
-3.23471

>  <SCORE.INTRA.norm>
-0.112103

>  <SCORE.RESTR>
0

>  <SCORE.RESTR.CAVITY>
0

>  <SCORE.RESTR.norm>
0

>  <SCORE.SYSTEM>
0

>  <SCORE.SYSTEM.CONST>
0

>  <SCORE.SYSTEM.DIHEDRAL>
0

>  <SCORE.SYSTEM.SOLV>
0

>  <SCORE.SYSTEM.norm>
0

>  <SCORE.heavy>
34

>  <SCORE.norm>
-0.349433

>  <RMSD>
9.114

$$$$
lig.pdb
 OpenBabel11021811503D
libRbt.so/2013.1/901 2013/11/27
 34 36  0  0  0  0  0  0  0  0999 V2000
   -2.7652    9.7126   35.2755 C   0  0  2  0  0  0  0  0  0  0  0  0
   -4.0356   10.2112   35.7089 O   0  0  0  0  0  0  0  0  0  0  0  0
   -2.5885   10.0547   33.7351 C   0  0  2  0  0  0  0  0  0  0  0  0
   -2.6298   11.5147   33.4869 N   0  0  0  0  0  0  0  0  0  0  0  0
   -3.7011    9.3490   32.9197 C   0  0  1  0  0  0  0  0  0  0  0  0
   -3.5541    9.6399   31.5279 O   0  0  0  0  0  0  0  0  0  0  0  0
   -3.6193    7.8355   33.1871 C   0  0  2  0  0  0  0  0  0  0  0  0
   -4.6382    7.1716   32.4378 O   0  0  0  0  0  0  0  0  0  0  0  0
   -3.7851    7.5589   34.7306 C   0  0  2  0  0  0  0  0  0  0  0  0
   -2.7410    8.2641   35.5041 O   0  0  0  0  0  0  0  0  0  0  0  0
   -3.6930    6.0464   35.0516 C   0  0  2  0  0  0  0  0  0  0  0  0
   -4.6378    5.3248   34.2591 O   0  0  0  0  0  0  0  0  0  0  0  0
   -3.9847    5.7774   36.5197 C   0  0  0  0  0  0  0  0  0  0  0  0
   -5.1622   11.3782   39.6694 C   0  0  2  0  0  0  0  0  0  0  0  0
   -5.5864   11.3060   41.0697 N   0  0  0  0  0  0  0  0  0  0  0  0
   -6.1857   10.5593   38.8353 C   0  0  0  0  0  0  0  0  0  0  0  0
   -5.7662   10.6440   37.3426 C   0  0  2  0  0  0  0  0  0  0  0  0
   -6.7139    9.8847   36.5119 N   0  0  0  0  0  0  0  0  0  0  0  0
   -4.3368   10.0755   37.1343 C   0  0  2  0  0  0  0  0  0  0  0  0
   -3.3337   10.8836   38.0166 C   0  0  2  0  0  0  0  0  0  0  0  0
   -2.0154   10.3502   37.8320 O   0  0  0  0  0  0  0  0  0  0  0  0
   -3.7045   10.7707   39.5153 C   0  0  1  0  0  0  0  0  0  0  0  0
   -2.7377   11.5527   40.2594 O   0  0  0  0  0  0  0  0  0  0  0  0
   -2.7847   11.4190   41.6994 C   0  0  2  0  0  0  0  0  0  0  0  0
   -1.6684   12.3739   42.2644 C   0  0  2  0  0  0  0  0  0  0  0  0
   -1.9426   13.7133   41.8849 O   0  0  0  0  0  0  0  0  0  0  0  0
   -0.2680   11.9069   41.7135 C   0  0  1  0  0  0  0  0  0  0  0  0
    0.8243   12.7940   42.2177 N   0  0  0  0  0  0  0  0  0  0  0  0
    1.2590   13.6876   41.1226 C   0  0  0  0  0  0  0  0  0  0  0  0
   -0.0231   10.4360   42.1685 C   0  0  2  0  0  0  0  0  0  0  0  0
   -0.0160   10.3935   43.5946 O   0  0  0  0  0  0  0  0  0  0  0  0
    1.3160    9.9024   41.6659 C   0  0  0  0  0  0  0  0  0  0  0  0
   -1.1801    9.5342   41.6305 C   0  0  0  0  0  0  0  0  0  0  0  0
   -2.4937   10.0266   42.0958 O   0  0  0  0  0  0  0  0  0  0  0  0
  1  3  1  0  0  0  0
  1  2  1  6  0  0  0
  3  5  1  0  0  0  0
  3  4  1  1  0  0  0
  5  6  1  6  0  0  0
  7  8  1  6  0  0  0
  7  5  1  0  0  0  0
  9 10  1  1  0  0  0
  9  7  1  0  0  0  0
 10  1  1  0  0  0  0
 11 13  1  1  0  0  0
 11  9  1  0  0  0  0
 12 11  1  0  0  0  0
 14 15  1  1  0  0  0
 16 14  1  0  0  0  0
 17 18  1  6  0  0  0
 17 16  1  0  0  0  0
 19  2  1  6  0  0  0
 19 20  1  0  0  0  0
 19 17  1  0  0  0  0
 20 21  1  1  0  0  0
 20 22  1  0  0  0  0
 22 23  1  1  0  0  0
 22 14  1  0  0  0  0
 24 23  1  6  0  0  0
 24 25  1  0  0  0  0
 25 27  1  0  0  0  0
 25 26  1  6  0  0  0
 27 28  1  1  0  0  0
 28 29  1  0  0  0  0
 30 31  1  1  0  0  0
 30 32  1  0  0  0  0
 30 27  1  0  0  0  0
 33 30  1  0  0  0  0
 34 33  1  0  0  0  0
 34 24  1  0  0  0  0
M  END
>  <CHROM.1>
-175.65357622,-54.37904830,-178.40995255,72.82853319,-179.05689617,-104.80757029
-2.89071951,10.04251137,38.01103973,-1.91021364,0.01729142,1.17338809

>  <Name>
lig.pdb

>  <RI>
0

>  <Rbt.Current_Directory>
/home/itssahil/PROJECTS/Mol_Feturizer/New_Systems/rnas/4k32

>  <Rbt.Executable>
rbdock ($Id: //depot/dev/client3/rdock/2013.1/src/exe/rbdock.cxx#4 $)

>  <Rbt.Library>
libRbt.so (2013.1, Build901 2013/11/27)

>  <Rbt.Parameter_File>
/export/apps/rDock/src/rDock_2013.1_src/data/scripts/dock_solv.prm

>  <Rbt.Receptor>
prm/pocket_docking_8.prm

>  <SCORE>
-5.92791

>  <SCORE.INTER>
2.26628

>  <SCORE.INTER.CONST>
1

>  <SCORE.INTER.POLAR>
0

>  <SCORE.INTER.ROT>
6

>  <SCORE.INTER.SOLV>
17.7399

>  <SCORE.INTER.VDW>
-12.0024

>  <SCORE.INTER.norm>
0.0666552

>  <SCORE.INTRA>
-8.19419

>  <SCORE.INTRA.DIHEDRAL>
-15.9114

>  <SCORE.INTRA.DIHEDRAL.0>
18.0069

>  <SCORE.INTRA.POLAR>
0

>  <SCORE.INTRA.POLAR.0>
0

>  <SCORE.INTRA.REPUL>
0

>  <SCORE.INTRA.REPUL.0>
0

>  <SCORE.INTRA.SOLV>
-1.84155

>  <SCORE.INTRA.SOLV.lig_0>
-70.7393

>  <SCORE.INTRA.VDW>
0.682306

>  <SCORE.INTRA.VDW.0>
-3.23471

>  <SCORE.INTRA.norm>
-0.241006

>  <SCORE.RESTR>
0

>  <SCORE.RESTR.CAVITY>
0

>  <SCORE.RESTR.norm>
0

>  <SCORE.SYSTEM>
0

>  <SCORE.SYSTEM.CONST>
0

>  <SCORE.SYSTEM.DIHEDRAL>
0

>  <SCORE.SYSTEM.SOLV>
0

>  <SCORE.SYSTEM.norm>
0

>  <SCORE.heavy>
34

>  <SCORE.norm>
-0.17435

>  <RMSD>
9.115

$$$$
lig.pdb
 OpenBabel11021811503D
libRbt.so/2013.1/901 2013/11/27
 34 36  0  0  0  0  0  0  0  0999 V2000
   -5.1047   17.2438   37.4556 C   0  0  2  0  0  0  0  0  0  0  0  0
   -3.9615   17.3099   38.3153 O   0  0  0  0  0  0  0  0  0  0  0  0
   -6.3979   17.5899   38.3094 C   0  0  2  0  0  0  0  0  0  0  0  0
   -6.3258   18.9503   38.8916 N   0  0  0  0  0  0  0  0  0  0  0  0
   -6.5662   16.5412   39.4375 C   0  0  1  0  0  0  0  0  0  0  0  0
   -7.7308   16.8325   40.2137 O   0  0  0  0  0  0  0  0  0  0  0  0
   -6.6544   15.1439   38.7983 C   0  0  2  0  0  0  0  0  0  0  0  0
   -6.8136   14.1668   39.8281 O   0  0  0  0  0  0  0  0  0  0  0  0
   -5.3535   14.8634   37.9526 C   0  0  2  0  0  0  0  0  0  0  0  0
   -5.1814   15.8883   36.9010 O   0  0  0  0  0  0  0  0  0  0  0  0
   -5.4036   13.4716   37.2746 C   0  0  2  0  0  0  0  0  0  0  0  0
   -4.1701   13.2171   36.5998 O   0  0  0  0  0  0  0  0  0  0  0  0
   -6.5359   13.3937   36.2625 C   0  0  0  0  0  0  0  0  0  0  0  0
    0.2572   17.3911   37.5994 C   0  0  2  0  0  0  0  0  0  0  0  0
    1.5930   17.0133   37.1314 N   0  0  0  0  0  0  0  0  0  0  0  0
   -0.3261   16.1698   38.3623 C   0  0  0  0  0  0  0  0  0  0  0  0
   -1.7343   16.5595   38.8878 C   0  0  2  0  0  0  0  0  0  0  0  0
   -2.3244   15.4307   39.6242 N   0  0  0  0  0  0  0  0  0  0  0  0
   -2.6750   16.9519   37.7171 C   0  0  2  0  0  0  0  0  0  0  0  0
   -2.0464   18.1502   36.9382 C   0  0  2  0  0  0  0  0  0  0  0  0
   -2.9107   18.5044   35.8500 O   0  0  0  0  0  0  0  0  0  0  0  0
   -0.6621   17.7660   36.3616 C   0  0  1  0  0  0  0  0  0  0  0  0
   -0.1454   18.9287   35.6680 O   0  0  0  0  0  0  0  0  0  0  0  0
    0.6663   18.6637   34.4999 C   0  0  2  0  0  0  0  0  0  0  0  0
    1.4916   19.9771   34.2331 C   0  0  2  0  0  0  0  0  0  0  0  0
    2.3165   20.2636   35.3515 O   0  0  0  0  0  0  0  0  0  0  0  0
    0.4917   21.1619   33.9514 C   0  0  1  0  0  0  0  0  0  0  0  0
    1.2333   22.4354   33.7018 N   0  0  0  0  0  0  0  0  0  0  0  0
    1.5073   23.0916   34.9983 C   0  0  0  0  0  0  0  0  0  0  0  0
   -0.3779   20.7909   32.7118 C   0  0  2  0  0  0  0  0  0  0  0  0
    0.4817   20.6110   31.5874 O   0  0  0  0  0  0  0  0  0  0  0  0
   -1.3840   21.8888   32.3759 C   0  0  0  0  0  0  0  0  0  0  0  0
   -1.1376   19.4563   33.0000 C   0  0  0  0  0  0  0  0  0  0  0  0
   -0.1912   18.3711   33.3338 O   0  0  0  0  0  0  0  0  0  0  0  0
  1  3  1  0  0  0  0
  1  2  1  1  0  0  0
  3  5  1  0  0  0  0
  3  4  1  1  0  0  0
  5  6  1  6  0  0  0
  7  8  1  1  0  0  0
  7  5  1  0  0  0  0
  9 10  1  6  0  0  0
  9  7  1  0  0  0  0
 10  1  1  0  0  0  0
 11 13  1  6  0  0  0
 11  9  1  0  0  0  0
 12 11  1  0  0  0  0
 14 15  1  6  0  0  0
 16 14  1  0  0  0  0
 17 18  1  6  0  0  0
 17 16  1  0  0  0  0
 19  2  1  1  0  0  0
 19 20  1  0  0  0  0
 19 17  1  0  0  0  0
 20 21  1  6  0  0  0
 20 22  1  0  0  0  0
 22 23  1  1  0  0  0
 22 14  1  0  0  0  0
 24 23  1  1  0  0  0
 24 25  1  0  0  0  0
 25 27  1  0  0  0  0
 25 26  1  1  0  0  0
 27 28  1  6  0  0  0
 28 29  1  0  0  0  0
 30 31  1  6  0  0  0
 30 32  1  0  0  0  0
 30 27  1  0  0  0  0
 33 30  1  0  0  0  0
 34 33  1  0  0  0  0
 34 24  1  0  0  0  0
M  END
>  <CHROM.1>
176.96862081,-175.84660693,-158.37002065,97.17310237,-160.91493980,-86.38869417
-2.42563629,17.76862793,36.45497420,2.32647668,-0.06106850,2.47460184

>  <Name>
lig.pdb

>  <RI>
0

>  <Rbt.Current_Directory>
/home/itssahil/PROJECTS/Mol_Feturizer/New_Systems/rnas/4k32

>  <Rbt.Executable>
rbdock ($Id: //depot/dev/client3/rdock/2013.1/src/exe/rbdock.cxx#4 $)

>  <Rbt.Library>
libRbt.so (2013.1, Build901 2013/11/27)

>  <Rbt.Parameter_File>
/export/apps/rDock/src/rDock_2013.1_src/data/scripts/dock_solv.prm

>  <Rbt.Receptor>
prm/pocket_docking_4.prm

>  <SCORE>
-11.7709

>  <SCORE.INTER>
-7.30755

>  <SCORE.INTER.CONST>
1

>  <SCORE.INTER.POLAR>
0

>  <SCORE.INTER.ROT>
6

>  <SCORE.INTER.SOLV>
17.2649

>  <SCORE.INTER.VDW>
-18.2267

>  <SCORE.INTER.norm>
-0.214928

>  <SCORE.INTRA>
-4.46851

>  <SCORE.INTRA.DIHEDRAL>
-8.7608

>  <SCORE.INTRA.DIHEDRAL.0>
18.0069

>  <SCORE.INTRA.POLAR>
0

>  <SCORE.INTRA.POLAR.0>
0

>  <SCORE.INTRA.REPUL>
0

>  <SCORE.INTRA.REPUL.0>
0

>  <SCORE.INTRA.SOLV>
-1.06982

>  <SCORE.INTRA.SOLV.lig_0>
-70.7393

>  <SCORE.INTRA.VDW>
0.446796

>  <SCORE.INTRA.VDW.0>
-3.23471

>  <SCORE.INTRA.norm>
-0.131427

>  <SCORE.RESTR>
0.00519381

>  <SCORE.RESTR.CAVITY>
0.00519381

>  <SCORE.RESTR.norm>
0.000152759

>  <SCORE.SYSTEM>
0

>  <SCORE.SYSTEM.CONST>
0

>  <SCORE.SYSTEM.DIHEDRAL>
0

>  <SCORE.SYSTEM.SOLV>
0

>  <SCORE.SYSTEM.norm>
0

>  <SCORE.heavy>
34

>  <SCORE.norm>
-0.346202

>  <RMSD>
9.122

$$$$
lig.pdb
 OpenBabel11021811503D
libRbt.so/2013.1/901 2013/11/27
 34 36  0  0  0  0  0  0  0  0999 V2000
   -5.2947   17.7001   37.6294 C   0  0  2  0  0  0  0  0  0  0  0  0
   -4.1492   17.5123   38.4677 O   0  0  0  0  0  0  0  0  0  0  0  0
   -6.5546   17.9831   38.5534 C   0  0  2  0  0  0  0  0  0  0  0  0
   -6.3708   19.2004   39.3775 N   0  0  0  0  0  0  0  0  0  0  0  0
   -6.8071   16.7589   39.4691 C   0  0  1  0  0  0  0  0  0  0  0  0
   -7.9433   16.9924   40.3045 O   0  0  0  0  0  0  0  0  0  0  0  0
   -7.0099   15.5173   38.5824 C   0  0  2  0  0  0  0  0  0  0  0  0
   -7.2476   14.3810   39.4146 O   0  0  0  0  0  0  0  0  0  0  0  0
   -5.7370   15.2964   37.6783 C   0  0  2  0  0  0  0  0  0  0  0  0
   -5.4825   16.4827   36.8334 O   0  0  0  0  0  0  0  0  0  0  0  0
   -5.9013   14.0645   36.7539 C   0  0  2  0  0  0  0  0  0  0  0  0
   -6.1243   12.8939   37.5423 O   0  0  0  0  0  0  0  0  0  0  0  0
   -4.6604   13.8471   35.9021 C   0  0  0  0  0  0  0  0  0  0  0  0
    0.0392   17.3480   37.6038 C   0  0  2  0  0  0  0  0  0  0  0  0
    1.3285   16.9116   37.0620 N   0  0  0  0  0  0  0  0  0  0  0  0
   -0.6065   16.1195   38.3022 C   0  0  0  0  0  0  0  0  0  0  0  0
   -1.9652   16.5688   38.9049 C   0  0  2  0  0  0  0  0  0  0  0  0
   -2.6119   15.4347   39.5834 N   0  0  0  0  0  0  0  0  0  0  0  0
   -2.9119   17.1084   37.7994 C   0  0  2  0  0  0  0  0  0  0  0  0
   -2.2231   18.3119   37.0818 C   0  0  2  0  0  0  0  0  0  0  0  0
   -3.0937   18.8023   36.0531 O   0  0  0  0  0  0  0  0  0  0  0  0
   -0.8894   17.8735   36.4295 C   0  0  1  0  0  0  0  0  0  0  0  0
   -0.3122   19.0434   35.7986 O   0  0  0  0  0  0  0  0  0  0  0  0
    0.6391   18.7898   34.7382 C   0  0  2  0  0  0  0  0  0  0  0  0
    1.4558   20.1228   34.5548 C   0  0  2  0  0  0  0  0  0  0  0  0
    2.1344   20.4419   35.7594 O   0  0  0  0  0  0  0  0  0  0  0  0
    0.4660   21.2772   34.1421 C   0  0  1  0  0  0  0  0  0  0  0  0
    1.1987   22.5681   33.9663 N   0  0  0  0  0  0  0  0  0  0  0  0
    1.2305   23.2805   35.2617 C   0  0  0  0  0  0  0  0  0  0  0  0
   -0.2404   20.8712   32.8128 C   0  0  2  0  0  0  0  0  0  0  0  0
    0.7510   20.7045   31.8005 O   0  0  0  0  0  0  0  0  0  0  0  0
   -1.2277   21.9382   32.3466 C   0  0  0  0  0  0  0  0  0  0  0  0
   -0.9939   19.5192   33.0256 C   0  0  0  0  0  0  0  0  0  0  0  0
   -0.0660   18.4633   33.4825 O   0  0  0  0  0  0  0  0  0  0  0  0
  1  3  1  0  0  0  0
  1  2  1  1  0  0  0
  3  5  1  0  0  0  0
  3  4  1  1  0  0  0
  5  6  1  6  0  0  0
  7  8  1  1  0  0  0
  7  5  1  0  0  0  0
  9 10  1  6  0  0  0
  9  7  1  0  0  0  0
 10  1  1  0  0  0  0
 11 13  1  1  0  0  0
 11  9  1  0  0  0  0
 12 11  1  0  0  0  0
 14 15  1  6  0  0  0
 16 14  1  0  0  0  0
 17 18  1  6  0  0  0
 17 16  1  0  0  0  0
 19  2  1  1  0  0  0
 19 20  1  0  0  0  0
 19 17  1  0  0  0  0
 20 21  1  6  0  0  0
 20 22  1  0  0  0  0
 22 23  1  1  0  0  0
 22 14  1  0  0  0  0
 24 23  1  1  0  0  0
 24 25  1  0  0  0  0
 25 27  1  0  0  0  0
 25 26  1  1  0  0  0
 27 28  1  6  0  0  0
 28 29  1  0  0  0  0
 30 31  1  6  0  0  0
 30 32  1  0  0  0  0
 30 27  1  0  0  0  0
 33 30  1  0  0  0  0
 34 33  1  0  0  0  0
 34 24  1  0  0  0  0
M  END
>  <CHROM.1>
174.15953752,-58.87375252,-163.58931538,86.09906379,-161.64258952,-89.67056023
-2.57756179,17.94191849,36.54453277,2.39169086,-0.25598822,2.68165415

>  <Name>
lig.pdb

>  <RI>
0

>  <Rbt.Current_Directory>
/home/itssahil/PROJECTS/Mol_Feturizer/New_Systems/rnas/4k32

>  <Rbt.Executable>
rbdock ($Id: //depot/dev/client3/rdock/2013.1/src/exe/rbdock.cxx#4 $)

>  <Rbt.Library>
libRbt.so (2013.1, Build901 2013/11/27)

>  <Rbt.Parameter_File>
/export/apps/rDock/src/rDock_2013.1_src/data/scripts/dock_solv.prm

>  <Rbt.Receptor>
prm/pocket_docking_5.prm

>  <SCORE>
-15.3509

>  <SCORE.INTER>
-9.12836

>  <SCORE.INTER.CONST>
1

>  <SCORE.INTER.POLAR>
0

>  <SCORE.INTER.ROT>
6

>  <SCORE.INTER.SOLV>
18.0305

>  <SCORE.INTER.VDW>
-19.6957

>  <SCORE.INTER.norm>
-0.268481

>  <SCORE.INTRA>
-6.22256

>  <SCORE.INTRA.DIHEDRAL>
-11.558

>  <SCORE.INTRA.DIHEDRAL.0>
18.0069

>  <SCORE.INTRA.POLAR>
0

>  <SCORE.INTRA.POLAR.0>
0

>  <SCORE.INTRA.REPUL>
0

>  <SCORE.INTRA.REPUL.0>
0

>  <SCORE.INTRA.SOLV>
-1.01115

>  <SCORE.INTRA.SOLV.lig_0>
-70.7393

>  <SCORE.INTRA.VDW>
0.0620298

>  <SCORE.INTRA.VDW.0>
-3.23471

>  <SCORE.INTRA.norm>
-0.183017

>  <SCORE.RESTR>
0

>  <SCORE.RESTR.CAVITY>
0

>  <SCORE.RESTR.norm>
0

>  <SCORE.SYSTEM>
0

>  <SCORE.SYSTEM.CONST>
0

>  <SCORE.SYSTEM.DIHEDRAL>
0

>  <SCORE.SYSTEM.SOLV>
0

>  <SCORE.SYSTEM.norm>
0

>  <SCORE.heavy>
34

>  <SCORE.norm>
-0.451498

>  <RMSD>
9.133

$$$$
lig.pdb
 OpenBabel11021811503D
libRbt.so/2013.1/901 2013/11/27
 34 36  0  0  0  0  0  0  0  0999 V2000
   -5.1953   17.6351   37.5855 C   0  0  2  0  0  0  0  0  0  0  0  0
   -4.0421   17.3852   38.3966 O   0  0  0  0  0  0  0  0  0  0  0  0
   -6.4177   17.9779   38.5392 C   0  0  2  0  0  0  0  0  0  0  0  0
   -6.1531   19.1805   39.3630 N   0  0  0  0  0  0  0  0  0  0  0  0
   -6.7116   16.7640   39.4563 C   0  0  1  0  0  0  0  0  0  0  0  0
   -7.8149   17.0516   40.3185 O   0  0  0  0  0  0  0  0  0  0  0  0
   -6.9978   15.5385   38.5704 C   0  0  2  0  0  0  0  0  0  0  0  0
   -7.2744   14.4120   39.4040 O   0  0  0  0  0  0  0  0  0  0  0  0
   -5.7588   15.2570   37.6365 C   0  0  2  0  0  0  0  0  0  0  0  0
   -5.4633   16.4325   36.7899 O   0  0  0  0  0  0  0  0  0  0  0  0
   -6.0071   14.0393   36.7120 C   0  0  2  0  0  0  0  0  0  0  0  0
   -6.2764   12.8790   37.5013 O   0  0  0  0  0  0  0  0  0  0  0  0
   -4.7968   13.7595   35.8347 C   0  0  0  0  0  0  0  0  0  0  0  0
    0.1284   17.1657   37.4611 C   0  0  2  0  0  0  0  0  0  0  0  0
    1.3992   16.7251   36.8804 N   0  0  0  0  0  0  0  0  0  0  0  0
   -0.5354   15.9219   38.1140 C   0  0  0  0  0  0  0  0  0  0  0  0
   -1.8744   16.3741   38.7572 C   0  0  2  0  0  0  0  0  0  0  0  0
   -2.5373   15.2255   39.3945 N   0  0  0  0  0  0  0  0  0  0  0  0
   -2.8243   16.9840   37.6917 C   0  0  2  0  0  0  0  0  0  0  0  0
   -2.1183   18.2027   37.0179 C   0  0  2  0  0  0  0  0  0  0  0  0
   -2.9922   18.7582   36.0258 O   0  0  0  0  0  0  0  0  0  0  0  0
   -0.8048   17.7641   36.3260 C   0  0  1  0  0  0  0  0  0  0  0  0
   -0.2099   18.9479   35.7390 O   0  0  0  0  0  0  0  0  0  0  0  0
    0.6999   18.7224   34.6367 C   0  0  2  0  0  0  0  0  0  0  0  0
    1.5372   20.0462   34.4823 C   0  0  2  0  0  0  0  0  0  0  0  0
    2.2622   20.2998   35.6753 O   0  0  0  0  0  0  0  0  0  0  0  0
    0.5581   21.2361   34.1535 C   0  0  1  0  0  0  0  0  0  0  0  0
    1.3109   22.5192   34.0079 N   0  0  0  0  0  0  0  0  0  0  0  0
    1.3203   23.2190   35.3105 C   0  0  0  0  0  0  0  0  0  0  0  0
   -0.2007   20.9017   32.8332 C   0  0  2  0  0  0  0  0  0  0  0  0
    0.7526   20.7602   31.7811 O   0  0  0  0  0  0  0  0  0  0  0  0
   -1.1809   22.0065   32.4471 C   0  0  0  0  0  0  0  0  0  0  0  0
   -0.9743   19.5564   33.0139 C   0  0  0  0  0  0  0  0  0  0  0  0
   -0.0535   18.4642   33.3931 O   0  0  0  0  0  0  0  0  0  0  0  0
  1  3  1  0  0  0  0
  1  2  1  1  0  0  0
  3  5  1  0  0  0  0
  3  4  1  1  0  0  0
  5  6  1  6  0  0  0
  7  8  1  1  0  0  0
  7  5  1  0  0  0  0
  9 10  1  6  0  0  0
  9  7  1  0  0  0  0
 10  1  1  0  0  0  0
 11 13  1  1  0  0  0
 11  9  1  0  0  0  0
 12 11  1  0  0  0  0
 14 15  1  6  0  0  0
 16 14  1  0  0  0  0
 17 18  1  6  0  0  0
 17 16  1  0  0  0  0
 19  2  1  1  0  0  0
 19 20  1  0  0  0  0
 19 17  1  0  0  0  0
 20 21  1  6  0  0  0
 20 22  1  0  0  0  0
 22 23  1  1  0  0  0
 22 14  1  0  0  0  0
 24 23  1  1  0  0  0
 24 25  1  0  0  0  0
 25 27  1  0  0  0  0
 25 26  1  1  0  0  0
 27 28  1  6  0  0  0
 28 29  1  0  0  0  0
 30 31  1  6  0  0  0
 30 32  1  0  0  0  0
 30 27  1  0  0  0  0
 33 30  1  0  0  0  0
 34 33  1  0  0  0  0
 34 24  1  0  0  0  0
M  END
>  <CHROM.1>
177.01779479,-58.66910604,-163.53887301,87.25371292,-162.52110964,-93.53403339
-2.52177389,17.88393205,36.49345020,2.40661482,-0.28810539,2.72709443

>  <Name>
lig.pdb

>  <RI>
0

>  <Rbt.Current_Directory>
/home/itssahil/PROJECTS/Mol_Feturizer/New_Systems/rnas/4k32

>  <Rbt.Executable>
rbdock ($Id: //depot/dev/client3/rdock/2013.1/src/exe/rbdock.cxx#4 $)

>  <Rbt.Library>
libRbt.so (2013.1, Build901 2013/11/27)

>  <Rbt.Parameter_File>
/export/apps/rDock/src/rDock_2013.1_src/data/scripts/dock_solv.prm

>  <Rbt.Receptor>
prm/pocket_docking_5.prm

>  <SCORE>
-15.5523

>  <SCORE.INTER>
-9.15306

>  <SCORE.INTER.CONST>
1

>  <SCORE.INTER.POLAR>
0

>  <SCORE.INTER.ROT>
6

>  <SCORE.INTER.SOLV>
18.0032

>  <SCORE.INTER.VDW>
-19.7031

>  <SCORE.INTER.norm>
-0.269208

>  <SCORE.INTRA>
-6.39927

>  <SCORE.INTRA.DIHEDRAL>
-11.4731

>  <SCORE.INTRA.DIHEDRAL.0>
18.0069

>  <SCORE.INTRA.POLAR>
0

>  <SCORE.INTRA.POLAR.0>
0

>  <SCORE.INTRA.REPUL>
0

>  <SCORE.INTRA.REPUL.0>
0

>  <SCORE.INTRA.SOLV>
-1.09198

>  <SCORE.INTRA.SOLV.lig_0>
-70.7393

>  <SCORE.INTRA.VDW>
-0.11673

>  <SCORE.INTRA.VDW.0>
-3.23471

>  <SCORE.INTRA.norm>
-0.188214

>  <SCORE.RESTR>
0

>  <SCORE.RESTR.CAVITY>
0

>  <SCORE.RESTR.norm>
0

>  <SCORE.SYSTEM>
0

>  <SCORE.SYSTEM.CONST>
0

>  <SCORE.SYSTEM.DIHEDRAL>
0

>  <SCORE.SYSTEM.SOLV>
0

>  <SCORE.SYSTEM.norm>
0

>  <SCORE.heavy>
34

>  <SCORE.norm>
-0.457421

>  <RMSD>
9.144

$$$$
lig.pdb
 OpenBabel11021811503D
libRbt.so/2013.1/901 2013/11/27
 34 36  0  0  0  0  0  0  0  0999 V2000
   -5.5947   17.1465   37.4419 C   0  0  2  0  0  0  0  0  0  0  0  0
   -4.3963   16.8469   38.1660 O   0  0  0  0  0  0  0  0  0  0  0  0
   -6.6883   17.6648   38.4698 C   0  0  2  0  0  0  0  0  0  0  0  0
   -6.2454   18.8910   39.1735 N   0  0  0  0  0  0  0  0  0  0  0  0
   -6.9981   16.5485   39.4988 C   0  0  1  0  0  0  0  0  0  0  0  0
   -7.9870   16.9946   40.4296 O   0  0  0  0  0  0  0  0  0  0  0  0
   -7.4702   15.2973   38.7370 C   0  0  2  0  0  0  0  0  0  0  0  0
   -7.7631   14.2604   39.6749 O   0  0  0  0  0  0  0  0  0  0  0  0
   -6.3530   14.8396   37.7228 C   0  0  2  0  0  0  0  0  0  0  0  0
   -6.0383   15.9225   36.7666 O   0  0  0  0  0  0  0  0  0  0  0  0
   -6.7904   13.5900   36.9188 C   0  0  2  0  0  0  0  0  0  0  0  0
   -7.0815   12.5155   37.8145 O   0  0  0  0  0  0  0  0  0  0  0  0
   -5.6969   13.1417   35.9618 C   0  0  0  0  0  0  0  0  0  0  0  0
   -0.2842   16.6455   36.9968 C   0  0  2  0  0  0  0  0  0  0  0  0
    0.9463   16.2372   36.3147 N   0  0  0  0  0  0  0  0  0  0  0  0
   -0.9378   15.3605   37.5760 C   0  0  0  0  0  0  0  0  0  0  0  0
   -2.2331   15.7761   38.3249 C   0  0  2  0  0  0  0  0  0  0  0  0
   -2.8847   14.5872   38.8965 N   0  0  0  0  0  0  0  0  0  0  0  0
   -3.2242   16.4892   37.3664 C   0  0  2  0  0  0  0  0  0  0  0  0
   -2.5300   17.7504   36.7620 C   0  0  2  0  0  0  0  0  0  0  0  0
   -3.4426   18.4020   35.8680 O   0  0  0  0  0  0  0  0  0  0  0  0
   -1.2625   17.3530   35.9672 C   0  0  1  0  0  0  0  0  0  0  0  0
   -0.6754   18.5736   35.4522 O   0  0  0  0  0  0  0  0  0  0  0  0
   -0.8285   18.8027   34.0317 C   0  0  2  0  0  0  0  0  0  0  0  0
    0.2908   19.8344   33.6315 C   0  0  2  0  0  0  0  0  0  0  0  0
    1.5709   19.2877   33.9071 O   0  0  0  0  0  0  0  0  0  0  0  0
    0.0643   21.1722   34.4326 C   0  0  1  0  0  0  0  0  0  0  0  0
    1.1135   22.1805   34.0907 N   0  0  0  0  0  0  0  0  0  0  0  0
    2.2209   22.0678   35.0641 C   0  0  0  0  0  0  0  0  0  0  0  0
   -1.3509   21.7246   34.0825 C   0  0  2  0  0  0  0  0  0  0  0  0
   -1.4049   21.9893   32.6816 O   0  0  0  0  0  0  0  0  0  0  0  0
   -1.6535   23.0220   34.8280 C   0  0  0  0  0  0  0  0  0  0  0  0
   -2.4247   20.6498   34.4470 C   0  0  0  0  0  0  0  0  0  0  0  0
   -2.1582   19.3771   33.7442 O   0  0  0  0  0  0  0  0  0  0  0  0
  1  3  1  0  0  0  0
  1  2  1  1  0  0  0
  3  5  1  0  0  0  0
  3  4  1  1  0  0  0
  5  6  1  1  0  0  0
  7  8  1  1  0  0  0
  7  5  1  0  0  0  0
  9 10  1  6  0  0  0
  9  7  1  0  0  0  0
 10  1  1  0  0  0  0
 11 13  1  6  0  0  0
 11  9  1  0  0  0  0
 12 11  1  0  0  0  0
 14 15  1  6  0  0  0
 16 14  1  0  0  0  0
 17 18  1  6  0  0  0
 17 16  1  0  0  0  0
 19  2  1  1  0  0  0
 19 20  1  0  0  0  0
 19 17  1  0  0  0  0
 20 21  1  6  0  0  0
 20 22  1  0  0  0  0
 22 23  1  1  0  0  0
 22 14  1  0  0  0  0
 24 23  1  1  0  0  0
 24 25  1  0  0  0  0
 25 27  1  0  0  0  0
 25 26  1  1  0  0  0
 27 28  1  6  0  0  0
 28 29  1  0  0  0  0
 30 31  1  6  0  0  0
 30 32  1  0  0  0  0
 30 27  1  0  0  0  0
 33 30  1  0  0  0  0
 34 33  1  0  0  0  0
 34 24  1  0  0  0  0
M  END
>  <CHROM.1>
-173.66572566,-58.73981179,-161.85771563,137.24074538,-159.53507429,-93.06137951
-3.14241964,17.67595515,36.49631857,2.38587346,-0.35334922,2.86005912

>  <Name>
lig.pdb

>  <RI>
0

>  <Rbt.Current_Directory>
/home/itssahil/PROJECTS/Mol_Feturizer/New_Systems/rnas/4k32

>  <Rbt.Executable>
rbdock ($Id: //depot/dev/client3/rdock/2013.1/src/exe/rbdock.cxx#4 $)

>  <Rbt.Library>
libRbt.so (2013.1, Build901 2013/11/27)

>  <Rbt.Parameter_File>
/export/apps/rDock/src/rDock_2013.1_src/data/scripts/dock_solv.prm

>  <Rbt.Receptor>
prm/pocket_docking_3.prm

>  <SCORE>
-11.3502

>  <SCORE.INTER>
-6.83699

>  <SCORE.INTER.CONST>
1

>  <SCORE.INTER.POLAR>
0

>  <SCORE.INTER.ROT>
6

>  <SCORE.INTER.SOLV>
16.9058

>  <SCORE.INTER.VDW>
-17.7933

>  <SCORE.INTER.norm>
-0.201088

>  <SCORE.INTRA>
-4.58693

>  <SCORE.INTRA.DIHEDRAL>
-7.90874

>  <SCORE.INTRA.DIHEDRAL.0>
18.0069

>  <SCORE.INTRA.POLAR>
0

>  <SCORE.INTRA.POLAR.0>
0

>  <SCORE.INTRA.REPUL>
0

>  <SCORE.INTRA.REPUL.0>
0

>  <SCORE.INTRA.SOLV>
-1.57559

>  <SCORE.INTRA.SOLV.lig_0>
-70.7393

>  <SCORE.INTRA.VDW>
0.155231

>  <SCORE.INTRA.VDW.0>
-3.23471

>  <SCORE.INTRA.norm>
-0.13491

>  <SCORE.RESTR>
0.0737535

>  <SCORE.RESTR.CAVITY>
0.0737535

>  <SCORE.RESTR.norm>
0.00216922

>  <SCORE.SYSTEM>
0

>  <SCORE.SYSTEM.CONST>
0

>  <SCORE.SYSTEM.DIHEDRAL>
0

>  <SCORE.SYSTEM.SOLV>
0

>  <SCORE.SYSTEM.norm>
0

>  <SCORE.heavy>
34

>  <SCORE.norm>
-0.333828

>  <RMSD>
9.146

$$$$
lig.pdb
 OpenBabel11021811503D
libRbt.so/2013.1/901 2013/11/27
 34 36  0  0  0  0  0  0  0  0999 V2000
   -5.1858   17.6275   37.5724 C   0  0  2  0  0  0  0  0  0  0  0  0
   -4.0323   17.3950   38.3882 O   0  0  0  0  0  0  0  0  0  0  0  0
   -6.4226   17.9274   38.5219 C   0  0  2  0  0  0  0  0  0  0  0  0
   -6.1931   19.1249   39.3635 N   0  0  0  0  0  0  0  0  0  0  0  0
   -6.6927   16.6944   39.4207 C   0  0  1  0  0  0  0  0  0  0  0  0
   -7.8086   16.9432   40.2788 O   0  0  0  0  0  0  0  0  0  0  0  0
   -6.9429   15.4744   38.5164 C   0  0  2  0  0  0  0  0  0  0  0  0
   -7.1973   14.3303   39.3329 O   0  0  0  0  0  0  0  0  0  0  0  0
   -5.6911   15.2359   37.5877 C   0  0  2  0  0  0  0  0  0  0  0  0
   -5.4189   16.4296   36.7590 O   0  0  0  0  0  0  0  0  0  0  0  0
   -5.9032   14.0251   36.6453 C   0  0  2  0  0  0  0  0  0  0  0  0
   -6.0887   12.8372   37.4174 O   0  0  0  0  0  0  0  0  0  0  0  0
   -4.7065   13.8261   35.7282 C   0  0  0  0  0  0  0  0  0  0  0  0
    0.1408   17.2165   37.4553 C   0  0  2  0  0  0  0  0  0  0  0  0
    1.4173   16.7839   36.8814 N   0  0  0  0  0  0  0  0  0  0  0  0
   -0.5063   15.9745   38.1281 C   0  0  0  0  0  0  0  0  0  0  0  0
   -1.8512   16.4189   38.7643 C   0  0  2  0  0  0  0  0  0  0  0  0
   -2.4986   15.2718   39.4199 N   0  0  0  0  0  0  0  0  0  0  0  0
   -2.8092   16.9990   37.6895 C   0  0  2  0  0  0  0  0  0  0  0  0
   -2.1197   18.2161   36.9962 C   0  0  2  0  0  0  0  0  0  0  0  0
   -3.0010   18.7441   35.9956 O   0  0  0  0  0  0  0  0  0  0  0  0
   -0.8004   17.7843   36.3110 C   0  0  1  0  0  0  0  0  0  0  0  0
   -0.2214   18.9664   35.7051 O   0  0  0  0  0  0  0  0  0  0  0  0
    0.6858   18.7360   34.6017 C   0  0  2  0  0  0  0  0  0  0  0  0
    1.5454   20.0469   34.4606 C   0  0  2  0  0  0  0  0  0  0  0  0
    2.2731   20.2771   35.6567 O   0  0  0  0  0  0  0  0  0  0  0  0
    0.5867   21.2561   34.1419 C   0  0  1  0  0  0  0  0  0  0  0  0
    1.3612   22.5277   34.0091 N   0  0  0  0  0  0  0  0  0  0  0  0
    1.3359   23.2409   35.3043 C   0  0  0  0  0  0  0  0  0  0  0  0
   -0.1760   20.9469   32.8178 C   0  0  2  0  0  0  0  0  0  0  0  0
    0.7760   20.7992   31.7655 O   0  0  0  0  0  0  0  0  0  0  0  0
   -1.1370   22.0716   32.4411 C   0  0  0  0  0  0  0  0  0  0  0  0
   -0.9723   19.6132   32.9851 C   0  0  0  0  0  0  0  0  0  0  0  0
   -0.0704   18.5021   33.3550 O   0  0  0  0  0  0  0  0  0  0  0  0
  1  3  1  0  0  0  0
  1  2  1  1  0  0  0
  3  5  1  0  0  0  0
  3  4  1  1  0  0  0
  5  6  1  6  0  0  0
  7  8  1  1  0  0  0
  7  5  1  0  0  0  0
  9 10  1  6  0  0  0
  9  7  1  0  0  0  0
 10  1  1  0  0  0  0
 11 13  1  6  0  0  0
 11  9  1  0  0  0  0
 12 11  1  0  0  0  0
 14 15  1  6  0  0  0
 16 14  1  0  0  0  0
 17 18  1  6  0  0  0
 17 16  1  0  0  0  0
 19  2  1  1  0  0  0
 19 20  1  0  0  0  0
 19 17  1  0  0  0  0
 20 21  1  6  0  0  0
 20 22  1  0  0  0  0
 22 23  1  1  0  0  0
 22 14  1  0  0  0  0
 24 23  1  1  0  0  0
 24 25  1  0  0  0  0
 25 27  1  0  0  0  0
 25 26  1  1  0  0  0
 27 28  1  6  0  0  0
 28 29  1  0  0  0  0
 30 31  1  6  0  0  0
 30 32  1  0  0  0  0
 30 27  1  0  0  0  0
 33 30  1  0  0  0  0
 34 33  1  0  0  0  0
 34 24  1  0  0  0  0
M  END
>  <CHROM.1>
175.46421893,-61.28830869,-164.05359509,87.57316578,-160.42245725,-95.73408243
-2.49418916,17.88787806,36.46830781,2.39669208,-0.27505622,2.71543976

>  <Name>
lig.pdb

>  <RI>
0

>  <Rbt.Current_Directory>
/home/itssahil/PROJECTS/Mol_Feturizer/New_Systems/rnas/4k32

>  <Rbt.Executable>
rbdock ($Id: //depot/dev/client3/rdock/2013.1/src/exe/rbdock.cxx#4 $)

>  <Rbt.Library>
libRbt.so (2013.1, Build901 2013/11/27)

>  <Rbt.Parameter_File>
/export/apps/rDock/src/rDock_2013.1_src/data/scripts/dock_solv.prm

>  <Rbt.Receptor>
prm/pocket_docking_7.prm

>  <SCORE>
-15.4735

>  <SCORE.INTER>
-9.22541

>  <SCORE.INTER.CONST>
1

>  <SCORE.INTER.POLAR>
0

>  <SCORE.INTER.ROT>
6

>  <SCORE.INTER.SOLV>
17.8304

>  <SCORE.INTER.VDW>
-19.6937

>  <SCORE.INTER.norm>
-0.271336

>  <SCORE.INTRA>
-6.24811

>  <SCORE.INTRA.DIHEDRAL>
-11.0411

>  <SCORE.INTRA.DIHEDRAL.0>
18.0069

>  <SCORE.INTRA.POLAR>
0

>  <SCORE.INTRA.POLAR.0>
0

>  <SCORE.INTRA.REPUL>
0

>  <SCORE.INTRA.REPUL.0>
0

>  <SCORE.INTRA.SOLV>
-1.12337

>  <SCORE.INTRA.SOLV.lig_0>
-70.7393

>  <SCORE.INTRA.VDW>
-0.16587

>  <SCORE.INTRA.VDW.0>
-3.23471

>  <SCORE.INTRA.norm>
-0.183768

>  <SCORE.RESTR>
0

>  <SCORE.RESTR.CAVITY>
0

>  <SCORE.RESTR.norm>
0

>  <SCORE.SYSTEM>
0

>  <SCORE.SYSTEM.CONST>
0

>  <SCORE.SYSTEM.DIHEDRAL>
0

>  <SCORE.SYSTEM.SOLV>
0

>  <SCORE.SYSTEM.norm>
0

>  <SCORE.heavy>
34

>  <SCORE.norm>
-0.455104

>  <RMSD>
9.146

$$$$
lig.pdb
 OpenBabel11021811503D
libRbt.so/2013.1/901 2013/11/27
 34 36  0  0  0  0  0  0  0  0999 V2000
   -5.3756   17.7179   37.6178 C   0  0  2  0  0  0  0  0  0  0  0  0
   -4.1870   17.5037   38.3867 O   0  0  0  0  0  0  0  0  0  0  0  0
   -6.5695   18.0391   38.6142 C   0  0  2  0  0  0  0  0  0  0  0  0
   -6.3041   19.2551   39.4178 N   0  0  0  0  0  0  0  0  0  0  0  0
   -6.7985   16.8265   39.5513 C   0  0  1  0  0  0  0  0  0  0  0  0
   -7.8755   17.0945   40.4523 O   0  0  0  0  0  0  0  0  0  0  0  0
   -7.0872   15.5866   38.6865 C   0  0  2  0  0  0  0  0  0  0  0  0
   -7.3043   14.4611   39.5389 O   0  0  0  0  0  0  0  0  0  0  0  0
   -5.8776   15.3273   37.7089 C   0  0  2  0  0  0  0  0  0  0  0  0
   -5.6434   16.5022   36.8424 O   0  0  0  0  0  0  0  0  0  0  0  0
   -6.1300   14.0957   36.8041 C   0  0  2  0  0  0  0  0  0  0  0  0
   -6.3529   12.9386   37.6122 O   0  0  0  0  0  0  0  0  0  0  0  0
   -4.9416   13.8301   35.8931 C   0  0  0  0  0  0  0  0  0  0  0  0
   -0.0687   17.2578   37.2484 C   0  0  2  0  0  0  0  0  0  0  0  0
    1.1754   16.7898   36.6325 N   0  0  0  0  0  0  0  0  0  0  0  0
   -0.6816   16.0561   38.0191 C   0  0  0  0  0  0  0  0  0  0  0  0
   -1.9907   16.5394   38.7000 C   0  0  2  0  0  0  0  0  0  0  0  0
   -2.6048   15.4315   39.4486 N   0  0  0  0  0  0  0  0  0  0  0  0
   -3.0028   17.0658   37.6473 C   0  0  2  0  0  0  0  0  0  0  0  0
   -2.3485   18.2415   36.8552 C   0  0  2  0  0  0  0  0  0  0  0  0
   -3.2801   18.7194   35.8752 O   0  0  0  0  0  0  0  0  0  0  0  0
   -1.0675   17.7682   36.1261 C   0  0  1  0  0  0  0  0  0  0  0  0
   -0.5192   18.9140   35.4288 O   0  0  0  0  0  0  0  0  0  0  0  0
    0.3584   18.6211   34.3162 C   0  0  2  0  0  0  0  0  0  0  0  0
    1.3488   19.8395   34.2073 C   0  0  2  0  0  0  0  0  0  0  0  0
    2.0975   19.9607   35.4065 O   0  0  0  0  0  0  0  0  0  0  0  0
    0.5200   21.1496   33.9249 C   0  0  1  0  0  0  0  0  0  0  0  0
    1.4217   22.3374   33.8236 N   0  0  0  0  0  0  0  0  0  0  0  0
    1.5041   22.9901   35.1479 C   0  0  0  0  0  0  0  0  0  0  0  0
   -0.2717   20.9569   32.5958 C   0  0  2  0  0  0  0  0  0  0  0  0
    0.6589   20.7403   31.5363 O   0  0  0  0  0  0  0  0  0  0  0  0
   -1.1116   22.1848   32.2531 C   0  0  0  0  0  0  0  0  0  0  0  0
   -1.2016   19.7085   32.7300 C   0  0  0  0  0  0  0  0  0  0  0  0
   -0.4191   18.5006   33.0665 O   0  0  0  0  0  0  0  0  0  0  0  0
  1  3  1  0  0  0  0
  1  2  1  1  0  0  0
  3  5  1  0  0  0  0
  3  4  1  1  0  0  0
  5  6  1  1  0  0  0
  7  8  1  1  0  0  0
  7  5  1  0  0  0  0
  9 10  1  6  0  0  0
  9  7  1  0  0  0  0
 10  1  1  0  0  0  0
 11 13  1  6  0  0  0
 11  9  1  0  0  0  0
 12 11  1  0  0  0  0
 14 15  1  6  0  0  0
 16 14  1  0  0  0  0
 17 18  1  6  0  0  0
 17 16  1  0  0  0  0
 19  2  1  1  0  0  0
 19 20  1  0  0  0  0
 19 17  1  0  0  0  0
 20 21  1  6  0  0  0
 20 22  1  0  0  0  0
 22 23  1  1  0  0  0
 22 14  1  0  0  0  0
 24 23  1  1  0  0  0
 24 25  1  0  0  0  0
 25 27  1  0  0  0  0
 25 26  1  1  0  0  0
 27 28  1  6  0  0  0
 28 29  1  0  0  0  0
 30 31  1  6  0  0  0
 30 32  1  0  0  0  0
 30 27  1  0  0  0  0
 33 30  1  0  0  0  0
 34 33  1  0  0  0  0
 34 24  1  0  0  0  0
M  END
>  <CHROM.1>
174.26664006,-58.13567945,-165.00782207,85.92474043,-151.92699858,-94.02301476
-2.65931511,17.90705512,36.40142660,2.41183962,-0.33467228,2.71795341

>  <Name>
lig.pdb

>  <RI>
0

>  <Rbt.Current_Directory>
/home/itssahil/PROJECTS/Mol_Feturizer/New_Systems/rnas/4k32

>  <Rbt.Executable>
rbdock ($Id: //depot/dev/client3/rdock/2013.1/src/exe/rbdock.cxx#4 $)

>  <Rbt.Library>
libRbt.so (2013.1, Build901 2013/11/27)

>  <Rbt.Parameter_File>
/export/apps/rDock/src/rDock_2013.1_src/data/scripts/dock_solv.prm

>  <Rbt.Receptor>
prm/pocket_docking_4.prm

>  <SCORE>
-14.4024

>  <SCORE.INTER>
-8.97734

>  <SCORE.INTER.CONST>
1

>  <SCORE.INTER.POLAR>
0

>  <SCORE.INTER.ROT>
6

>  <SCORE.INTER.SOLV>
17.7214

>  <SCORE.INTER.VDW>
-19.492

>  <SCORE.INTER.norm>
-0.264039

>  <SCORE.INTRA>
-5.47292

>  <SCORE.INTRA.DIHEDRAL>
-9.95049

>  <SCORE.INTRA.DIHEDRAL.0>
18.0069

>  <SCORE.INTRA.POLAR>
0

>  <SCORE.INTRA.POLAR.0>
0

>  <SCORE.INTRA.REPUL>
0

>  <SCORE.INTRA.REPUL.0>
0

>  <SCORE.INTRA.SOLV>
-0.906971

>  <SCORE.INTRA.SOLV.lig_0>
-70.7393

>  <SCORE.INTRA.VDW>
-0.0441948

>  <SCORE.INTRA.VDW.0>
-3.23471

>  <SCORE.INTRA.norm>
-0.160968

>  <SCORE.RESTR>
0.0478221

>  <SCORE.RESTR.CAVITY>
0.0478221

>  <SCORE.RESTR.norm>
0.00140653

>  <SCORE.SYSTEM>
0

>  <SCORE.SYSTEM.CONST>
0

>  <SCORE.SYSTEM.DIHEDRAL>
0

>  <SCORE.SYSTEM.SOLV>
0

>  <SCORE.SYSTEM.norm>
0

>  <SCORE.heavy>
34

>  <SCORE.norm>
-0.423601

>  <RMSD>
9.147

$$$$
lig.pdb
 OpenBabel11021811503D
libRbt.so/2013.1/901 2013/11/27
 34 36  0  0  0  0  0  0  0  0999 V2000
   -5.2148   17.6378   37.5891 C   0  0  2  0  0  0  0  0  0  0  0  0
   -4.0583   17.3861   38.3948 O   0  0  0  0  0  0  0  0  0  0  0  0
   -6.4346   17.9727   38.5489 C   0  0  2  0  0  0  0  0  0  0  0  0
   -6.1697   19.1715   39.3783 N   0  0  0  0  0  0  0  0  0  0  0  0
   -6.7226   16.7533   39.4605 C   0  0  1  0  0  0  0  0  0  0  0  0
   -7.8236   17.0337   40.3281 O   0  0  0  0  0  0  0  0  0  0  0  0
   -7.0093   15.5320   38.5689 C   0  0  2  0  0  0  0  0  0  0  0  0
   -7.2805   14.4004   39.3973 O   0  0  0  0  0  0  0  0  0  0  0  0
   -5.7730   15.2582   37.6292 C   0  0  2  0  0  0  0  0  0  0  0  0
   -5.4831   16.4390   36.7880 O   0  0  0  0  0  0  0  0  0  0  0  0
   -6.0219   14.0450   36.6989 C   0  0  2  0  0  0  0  0  0  0  0  0
   -6.2851   12.8797   37.4828 O   0  0  0  0  0  0  0  0  0  0  0  0
   -4.8145   13.7732   35.8152 C   0  0  0  0  0  0  0  0  0  0  0  0
    0.1072   17.1958   37.4310 C   0  0  2  0  0  0  0  0  0  0  0  0
    1.3775   16.7625   36.8437 N   0  0  0  0  0  0  0  0  0  0  0  0
   -0.5416   15.9502   38.0954 C   0  0  0  0  0  0  0  0  0  0  0  0
   -1.8797   16.3949   38.7456 C   0  0  2  0  0  0  0  0  0  0  0  0
   -2.5285   15.2445   39.3939 N   0  0  0  0  0  0  0  0  0  0  0  0
   -2.8422   16.9910   37.6835 C   0  0  2  0  0  0  0  0  0  0  0  0
   -2.1511   18.2117   36.9979 C   0  0  2  0  0  0  0  0  0  0  0  0
   -3.0366   18.7544   36.0090 O   0  0  0  0  0  0  0  0  0  0  0  0
   -0.8389   17.7802   36.2992 C   0  0  1  0  0  0  0  0  0  0  0  0
   -0.2580   18.9655   35.7014 O   0  0  0  0  0  0  0  0  0  0  0  0
    0.6560   18.7407   34.6025 C   0  0  2  0  0  0  0  0  0  0  0  0
    1.4959   20.0636   34.4540 C   0  0  2  0  0  0  0  0  0  0  0  0
    2.2163   20.3139   35.6505 O   0  0  0  0  0  0  0  0  0  0  0  0
    0.5198   21.2555   34.1233 C   0  0  1  0  0  0  0  0  0  0  0  0
    1.2751   22.5378   33.9832 N   0  0  0  0  0  0  0  0  0  0  0  0
    1.2057   23.2763   35.2624 C   0  0  0  0  0  0  0  0  0  0  0  0
   -0.2340   20.9247   32.7994 C   0  0  2  0  0  0  0  0  0  0  0  0
    0.7234   20.7837   31.7510 O   0  0  0  0  0  0  0  0  0  0  0  0
   -1.2110   22.0316   32.4113 C   0  0  0  0  0  0  0  0  0  0  0  0
   -1.0103   19.5801   32.9744 C   0  0  0  0  0  0  0  0  0  0  0  0
   -0.0927   18.4859   33.3554 O   0  0  0  0  0  0  0  0  0  0  0  0
  1  3  1  0  0  0  0
  1  2  1  1  0  0  0
  3  5  1  0  0  0  0
  3  4  1  1  0  0  0
  5  6  1  6  0  0  0
  7  8  1  1  0  0  0
  7  5  1  0  0  0  0
  9 10  1  6  0  0  0
  9  7  1  0  0  0  0
 10  1  1  0  0  0  0
 11 13  1  1  0  0  0
 11  9  1  0  0  0  0
 12 11  1  0  0  0  0
 14 15  1  6  0  0  0
 16 14  1  0  0  0  0
 17 18  1  6  0  0  0
 17 16  1  0  0  0  0
 19  2  1  1  0  0  0
 19 20  1  0  0  0  0
 19 17  1  0  0  0  0
 20 21  1  6  0  0  0
 20 22  1  0  0  0  0
 22 23  1  1  0  0  0
 22 14  1  0  0  0  0
 24 23  1  1  0  0  0
 24 25  1  0  0  0  0
 25 27  1  0  0  0  0
 25 26  1  1  0  0  0
 27 28  1  6  0  0  0
 28 29  1  0  0  0  0
 30 31  1  6  0  0  0
 30 32  1  0  0  0  0
 30 27  1  0  0  0  0
 33 30  1  0  0  0  0
 34 33  1  0  0  0  0
 34 24  1  0  0  0  0
M  END
>  <CHROM.1>
177.00284943,-58.70446514,-164.28103407,86.67023351,-161.47308631,-97.16224206
-2.54827257,17.89599405,36.47563126,2.40201017,-0.29327636,2.72774844

>  <Name>
lig.pdb

>  <RI>
0

>  <Rbt.Current_Directory>
/home/itssahil/PROJECTS/Mol_Feturizer/New_Systems/rnas/4k32

>  <Rbt.Executable>
rbdock ($Id: //depot/dev/client3/rdock/2013.1/src/exe/rbdock.cxx#4 $)

>  <Rbt.Library>
libRbt.so (2013.1, Build901 2013/11/27)

>  <Rbt.Parameter_File>
/export/apps/rDock/src/rDock_2013.1_src/data/scripts/dock_solv.prm

>  <Rbt.Receptor>
prm/pocket_docking_5.prm

>  <SCORE>
-15.4564

>  <SCORE.INTER>
-9.00539

>  <SCORE.INTER.CONST>
1

>  <SCORE.INTER.POLAR>
0

>  <SCORE.INTER.ROT>
6

>  <SCORE.INTER.SOLV>
17.958

>  <SCORE.INTER.VDW>
-19.5896

>  <SCORE.INTER.norm>
-0.264864

>  <SCORE.INTRA>
-6.45104

>  <SCORE.INTRA.DIHEDRAL>
-11.4155

>  <SCORE.INTRA.DIHEDRAL.0>
18.0069

>  <SCORE.INTRA.POLAR>
0

>  <SCORE.INTRA.POLAR.0>
0

>  <SCORE.INTRA.REPUL>
0

>  <SCORE.INTRA.REPUL.0>
0

>  <SCORE.INTRA.SOLV>
-1.14499

>  <SCORE.INTRA.SOLV.lig_0>
-70.7393

>  <SCORE.INTRA.VDW>
-0.170795

>  <SCORE.INTRA.VDW.0>
-3.23471

>  <SCORE.INTRA.norm>
-0.189736

>  <SCORE.RESTR>
0

>  <SCORE.RESTR.CAVITY>
0

>  <SCORE.RESTR.norm>
0

>  <SCORE.SYSTEM>
0

>  <SCORE.SYSTEM.CONST>
0

>  <SCORE.SYSTEM.DIHEDRAL>
0

>  <SCORE.SYSTEM.SOLV>
0

>  <SCORE.SYSTEM.norm>
0

>  <SCORE.heavy>
34

>  <SCORE.norm>
-0.454601

>  <RMSD>
9.147

$$$$
lig.pdb
 OpenBabel11021811503D
libRbt.so/2013.1/901 2013/11/27
 34 36  0  0  0  0  0  0  0  0999 V2000
   -5.7947   17.5539   37.9648 C   0  0  2  0  0  0  0  0  0  0  0  0
   -4.6634   17.3468   38.8178 O   0  0  0  0  0  0  0  0  0  0  0  0
   -7.0167   18.0363   38.8565 C   0  0  2  0  0  0  0  0  0  0  0  0
   -6.7187   19.3065   39.5584 N   0  0  0  0  0  0  0  0  0  0  0  0
   -7.3693   16.9339   39.8867 C   0  0  1  0  0  0  0  0  0  0  0  0
   -8.4733   17.3477   40.6951 O   0  0  0  0  0  0  0  0  0  0  0  0
   -7.6890   15.6355   39.1248 C   0  0  2  0  0  0  0  0  0  0  0  0
   -8.0198   14.6108   40.0634 O   0  0  0  0  0  0  0  0  0  0  0  0
   -6.4483   15.2154   38.2470 C   0  0  2  0  0  0  0  0  0  0  0  0
   -6.0965   16.2868   37.2908 O   0  0  0  0  0  0  0  0  0  0  0  0
   -6.7291   13.9193   37.4466 C   0  0  2  0  0  0  0  0  0  0  0  0
   -6.9926   12.8417   38.3471 O   0  0  0  0  0  0  0  0  0  0  0  0
   -5.5413   13.5437   36.5743 C   0  0  0  0  0  0  0  0  0  0  0  0
   -0.4852   17.2447   37.8966 C   0  0  2  0  0  0  0  0  0  0  0  0
    0.8099   16.8052   37.3715 N   0  0  0  0  0  0  0  0  0  0  0  0
   -1.0783   16.0611   38.7097 C   0  0  0  0  0  0  0  0  0  0  0  0
   -2.4422   16.5165   39.2956 C   0  0  2  0  0  0  0  0  0  0  0  0
   -3.0397   15.4251   40.0809 N   0  0  0  0  0  0  0  0  0  0  0  0
   -3.4232   16.9269   38.1648 C   0  0  2  0  0  0  0  0  0  0  0  0
   -2.7866   18.0853   37.3338 C   0  0  2  0  0  0  0  0  0  0  0  0
   -3.6887   18.4559   36.2824 O   0  0  0  0  0  0  0  0  0  0  0  0
   -1.4487   17.6357   36.6980 C   0  0  1  0  0  0  0  0  0  0  0  0
   -0.9212   18.7646   35.9584 O   0  0  0  0  0  0  0  0  0  0  0  0
   -1.2770   18.8291   34.5573 C   0  0  2  0  0  0  0  0  0  0  0  0
   -0.0282   19.4360   33.8160 C   0  0  2  0  0  0  0  0  0  0  0  0
    1.0981   18.5929   33.9998 O   0  0  0  0  0  0  0  0  0  0  0  0
    0.2503   20.8805   34.3805 C   0  0  1  0  0  0  0  0  0  0  0  0
    1.4376   21.4933   33.7103 N   0  0  0  0  0  0  0  0  0  0  0  0
    2.6257   21.2976   34.5687 C   0  0  0  0  0  0  0  0  0  0  0  0
   -1.0168   21.7572   34.1428 C   0  0  2  0  0  0  0  0  0  0  0  0
   -1.2659   21.8301   32.7399 O   0  0  0  0  0  0  0  0  0  0  0  0
   -0.8312   23.1771   34.6717 C   0  0  0  0  0  0  0  0  0  0  0  0
   -2.2401   21.0914   34.8509 C   0  0  0  0  0  0  0  0  0  0  0  0
   -2.4456   19.7111   34.3641 O   0  0  0  0  0  0  0  0  0  0  0  0
  1  3  1  0  0  0  0
  1  2  1  1  0  0  0
  3  5  1  0  0  0  0
  3  4  1  1  0  0  0
  5  6  1  6  0  0  0
  7  8  1  1  0  0  0
  7  5  1  0  0  0  0
  9 10  1  6  0  0  0
  9  7  1  0  0  0  0
 10  1  1  0  0  0  0
 11 13  1  1  0  0  0
 11  9  1  0  0  0  0
 12 11  1  0  0  0  0
 14 15  1  6  0  0  0
 16 14  1  0  0  0  0
 17 18  1  6  0  0  0
 17 16  1  0  0  0  0
 19  2  1  1  0  0  0
 19 20  1  0  0  0  0
 19 17  1  0  0  0  0
 20 21  1  6  0  0  0
 20 22  1  0  0  0  0
 22 23  1  1  0  0  0
 22 14  1  0  0  0  0
 24 23  1  1  0  0  0
 24 25  1  0  0  0  0
 25 27  1  0  0  0  0
 25 26  1  1  0  0  0
 27 28  1  6  0  0  0
 28 29  1  0  0  0  0
 30 31  1  6  0  0  0
 30 32  1  0  0  0  0
 30 27  1  0  0  0  0
 33 30  1  0  0  0  0
 34 33  1  0  0  0  0
 34 24  1  0  0  0  0
M  END
>  <CHROM.1>
-178.59513361,-61.33055423,-169.67555977,151.14377477,-145.07525751,-97.38077848
-3.24687257,17.89578216,36.93881556,2.40431219,-0.29787420,2.70786480

>  <Name>
lig.pdb

>  <RI>
0

>  <Rbt.Current_Directory>
/home/itssahil/PROJECTS/Mol_Feturizer/New_Systems/rnas/4k32

>  <Rbt.Executable>
rbdock ($Id: //depot/dev/client3/rdock/2013.1/src/exe/rbdock.cxx#4 $)

>  <Rbt.Library>
libRbt.so (2013.1, Build901 2013/11/27)

>  <Rbt.Parameter_File>
/export/apps/rDock/src/rDock_2013.1_src/data/scripts/dock_solv.prm

>  <Rbt.Receptor>
prm/pocket_docking_8.prm

>  <SCORE>
-13.4528

>  <SCORE.INTER>
-8.16037

>  <SCORE.INTER.CONST>
1

>  <SCORE.INTER.POLAR>
0

>  <SCORE.INTER.ROT>
6

>  <SCORE.INTER.SOLV>
17.0954

>  <SCORE.INTER.VDW>
-18.7387

>  <SCORE.INTER.norm>
-0.240011

>  <SCORE.INTRA>
-5.29248

>  <SCORE.INTRA.DIHEDRAL>
-8.7333

>  <SCORE.INTRA.DIHEDRAL.0>
18.0069

>  <SCORE.INTRA.POLAR>
0

>  <SCORE.INTRA.POLAR.0>
0

>  <SCORE.INTRA.REPUL>
0

>  <SCORE.INTRA.REPUL.0>
0

>  <SCORE.INTRA.SOLV>
-2.20111

>  <SCORE.INTRA.SOLV.lig_0>
-70.7393

>  <SCORE.INTRA.VDW>
0.17473

>  <SCORE.INTRA.VDW.0>
-3.23471

>  <SCORE.INTRA.norm>
-0.155661

>  <SCORE.RESTR>
0

>  <SCORE.RESTR.CAVITY>
0

>  <SCORE.RESTR.norm>
0

>  <SCORE.SYSTEM>
0

>  <SCORE.SYSTEM.CONST>
0

>  <SCORE.SYSTEM.DIHEDRAL>
0

>  <SCORE.SYSTEM.SOLV>
0

>  <SCORE.SYSTEM.norm>
0

>  <SCORE.heavy>
34

>  <SCORE.norm>
-0.395672

>  <RMSD>
9.149

$$$$
lig.pdb
 OpenBabel11021811503D
libRbt.so/2013.1/901 2013/11/27
 34 36  0  0  0  0  0  0  0  0999 V2000
   -4.4008   15.5479   35.7094 C   0  0  2  0  0  0  0  0  0  0  0  0
   -3.3675   15.2696   36.6608 O   0  0  0  0  0  0  0  0  0  0  0  0
   -5.7969   15.5432   36.4658 C   0  0  2  0  0  0  0  0  0  0  0  0
   -5.8496   16.5716   37.5310 N   0  0  0  0  0  0  0  0  0  0  0  0
   -6.0488   14.1403   37.0735 C   0  0  1  0  0  0  0  0  0  0  0  0
   -7.3059   14.1146   37.7535 O   0  0  0  0  0  0  0  0  0  0  0  0
   -6.0039   13.1002   35.9400 C   0  0  2  0  0  0  0  0  0  0  0  0
   -6.2386   11.8014   36.4864 O   0  0  0  0  0  0  0  0  0  0  0  0
   -4.6039   13.1621   35.2171 C   0  0  2  0  0  0  0  0  0  0  0  0
   -4.3560   14.5134   34.6708 O   0  0  0  0  0  0  0  0  0  0  0  0
   -4.5170   12.1418   34.0550 C   0  0  2  0  0  0  0  0  0  0  0  0
   -5.7332   12.1573   33.3051 O   0  0  0  0  0  0  0  0  0  0  0  0
   -4.2864   10.7322   34.5771 C   0  0  0  0  0  0  0  0  0  0  0  0
    0.6740   16.6776   36.6471 C   0  0  2  0  0  0  0  0  0  0  0  0
    2.0935   16.8185   36.3132 N   0  0  0  0  0  0  0  0  0  0  0  0
    0.4276   15.1822   36.9891 C   0  0  0  0  0  0  0  0  0  0  0  0
   -1.0687   15.0168   37.3698 C   0  0  2  0  0  0  0  0  0  0  0  0
   -1.3473   13.6122   37.7080 N   0  0  0  0  0  0  0  0  0  0  0  0
   -1.9910   15.4519   36.1995 C   0  0  2  0  0  0  0  0  0  0  0  0
   -1.6932   16.9426   35.8435 C   0  0  2  0  0  0  0  0  0  0  0  0
   -2.5377   17.3400   34.7547 O   0  0  0  0  0  0  0  0  0  0  0  0
   -0.2174   17.1210   35.4116 C   0  0  1  0  0  0  0  0  0  0  0  0
   -0.0221   18.5251   35.1112 O   0  0  0  0  0  0  0  0  0  0  0  0
   -0.1797   18.9066   33.7244 C   0  0  2  0  0  0  0  0  0  0  0  0
    0.6713   20.2166   33.5313 C   0  0  2  0  0  0  0  0  0  0  0  0
    2.0356   19.9515   33.8173 O   0  0  0  0  0  0  0  0  0  0  0  0
    0.1041   21.3401   34.4793 C   0  0  1  0  0  0  0  0  0  0  0  0
    0.8906   22.6031   34.3364 N   0  0  0  0  0  0  0  0  0  0  0  0
    1.9902   22.5966   35.3252 C   0  0  0  0  0  0  0  0  0  0  0  0
   -1.3903   21.5894   34.1117 C   0  0  2  0  0  0  0  0  0  0  0  0
   -1.4610   22.0256   32.7551 O   0  0  0  0  0  0  0  0  0  0  0  0
   -2.0198   22.6639   34.9947 C   0  0  0  0  0  0  0  0  0  0  0  0
   -2.1855   20.2535   34.2670 C   0  0  0  0  0  0  0  0  0  0  0  0
   -1.5984   19.1884   33.4270 O   0  0  0  0  0  0  0  0  0  0  0  0
  1  3  1  0  0  0  0
  1  2  1  1  0  0  0
  3  5  1  0  0  0  0
  3  4  1  1  0  0  0
  5  6  1  6  0  0  0
  7  8  1  1  0  0  0
  7  5  1  0  0  0  0
  9 10  1  6  0  0  0
  9  7  1  0  0  0  0
 10  1  1  0  0  0  0
 11 13  1  1  0  0  0
 11  9  1  0  0  0  0
 12 11  1  0  0  0  0
 14 15  1  6  0  0  0
 16 14  1  0  0  0  0
 17 18  1  6  0  0  0
 17 16  1  0  0  0  0
 19  2  1  1  0  0  0
 19 20  1  0  0  0  0
 19 17  1  0  0  0  0
 20 21  1  6  0  0  0
 20 22  1  0  0  0  0
 22 23  1  1  0  0  0
 22 14  1  0  0  0  0
 24 23  1  1  0  0  0
 24 25  1  0  0  0  0
 25 27  1  0  0  0  0
 25 26  1  1  0  0  0
 27 28  1  6  0  0  0
 28 29  1  0  0  0  0
 30 31  1  6  0  0  0
 30 32  1  0  0  0  0
 30 27  1  0  0  0  0
 33 30  1  0  0  0  0
 34 33  1  0  0  0  0
 34 24  1  0  0  0  0
M  END
>  <CHROM.1>
-170.07607464,43.04172567,-176.91759217,149.68567081,-155.08179769,-91.06274924
-2.29844999,16.84647933,35.34661121,2.17550924,0.11065445,2.87477886

>  <Name>
lig.pdb

>  <RI>
0

>  <Rbt.Current_Directory>
/home/itssahil/PROJECTS/Mol_Feturizer/New_Systems/rnas/4k32

>  <Rbt.Executable>
rbdock ($Id: //depot/dev/client3/rdock/2013.1/src/exe/rbdock.cxx#4 $)

>  <Rbt.Library>
libRbt.so (2013.1, Build901 2013/11/27)

>  <Rbt.Parameter_File>
/export/apps/rDock/src/rDock_2013.1_src/data/scripts/dock_solv.prm

>  <Rbt.Receptor>
prm/pocket_docking_4.prm

>  <SCORE>
-12.5565

>  <SCORE.INTER>
-8.24222

>  <SCORE.INTER.CONST>
1

>  <SCORE.INTER.POLAR>
0

>  <SCORE.INTER.ROT>
6

>  <SCORE.INTER.SOLV>
20.272

>  <SCORE.INTER.VDW>
-19.8521

>  <SCORE.INTER.norm>
-0.242418

>  <SCORE.INTRA>
-4.31432

>  <SCORE.INTRA.DIHEDRAL>
-9.55133

>  <SCORE.INTRA.DIHEDRAL.0>
18.0069

>  <SCORE.INTRA.POLAR>
0

>  <SCORE.INTRA.POLAR.0>
0

>  <SCORE.INTRA.REPUL>
0

>  <SCORE.INTRA.REPUL.0>
0

>  <SCORE.INTRA.SOLV>
-2.35635

>  <SCORE.INTRA.SOLV.lig_0>
-70.7393

>  <SCORE.INTRA.VDW>
1.63953

>  <SCORE.INTRA.VDW.0>
-3.23471

>  <SCORE.INTRA.norm>
-0.126892

>  <SCORE.RESTR>
0

>  <SCORE.RESTR.CAVITY>
0

>  <SCORE.RESTR.norm>
0

>  <SCORE.SYSTEM>
0

>  <SCORE.SYSTEM.CONST>
0

>  <SCORE.SYSTEM.DIHEDRAL>
0

>  <SCORE.SYSTEM.SOLV>
0

>  <SCORE.SYSTEM.norm>
0

>  <SCORE.heavy>
34

>  <SCORE.norm>
-0.36931

>  <RMSD>
9.152

$$$$
lig.pdb
 OpenBabel11021811503D
libRbt.so/2013.1/901 2013/11/27
 34 36  0  0  0  0  0  0  0  0999 V2000
   -4.0901   15.7862   35.7865 C   0  0  2  0  0  0  0  0  0  0  0  0
   -2.9475   15.4755   36.5917 O   0  0  0  0  0  0  0  0  0  0  0  0
   -5.3998   15.4561   36.6214 C   0  0  2  0  0  0  0  0  0  0  0  0
   -5.4732   16.2525   37.8685 N   0  0  0  0  0  0  0  0  0  0  0  0
   -5.4284   13.9439   36.9582 C   0  0  1  0  0  0  0  0  0  0  0  0
   -6.6054   13.6260   37.7047 O   0  0  0  0  0  0  0  0  0  0  0  0
   -5.3677   13.1477   35.6425 C   0  0  2  0  0  0  0  0  0  0  0  0
   -5.3972   11.7506   35.9386 O   0  0  0  0  0  0  0  0  0  0  0  0
   -4.0577   13.5278   34.8514 C   0  0  2  0  0  0  0  0  0  0  0  0
   -4.0212   14.9778   34.5648 O   0  0  0  0  0  0  0  0  0  0  0  0
   -3.9603   12.7619   33.5087 C   0  0  2  0  0  0  0  0  0  0  0  0
   -3.9378   11.3545   33.7546 O   0  0  0  0  0  0  0  0  0  0  0  0
   -2.6990   13.1423   32.7491 C   0  0  0  0  0  0  0  0  0  0  0  0
    0.9260   17.2739   36.3127 C   0  0  2  0  0  0  0  0  0  0  0  0
    2.2905   17.5689   35.8684 N   0  0  0  0  0  0  0  0  0  0  0  0
    0.8530   15.7475   36.5936 C   0  0  0  0  0  0  0  0  0  0  0  0
   -0.5811   15.4185   37.0897 C   0  0  2  0  0  0  0  0  0  0  0  0
   -0.6950   13.9794   37.3743 N   0  0  0  0  0  0  0  0  0  0  0  0
   -1.6409   15.8132   36.0264 C   0  0  2  0  0  0  0  0  0  0  0  0
   -1.5178   17.3406   35.7271 C   0  0  2  0  0  0  0  0  0  0  0  0
   -2.4896   17.7018   34.7364 O   0  0  0  0  0  0  0  0  0  0  0  0
   -0.1098   17.6828   35.1825 C   0  0  1  0  0  0  0  0  0  0  0  0
   -0.0751   19.1115   34.9425 O   0  0  0  0  0  0  0  0  0  0  0  0
   -0.4186   19.5400   33.6038 C   0  0  2  0  0  0  0  0  0  0  0  0
    0.3564   20.8887   33.3635 C   0  0  2  0  0  0  0  0  0  0  0  0
    1.7540   20.6663   33.4662 O   0  0  0  0  0  0  0  0  0  0  0  0
   -0.1250   21.9516   34.4224 C   0  0  1  0  0  0  0  0  0  0  0  0
    0.5940   23.2490   34.2378 N   0  0  0  0  0  0  0  0  0  0  0  0
    1.5555   23.4254   35.3473 C   0  0  0  0  0  0  0  0  0  0  0  0
   -1.6613   22.1563   34.2543 C   0  0  2  0  0  0  0  0  0  0  0  0
   -1.9167   22.6416   32.9371 O   0  0  0  0  0  0  0  0  0  0  0  0
   -2.2110   23.1704   35.2542 C   0  0  0  0  0  0  0  0  0  0  0  0
   -2.3849   20.7853   34.4490 C   0  0  0  0  0  0  0  0  0  0  0  0
   -1.8722   19.7773   33.4974 O   0  0  0  0  0  0  0  0  0  0  0  0
  1  3  1  0  0  0  0
  1  2  1  1  0  0  0
  3  5  1  0  0  0  0
  3  4  1  1  0  0  0
  5  6  1  6  0  0  0
  7  8  1  1  0  0  0
  7  5  1  0  0  0  0
  9 10  1  6  0  0  0
  9  7  1  0  0  0  0
 10  1  1  0  0  0  0
 11 13  1  1  0  0  0
 11  9  1  0  0  0  0
 12 11  1  0  0  0  0
 14 15  1  6  0  0  0
 16 14  1  0  0  0  0
 17 18  1  6  0  0  0
 17 16  1  0  0  0  0
 19  2  1  1  0  0  0
 19 20  1  0  0  0  0
 19 17  1  0  0  0  0
 20 21  1  6  0  0  0
 20 22  1  0  0  0  0
 22 23  1  1  0  0  0
 22 14  1  0  0  0  0
 24 23  1  1  0  0  0
 24 25  1  0  0  0  0
 25 27  1  0  0  0  0
 25 26  1  1  0  0  0
 27 28  1  6  0  0  0
 28 29  1  0  0  0  0
 30 31  1  6  0  0  0
 30 32  1  0  0  0  0
 30 27  1  0  0  0  0
 33 30  1  0  0  0  0
 34 33  1  0  0  0  0
 34 24  1  0  0  0  0
M  END
>  <CHROM.1>
-175.39796697,-60.15477769,178.56968160,150.94903640,-151.69361915,-107.84125855
-2.04151051,17.26406874,35.19089621,2.05386172,-0.01956453,2.98565221

>  <Name>
lig.pdb

>  <RI>
0

>  <Rbt.Current_Directory>
/home/itssahil/PROJECTS/Mol_Feturizer/New_Systems/rnas/4k32

>  <Rbt.Executable>
rbdock ($Id: //depot/dev/client3/rdock/2013.1/src/exe/rbdock.cxx#4 $)

>  <Rbt.Library>
libRbt.so (2013.1, Build901 2013/11/27)

>  <Rbt.Parameter_File>
/export/apps/rDock/src/rDock_2013.1_src/data/scripts/dock_solv.prm

>  <Rbt.Receptor>
prm/pocket_docking_6.prm

>  <SCORE>
-14.3094

>  <SCORE.INTER>
-8.96732

>  <SCORE.INTER.CONST>
1

>  <SCORE.INTER.POLAR>
0

>  <SCORE.INTER.ROT>
6

>  <SCORE.INTER.SOLV>
19.2611

>  <SCORE.INTER.VDW>
-19.9986

>  <SCORE.INTER.norm>
-0.263745

>  <SCORE.INTRA>
-5.34211

>  <SCORE.INTRA.DIHEDRAL>
-10.0892

>  <SCORE.INTRA.DIHEDRAL.0>
18.0069

>  <SCORE.INTRA.POLAR>
0

>  <SCORE.INTRA.POLAR.0>
0

>  <SCORE.INTRA.REPUL>
0

>  <SCORE.INTRA.REPUL.0>
0

>  <SCORE.INTRA.SOLV>
-2.66706

>  <SCORE.INTRA.SOLV.lig_0>
-70.7393

>  <SCORE.INTRA.VDW>
1.03604

>  <SCORE.INTRA.VDW.0>
-3.23471

>  <SCORE.INTRA.norm>
-0.157121

>  <SCORE.RESTR>
0

>  <SCORE.RESTR.CAVITY>
0

>  <SCORE.RESTR.norm>
0

>  <SCORE.SYSTEM>
0

>  <SCORE.SYSTEM.CONST>
0

>  <SCORE.SYSTEM.DIHEDRAL>
0

>  <SCORE.SYSTEM.SOLV>
0

>  <SCORE.SYSTEM.norm>
0

>  <SCORE.heavy>
34

>  <SCORE.norm>
-0.420866

>  <RMSD>
9.153

$$$$
lig.pdb
 OpenBabel11021811503D
libRbt.so/2013.1/901 2013/11/27
 34 36  0  0  0  0  0  0  0  0999 V2000
   -5.5906   17.3886   37.5275 C   0  0  2  0  0  0  0  0  0  0  0  0
   -4.3426   17.1313   38.1805 O   0  0  0  0  0  0  0  0  0  0  0  0
   -6.6450   17.8522   38.6205 C   0  0  2  0  0  0  0  0  0  0  0  0
   -6.2131   19.0889   39.3126 N   0  0  0  0  0  0  0  0  0  0  0  0
   -6.8517   16.7146   39.6520 C   0  0  1  0  0  0  0  0  0  0  0  0
   -7.8042   17.1114   40.6414 O   0  0  0  0  0  0  0  0  0  0  0  0
   -7.3150   15.4524   38.9031 C   0  0  2  0  0  0  0  0  0  0  0  0
   -7.5131   14.3958   39.8437 O   0  0  0  0  0  0  0  0  0  0  0  0
   -6.2388   15.0502   37.8232 C   0  0  2  0  0  0  0  0  0  0  0  0
   -6.0218   16.1539   36.8637 O   0  0  0  0  0  0  0  0  0  0  0  0
   -6.6699   13.7914   37.0303 C   0  0  2  0  0  0  0  0  0  0  0  0
   -6.8917   12.7044   37.9308 O   0  0  0  0  0  0  0  0  0  0  0  0
   -5.6027   13.3812   36.0276 C   0  0  0  0  0  0  0  0  0  0  0  0
   -0.3244   16.5766   36.8154 C   0  0  2  0  0  0  0  0  0  0  0  0
    0.8327   16.0606   36.0798 N   0  0  0  0  0  0  0  0  0  0  0  0
   -1.0527   15.3562   37.4432 C   0  0  0  0  0  0  0  0  0  0  0  0
   -2.2702   15.8854   38.2485 C   0  0  2  0  0  0  0  0  0  0  0  0
   -2.9889   14.7606   38.8674 N   0  0  0  0  0  0  0  0  0  0  0  0
   -3.2453   16.6695   37.3298 C   0  0  2  0  0  0  0  0  0  0  0  0
   -2.4799   17.8625   36.6751 C   0  0  2  0  0  0  0  0  0  0  0  0
   -3.3787   18.5793   35.8177 O   0  0  0  0  0  0  0  0  0  0  0  0
   -1.2907   17.3532   35.8250 C   0  0  1  0  0  0  0  0  0  0  0  0
   -0.6309   18.5156   35.2653 O   0  0  0  0  0  0  0  0  0  0  0  0
    0.1149   18.2973   34.0447 C   0  0  2  0  0  0  0  0  0  0  0  0
    1.2849   19.3502   34.0523 C   0  0  2  0  0  0  0  0  0  0  0  0
    2.1165   19.1384   35.1822 O   0  0  0  0  0  0  0  0  0  0  0  0
    0.6687   20.8003   34.0691 C   0  0  1  0  0  0  0  0  0  0  0  0
    1.7467   21.8356   34.0869 N   0  0  0  0  0  0  0  0  0  0  0  0
    2.1299   22.1034   35.4898 C   0  0  0  0  0  0  0  0  0  0  0  0
   -0.2252   20.9724   32.8035 C   0  0  2  0  0  0  0  0  0  0  0  0
    0.5888   20.8105   31.6430 O   0  0  0  0  0  0  0  0  0  0  0  0
   -0.8698   22.3552   32.7483 C   0  0  0  0  0  0  0  0  0  0  0  0
   -1.3389   19.8766   32.8103 C   0  0  0  0  0  0  0  0  0  0  0  0
   -0.7481   18.5230   32.8679 O   0  0  0  0  0  0  0  0  0  0  0  0
  1  3  1  0  0  0  0
  1  2  1  1  0  0  0
  3  5  1  0  0  0  0
  3  4  1  1  0  0  0
  5  6  1  1  0  0  0
  7  8  1  1  0  0  0
  7  5  1  0  0  0  0
  9 10  1  6  0  0  0
  9  7  1  0  0  0  0
 10  1  1  0  0  0  0
 11 13  1  6  0  0  0
 11  9  1  0  0  0  0
 12 11  1  0  0  0  0
 14 15  1  6  0  0  0
 16 14  1  0  0  0  0
 17 18  1  6  0  0  0
 17 16  1  0  0  0  0
 19  2  1  1  0  0  0
 19 20  1  0  0  0  0
 19 17  1  0  0  0  0
 20 21  1  6  0  0  0
 20 22  1  0  0  0  0
 22 23  1  1  0  0  0
 22 14  1  0  0  0  0
 24 23  1  1  0  0  0
 24 25  1  0  0  0  0
 25 27  1  0  0  0  0
 25 26  1  1  0  0  0
 27 28  1  6  0  0  0
 28 29  1  0  0  0  0
 30 31  1  6  0  0  0
 30 32  1  0  0  0  0
 30 27  1  0  0  0  0
 33 30  1  0  0  0  0
 34 33  1  0  0  0  0
 34 24  1  0  0  0  0
M  END
>  <CHROM.1>
179.07435688,-57.64428135,-155.49927949,88.77779425,-150.50345147,-87.43124868
-2.80951190,17.58520210,36.35966102,2.49945734,-0.45301515,2.89605170

>  <Name>
lig.pdb

>  <RI>
0

>  <Rbt.Current_Directory>
/home/itssahil/PROJECTS/Mol_Feturizer/New_Systems/rnas/4k32

>  <Rbt.Executable>
rbdock ($Id: //depot/dev/client3/rdock/2013.1/src/exe/rbdock.cxx#4 $)

>  <Rbt.Library>
libRbt.so (2013.1, Build901 2013/11/27)

>  <Rbt.Parameter_File>
/export/apps/rDock/src/rDock_2013.1_src/data/scripts/dock_solv.prm

>  <Rbt.Receptor>
prm/pocket_docking_3.prm

>  <SCORE>
-11.8537

>  <SCORE.INTER>
-7.86836

>  <SCORE.INTER.CONST>
1

>  <SCORE.INTER.POLAR>
0

>  <SCORE.INTER.ROT>
6

>  <SCORE.INTER.SOLV>
17.4329

>  <SCORE.INTER.VDW>
-18.6566

>  <SCORE.INTER.norm>
-0.231422

>  <SCORE.INTRA>
-4.04283

>  <SCORE.INTRA.DIHEDRAL>
-7.98963

>  <SCORE.INTRA.DIHEDRAL.0>
18.0069

>  <SCORE.INTRA.POLAR>
0

>  <SCORE.INTRA.POLAR.0>
0

>  <SCORE.INTRA.REPUL>
0

>  <SCORE.INTRA.REPUL.0>
0

>  <SCORE.INTRA.SOLV>
0.0369795

>  <SCORE.INTRA.SOLV.lig_0>
-70.7393

>  <SCORE.INTRA.VDW>
-0.0665011

>  <SCORE.INTRA.VDW.0>
-3.23471

>  <SCORE.INTRA.norm>
-0.118907

>  <SCORE.RESTR>
0.0575011

>  <SCORE.RESTR.CAVITY>
0.0575011

>  <SCORE.RESTR.norm>
0.00169121

>  <SCORE.SYSTEM>
0

>  <SCORE.SYSTEM.CONST>
0

>  <SCORE.SYSTEM.DIHEDRAL>
0

>  <SCORE.SYSTEM.SOLV>
0

>  <SCORE.SYSTEM.norm>
0

>  <SCORE.heavy>
34

>  <SCORE.norm>
-0.348638

>  <RMSD>
9.154

$$$$
lig.pdb
 OpenBabel11021811503D
libRbt.so/2013.1/901 2013/11/27
 34 36  0  0  0  0  0  0  0  0999 V2000
   -5.3182   17.6966   37.6123 C   0  0  2  0  0  0  0  0  0  0  0  0
   -4.1427   17.4687   38.3974 O   0  0  0  0  0  0  0  0  0  0  0  0
   -6.5183   18.0460   38.5915 C   0  0  2  0  0  0  0  0  0  0  0  0
   -6.2421   19.2640   39.3884 N   0  0  0  0  0  0  0  0  0  0  0  0
   -6.7792   16.8453   39.5355 C   0  0  1  0  0  0  0  0  0  0  0  0
   -7.8623   17.1389   40.4211 O   0  0  0  0  0  0  0  0  0  0  0  0
   -7.0784   15.6033   38.6773 C   0  0  2  0  0  0  0  0  0  0  0  0
   -7.3247   14.4887   39.5360 O   0  0  0  0  0  0  0  0  0  0  0  0
   -5.8617   15.3155   37.7166 C   0  0  2  0  0  0  0  0  0  0  0  0
   -5.5971   16.4791   36.8436 O   0  0  0  0  0  0  0  0  0  0  0  0
   -6.1240   14.0809   36.8188 C   0  0  2  0  0  0  0  0  0  0  0  0
   -6.3488   12.9288   37.6334 O   0  0  0  0  0  0  0  0  0  0  0  0
   -4.9409   13.8053   35.9039 C   0  0  0  0  0  0  0  0  0  0  0  0
    0.0090   17.1605   37.4048 C   0  0  2  0  0  0  0  0  0  0  0  0
    1.2608   16.6987   36.8000 N   0  0  0  0  0  0  0  0  0  0  0  0
   -0.6785   15.9221   38.0433 C   0  0  0  0  0  0  0  0  0  0  0  0
   -1.9974   16.3962   38.7117 C   0  0  2  0  0  0  0  0  0  0  0  0
   -2.6816   15.2531   39.3363 N   0  0  0  0  0  0  0  0  0  0  0  0
   -2.9444   17.0498   37.6698 C   0  0  2  0  0  0  0  0  0  0  0  0
   -2.2157   18.2624   37.0094 C   0  0  2  0  0  0  0  0  0  0  0  0
   -3.0872   18.8584   36.0389 O   0  0  0  0  0  0  0  0  0  0  0  0
   -0.9225   17.8036   36.2928 C   0  0  1  0  0  0  0  0  0  0  0  0
   -0.3046   18.9825   35.7200 O   0  0  0  0  0  0  0  0  0  0  0  0
    0.6406   18.7487   34.6497 C   0  0  2  0  0  0  0  0  0  0  0  0
    1.4812   20.0722   34.5112 C   0  0  2  0  0  0  0  0  0  0  0  0
    2.1670   20.3369   35.7248 O   0  0  0  0  0  0  0  0  0  0  0  0
    0.5121   21.2580   34.1406 C   0  0  1  0  0  0  0  0  0  0  0  0
    1.2680   22.5408   34.0084 N   0  0  0  0  0  0  0  0  0  0  0  0
    1.1687   23.2881   35.2805 C   0  0  0  0  0  0  0  0  0  0  0  0
   -0.2032   20.9114   32.7994 C   0  0  2  0  0  0  0  0  0  0  0  0
    0.7838   20.7620   31.7800 O   0  0  0  0  0  0  0  0  0  0  0  0
   -1.1714   22.0117   32.3723 C   0  0  0  0  0  0  0  0  0  0  0  0
   -0.9810   19.5667   32.9665 C   0  0  0  0  0  0  0  0  0  0  0  0
   -0.0719   18.4789   33.3848 O   0  0  0  0  0  0  0  0  0  0  0  0
  1  3  1  0  0  0  0
  1  2  1  1  0  0  0
  3  5  1  0  0  0  0
  3  4  1  1  0  0  0
  5  6  1  1  0  0  0
  7  8  1  1  0  0  0
  7  5  1  0  0  0  0
  9 10  1  6  0  0  0
  9  7  1  0  0  0  0
 10  1  1  0  0  0  0
 11 13  1  6  0  0  0
 11  9  1  0  0  0  0
 12 11  1  0  0  0  0
 14 15  1  6  0  0  0
 16 14  1  0  0  0  0
 17 18  1  6  0  0  0
 17 16  1  0  0  0  0
 19  2  1  1  0  0  0
 19 20  1  0  0  0  0
 19 17  1  0  0  0  0
 20 21  1  6  0  0  0
 20 22  1  0  0  0  0
 22 23  1  1  0  0  0
 22 14  1  0  0  0  0
 24 23  1  1  0  0  0
 24 25  1  0  0  0  0
 25 27  1  0  0  0  0
 25 26  1  1  0  0  0
 27 28  1  6  0  0  0
 28 29  1  0  0  0  0
 30 31  1  6  0  0  0
 30 32  1  0  0  0  0
 30 27  1  0  0  0  0
 33 30  1  0  0  0  0
 34 33  1  0  0  0  0
 34 24  1  0  0  0  0
M  END
>  <CHROM.1>
176.32940931,-59.32433731,-160.44075833,84.03527229,-162.83936586,-96.77095167
-2.60531476,17.92592324,36.50838636,2.43221854,-0.35716338,2.79363660

>  <Name>
lig.pdb

>  <RI>
0

>  <Rbt.Current_Directory>
/home/itssahil/PROJECTS/Mol_Feturizer/New_Systems/rnas/4k32

>  <Rbt.Executable>
rbdock ($Id: //depot/dev/client3/rdock/2013.1/src/exe/rbdock.cxx#4 $)

>  <Rbt.Library>
libRbt.so (2013.1, Build901 2013/11/27)

>  <Rbt.Parameter_File>
/export/apps/rDock/src/rDock_2013.1_src/data/scripts/dock_solv.prm

>  <Rbt.Receptor>
prm/pocket_docking_5.prm

>  <SCORE>
-15.292

>  <SCORE.INTER>
-8.94622

>  <SCORE.INTER.CONST>
1

>  <SCORE.INTER.POLAR>
0

>  <SCORE.INTER.ROT>
6

>  <SCORE.INTER.SOLV>
18.0854

>  <SCORE.INTER.VDW>
-19.5926

>  <SCORE.INTER.norm>
-0.263124

>  <SCORE.INTRA>
-6.34579

>  <SCORE.INTRA.DIHEDRAL>
-11.516

>  <SCORE.INTRA.DIHEDRAL.0>
18.0069

>  <SCORE.INTRA.POLAR>
0

>  <SCORE.INTRA.POLAR.0>
0

>  <SCORE.INTRA.REPUL>
0

>  <SCORE.INTRA.REPUL.0>
0

>  <SCORE.INTRA.SOLV>
-0.732673

>  <SCORE.INTRA.SOLV.lig_0>
-70.7393

>  <SCORE.INTRA.VDW>
-0.221444

>  <SCORE.INTRA.VDW.0>
-3.23471

>  <SCORE.INTRA.norm>
-0.186641

>  <SCORE.RESTR>
0

>  <SCORE.RESTR.CAVITY>
0

>  <SCORE.RESTR.norm>
0

>  <SCORE.SYSTEM>
0

>  <SCORE.SYSTEM.CONST>
0

>  <SCORE.SYSTEM.DIHEDRAL>
0

>  <SCORE.SYSTEM.SOLV>
0

>  <SCORE.SYSTEM.norm>
0

>  <SCORE.heavy>
34

>  <SCORE.norm>
-0.449765

>  <RMSD>
9.157

$$$$
lig.pdb
 OpenBabel11021811503D
libRbt.so/2013.1/901 2013/11/27
 34 36  0  0  0  0  0  0  0  0999 V2000
   -5.2214   17.6404   37.5756 C   0  0  2  0  0  0  0  0  0  0  0  0
   -4.0572   17.3916   38.3712 O   0  0  0  0  0  0  0  0  0  0  0  0
   -6.4294   17.9892   38.5453 C   0  0  2  0  0  0  0  0  0  0  0  0
   -6.1509   19.1946   39.3604 N   0  0  0  0  0  0  0  0  0  0  0  0
   -6.7123   16.7796   39.4714 C   0  0  1  0  0  0  0  0  0  0  0  0
   -7.8028   17.0726   40.3481 O   0  0  0  0  0  0  0  0  0  0  0  0
   -7.0134   15.5511   38.5945 C   0  0  2  0  0  0  0  0  0  0  0  0
   -7.2801   14.4284   39.4365 O   0  0  0  0  0  0  0  0  0  0  0  0
   -5.7885   15.2635   37.6442 C   0  0  2  0  0  0  0  0  0  0  0  0
   -5.5029   16.4351   36.7888 O   0  0  0  0  0  0  0  0  0  0  0  0
   -6.0521   14.0426   36.7282 C   0  0  2  0  0  0  0  0  0  0  0  0
   -6.2953   12.8824   37.5259 O   0  0  0  0  0  0  0  0  0  0  0  0
   -4.8620   13.7681   35.8221 C   0  0  0  0  0  0  0  0  0  0  0  0
    0.1034   17.1512   37.3976 C   0  0  2  0  0  0  0  0  0  0  0  0
    1.3656   16.7089   36.7996 N   0  0  0  0  0  0  0  0  0  0  0  0
   -0.5656   15.9032   38.0369 C   0  0  0  0  0  0  0  0  0  0  0  0
   -1.8953   16.3567   38.6981 C   0  0  2  0  0  0  0  0  0  0  0  0
   -2.5628   15.2041   39.3232 N   0  0  0  0  0  0  0  0  0  0  0  0
   -2.8487   16.9910   37.6501 C   0  0  2  0  0  0  0  0  0  0  0  0
   -2.1379   18.2139   36.9891 C   0  0  2  0  0  0  0  0  0  0  0  0
   -3.0151   18.7921   36.0130 O   0  0  0  0  0  0  0  0  0  0  0  0
   -0.8339   17.7750   36.2796 C   0  0  1  0  0  0  0  0  0  0  0  0
   -0.2337   18.9626   35.7059 O   0  0  0  0  0  0  0  0  0  0  0  0
    0.6952   18.7436   34.6183 C   0  0  2  0  0  0  0  0  0  0  0  0
    1.5328   20.0694   34.4843 C   0  0  2  0  0  0  0  0  0  0  0  0
    2.2369   20.3187   35.6907 O   0  0  0  0  0  0  0  0  0  0  0  0
    0.5574   21.2592   34.1442 C   0  0  1  0  0  0  0  0  0  0  0  0
    1.3105   22.5442   34.0173 N   0  0  0  0  0  0  0  0  0  0  0  0
    1.2499   23.2638   35.3077 C   0  0  0  0  0  0  0  0  0  0  0  0
   -0.1781   20.9297   32.8096 C   0  0  2  0  0  0  0  0  0  0  0  0
    0.7932   20.7944   31.7734 O   0  0  0  0  0  0  0  0  0  0  0  0
   -1.1534   22.0347   32.4119 C   0  0  0  0  0  0  0  0  0  0  0  0
   -0.9525   19.5823   32.9710 C   0  0  0  0  0  0  0  0  0  0  0  0
   -0.0365   18.4898   33.3609 O   0  0  0  0  0  0  0  0  0  0  0  0
  1  3  1  0  0  0  0
  1  2  1  1  0  0  0
  3  5  1  0  0  0  0
  3  4  1  1  0  0  0
  5  6  1  1  0  0  0
  7  8  1  1  0  0  0
  7  5  1  0  0  0  0
  9 10  1  6  0  0  0
  9  7  1  0  0  0  0
 10  1  1  0  0  0  0
 11 13  1  6  0  0  0
 11  9  1  0  0  0  0
 12 11  1  0  0  0  0
 14 15  1  6  0  0  0
 16 14  1  0  0  0  0
 17 18  1  6  0  0  0
 17 16  1  0  0  0  0
 19  2  1  1  0  0  0
 19 20  1  0  0  0  0
 19 17  1  0  0  0  0
 20 21  1  6  0  0  0
 20 22  1  0  0  0  0
 22 23  1  1  0  0  0
 22 14  1  0  0  0  0
 24 23  1  1  0  0  0
 24 25  1  0  0  0  0
 25 27  1  0  0  0  0
 25 26  1  1  0  0  0
 27 28  1  6  0  0  0
 28 29  1  0  0  0  0
 30 31  1  6  0  0  0
 30 32  1  0  0  0  0
 30 27  1  0  0  0  0
 33 30  1  0  0  0  0
 34 33  1  0  0  0  0
 34 24  1  0  0  0  0
M  END
>  <CHROM.1>
177.27781046,-59.40437456,-162.45336831,85.50559418,-162.36477129,-95.80232952
-2.53611716,17.89648556,36.47771941,2.41736506,-0.32375054,2.76670299

>  <Name>
lig.pdb

>  <RI>
0

>  <Rbt.Current_Directory>
/home/itssahil/PROJECTS/Mol_Feturizer/New_Systems/rnas/4k32

>  <Rbt.Executable>
rbdock ($Id: //depot/dev/client3/rdock/2013.1/src/exe/rbdock.cxx#4 $)

>  <Rbt.Library>
libRbt.so (2013.1, Build901 2013/11/27)

>  <Rbt.Parameter_File>
/export/apps/rDock/src/rDock_2013.1_src/data/scripts/dock_solv.prm

>  <Rbt.Receptor>
prm/pocket_docking_6.prm

>  <SCORE>
-15.4333

>  <SCORE.INTER>
-8.96671

>  <SCORE.INTER.CONST>
1

>  <SCORE.INTER.POLAR>
0

>  <SCORE.INTER.ROT>
6

>  <SCORE.INTER.SOLV>
18.0521

>  <SCORE.INTER.VDW>
-19.5952

>  <SCORE.INTER.norm>
-0.263727

>  <SCORE.INTRA>
-6.4666

>  <SCORE.INTRA.DIHEDRAL>
-11.5543

>  <SCORE.INTRA.DIHEDRAL.0>
18.0069

>  <SCORE.INTRA.POLAR>
0

>  <SCORE.INTRA.POLAR.0>
0

>  <SCORE.INTRA.REPUL>
0

>  <SCORE.INTRA.REPUL.0>
0

>  <SCORE.INTRA.SOLV>
-0.966448

>  <SCORE.INTRA.SOLV.lig_0>
-70.7393

>  <SCORE.INTRA.VDW>
-0.20625

>  <SCORE.INTRA.VDW.0>
-3.23471

>  <SCORE.INTRA.norm>
-0.190194

>  <SCORE.RESTR>
0

>  <SCORE.RESTR.CAVITY>
0

>  <SCORE.RESTR.norm>
0

>  <SCORE.SYSTEM>
0

>  <SCORE.SYSTEM.CONST>
0

>  <SCORE.SYSTEM.DIHEDRAL>
0

>  <SCORE.SYSTEM.SOLV>
0

>  <SCORE.SYSTEM.norm>
0

>  <SCORE.heavy>
34

>  <SCORE.norm>
-0.453921

>  <RMSD>
9.157

$$$$
lig.pdb
 OpenBabel11021811503D
libRbt.so/2013.1/901 2013/11/27
 34 36  0  0  0  0  0  0  0  0999 V2000
   -5.1341   17.6246   37.5396 C   0  0  2  0  0  0  0  0  0  0  0  0
   -3.9885   17.3884   38.3654 O   0  0  0  0  0  0  0  0  0  0  0  0
   -6.3717   17.9561   38.4775 C   0  0  2  0  0  0  0  0  0  0  0  0
   -6.1300   19.1629   39.3023 N   0  0  0  0  0  0  0  0  0  0  0  0
   -6.6641   16.7408   39.3932 C   0  0  1  0  0  0  0  0  0  0  0  0
   -7.7811   17.0182   40.2411 O   0  0  0  0  0  0  0  0  0  0  0  0
   -6.9265   15.5109   38.5060 C   0  0  2  0  0  0  0  0  0  0  0  0
   -7.2015   14.3829   39.3382 O   0  0  0  0  0  0  0  0  0  0  0  0
   -5.6731   15.2408   37.5880 C   0  0  2  0  0  0  0  0  0  0  0  0
   -5.3796   16.4180   36.7430 O   0  0  0  0  0  0  0  0  0  0  0  0
   -5.8971   14.0190   36.6628 C   0  0  2  0  0  0  0  0  0  0  0  0
   -6.1349   12.8515   37.4514 O   0  0  0  0  0  0  0  0  0  0  0  0
   -4.6849   13.7693   35.7790 C   0  0  0  0  0  0  0  0  0  0  0  0
    0.1926   17.2978   37.4559 C   0  0  2  0  0  0  0  0  0  0  0  0
    1.4814   16.8910   36.8906 N   0  0  0  0  0  0  0  0  0  0  0  0
   -0.4308   16.0446   38.1302 C   0  0  0  0  0  0  0  0  0  0  0  0
   -1.7886   16.4619   38.7573 C   0  0  2  0  0  0  0  0  0  0  0  0
   -2.4143   15.3035   39.4142 N   0  0  0  0  0  0  0  0  0  0  0  0
   -2.7532   17.0165   37.6750 C   0  0  2  0  0  0  0  0  0  0  0  0
   -2.0867   18.2457   36.9804 C   0  0  2  0  0  0  0  0  0  0  0  0
   -2.9739   18.7502   35.9729 O   0  0  0  0  0  0  0  0  0  0  0  0
   -0.7546   17.8402   36.3042 C   0  0  1  0  0  0  0  0  0  0  0  0
   -0.1983   19.0323   35.6965 O   0  0  0  0  0  0  0  0  0  0  0  0
    0.7095   18.8179   34.5904 C   0  0  2  0  0  0  0  0  0  0  0  0
    1.5157   20.1589   34.4194 C   0  0  2  0  0  0  0  0  0  0  0  0
    2.2422   20.4391   35.6055 O   0  0  0  0  0  0  0  0  0  0  0  0
    0.5078   21.3235   34.0867 C   0  0  1  0  0  0  0  0  0  0  0  0
    1.2305   22.6219   33.9253 N   0  0  0  0  0  0  0  0  0  0  0  0
    1.2542   23.3215   35.2279 C   0  0  0  0  0  0  0  0  0  0  0  0
   -0.2514   20.9606   32.7742 C   0  0  2  0  0  0  0  0  0  0  0  0
    0.6983   20.8315   31.7173 O   0  0  0  0  0  0  0  0  0  0  0  0
   -1.2587   22.0397   32.3851 C   0  0  0  0  0  0  0  0  0  0  0  0
   -0.9932   19.5998   32.9714 C   0  0  0  0  0  0  0  0  0  0  0  0
   -0.0456   18.5319   33.3540 O   0  0  0  0  0  0  0  0  0  0  0  0
  1  3  1  0  0  0  0
  1  2  1  1  0  0  0
  3  5  1  0  0  0  0
  3  4  1  1  0  0  0
  5  6  1  6  0  0  0
  7  8  1  1  0  0  0
  7  5  1  0  0  0  0
  9 10  1  6  0  0  0
  9  7  1  0  0  0  0
 10  1  1  0  0  0  0
 11 13  1  1  0  0  0
 11  9  1  0  0  0  0
 12 11  1  0  0  0  0
 14 15  1  6  0  0  0
 16 14  1  0  0  0  0
 17 18  1  6  0  0  0
 17 16  1  0  0  0  0
 19  2  1  1  0  0  0
 19 20  1  0  0  0  0
 19 17  1  0  0  0  0
 20 21  1  6  0  0  0
 20 22  1  0  0  0  0
 22 23  1  1  0  0  0
 22 14  1  0  0  0  0
 24 23  1  1  0  0  0
 24 25  1  0  0  0  0
 25 27  1  0  0  0  0
 25 26  1  1  0  0  0
 27 28  1  6  0  0  0
 28 29  1  0  0  0  0
 30 31  1  6  0  0  0
 30 32  1  0  0  0  0
 30 27  1  0  0  0  0
 33 30  1  0  0  0  0
 34 33  1  0  0  0  0
 34 24  1  0  0  0  0
M  END
>  <CHROM.1>
177.82026227,-59.92906132,-165.55298870,88.16402844,-162.05802059,-92.48792528
-2.48787118,17.92738785,36.44797128,2.37854306,-0.24334141,2.67901866

>  <Name>
lig.pdb

>  <RI>
0

>  <Rbt.Current_Directory>
/home/itssahil/PROJECTS/Mol_Feturizer/New_Systems/rnas/4k32

>  <Rbt.Executable>
rbdock ($Id: //depot/dev/client3/rdock/2013.1/src/exe/rbdock.cxx#4 $)

>  <Rbt.Library>
libRbt.so (2013.1, Build901 2013/11/27)

>  <Rbt.Parameter_File>
/export/apps/rDock/src/rDock_2013.1_src/data/scripts/dock_solv.prm

>  <Rbt.Receptor>
prm/pocket_docking_6.prm

>  <SCORE>
-15.4244

>  <SCORE.INTER>
-8.95515

>  <SCORE.INTER.CONST>
1

>  <SCORE.INTER.POLAR>
0

>  <SCORE.INTER.ROT>
6

>  <SCORE.INTER.SOLV>
18.1926

>  <SCORE.INTER.VDW>
-19.6343

>  <SCORE.INTER.norm>
-0.263387

>  <SCORE.INTRA>
-6.46927

>  <SCORE.INTRA.DIHEDRAL>
-11.5709

>  <SCORE.INTRA.DIHEDRAL.0>
18.0069

>  <SCORE.INTRA.POLAR>
0

>  <SCORE.INTRA.POLAR.0>
0

>  <SCORE.INTRA.REPUL>
0

>  <SCORE.INTRA.REPUL.0>
0

>  <SCORE.INTRA.SOLV>
-1.31448

>  <SCORE.INTRA.SOLV.lig_0>
-70.7393

>  <SCORE.INTRA.VDW>
-0.02658

>  <SCORE.INTRA.VDW.0>
-3.23471

>  <SCORE.INTRA.norm>
-0.190273

>  <SCORE.RESTR>
0

>  <SCORE.RESTR.CAVITY>
0

>  <SCORE.RESTR.norm>
0

>  <SCORE.SYSTEM>
0

>  <SCORE.SYSTEM.CONST>
0

>  <SCORE.SYSTEM.DIHEDRAL>
0

>  <SCORE.SYSTEM.SOLV>
0

>  <SCORE.SYSTEM.norm>
0

>  <SCORE.heavy>
34

>  <SCORE.norm>
-0.453659

>  <RMSD>
9.157

$$$$
lig.pdb
 OpenBabel11021811503D
libRbt.so/2013.1/901 2013/11/27
 34 36  0  0  0  0  0  0  0  0999 V2000
   -4.1433   15.7791   35.7399 C   0  0  2  0  0  0  0  0  0  0  0  0
   -3.0082   15.4825   36.5608 O   0  0  0  0  0  0  0  0  0  0  0  0
   -5.4603   15.4408   36.5597 C   0  0  2  0  0  0  0  0  0  0  0  0
   -5.5567   16.2420   37.8022 N   0  0  0  0  0  0  0  0  0  0  0  0
   -5.4794   13.9299   36.9031 C   0  0  1  0  0  0  0  0  0  0  0  0
   -6.6627   13.6045   37.6362 O   0  0  0  0  0  0  0  0  0  0  0  0
   -5.3948   13.1284   35.5920 C   0  0  2  0  0  0  0  0  0  0  0  0
   -5.4153   11.7324   35.8940 O   0  0  0  0  0  0  0  0  0  0  0  0
   -4.0785   13.5170   34.8157 C   0  0  2  0  0  0  0  0  0  0  0  0
   -4.0517   14.9659   34.5228 O   0  0  0  0  0  0  0  0  0  0  0  0
   -3.9572   12.7460   33.4778 C   0  0  2  0  0  0  0  0  0  0  0  0
   -3.9017   11.3410   33.7319 O   0  0  0  0  0  0  0  0  0  0  0  0
   -2.7024   13.1524   32.7209 C   0  0  0  0  0  0  0  0  0  0  0  0
    0.8943   17.2203   36.3023 C   0  0  2  0  0  0  0  0  0  0  0  0
    2.2635   17.4980   35.8613 N   0  0  0  0  0  0  0  0  0  0  0  0
    0.7963   15.6923   36.5658 C   0  0  0  0  0  0  0  0  0  0  0  0
   -0.6431   15.3812   37.0582 C   0  0  2  0  0  0  0  0  0  0  0  0
   -0.7806   13.9410   37.3264 N   0  0  0  0  0  0  0  0  0  0  0  0
   -1.6961   15.8052   35.9994 C   0  0  2  0  0  0  0  0  0  0  0  0
   -1.5479   17.3337   35.7175 C   0  0  2  0  0  0  0  0  0  0  0  0
   -2.5135   17.7219   34.7308 O   0  0  0  0  0  0  0  0  0  0  0  0
   -0.1344   17.6590   35.1767 C   0  0  1  0  0  0  0  0  0  0  0  0
   -0.0763   19.0895   34.9530 O   0  0  0  0  0  0  0  0  0  0  0  0
   -0.3686   19.5351   33.6078 C   0  0  2  0  0  0  0  0  0  0  0  0
    0.4249   20.8800   33.4100 C   0  0  2  0  0  0  0  0  0  0  0  0
    1.8162   20.6452   33.5597 O   0  0  0  0  0  0  0  0  0  0  0  0
   -0.0857   21.9354   34.4627 C   0  0  1  0  0  0  0  0  0  0  0  0
    0.6495   23.2288   34.3181 N   0  0  0  0  0  0  0  0  0  0  0  0
    1.6398   23.3411   35.4105 C   0  0  0  0  0  0  0  0  0  0  0  0
   -1.6134   22.1544   34.2425 C   0  0  2  0  0  0  0  0  0  0  0  0
   -1.8180   22.6559   32.9225 O   0  0  0  0  0  0  0  0  0  0  0  0
   -2.1905   23.1621   35.2334 C   0  0  0  0  0  0  0  0  0  0  0  0
   -2.3541   20.7873   34.3963 C   0  0  0  0  0  0  0  0  0  0  0  0
   -1.8156   19.7854   33.4524 O   0  0  0  0  0  0  0  0  0  0  0  0
  1  3  1  0  0  0  0
  1  2  1  1  0  0  0
  3  5  1  0  0  0  0
  3  4  1  1  0  0  0
  5  6  1  6  0  0  0
  7  8  1  1  0  0  0
  7  5  1  0  0  0  0
  9 10  1  6  0  0  0
  9  7  1  0  0  0  0
 10  1  1  0  0  0  0
 11 13  1  1  0  0  0
 11  9  1  0  0  0  0
 12 11  1  0  0  0  0
 14 15  1  6  0  0  0
 16 14  1  0  0  0  0
 17 18  1  6  0  0  0
 17 16  1  0  0  0  0
 19  2  1  1  0  0  0
 19 20  1  0  0  0  0
 19 17  1  0  0  0  0
 20 21  1  6  0  0  0
 20 22  1  0  0  0  0
 22 23  1  1  0  0  0
 22 14  1  0  0  0  0
 24 23  1  1  0  0  0
 24 25  1  0  0  0  0
 25 27  1  0  0  0  0
 25 26  1  1  0  0  0
 27 28  1  6  0  0  0
 28 29  1  0  0  0  0
 30 31  1  6  0  0  0
 30 32  1  0  0  0  0
 30 27  1  0  0  0  0
 33 30  1  0  0  0  0
 34 33  1  0  0  0  0
 34 24  1  0  0  0  0
M  END
>  <CHROM.1>
-176.57434935,-61.15153948,-179.36869748,148.94422058,-151.86816440,-103.89225761
-2.04683001,17.24741165,35.17452054,2.06214671,-0.02432532,2.99534351

>  <Name>
lig.pdb

>  <RI>
0

>  <Rbt.Current_Directory>
/home/itssahil/PROJECTS/Mol_Feturizer/New_Systems/rnas/4k32

>  <Rbt.Executable>
rbdock ($Id: //depot/dev/client3/rdock/2013.1/src/exe/rbdock.cxx#4 $)

>  <Rbt.Library>
libRbt.so (2013.1, Build901 2013/11/27)

>  <Rbt.Parameter_File>
/export/apps/rDock/src/rDock_2013.1_src/data/scripts/dock_solv.prm

>  <Rbt.Receptor>
prm/pocket_docking_5.prm

>  <SCORE>
-14.3055

>  <SCORE.INTER>
-8.88598

>  <SCORE.INTER.CONST>
1

>  <SCORE.INTER.POLAR>
0

>  <SCORE.INTER.ROT>
6

>  <SCORE.INTER.SOLV>
19.4434

>  <SCORE.INTER.VDW>
-20.0051

>  <SCORE.INTER.norm>
-0.261352

>  <SCORE.INTRA>
-5.41952

>  <SCORE.INTRA.DIHEDRAL>
-9.88391

>  <SCORE.INTRA.DIHEDRAL.0>
18.0069

>  <SCORE.INTRA.POLAR>
0

>  <SCORE.INTRA.POLAR.0>
0

>  <SCORE.INTRA.REPUL>
0

>  <SCORE.INTRA.REPUL.0>
0

>  <SCORE.INTRA.SOLV>
-2.58377

>  <SCORE.INTRA.SOLV.lig_0>
-70.7393

>  <SCORE.INTRA.VDW>
0.814326

>  <SCORE.INTRA.VDW.0>
-3.23471

>  <SCORE.INTRA.norm>
-0.159398

>  <SCORE.RESTR>
0

>  <SCORE.RESTR.CAVITY>
0

>  <SCORE.RESTR.norm>
0

>  <SCORE.SYSTEM>
0

>  <SCORE.SYSTEM.CONST>
0

>  <SCORE.SYSTEM.DIHEDRAL>
0

>  <SCORE.SYSTEM.SOLV>
0

>  <SCORE.SYSTEM.norm>
0

>  <SCORE.heavy>
34

>  <SCORE.norm>
-0.42075

>  <RMSD>
9.159

$$$$
lig.pdb
 OpenBabel11021811503D
libRbt.so/2013.1/901 2013/11/27
 34 36  0  0  0  0  0  0  0  0999 V2000
   -5.7845   17.5371   37.9976 C   0  0  2  0  0  0  0  0  0  0  0  0
   -4.6416   17.3071   38.8289 O   0  0  0  0  0  0  0  0  0  0  0  0
   -7.0042   17.9580   38.9230 C   0  0  2  0  0  0  0  0  0  0  0  0
   -6.7178   19.1979   39.6816 N   0  0  0  0  0  0  0  0  0  0  0  0
   -7.3299   16.8028   39.9029 C   0  0  1  0  0  0  0  0  0  0  0  0
   -8.4314   17.1609   40.7407 O   0  0  0  0  0  0  0  0  0  0  0  0
   -7.6381   15.5372   39.0832 C   0  0  2  0  0  0  0  0  0  0  0  0
   -7.9441   14.4642   39.9752 O   0  0  0  0  0  0  0  0  0  0  0  0
   -6.4005   15.1782   38.1745 C   0  0  2  0  0  0  0  0  0  0  0  0
   -6.0745   16.2990   37.2671 O   0  0  0  0  0  0  0  0  0  0  0  0
   -6.6704   13.9174   37.3162 C   0  0  2  0  0  0  0  0  0  0  0  0
   -6.9244   12.7978   38.1668 O   0  0  0  0  0  0  0  0  0  0  0  0
   -5.4798   13.5920   36.4278 C   0  0  0  0  0  0  0  0  0  0  0  0
   -0.4887   17.4096   37.7995 C   0  0  2  0  0  0  0  0  0  0  0  0
    0.8125   17.0335   37.2411 N   0  0  0  0  0  0  0  0  0  0  0  0
   -1.0014   16.1994   38.6281 C   0  0  0  0  0  0  0  0  0  0  0  0
   -2.3705   16.5879   39.2491 C   0  0  2  0  0  0  0  0  0  0  0  0
   -2.8930   15.4696   40.0498 N   0  0  0  0  0  0  0  0  0  0  0  0
   -3.3995   16.9478   38.1440 C   0  0  2  0  0  0  0  0  0  0  0  0
   -2.8425   18.1350   37.2965 C   0  0  2  0  0  0  0  0  0  0  0  0
   -3.7887   18.4591   36.2688 O   0  0  0  0  0  0  0  0  0  0  0  0
   -1.5010   17.7508   36.6263 C   0  0  1  0  0  0  0  0  0  0  0  0
   -1.0491   18.9032   35.8730 O   0  0  0  0  0  0  0  0  0  0  0  0
   -1.5610   19.0222   34.5248 C   0  0  2  0  0  0  0  0  0  0  0  0
   -0.3631   19.5422   33.6461 C   0  0  2  0  0  0  0  0  0  0  0  0
    0.7050   18.6090   33.6867 O   0  0  0  0  0  0  0  0  0  0  0  0
    0.0959   20.9491   34.1869 C   0  0  1  0  0  0  0  0  0  0  0  0
    1.2417   21.4784   33.3861 N   0  0  0  0  0  0  0  0  0  0  0  0
    2.5056   21.1238   34.0669 C   0  0  0  0  0  0  0  0  0  0  0  0
   -1.1152   21.9277   34.1098 C   0  0  2  0  0  0  0  0  0  0  0  0
   -1.5211   22.0467   32.7472 O   0  0  0  0  0  0  0  0  0  0  0  0
   -0.7544   23.3183   34.6262 C   0  0  0  0  0  0  0  0  0  0  0  0
   -2.2966   21.3478   34.9520 C   0  0  0  0  0  0  0  0  0  0  0  0
   -2.6689   19.9975   34.4802 O   0  0  0  0  0  0  0  0  0  0  0  0
  1  3  1  0  0  0  0
  1  2  1  1  0  0  0
  3  5  1  0  0  0  0
  3  4  1  1  0  0  0
  5  6  1  6  0  0  0
  7  8  1  1  0  0  0
  7  5  1  0  0  0  0
  9 10  1  6  0  0  0
  9  7  1  0  0  0  0
 10  1  1  0  0  0  0
 11 13  1  1  0  0  0
 11  9  1  0  0  0  0
 12 11  1  0  0  0  0
 14 15  1  6  0  0  0
 16 14  1  0  0  0  0
 17 18  1  6  0  0  0
 17 16  1  0  0  0  0
 19  2  1  1  0  0  0
 19 20  1  0  0  0  0
 19 17  1  0  0  0  0
 20 21  1  6  0  0  0
 20 22  1  0  0  0  0
 22 23  1  1  0  0  0
 22 14  1  0  0  0  0
 24 23  1  1  0  0  0
 24 25  1  0  0  0  0
 25 27  1  0  0  0  0
 25 26  1  1  0  0  0
 27 28  1  6  0  0  0
 28 29  1  0  0  0  0
 30 31  1  6  0  0  0
 30 32  1  0  0  0  0
 30 27  1  0  0  0  0
 33 30  1  0  0  0  0
 34 33  1  0  0  0  0
 34 24  1  0  0  0  0
M  END
>  <CHROM.1>
-178.13291289,-60.64436441,-173.37450386,157.54920591,-140.74331954,-95.05238848
-3.29361367,17.93623816,36.86763187,2.37672800,-0.31710183,2.71283087

>  <Name>
lig.pdb

>  <RI>
0

>  <Rbt.Current_Directory>
/home/itssahil/PROJECTS/Mol_Feturizer/New_Systems/rnas/4k32

>  <Rbt.Executable>
rbdock ($Id: //depot/dev/client3/rdock/2013.1/src/exe/rbdock.cxx#4 $)

>  <Rbt.Library>
libRbt.so (2013.1, Build901 2013/11/27)

>  <Rbt.Parameter_File>
/export/apps/rDock/src/rDock_2013.1_src/data/scripts/dock_solv.prm

>  <Rbt.Receptor>
prm/pocket_docking_4.prm

>  <SCORE>
-13.2522

>  <SCORE.INTER>
-7.83258

>  <SCORE.INTER.CONST>
1

>  <SCORE.INTER.POLAR>
0

>  <SCORE.INTER.ROT>
6

>  <SCORE.INTER.SOLV>
17.1166

>  <SCORE.INTER.VDW>
-18.5273

>  <SCORE.INTER.norm>
-0.23037

>  <SCORE.INTRA>
-5.41963

>  <SCORE.INTRA.DIHEDRAL>
-9.49416

>  <SCORE.INTRA.DIHEDRAL.0>
18.0069

>  <SCORE.INTRA.POLAR>
0

>  <SCORE.INTRA.POLAR.0>
0

>  <SCORE.INTRA.REPUL>
0

>  <SCORE.INTRA.REPUL.0>
0

>  <SCORE.INTRA.SOLV>
-2.49184

>  <SCORE.INTRA.SOLV.lig_0>
-70.7393

>  <SCORE.INTRA.VDW>
0.57337

>  <SCORE.INTRA.VDW.0>
-3.23471

>  <SCORE.INTRA.norm>
-0.159401

>  <SCORE.RESTR>
0

>  <SCORE.RESTR.CAVITY>
0

>  <SCORE.RESTR.norm>
0

>  <SCORE.SYSTEM>
0

>  <SCORE.SYSTEM.CONST>
0

>  <SCORE.SYSTEM.DIHEDRAL>
0

>  <SCORE.SYSTEM.SOLV>
0

>  <SCORE.SYSTEM.norm>
0

>  <SCORE.heavy>
34

>  <SCORE.norm>
-0.389771

>  <RMSD>
9.162

$$$$
lig.pdb
 OpenBabel11021811503D
libRbt.so/2013.1/901 2013/11/27
 34 36  0  0  0  0  0  0  0  0999 V2000
   -4.0890   15.6568   35.5535 C   0  0  2  0  0  0  0  0  0  0  0  0
   -2.9926   15.4670   36.4547 O   0  0  0  0  0  0  0  0  0  0  0  0
   -5.4431   15.4507   36.3567 C   0  0  2  0  0  0  0  0  0  0  0  0
   -5.5763   16.4197   37.4694 N   0  0  0  0  0  0  0  0  0  0  0  0
   -5.5002   14.0035   36.9072 C   0  0  1  0  0  0  0  0  0  0  0  0
   -6.7170   13.7966   37.6284 O   0  0  0  0  0  0  0  0  0  0  0  0
   -5.3760   13.0247   35.7260 C   0  0  2  0  0  0  0  0  0  0  0  0
   -5.4311   11.6853   36.2196 O   0  0  0  0  0  0  0  0  0  0  0  0
   -4.0236   13.2866   34.9588 C   0  0  2  0  0  0  0  0  0  0  0  0
   -3.9617   14.6796   34.4673 O   0  0  0  0  0  0  0  0  0  0  0  0
   -3.8612   12.3339   33.7485 C   0  0  2  0  0  0  0  0  0  0  0  0
   -2.5752   12.5207   33.1543 O   0  0  0  0  0  0  0  0  0  0  0  0
   -4.9257   12.5974   32.6949 C   0  0  0  0  0  0  0  0  0  0  0  0
    0.9186   17.1996   36.3246 C   0  0  2  0  0  0  0  0  0  0  0  0
    2.3025   17.4741   35.9301 N   0  0  0  0  0  0  0  0  0  0  0  0
    0.8097   15.6726   36.5901 C   0  0  0  0  0  0  0  0  0  0  0  0
   -0.6462   15.3649   37.0337 C   0  0  2  0  0  0  0  0  0  0  0  0
   -0.7946   13.9259   37.3022 N   0  0  0  0  0  0  0  0  0  0  0  0
   -1.6615   15.7861   35.9377 C   0  0  2  0  0  0  0  0  0  0  0  0
   -1.5019   17.3134   35.6555 C   0  0  2  0  0  0  0  0  0  0  0  0
   -2.4325   17.6991   34.6348 O   0  0  0  0  0  0  0  0  0  0  0  0
   -0.0702   17.6352   35.1626 C   0  0  1  0  0  0  0  0  0  0  0  0
   -0.0027   19.0649   34.9359 O   0  0  0  0  0  0  0  0  0  0  0  0
   -0.3062   19.5108   33.5932 C   0  0  2  0  0  0  0  0  0  0  0  0
    0.4610   20.8714   33.3999 C   0  0  2  0  0  0  0  0  0  0  0  0
    1.8569   20.6625   33.5457 O   0  0  0  0  0  0  0  0  0  0  0  0
   -0.0673   21.9122   34.4583 C   0  0  1  0  0  0  0  0  0  0  0  0
    0.6428   23.2200   34.3179 N   0  0  0  0  0  0  0  0  0  0  0  0
    1.6334   23.3462   35.4085 C   0  0  0  0  0  0  0  0  0  0  0  0
   -1.5994   22.1030   34.2421 C   0  0  2  0  0  0  0  0  0  0  0  0
   -1.8163   22.6063   32.9249 O   0  0  0  0  0  0  0  0  0  0  0  0
   -2.1934   23.0951   35.2387 C   0  0  0  0  0  0  0  0  0  0  0  0
   -2.3135   20.7214   34.3914 C   0  0  0  0  0  0  0  0  0  0  0  0
   -1.7581   19.7341   33.4419 O   0  0  0  0  0  0  0  0  0  0  0  0
  1  3  1  0  0  0  0
  1  2  1  1  0  0  0
  3  5  1  0  0  0  0
  3  4  1  1  0  0  0
  5  6  1  6  0  0  0
  7  8  1  1  0  0  0
  7  5  1  0  0  0  0
  9 10  1  6  0  0  0
  9  7  1  0  0  0  0
 10  1  1  0  0  0  0
 11 13  1  6  0  0  0
 11  9  1  0  0  0  0
 12 11  1  0  0  0  0
 14 15  1  6  0  0  0
 16 14  1  0  0  0  0
 17 18  1  6  0  0  0
 17 16  1  0  0  0  0
 19  2  1  1  0  0  0
 19 20  1  0  0  0  0
 19 17  1  0  0  0  0
 20 21  1  6  0  0  0
 20 22  1  0  0  0  0
 22 23  1  1  0  0  0
 22 14  1  0  0  0  0
 24 23  1  1  0  0  0
 24 25  1  0  0  0  0
 25 27  1  0  0  0  0
 25 26  1  1  0  0  0
 27 28  1  6  0  0  0
 28 29  1  0  0  0  0
 30 31  1  6  0  0  0
 30 32  1  0  0  0  0
 30 27  1  0  0  0  0
 33 30  1  0  0  0  0
 34 33  1  0  0  0  0
 34 24  1  0  0  0  0
M  END
>  <CHROM.1>
-172.34015310,-174.84365327,-174.31880787,151.59487640,-153.55877489,-103.87805309
-2.04733583,17.23238919,35.14741140,2.07591719,0.03682658,2.96786325

>  <Name>
lig.pdb

>  <RI>
0

>  <Rbt.Current_Directory>
/home/itssahil/PROJECTS/Mol_Feturizer/New_Systems/rnas/4k32

>  <Rbt.Executable>
rbdock ($Id: //depot/dev/client3/rdock/2013.1/src/exe/rbdock.cxx#4 $)

>  <Rbt.Library>
libRbt.so (2013.1, Build901 2013/11/27)

>  <Rbt.Parameter_File>
/export/apps/rDock/src/rDock_2013.1_src/data/scripts/dock_solv.prm

>  <Rbt.Receptor>
prm/pocket_docking_5.prm

>  <SCORE>
-14.2596

>  <SCORE.INTER>
-9.13119

>  <SCORE.INTER.CONST>
1

>  <SCORE.INTER.POLAR>
0

>  <SCORE.INTER.ROT>
6

>  <SCORE.INTER.SOLV>
20.1115

>  <SCORE.INTER.VDW>
-20.3913

>  <SCORE.INTER.norm>
-0.268564

>  <SCORE.INTRA>
-5.12838

>  <SCORE.INTRA.DIHEDRAL>
-10.2063

>  <SCORE.INTRA.DIHEDRAL.0>
18.0069

>  <SCORE.INTRA.POLAR>
0

>  <SCORE.INTRA.POLAR.0>
0

>  <SCORE.INTRA.REPUL>
0

>  <SCORE.INTRA.REPUL.0>
0

>  <SCORE.INTRA.SOLV>
-2.79533

>  <SCORE.INTRA.SOLV.lig_0>
-70.7393

>  <SCORE.INTRA.VDW>
1.37243

>  <SCORE.INTRA.VDW.0>
-3.23471

>  <SCORE.INTRA.norm>
-0.150835

>  <SCORE.RESTR>
0

>  <SCORE.RESTR.CAVITY>
0

>  <SCORE.RESTR.norm>
0

>  <SCORE.SYSTEM>
0

>  <SCORE.SYSTEM.CONST>
0

>  <SCORE.SYSTEM.DIHEDRAL>
0

>  <SCORE.SYSTEM.SOLV>
0

>  <SCORE.SYSTEM.norm>
0

>  <SCORE.heavy>
34

>  <SCORE.norm>
-0.419399

>  <RMSD>
9.162

$$$$
lig.pdb
 OpenBabel11021811503D
libRbt.so/2013.1/901 2013/11/27
 34 36  0  0  0  0  0  0  0  0999 V2000
   -5.8560   16.6358   38.0108 C   0  0  2  0  0  0  0  0  0  0  0  0
   -4.6228   16.4094   38.7022 O   0  0  0  0  0  0  0  0  0  0  0  0
   -7.0316   16.6769   39.0773 C   0  0  2  0  0  0  0  0  0  0  0  0
   -6.8408   17.7638   40.0658 N   0  0  0  0  0  0  0  0  0  0  0  0
   -7.1156   15.3110   39.8042 C   0  0  1  0  0  0  0  0  0  0  0  0
   -8.1742   15.3264   40.7647 O   0  0  0  0  0  0  0  0  0  0  0  0
   -7.3302   14.2085   38.7520 C   0  0  2  0  0  0  0  0  0  0  0  0
   -7.4132   12.9431   39.4095 O   0  0  0  0  0  0  0  0  0  0  0  0
   -6.1434   14.2265   37.7139 C   0  0  2  0  0  0  0  0  0  0  0  0
   -6.0481   15.5442   37.0503 O   0  0  0  0  0  0  0  0  0  0  0  0
   -6.3242   13.1421   36.6228 C   0  0  2  0  0  0  0  0  0  0  0  0
   -6.4404   11.8555   37.2333 O   0  0  0  0  0  0  0  0  0  0  0  0
   -5.1412   13.1211   35.6674 C   0  0  0  0  0  0  0  0  0  0  0  0
   -0.6604   17.4653   37.4771 C   0  0  2  0  0  0  0  0  0  0  0  0
    0.6276   17.4476   36.7792 N   0  0  0  0  0  0  0  0  0  0  0  0
   -0.8832   16.0461   38.0687 C   0  0  0  0  0  0  0  0  0  0  0  0
   -2.2341   16.0514   38.8342 C   0  0  2  0  0  0  0  0  0  0  0  0
   -2.4844   14.7242   39.4180 N   0  0  0  0  0  0  0  0  0  0  0  0
   -3.4074   16.4213   37.8876 C   0  0  2  0  0  0  0  0  0  0  0  0
   -3.1391   17.8300   37.2702 C   0  0  2  0  0  0  0  0  0  0  0  0
   -4.2179   18.1657   36.3871 O   0  0  0  0  0  0  0  0  0  0  0  0
   -1.8206   17.8332   36.4591 C   0  0  1  0  0  0  0  0  0  0  0  0
   -1.6407   19.1713   35.9327 O   0  0  0  0  0  0  0  0  0  0  0  0
   -2.1241   19.3956   34.5874 C   0  0  2  0  0  0  0  0  0  0  0  0
   -0.8517   19.4055   33.6610 C   0  0  2  0  0  0  0  0  0  0  0  0
   -0.1861   18.1551   33.7430 O   0  0  0  0  0  0  0  0  0  0  0  0
    0.0981   20.5806   34.1079 C   0  0  1  0  0  0  0  0  0  0  0  0
    1.3280   20.6219   33.2594 N   0  0  0  0  0  0  0  0  0  0  0  0
    2.5163   20.6339   34.1395 C   0  0  0  0  0  0  0  0  0  0  0  0
   -0.6861   21.9228   33.9888 C   0  0  2  0  0  0  0  0  0  0  0  0
   -1.0711   22.1084   32.6275 O   0  0  0  0  0  0  0  0  0  0  0  0
    0.1653   23.1166   34.4137 C   0  0  0  0  0  0  0  0  0  0  0  0
   -1.9658   21.8492   34.8821 C   0  0  0  0  0  0  0  0  0  0  0  0
   -2.8120   20.6994   34.4994 O   0  0  0  0  0  0  0  0  0  0  0  0
  1  3  1  0  0  0  0
  1  2  1  1  0  0  0
  3  5  1  0  0  0  0
  3  4  1  1  0  0  0
  5  6  1  1  0  0  0
  7  8  1  1  0  0  0
  7  5  1  0  0  0  0
  9 10  1  6  0  0  0
  9  7  1  0  0  0  0
 10  1  1  0  0  0  0
 11 13  1  6  0  0  0
 11  9  1  0  0  0  0
 12 11  1  0  0  0  0
 14 15  1  6  0  0  0
 16 14  1  0  0  0  0
 17 18  1  6  0  0  0
 17 16  1  0  0  0  0
 19  2  1  1  0  0  0
 19 20  1  0  0  0  0
 19 17  1  0  0  0  0
 20 21  1  6  0  0  0
 20 22  1  0  0  0  0
 22 23  1  1  0  0  0
 22 14  1  0  0  0  0
 24 23  1  1  0  0  0
 24 25  1  0  0  0  0
 25 27  1  0  0  0  0
 25 26  1  1  0  0  0
 27 28  1  6  0  0  0
 28 29  1  0  0  0  0
 30 31  1  6  0  0  0
 30 32  1  0  0  0  0
 30 27  1  0  0  0  0
 33 30  1  0  0  0  0
 34 33  1  0  0  0  0
 34 24  1  0  0  0  0
M  END
>  <CHROM.1>
-176.39556400,-56.92138243,-175.85890066,149.08643177,-103.25049387,-127.97465139
-3.25295051,17.42869155,36.66822797,2.33298194,-0.40051023,2.87739978

>  <Name>
lig.pdb

>  <RI>
0

>  <Rbt.Current_Directory>
/home/itssahil/PROJECTS/Mol_Feturizer/New_Systems/rnas/4k32

>  <Rbt.Executable>
rbdock ($Id: //depot/dev/client3/rdock/2013.1/src/exe/rbdock.cxx#4 $)

>  <Rbt.Library>
libRbt.so (2013.1, Build901 2013/11/27)

>  <Rbt.Parameter_File>
/export/apps/rDock/src/rDock_2013.1_src/data/scripts/dock_solv.prm

>  <Rbt.Receptor>
prm/pocket_docking_4.prm

>  <SCORE>
-11.4909

>  <SCORE.INTER>
-7.47566

>  <SCORE.INTER.CONST>
1

>  <SCORE.INTER.POLAR>
0

>  <SCORE.INTER.ROT>
6

>  <SCORE.INTER.SOLV>
15.0737

>  <SCORE.INTER.VDW>
-17.6083

>  <SCORE.INTER.norm>
-0.219872

>  <SCORE.INTRA>
-4.01831

>  <SCORE.INTRA.DIHEDRAL>
-6.98686

>  <SCORE.INTRA.DIHEDRAL.0>
18.0069

>  <SCORE.INTRA.POLAR>
0

>  <SCORE.INTRA.POLAR.0>
0

>  <SCORE.INTRA.REPUL>
0

>  <SCORE.INTRA.REPUL.0>
0

>  <SCORE.INTRA.SOLV>
-1.46173

>  <SCORE.INTRA.SOLV.lig_0>
-70.7393

>  <SCORE.INTRA.VDW>
0.20599

>  <SCORE.INTRA.VDW.0>
-3.23471

>  <SCORE.INTRA.norm>
-0.118186

>  <SCORE.RESTR>
0.00308844

>  <SCORE.RESTR.CAVITY>
0.00308844

>  <SCORE.RESTR.norm>
9.08363e-05

>  <SCORE.SYSTEM>
0

>  <SCORE.SYSTEM.CONST>
0

>  <SCORE.SYSTEM.DIHEDRAL>
0

>  <SCORE.SYSTEM.SOLV>
0

>  <SCORE.SYSTEM.norm>
0

>  <SCORE.heavy>
34

>  <SCORE.norm>
-0.337967

>  <RMSD>
9.165

$$$$
lig.pdb
 OpenBabel11021811503D
libRbt.so/2013.1/901 2013/11/27
 34 36  0  0  0  0  0  0  0  0999 V2000
    1.3381   13.7872   36.0028 C   0  0  2  0  0  0  0  0  0  0  0  0
    0.1349   14.1880   35.3382 O   0  0  0  0  0  0  0  0  0  0  0  0
    1.7764   12.3687   35.4397 C   0  0  2  0  0  0  0  0  0  0  0  0
    2.0367   12.4114   33.9819 N   0  0  0  0  0  0  0  0  0  0  0  0
    0.6706   11.3280   35.7482 C   0  0  1  0  0  0  0  0  0  0  0  0
    1.0508   10.0416   35.2543 O   0  0  0  0  0  0  0  0  0  0  0  0
    0.4373   11.2973   37.2692 C   0  0  2  0  0  0  0  0  0  0  0  0
   -0.5782   10.3382   37.5682 O   0  0  0  0  0  0  0  0  0  0  0  0
    0.0214   12.7327   37.7720 C   0  0  2  0  0  0  0  0  0  0  0  0
    1.0659   13.7260   37.4426 O   0  0  0  0  0  0  0  0  0  0  0  0
   -0.2087   12.7556   39.3036 C   0  0  2  0  0  0  0  0  0  0  0  0
   -0.7256   14.0283   39.6967 O   0  0  0  0  0  0  0  0  0  0  0  0
    1.0876   12.5040   40.0580 C   0  0  0  0  0  0  0  0  0  0  0  0
   -1.8869   17.9593   35.2549 C   0  0  2  0  0  0  0  0  0  0  0  0
   -2.6516   19.1337   35.6815 N   0  0  0  0  0  0  0  0  0  0  0  0
   -2.7093   16.7036   35.6559 C   0  0  0  0  0  0  0  0  0  0  0  0
   -1.9254   15.4469   35.1897 C   0  0  2  0  0  0  0  0  0  0  0  0
   -2.6723   14.2300   35.5449 N   0  0  0  0  0  0  0  0  0  0  0  0
   -0.5205   15.3929   35.8478 C   0  0  2  0  0  0  0  0  0  0  0  0
    0.2696   16.6850   35.4686 C   0  0  2  0  0  0  0  0  0  0  0  0
    1.5630   16.6394   36.0864 O   0  0  0  0  0  0  0  0  0  0  0  0
   -0.4702   17.9492   35.9694 C   0  0  1  0  0  0  0  0  0  0  0  0
    0.3180   19.0976   35.5697 O   0  0  0  0  0  0  0  0  0  0  0  0
    0.8707   19.0554   34.2331 C   0  0  2  0  0  0  0  0  0  0  0  0
    1.7340   20.3619   34.0749 C   0  0  2  0  0  0  0  0  0  0  0  0
    2.7755   20.3709   35.0385 O   0  0  0  0  0  0  0  0  0  0  0  0
    0.7979   21.6180   34.2443 C   0  0  1  0  0  0  0  0  0  0  0  0
    1.5795   22.8852   34.1114 N   0  0  0  0  0  0  0  0  0  0  0  0
    1.8199   23.4427   35.4598 C   0  0  0  0  0  0  0  0  0  0  0  0
   -0.3171   21.5540   33.1565 C   0  0  2  0  0  0  0  0  0  0  0  0
    0.2975   21.5839   31.8693 O   0  0  0  0  0  0  0  0  0  0  0  0
   -1.2765   22.7371   33.2577 C   0  0  0  0  0  0  0  0  0  0  0  0
   -1.1139   20.2198   33.3178 C   0  0  0  0  0  0  0  0  0  0  0  0
   -0.2123   19.0519   33.2292 O   0  0  0  0  0  0  0  0  0  0  0  0
  1  3  1  0  0  0  0
  1  2  1  6  0  0  0
  3  5  1  0  0  0  0
  3  4  1  6  0  0  0
  5  6  1  1  0  0  0
  7  8  1  6  0  0  0
  7  5  1  0  0  0  0
  9 10  1  1  0  0  0
  9  7  1  0  0  0  0
 10  1  1  0  0  0  0
 11 13  1  1  0  0  0
 11  9  1  0  0  0  0
 12 11  1  0  0  0  0
 14 15  1  1  0  0  0
 16 14  1  0  0  0  0
 17 18  1  1  0  0  0
 17 16  1  0  0  0  0
 19  2  1  6  0  0  0
 19 20  1  0  0  0  0
 19 17  1  0  0  0  0
 20 21  1  1  0  0  0
 20 22  1  0  0  0  0
 22 23  1  6  0  0  0
 22 14  1  0  0  0  0
 24 23  1  1  0  0  0
 24 25  1  0  0  0  0
 25 27  1  0  0  0  0
 25 26  1  1  0  0  0
 27 28  1  6  0  0  0
 28 29  1  0  0  0  0
 30 31  1  6  0  0  0
 30 32  1  0  0  0  0
 30 27  1  0  0  0  0
 33 30  1  0  0  0  0
 34 33  1  0  0  0  0
 34 24  1  0  0  0  0
M  END
>  <CHROM.1>
172.29450053,-173.58840935,-168.12238162,-73.99368824,-177.05716776,-102.20087726
0.14894747,16.57549045,35.57511648,-1.57306439,0.45366930,-0.32586406

>  <Name>
lig.pdb

>  <RI>
0

>  <Rbt.Current_Directory>
/home/itssahil/PROJECTS/Mol_Feturizer/New_Systems/rnas/4k32

>  <Rbt.Executable>
rbdock ($Id: //depot/dev/client3/rdock/2013.1/src/exe/rbdock.cxx#4 $)

>  <Rbt.Library>
libRbt.so (2013.1, Build901 2013/11/27)

>  <Rbt.Parameter_File>
/export/apps/rDock/src/rDock_2013.1_src/data/scripts/dock_solv.prm

>  <Rbt.Receptor>
prm/pocket_docking_6.prm

>  <SCORE>
-13.8687

>  <SCORE.INTER>
-8.61551

>  <SCORE.INTER.CONST>
1

>  <SCORE.INTER.POLAR>
0

>  <SCORE.INTER.ROT>
6

>  <SCORE.INTER.SOLV>
18.1974

>  <SCORE.INTER.VDW>
-19.4095

>  <SCORE.INTER.norm>
-0.253397

>  <SCORE.INTRA>
-5.2532

>  <SCORE.INTRA.DIHEDRAL>
-14.9029

>  <SCORE.INTRA.DIHEDRAL.0>
18.0069

>  <SCORE.INTRA.POLAR>
0

>  <SCORE.INTRA.POLAR.0>
0

>  <SCORE.INTRA.REPUL>
0

>  <SCORE.INTRA.REPUL.0>
0

>  <SCORE.INTRA.SOLV>
-0.610683

>  <SCORE.INTRA.SOLV.lig_0>
-70.7393

>  <SCORE.INTRA.VDW>
2.50358

>  <SCORE.INTRA.VDW.0>
-3.23471

>  <SCORE.INTRA.norm>
-0.154506

>  <SCORE.RESTR>
0

>  <SCORE.RESTR.CAVITY>
0

>  <SCORE.RESTR.norm>
0

>  <SCORE.SYSTEM>
0

>  <SCORE.SYSTEM.CONST>
0

>  <SCORE.SYSTEM.DIHEDRAL>
0

>  <SCORE.SYSTEM.SOLV>
0

>  <SCORE.SYSTEM.norm>
0

>  <SCORE.heavy>
34

>  <SCORE.norm>
-0.407903

>  <RMSD>
9.165

$$$$
lig.pdb
 OpenBabel11021811503D
libRbt.so/2013.1/901 2013/11/27
 34 36  0  0  0  0  0  0  0  0999 V2000
   -5.3380   17.6763   37.5603 C   0  0  2  0  0  0  0  0  0  0  0  0
   -4.1668   17.4816   38.3607 O   0  0  0  0  0  0  0  0  0  0  0  0
   -6.5635   17.9753   38.5247 C   0  0  2  0  0  0  0  0  0  0  0  0
   -6.3410   19.1946   39.3363 N   0  0  0  0  0  0  0  0  0  0  0  0
   -6.7964   16.7577   39.4542 C   0  0  1  0  0  0  0  0  0  0  0  0
   -7.9017   17.0057   40.3262 O   0  0  0  0  0  0  0  0  0  0  0  0
   -7.0403   15.5141   38.5808 C   0  0  2  0  0  0  0  0  0  0  0  0
   -7.2605   14.3838   39.4259 O   0  0  0  0  0  0  0  0  0  0  0  0
   -5.8006   15.2772   37.6357 C   0  0  2  0  0  0  0  0  0  0  0  0
   -5.5637   16.4572   36.7770 O   0  0  0  0  0  0  0  0  0  0  0  0
   -6.0072   14.0427   36.7233 C   0  0  2  0  0  0  0  0  0  0  0  0
   -6.2095   12.8769   37.5243 O   0  0  0  0  0  0  0  0  0  0  0  0
   -4.7998   13.8129   35.8277 C   0  0  0  0  0  0  0  0  0  0  0  0
   -0.0108   17.4012   37.3421 C   0  0  2  0  0  0  0  0  0  0  0  0
    1.2664   16.9893   36.7545 N   0  0  0  0  0  0  0  0  0  0  0  0
   -0.6040   16.1629   38.0691 C   0  0  0  0  0  0  0  0  0  0  0  0
   -1.9485   16.5864   38.7201 C   0  0  2  0  0  0  0  0  0  0  0  0
   -2.5454   15.4422   39.4269 N   0  0  0  0  0  0  0  0  0  0  0  0
   -2.9469   17.1006   37.6484 C   0  0  2  0  0  0  0  0  0  0  0  0
   -2.3109   18.3147   36.9007 C   0  0  2  0  0  0  0  0  0  0  0  0
   -3.2293   18.7816   35.9032 O   0  0  0  0  0  0  0  0  0  0  0  0
   -0.9934   17.9013   36.2010 C   0  0  1  0  0  0  0  0  0  0  0  0
   -0.4649   19.0799   35.5443 O   0  0  0  0  0  0  0  0  0  0  0  0
    0.4916   18.8426   34.4848 C   0  0  2  0  0  0  0  0  0  0  0  0
    1.3634   20.1489   34.3814 C   0  0  2  0  0  0  0  0  0  0  0  0
    2.0358   20.3782   35.6097 O   0  0  0  0  0  0  0  0  0  0  0  0
    0.4268   21.3621   34.0159 C   0  0  1  0  0  0  0  0  0  0  0  0
    1.2130   22.6295   33.9168 N   0  0  0  0  0  0  0  0  0  0  0  0
    1.1493   23.3349   35.2149 C   0  0  0  0  0  0  0  0  0  0  0  0
   -0.2748   21.0537   32.6582 C   0  0  2  0  0  0  0  0  0  0  0  0
    0.7245   20.8989   31.6518 O   0  0  0  0  0  0  0  0  0  0  0  0
   -1.2115   22.1823   32.2349 C   0  0  0  0  0  0  0  0  0  0  0  0
   -1.0848   19.7243   32.7909 C   0  0  0  0  0  0  0  0  0  0  0  0
   -0.2068   18.6096   33.2047 O   0  0  0  0  0  0  0  0  0  0  0  0
  1  3  1  0  0  0  0
  1  2  1  1  0  0  0
  3  5  1  0  0  0  0
  3  4  1  1  0  0  0
  5  6  1  1  0  0  0
  7  8  1  1  0  0  0
  7  5  1  0  0  0  0
  9 10  1  6  0  0  0
  9  7  1  0  0  0  0
 10  1  1  0  0  0  0
 11 13  1  1  0  0  0
 11  9  1  0  0  0  0
 12 11  1  0  0  0  0
 14 15  1  6  0  0  0
 16 14  1  0  0  0  0
 17 18  1  6  0  0  0
 17 16  1  0  0  0  0
 19  2  1  1  0  0  0
 19 20  1  0  0  0  0
 19 17  1  0  0  0  0
 20 21  1  6  0  0  0
 20 22  1  0  0  0  0
 22 23  1  1  0  0  0
 22 14  1  0  0  0  0
 24 23  1  1  0  0  0
 24 25  1  0  0  0  0
 25 27  1  0  0  0  0
 25 26  1  1  0  0  0
 27 28  1  6  0  0  0
 28 29  1  0  0  0  0
 30 31  1  6  0  0  0
 30 32  1  0  0  0  0
 30 27  1  0  0  0  0
 33 30  1  0  0  0  0
 34 33  1  0  0  0  0
 34 24  1  0  0  0  0
M  END
>  <CHROM.1>
175.86304230,-59.08666560,-165.21964454,83.76565574,-155.42579712,-94.81555321
-2.63042306,17.97861849,36.41937303,2.39016990,-0.30835511,2.72773952

>  <Name>
lig.pdb

>  <RI>
0

>  <Rbt.Current_Directory>
/home/itssahil/PROJECTS/Mol_Feturizer/New_Systems/rnas/4k32

>  <Rbt.Executable>
rbdock ($Id: //depot/dev/client3/rdock/2013.1/src/exe/rbdock.cxx#4 $)

>  <Rbt.Library>
libRbt.so (2013.1, Build901 2013/11/27)

>  <Rbt.Parameter_File>
/export/apps/rDock/src/rDock_2013.1_src/data/scripts/dock_solv.prm

>  <Rbt.Receptor>
prm/pocket_docking_5.prm

>  <SCORE>
-15.3755

>  <SCORE.INTER>
-9.32886

>  <SCORE.INTER.CONST>
1

>  <SCORE.INTER.POLAR>
0

>  <SCORE.INTER.ROT>
6

>  <SCORE.INTER.SOLV>
17.8775

>  <SCORE.INTER.VDW>
-19.7784

>  <SCORE.INTER.norm>
-0.274378

>  <SCORE.INTRA>
-6.04664

>  <SCORE.INTRA.DIHEDRAL>
-11.0742

>  <SCORE.INTRA.DIHEDRAL.0>
18.0069

>  <SCORE.INTRA.POLAR>
0

>  <SCORE.INTRA.POLAR.0>
0

>  <SCORE.INTRA.REPUL>
0

>  <SCORE.INTRA.REPUL.0>
0

>  <SCORE.INTRA.SOLV>
-1.02196

>  <SCORE.INTRA.SOLV.lig_0>
-70.7393

>  <SCORE.INTRA.VDW>
0.00145958

>  <SCORE.INTRA.VDW.0>
-3.23471

>  <SCORE.INTRA.norm>
-0.177842

>  <SCORE.RESTR>
0

>  <SCORE.RESTR.CAVITY>
0

>  <SCORE.RESTR.norm>
0

>  <SCORE.SYSTEM>
0

>  <SCORE.SYSTEM.CONST>
0

>  <SCORE.SYSTEM.DIHEDRAL>
0

>  <SCORE.SYSTEM.SOLV>
0

>  <SCORE.SYSTEM.norm>
0

>  <SCORE.heavy>
34

>  <SCORE.norm>
-0.452221

>  <RMSD>
9.178

$$$$
lig.pdb
 OpenBabel11021811503D
libRbt.so/2013.1/901 2013/11/27
 34 36  0  0  0  0  0  0  0  0999 V2000
   -5.1527   15.9117   37.5623 C   0  0  2  0  0  0  0  0  0  0  0  0
   -3.8101   15.7447   38.0313 O   0  0  0  0  0  0  0  0  0  0  0  0
   -6.1487   15.5143   38.7333 C   0  0  2  0  0  0  0  0  0  0  0  0
   -5.9596   16.3668   39.9302 N   0  0  0  0  0  0  0  0  0  0  0  0
   -5.9368   14.0256   39.1068 C   0  0  1  0  0  0  0  0  0  0  0  0
   -6.8308   13.6470   40.1561 O   0  0  0  0  0  0  0  0  0  0  0  0
   -6.1566   13.1684   37.8476 C   0  0  2  0  0  0  0  0  0  0  0  0
   -5.9678   11.7919   38.1789 O   0  0  0  0  0  0  0  0  0  0  0  0
   -5.1533   13.6179   36.7171 C   0  0  2  0  0  0  0  0  0  0  0  0
   -5.3381   15.0482   36.3914 O   0  0  0  0  0  0  0  0  0  0  0  0
   -5.3483   12.7927   35.4210 C   0  0  2  0  0  0  0  0  0  0  0  0
   -6.7409   12.6884   35.1182 O   0  0  0  0  0  0  0  0  0  0  0  0
   -4.7778   11.3910   35.5707 C   0  0  0  0  0  0  0  0  0  0  0  0
   -0.3333   17.8832   36.7447 C   0  0  2  0  0  0  0  0  0  0  0  0
    0.8234   18.3013   35.9488 N   0  0  0  0  0  0  0  0  0  0  0  0
   -0.1966   16.3548   36.9883 C   0  0  0  0  0  0  0  0  0  0  0  0
   -1.4026   15.8962   37.8521 C   0  0  2  0  0  0  0  0  0  0  0  0
   -1.3112   14.4511   38.1133 N   0  0  0  0  0  0  0  0  0  0  0  0
   -2.7460   16.2009   37.1366 C   0  0  2  0  0  0  0  0  0  0  0  0
   -2.8401   17.7349   36.8615 C   0  0  2  0  0  0  0  0  0  0  0  0
   -4.0764   18.0136   36.1902 O   0  0  0  0  0  0  0  0  0  0  0  0
   -1.6737   18.2045   35.9586 C   0  0  1  0  0  0  0  0  0  0  0  0
   -1.8275   19.6319   35.7620 O   0  0  0  0  0  0  0  0  0  0  0  0
   -2.3074   20.0466   34.4614 C   0  0  2  0  0  0  0  0  0  0  0  0
   -1.0756   19.9435   33.4870 C   0  0  2  0  0  0  0  0  0  0  0  0
   -0.6118   18.6034   33.4366 O   0  0  0  0  0  0  0  0  0  0  0  0
    0.0585   20.9144   33.9907 C   0  0  1  0  0  0  0  0  0  0  0  0
    1.2555   20.8417   33.0983 N   0  0  0  0  0  0  0  0  0  0  0  0
    2.4653   20.6787   33.9327 C   0  0  0  0  0  0  0  0  0  0  0  0
   -0.5090   22.3663   34.0167 C   0  0  2  0  0  0  0  0  0  0  0  0
   -0.8982   22.7290   32.6929 O   0  0  0  0  0  0  0  0  0  0  0  0
    0.5303   23.3726   34.5041 C   0  0  0  0  0  0  0  0  0  0  0  0
   -1.7589   22.4107   34.9532 C   0  0  0  0  0  0  0  0  0  0  0  0
   -2.7850   21.4431   34.5112 O   0  0  0  0  0  0  0  0  0  0  0  0
  1  3  1  0  0  0  0
  1  2  1  1  0  0  0
  3  5  1  0  0  0  0
  3  4  1  1  0  0  0
  5  6  1  1  0  0  0
  7  8  1  1  0  0  0
  7  5  1  0  0  0  0
  9 10  1  6  0  0  0
  9  7  1  0  0  0  0
 10  1  1  0  0  0  0
 11 13  1  1  0  0  0
 11  9  1  0  0  0  0
 12 11  1  0  0  0  0
 14 15  1  6  0  0  0
 16 14  1  0  0  0  0
 17 18  1  6  0  0  0
 17 16  1  0  0  0  0
 19  2  1  1  0  0  0
 19 20  1  0  0  0  0
 19 17  1  0  0  0  0
 20 21  1  6  0  0  0
 20 22  1  0  0  0  0
 22 23  1  1  0  0  0
 22 14  1  0  0  0  0
 24 23  1  1  0  0  0
 24 25  1  0  0  0  0
 25 27  1  0  0  0  0
 25 26  1  1  0  0  0
 27 28  1  6  0  0  0
 28 29  1  0  0  0  0
 30 31  1  6  0  0  0
 30 32  1  0  0  0  0
 30 27  1  0  0  0  0
 33 30  1  0  0  0  0
 34 33  1  0  0  0  0
 34 24  1  0  0  0  0
M  END
>  <CHROM.1>
-173.61818316,45.45534080,-179.19050930,138.32058021,-77.56112387,-131.52260924
-2.80669950,17.27926315,36.14215042,2.19626952,-0.39411435,2.97252653

>  <Name>
lig.pdb

>  <RI>
0

>  <Rbt.Current_Directory>
/home/itssahil/PROJECTS/Mol_Feturizer/New_Systems/rnas/4k32

>  <Rbt.Executable>
rbdock ($Id: //depot/dev/client3/rdock/2013.1/src/exe/rbdock.cxx#4 $)

>  <Rbt.Library>
libRbt.so (2013.1, Build901 2013/11/27)

>  <Rbt.Parameter_File>
/export/apps/rDock/src/rDock_2013.1_src/data/scripts/dock_solv.prm

>  <Rbt.Receptor>
prm/pocket_docking_3.prm

>  <SCORE>
-9.24301

>  <SCORE.INTER>
-6.48241

>  <SCORE.INTER.CONST>
1

>  <SCORE.INTER.POLAR>
0

>  <SCORE.INTER.ROT>
6

>  <SCORE.INTER.SOLV>
14.3964

>  <SCORE.INTER.VDW>
-16.7204

>  <SCORE.INTER.norm>
-0.190659

>  <SCORE.INTRA>
-3.07993

>  <SCORE.INTRA.DIHEDRAL>
-8.91126

>  <SCORE.INTRA.DIHEDRAL.0>
18.0069

>  <SCORE.INTRA.POLAR>
0

>  <SCORE.INTRA.POLAR.0>
0

>  <SCORE.INTRA.REPUL>
0

>  <SCORE.INTRA.REPUL.0>
0

>  <SCORE.INTRA.SOLV>
0.743314

>  <SCORE.INTRA.SOLV.lig_0>
-70.7393

>  <SCORE.INTRA.VDW>
1.00404

>  <SCORE.INTRA.VDW.0>
-3.23471

>  <SCORE.INTRA.norm>
-0.0905862

>  <SCORE.RESTR>
0.319328

>  <SCORE.RESTR.CAVITY>
0.319328

>  <SCORE.RESTR.norm>
0.00939199

>  <SCORE.SYSTEM>
0

>  <SCORE.SYSTEM.CONST>
0

>  <SCORE.SYSTEM.DIHEDRAL>
0

>  <SCORE.SYSTEM.SOLV>
0

>  <SCORE.SYSTEM.norm>
0

>  <SCORE.heavy>
34

>  <SCORE.norm>
-0.271853

>  <RMSD>
9.181

$$$$
lig.pdb
 OpenBabel11021811503D
libRbt.so/2013.1/901 2013/11/27
 34 36  0  0  0  0  0  0  0  0999 V2000
   -3.3493   13.1511   37.6453 C   0  0  2  0  0  0  0  0  0  0  0  0
   -3.4333   14.5805   37.6509 O   0  0  0  0  0  0  0  0  0  0  0  0
   -4.0289   12.6115   36.3156 C   0  0  2  0  0  0  0  0  0  0  0  0
   -3.3519   13.1268   35.1027 N   0  0  0  0  0  0  0  0  0  0  0  0
   -5.5238   13.0192   36.2991 C   0  0  1  0  0  0  0  0  0  0  0  0
   -6.1550   12.5356   35.1112 O   0  0  0  0  0  0  0  0  0  0  0  0
   -6.1993   12.4550   37.5617 C   0  0  2  0  0  0  0  0  0  0  0  0
   -7.5802   12.8206   37.5573 O   0  0  0  0  0  0  0  0  0  0  0  0
   -5.4738   13.0114   38.8463 C   0  0  2  0  0  0  0  0  0  0  0  0
   -4.0407   12.6483   38.8369 O   0  0  0  0  0  0  0  0  0  0  0  0
   -6.1097   12.4568   40.1452 C   0  0  2  0  0  0  0  0  0  0  0  0
   -6.3787   11.0615   39.9952 O   0  0  0  0  0  0  0  0  0  0  0  0
   -7.4134   13.1707   40.4672 C   0  0  0  0  0  0  0  0  0  0  0  0
   -0.3569   17.5536   37.5365 C   0  0  2  0  0  0  0  0  0  0  0  0
    0.8748   18.2632   37.1825 N   0  0  0  0  0  0  0  0  0  0  0  0
    0.0446   16.1090   37.9438 C   0  0  0  0  0  0  0  0  0  0  0  0
   -1.2469   15.3469   38.3464 C   0  0  2  0  0  0  0  0  0  0  0  0
   -0.9128   13.9709   38.7463 N   0  0  0  0  0  0  0  0  0  0  0  0
   -2.2568   15.3042   37.1683 C   0  0  2  0  0  0  0  0  0  0  0  0
   -2.6097   16.7655   36.7468 C   0  0  2  0  0  0  0  0  0  0  0  0
   -3.5338   16.7249   35.6509 O   0  0  0  0  0  0  0  0  0  0  0  0
   -1.3417   17.5286   36.2927 C   0  0  1  0  0  0  0  0  0  0  0  0
   -1.7517   18.8708   35.9315 O   0  0  0  0  0  0  0  0  0  0  0  0
   -2.1668   19.0610   34.5584 C   0  0  2  0  0  0  0  0  0  0  0  0
   -0.8441   19.1895   33.7150 C   0  0  2  0  0  0  0  0  0  0  0  0
   -0.0771   18.0021   33.8376 O   0  0  0  0  0  0  0  0  0  0  0  0
   -0.0322   20.4406   34.2231 C   0  0  1  0  0  0  0  0  0  0  0  0
    1.2406   20.5961   33.4549 N   0  0  0  0  0  0  0  0  0  0  0  0
    2.3796   20.5158   34.3945 C   0  0  0  0  0  0  0  0  0  0  0  0
   -0.9228   21.7092   34.0561 C   0  0  2  0  0  0  0  0  0  0  0  0
   -1.2356   21.8696   32.6733 O   0  0  0  0  0  0  0  0  0  0  0  0
   -0.2090   22.9704   34.5360 C   0  0  0  0  0  0  0  0  0  0  0  0
   -2.2450   21.5169   34.8659 C   0  0  0  0  0  0  0  0  0  0  0  0
   -2.9603   20.2996   34.4285 O   0  0  0  0  0  0  0  0  0  0  0  0
  1  3  1  0  0  0  0
  1  2  1  6  0  0  0
  3  5  1  0  0  0  0
  3  4  1  6  0  0  0
  5  6  1  6  0  0  0
  7  8  1  1  0  0  0
  7  5  1  0  0  0  0
  9 10  1  6  0  0  0
  9  7  1  0  0  0  0
 10  1  1  0  0  0  0
 11 13  1  6  0  0  0
 11  9  1  0  0  0  0
 12 11  1  0  0  0  0
 14 15  1  6  0  0  0
 16 14  1  0  0  0  0
 17 18  1  6  0  0  0
 17 16  1  0  0  0  0
 19  2  1  1  0  0  0
 19 20  1  0  0  0  0
 19 17  1  0  0  0  0
 20 21  1  6  0  0  0
 20 22  1  0  0  0  0
 22 23  1  1  0  0  0
 22 14  1  0  0  0  0
 24 23  1  1  0  0  0
 24 25  1  0  0  0  0
 25 27  1  0  0  0  0
 25 26  1  1  0  0  0
 27 28  1  6  0  0  0
 28 29  1  0  0  0  0
 30 31  1  6  0  0  0
 30 32  1  0  0  0  0
 30 27  1  0  0  0  0
 33 30  1  0  0  0  0
 34 33  1  0  0  0  0
 34 24  1  0  0  0  0
M  END
>  <CHROM.1>
-96.40576778,42.84400328,-80.92685824,155.42153045,-79.93718453,-120.10832812
-2.66003518,16.44716731,36.39513641,-2.13779186,-0.33843689,-0.66997055

>  <Name>
lig.pdb

>  <RI>
0

>  <Rbt.Current_Directory>
/home/itssahil/PROJECTS/Mol_Feturizer/New_Systems/rnas/4k32

>  <Rbt.Executable>
rbdock ($Id: //depot/dev/client3/rdock/2013.1/src/exe/rbdock.cxx#4 $)

>  <Rbt.Library>
libRbt.so (2013.1, Build901 2013/11/27)

>  <Rbt.Parameter_File>
/export/apps/rDock/src/rDock_2013.1_src/data/scripts/dock_solv.prm

>  <Rbt.Receptor>
prm/pocket_docking_6.prm

>  <SCORE>
-7.0928

>  <SCORE.INTER>
-6.23351

>  <SCORE.INTER.CONST>
1

>  <SCORE.INTER.POLAR>
0

>  <SCORE.INTER.ROT>
6

>  <SCORE.INTER.SOLV>
16.9746

>  <SCORE.INTER.VDW>
-17.4139

>  <SCORE.INTER.norm>
-0.183338

>  <SCORE.INTRA>
-0.85929

>  <SCORE.INTRA.DIHEDRAL>
-4.66576

>  <SCORE.INTRA.DIHEDRAL.0>
18.0069

>  <SCORE.INTRA.POLAR>
0

>  <SCORE.INTRA.POLAR.0>
0

>  <SCORE.INTRA.REPUL>
0

>  <SCORE.INTRA.REPUL.0>
0

>  <SCORE.INTRA.SOLV>
1.82869

>  <SCORE.INTRA.SOLV.lig_0>
-70.7393

>  <SCORE.INTRA.VDW>
0.559245

>  <SCORE.INTRA.VDW.0>
-3.23471

>  <SCORE.INTRA.norm>
-0.0252732

>  <SCORE.RESTR>
0

>  <SCORE.RESTR.CAVITY>
0

>  <SCORE.RESTR.norm>
0

>  <SCORE.SYSTEM>
0

>  <SCORE.SYSTEM.CONST>
0

>  <SCORE.SYSTEM.DIHEDRAL>
0

>  <SCORE.SYSTEM.SOLV>
0

>  <SCORE.SYSTEM.norm>
0

>  <SCORE.heavy>
34

>  <SCORE.norm>
-0.208612

>  <RMSD>
9.181

$$$$
lig.pdb
 OpenBabel11021811503D
libRbt.so/2013.1/901 2013/11/27
 34 36  0  0  0  0  0  0  0  0999 V2000
    1.6421   13.9206   36.2376 C   0  0  2  0  0  0  0  0  0  0  0  0
    0.3645   14.1053   35.6181 O   0  0  0  0  0  0  0  0  0  0  0  0
    2.1958   12.4883   35.8336 C   0  0  2  0  0  0  0  0  0  0  0  0
    2.3608   12.3551   34.3673 N   0  0  0  0  0  0  0  0  0  0  0  0
    1.2296   11.3961   36.3574 C   0  0  1  0  0  0  0  0  0  0  0  0
    1.7156   10.0977   36.0089 O   0  0  0  0  0  0  0  0  0  0  0  0
    1.0939   11.5525   37.8825 C   0  0  2  0  0  0  0  0  0  0  0  0
    0.2079   10.5483   38.3795 O   0  0  0  0  0  0  0  0  0  0  0  0
    0.5570   12.9954   38.2230 C   0  0  2  0  0  0  0  0  0  0  0  0
    1.4662   14.0319   37.6893 O   0  0  0  0  0  0  0  0  0  0  0  0
    0.4194   13.2063   39.7513 C   0  0  2  0  0  0  0  0  0  0  0  0
    1.5905   12.7256   40.4138 O   0  0  0  0  0  0  0  0  0  0  0  0
   -0.7888   12.4648   40.3019 C   0  0  0  0  0  0  0  0  0  0  0  0
   -1.8857   17.7227   35.2082 C   0  0  2  0  0  0  0  0  0  0  0  0
   -2.7428   18.8675   35.5258 N   0  0  0  0  0  0  0  0  0  0  0  0
   -2.6452   16.4418   35.6513 C   0  0  0  0  0  0  0  0  0  0  0  0
   -1.7619   15.2139   35.3002 C   0  0  2  0  0  0  0  0  0  0  0  0
   -2.4464   13.9739   35.6985 N   0  0  0  0  0  0  0  0  0  0  0  0
   -0.3895   15.2927   36.0214 C   0  0  2  0  0  0  0  0  0  0  0  0
    0.3344   16.6091   35.5963 C   0  0  2  0  0  0  0  0  0  0  0  0
    1.5971   16.6863   36.2719 O   0  0  0  0  0  0  0  0  0  0  0  0
   -0.5070   17.8494   35.9834 C   0  0  1  0  0  0  0  0  0  0  0  0
    0.2251   19.0213   35.5468 O   0  0  0  0  0  0  0  0  0  0  0  0
    0.7617   18.9721   34.2039 C   0  0  2  0  0  0  0  0  0  0  0  0
    1.6576   20.2562   34.0432 C   0  0  2  0  0  0  0  0  0  0  0  0
    2.7096   20.2321   34.9951 O   0  0  0  0  0  0  0  0  0  0  0  0
    0.7571   21.5356   34.2298 C   0  0  1  0  0  0  0  0  0  0  0  0
    1.5705   22.7824   34.0951 N   0  0  0  0  0  0  0  0  0  0  0  0
    1.8247   23.3359   35.4426 C   0  0  0  0  0  0  0  0  0  0  0  0
   -0.3712   21.5074   33.1542 C   0  0  2  0  0  0  0  0  0  0  0  0
    0.2298   21.5283   31.8604 O   0  0  0  0  0  0  0  0  0  0  0  0
   -1.2977   22.7149   33.2725 C   0  0  0  0  0  0  0  0  0  0  0  0
   -1.2012   20.1938   33.3172 C   0  0  0  0  0  0  0  0  0  0  0  0
   -0.3320   19.0030   33.2122 O   0  0  0  0  0  0  0  0  0  0  0  0
  1  3  1  0  0  0  0
  1  2  1  6  0  0  0
  3  5  1  0  0  0  0
  3  4  1  6  0  0  0
  5  6  1  1  0  0  0
  7  8  1  6  0  0  0
  7  5  1  0  0  0  0
  9 10  1  1  0  0  0
  9  7  1  0  0  0  0
 10  1  1  0  0  0  0
 11 13  1  1  0  0  0
 11  9  1  0  0  0  0
 12 11  1  0  0  0  0
 14 15  1  1  0  0  0
 16 14  1  0  0  0  0
 17 18  1  1  0  0  0
 17 16  1  0  0  0  0
 19  2  1  6  0  0  0
 19 20  1  0  0  0  0
 19 17  1  0  0  0  0
 20 21  1  1  0  0  0
 20 22  1  0  0  0  0
 22 23  1  6  0  0  0
 22 14  1  0  0  0  0
 24 23  1  1  0  0  0
 24 25  1  0  0  0  0
 25 27  1  0  0  0  0
 25 26  1  1  0  0  0
 27 28  1  6  0  0  0
 28 29  1  0  0  0  0
 30 31  1  6  0  0  0
 30 32  1  0  0  0  0
 30 27  1  0  0  0  0
 33 30  1  0  0  0  0
 34 33  1  0  0  0  0
 34 24  1  0  0  0  0
M  END
>  <CHROM.1>
171.81990459,45.65086065,-175.98337902,-69.74465760,-172.72736786,-102.97096602
0.32245963,16.51240452,35.77135720,-1.51634406,-0.10937724,-0.38711371

>  <Name>
lig.pdb

>  <RI>
0

>  <Rbt.Current_Directory>
/home/itssahil/PROJECTS/Mol_Feturizer/New_Systems/rnas/4k32

>  <Rbt.Executable>
rbdock ($Id: //depot/dev/client3/rdock/2013.1/src/exe/rbdock.cxx#4 $)

>  <Rbt.Library>
libRbt.so (2013.1, Build901 2013/11/27)

>  <Rbt.Parameter_File>
/export/apps/rDock/src/rDock_2013.1_src/data/scripts/dock_solv.prm

>  <Rbt.Receptor>
prm/pocket_docking_7.prm

>  <SCORE>
-14.305

>  <SCORE.INTER>
-8.89601

>  <SCORE.INTER.CONST>
1

>  <SCORE.INTER.POLAR>
0

>  <SCORE.INTER.ROT>
6

>  <SCORE.INTER.SOLV>
18.7476

>  <SCORE.INTER.VDW>
-19.7799

>  <SCORE.INTER.norm>
-0.261647

>  <SCORE.INTRA>
-5.40904

>  <SCORE.INTRA.DIHEDRAL>
-15.1393

>  <SCORE.INTRA.DIHEDRAL.0>
18.0069

>  <SCORE.INTRA.POLAR>
0

>  <SCORE.INTRA.POLAR.0>
0

>  <SCORE.INTRA.REPUL>
0

>  <SCORE.INTRA.REPUL.0>
0

>  <SCORE.INTRA.SOLV>
-0.536264

>  <SCORE.INTRA.SOLV.lig_0>
-70.7393

>  <SCORE.INTRA.VDW>
2.42872

>  <SCORE.INTRA.VDW.0>
-3.23471

>  <SCORE.INTRA.norm>
-0.15909

>  <SCORE.RESTR>
0

>  <SCORE.RESTR.CAVITY>
0

>  <SCORE.RESTR.norm>
0

>  <SCORE.SYSTEM>
0

>  <SCORE.SYSTEM.CONST>
0

>  <SCORE.SYSTEM.DIHEDRAL>
0

>  <SCORE.SYSTEM.SOLV>
0

>  <SCORE.SYSTEM.norm>
0

>  <SCORE.heavy>
34

>  <SCORE.norm>
-0.420737

>  <RMSD>
9.187

$$$$
lig.pdb
 OpenBabel11021811503D
libRbt.so/2013.1/901 2013/11/27
 34 36  0  0  0  0  0  0  0  0999 V2000
   -6.0697   16.4572   38.0846 C   0  0  2  0  0  0  0  0  0  0  0  0
   -4.7670   16.2657   38.6472 O   0  0  0  0  0  0  0  0  0  0  0  0
   -7.1334   16.4516   39.2635 C   0  0  2  0  0  0  0  0  0  0  0  0
   -6.8791   17.5363   40.2400 N   0  0  0  0  0  0  0  0  0  0  0  0
   -7.1011   15.0781   39.9799 C   0  0  1  0  0  0  0  0  0  0  0  0
   -8.0583   15.0514   41.0412 O   0  0  0  0  0  0  0  0  0  0  0  0
   -7.3849   13.9774   38.9422 C   0  0  2  0  0  0  0  0  0  0  0  0
   -7.3617   12.7049   39.5907 O   0  0  0  0  0  0  0  0  0  0  0  0
   -6.3091   14.0422   37.7912 C   0  0  2  0  0  0  0  0  0  0  0  0
   -6.3223   15.3676   37.1361 O   0  0  0  0  0  0  0  0  0  0  0  0
   -6.5637   12.9612   36.7116 C   0  0  2  0  0  0  0  0  0  0  0  0
   -6.6195   11.6706   37.3223 O   0  0  0  0  0  0  0  0  0  0  0  0
   -5.4585   12.9566   35.6670 C   0  0  0  0  0  0  0  0  0  0  0  0
   -0.9305   17.4383   37.1561 C   0  0  2  0  0  0  0  0  0  0  0  0
    0.2825   17.4929   36.3364 N   0  0  0  0  0  0  0  0  0  0  0  0
   -1.1125   15.9641   37.6116 C   0  0  0  0  0  0  0  0  0  0  0  0
   -2.3817   15.8900   38.5032 C   0  0  2  0  0  0  0  0  0  0  0  0
   -2.5907   14.5082   38.9635 N   0  0  0  0  0  0  0  0  0  0  0  0
   -3.6373   16.3624   37.7223 C   0  0  2  0  0  0  0  0  0  0  0  0
   -3.4126   17.8289   37.2357 C   0  0  2  0  0  0  0  0  0  0  0  0
   -4.5684   18.2603   36.5046 O   0  0  0  0  0  0  0  0  0  0  0  0
   -2.1801   17.9164   36.3032 C   0  0  1  0  0  0  0  0  0  0  0  0
   -2.0354   19.3030   35.9077 O   0  0  0  0  0  0  0  0  0  0  0  0
   -2.4603   19.6284   34.5634 C   0  0  2  0  0  0  0  0  0  0  0  0
   -1.1802   19.5001   33.6566 C   0  0  2  0  0  0  0  0  0  0  0  0
   -0.6841   18.1717   33.7083 O   0  0  0  0  0  0  0  0  0  0  0  0
   -0.0945   20.5276   34.1548 C   0  0  1  0  0  0  0  0  0  0  0  0
    1.1461   20.4335   33.3263 N   0  0  0  0  0  0  0  0  0  0  0  0
    2.3155   20.3322   34.2256 C   0  0  0  0  0  0  0  0  0  0  0  0
   -0.6955   21.9634   34.0672 C   0  0  2  0  0  0  0  0  0  0  0  0
   -1.0275   22.2381   32.7071 O   0  0  0  0  0  0  0  0  0  0  0  0
    0.2955   23.0229   34.5426 C   0  0  0  0  0  0  0  0  0  0  0  0
   -1.9905   22.0306   34.9388 C   0  0  0  0  0  0  0  0  0  0  0  0
   -2.9714   21.0127   34.5070 O   0  0  0  0  0  0  0  0  0  0  0  0
  1  3  1  0  0  0  0
  1  2  1  1  0  0  0
  3  5  1  0  0  0  0
  3  4  1  1  0  0  0
  5  6  1  1  0  0  0
  7  8  1  1  0  0  0
  7  5  1  0  0  0  0
  9 10  1  6  0  0  0
  9  7  1  0  0  0  0
 10  1  1  0  0  0  0
 11 13  1  6  0  0  0
 11  9  1  0  0  0  0
 12 11  1  0  0  0  0
 14 15  1  6  0  0  0
 16 14  1  0  0  0  0
 17 18  1  6  0  0  0
 17 16  1  0  0  0  0
 19  2  1  1  0  0  0
 19 20  1  0  0  0  0
 19 17  1  0  0  0  0
 20 21  1  6  0  0  0
 20 22  1  0  0  0  0
 22 23  1  1  0  0  0
 22 14  1  0  0  0  0
 24 23  1  1  0  0  0
 24 25  1  0  0  0  0
 25 27  1  0  0  0  0
 25 26  1  1  0  0  0
 27 28  1  6  0  0  0
 28 29  1  0  0  0  0
 30 31  1  6  0  0  0
 30 32  1  0  0  0  0
 30 27  1  0  0  0  0
 33 30  1  0  0  0  0
 34 33  1  0  0  0  0
 34 24  1  0  0  0  0
M  END
>  <CHROM.1>
-174.66275519,-55.10631227,-170.76043418,139.88562816,-92.53631036,-130.76685504
-3.42934430,17.35691587,36.66481277,2.36653476,-0.52182987,3.00517994

>  <Name>
lig.pdb

>  <RI>
0

>  <Rbt.Current_Directory>
/home/itssahil/PROJECTS/Mol_Feturizer/New_Systems/rnas/4k32

>  <Rbt.Executable>
rbdock ($Id: //depot/dev/client3/rdock/2013.1/src/exe/rbdock.cxx#4 $)

>  <Rbt.Library>
libRbt.so (2013.1, Build901 2013/11/27)

>  <Rbt.Parameter_File>
/export/apps/rDock/src/rDock_2013.1_src/data/scripts/dock_solv.prm

>  <Rbt.Receptor>
prm/pocket_docking_3.prm

>  <SCORE>
-10.4967

>  <SCORE.INTER>
-6.98752

>  <SCORE.INTER.CONST>
1

>  <SCORE.INTER.POLAR>
0

>  <SCORE.INTER.ROT>
6

>  <SCORE.INTER.SOLV>
15.192

>  <SCORE.INTER.VDW>
-17.3223

>  <SCORE.INTER.norm>
-0.205515

>  <SCORE.INTRA>
-3.52933

>  <SCORE.INTRA.DIHEDRAL>
-6.76742

>  <SCORE.INTRA.DIHEDRAL.0>
18.0069

>  <SCORE.INTRA.POLAR>
0

>  <SCORE.INTRA.POLAR.0>
0

>  <SCORE.INTRA.REPUL>
0

>  <SCORE.INTRA.REPUL.0>
0

>  <SCORE.INTRA.SOLV>
-0.154605

>  <SCORE.INTRA.SOLV.lig_0>
-70.7393

>  <SCORE.INTRA.VDW>
-0.0683234

>  <SCORE.INTRA.VDW.0>
-3.23471

>  <SCORE.INTRA.norm>
-0.103804

>  <SCORE.RESTR>
0.0202038

>  <SCORE.RESTR.CAVITY>
0.0202038

>  <SCORE.RESTR.norm>
0.000594228

>  <SCORE.SYSTEM>
0

>  <SCORE.SYSTEM.CONST>
0

>  <SCORE.SYSTEM.DIHEDRAL>
0

>  <SCORE.SYSTEM.SOLV>
0

>  <SCORE.SYSTEM.norm>
0

>  <SCORE.heavy>
34

>  <SCORE.norm>
-0.308725

>  <RMSD>
9.192

$$$$
lig.pdb
 OpenBabel11021811503D
libRbt.so/2013.1/901 2013/11/27
 34 36  0  0  0  0  0  0  0  0999 V2000
   -2.8463   12.5144   36.8624 C   0  0  2  0  0  0  0  0  0  0  0  0
   -2.6720   13.9154   36.6239 O   0  0  0  0  0  0  0  0  0  0  0  0
   -2.6392   11.7402   35.4916 C   0  0  2  0  0  0  0  0  0  0  0  0
   -1.2831   11.9572   34.9360 N   0  0  0  0  0  0  0  0  0  0  0  0
   -3.7084   12.2051   34.4710 C   0  0  1  0  0  0  0  0  0  0  0  0
   -3.5423   11.5131   33.2312 O   0  0  0  0  0  0  0  0  0  0  0  0
   -5.1024   11.9507   35.0717 C   0  0  2  0  0  0  0  0  0  0  0  0
   -6.0987   12.3717   34.1386 O   0  0  0  0  0  0  0  0  0  0  0  0
   -5.2435   12.7297   36.4353 C   0  0  2  0  0  0  0  0  0  0  0  0
   -4.1983   12.3058   37.3912 O   0  0  0  0  0  0  0  0  0  0  0  0
   -6.6279   12.4906   37.0877 C   0  0  2  0  0  0  0  0  0  0  0  0
   -6.7267   13.2378   38.3016 O   0  0  0  0  0  0  0  0  0  0  0  0
   -6.8389   11.0184   37.4052 C   0  0  0  0  0  0  0  0  0  0  0  0
    0.8925   16.2819   36.7272 C   0  0  2  0  0  0  0  0  0  0  0  0
    2.2764   16.7164   36.5215 N   0  0  0  0  0  0  0  0  0  0  0  0
    0.9443   14.8638   37.3598 C   0  0  0  0  0  0  0  0  0  0  0  0
   -0.5150   14.3951   37.6083 C   0  0  2  0  0  0  0  0  0  0  0  0
   -0.5144   13.0541   38.2139 N   0  0  0  0  0  0  0  0  0  0  0  0
   -1.3190   14.3545   36.2810 C   0  0  2  0  0  0  0  0  0  0  0  0
   -1.3182   15.7788   35.6414 C   0  0  2  0  0  0  0  0  0  0  0  0
   -2.0514   15.7375   34.4096 O   0  0  0  0  0  0  0  0  0  0  0  0
    0.1265   16.2450   35.3382 C   0  0  1  0  0  0  0  0  0  0  0  0
    0.0400   17.5712   34.7607 O   0  0  0  0  0  0  0  0  0  0  0  0
   -0.1822   18.6568   35.6913 C   0  0  2  0  0  0  0  0  0  0  0  0
   -0.8044   19.8333   34.8510 C   0  0  2  0  0  0  0  0  0  0  0  0
   -2.0334   19.4178   34.2766 O   0  0  0  0  0  0  0  0  0  0  0  0
    0.2220   20.2651   33.7362 C   0  0  1  0  0  0  0  0  0  0  0  0
   -0.3326   21.3766   32.9049 N   0  0  0  0  0  0  0  0  0  0  0  0
   -1.2185   20.8032   31.8690 C   0  0  0  0  0  0  0  0  0  0  0  0
    1.5439   20.7159   34.4290 C   0  0  2  0  0  0  0  0  0  0  0  0
    1.2600   21.8281   35.2764 O   0  0  0  0  0  0  0  0  0  0  0  0
    2.5993   21.1443   33.4125 C   0  0  0  0  0  0  0  0  0  0  0  0
    2.0977   19.5370   35.2919 C   0  0  0  0  0  0  0  0  0  0  0  0
    1.0971   19.0940   36.2855 O   0  0  0  0  0  0  0  0  0  0  0  0
  1  3  1  0  0  0  0
  1  2  1  6  0  0  0
  3  5  1  0  0  0  0
  3  4  1  6  0  0  0
  5  6  1  6  0  0  0
  7  8  1  6  0  0  0
  7  5  1  0  0  0  0
  9 10  1  1  0  0  0
  9  7  1  0  0  0  0
 10  1  1  0  0  0  0
 11 13  1  1  0  0  0
 11  9  1  0  0  0  0
 12 11  1  0  0  0  0
 14 15  1  6  0  0  0
 16 14  1  0  0  0  0
 17 18  1  6  0  0  0
 17 16  1  0  0  0  0
 19  2  1  1  0  0  0
 19 20  1  0  0  0  0
 19 17  1  0  0  0  0
 20 21  1  6  0  0  0
 20 22  1  0  0  0  0
 22 23  1  1  0  0  0
 22 14  1  0  0  0  0
 24 23  1  6  0  0  0
 24 25  1  0  0  0  0
 25 27  1  0  0  0  0
 25 26  1  6  0  0  0
 27 28  1  1  0  0  0
 28 29  1  0  0  0  0
 30 31  1  1  0  0  0
 30 32  1  0  0  0  0
 30 27  1  0  0  0  0
 33 30  1  0  0  0  0
 34 33  1  0  0  0  0
 34 24  1  0  0  0  0
M  END
>  <CHROM.1>
-68.01403281,-178.60672971,-77.80033045,-37.82139154,-157.69096908,-82.46501644
-1.64648719,15.82372156,35.52497223,-2.23006232,-0.41472254,-0.52326575

>  <Name>
lig.pdb

>  <RI>
0

>  <Rbt.Current_Directory>
/home/itssahil/PROJECTS/Mol_Feturizer/New_Systems/rnas/4k32

>  <Rbt.Executable>
rbdock ($Id: //depot/dev/client3/rdock/2013.1/src/exe/rbdock.cxx#4 $)

>  <Rbt.Library>
libRbt.so (2013.1, Build901 2013/11/27)

>  <Rbt.Parameter_File>
/export/apps/rDock/src/rDock_2013.1_src/data/scripts/dock_solv.prm

>  <Rbt.Receptor>
prm/pocket_docking_4.prm

>  <SCORE>
-7.66424

>  <SCORE.INTER>
-7.44631

>  <SCORE.INTER.CONST>
1

>  <SCORE.INTER.POLAR>
0

>  <SCORE.INTER.ROT>
6

>  <SCORE.INTER.SOLV>
16.2428

>  <SCORE.INTER.VDW>
-17.9785

>  <SCORE.INTER.norm>
-0.219009

>  <SCORE.INTRA>
-0.217938

>  <SCORE.INTRA.DIHEDRAL>
-11.4701

>  <SCORE.INTRA.DIHEDRAL.0>
18.0069

>  <SCORE.INTRA.POLAR>
0

>  <SCORE.INTRA.POLAR.0>
0

>  <SCORE.INTRA.REPUL>
0

>  <SCORE.INTRA.REPUL.0>
0

>  <SCORE.INTRA.SOLV>
3.8571

>  <SCORE.INTRA.SOLV.lig_0>
-70.7393

>  <SCORE.INTRA.VDW>
3.58858

>  <SCORE.INTRA.VDW.0>
-3.23471

>  <SCORE.INTRA.norm>
-0.00640993

>  <SCORE.RESTR>
0

>  <SCORE.RESTR.CAVITY>
0

>  <SCORE.RESTR.norm>
0

>  <SCORE.SYSTEM>
0

>  <SCORE.SYSTEM.CONST>
0

>  <SCORE.SYSTEM.DIHEDRAL>
0

>  <SCORE.SYSTEM.SOLV>
0

>  <SCORE.SYSTEM.norm>
0

>  <SCORE.heavy>
34

>  <SCORE.norm>
-0.225419

>  <RMSD>
9.192

$$$$
lig.pdb
 OpenBabel11021811503D
libRbt.so/2013.1/901 2013/11/27
 34 36  0  0  0  0  0  0  0  0999 V2000
   -5.0759   17.4786   37.4742 C   0  0  2  0  0  0  0  0  0  0  0  0
   -3.9591   17.3345   38.3586 O   0  0  0  0  0  0  0  0  0  0  0  0
   -6.3663   17.8033   38.3407 C   0  0  2  0  0  0  0  0  0  0  0  0
   -6.2111   19.0598   39.1103 N   0  0  0  0  0  0  0  0  0  0  0  0
   -6.6485   16.6245   39.3060 C   0  0  1  0  0  0  0  0  0  0  0  0
   -7.8122   16.8959   40.0906 O   0  0  0  0  0  0  0  0  0  0  0  0
   -6.8207   15.3409   38.4745 C   0  0  2  0  0  0  0  0  0  0  0  0
   -7.0854   14.2458   39.3526 O   0  0  0  0  0  0  0  0  0  0  0  0
   -5.5180   15.0792   37.6254 C   0  0  2  0  0  0  0  0  0  0  0  0
   -5.2362   16.2235   36.7326 O   0  0  0  0  0  0  0  0  0  0  0  0
   -5.6505   13.8034   36.7571 C   0  0  2  0  0  0  0  0  0  0  0  0
   -6.9042   13.8122   36.0716 O   0  0  0  0  0  0  0  0  0  0  0  0
   -5.5726   12.5471   37.6106 C   0  0  0  0  0  0  0  0  0  0  0  0
    0.2556   17.4108   37.6188 C   0  0  2  0  0  0  0  0  0  0  0  0
    1.5857   17.0399   37.1296 N   0  0  0  0  0  0  0  0  0  0  0  0
   -0.3318   16.1681   38.3431 C   0  0  0  0  0  0  0  0  0  0  0  0
   -1.7338   16.5494   38.8908 C   0  0  2  0  0  0  0  0  0  0  0  0
   -2.3275   15.4001   39.5918 N   0  0  0  0  0  0  0  0  0  0  0  0
   -2.6790   16.9883   37.7403 C   0  0  2  0  0  0  0  0  0  0  0  0
   -2.0465   18.2082   36.9988 C   0  0  2  0  0  0  0  0  0  0  0  0
   -2.9149   18.6055   35.9290 O   0  0  0  0  0  0  0  0  0  0  0  0
   -0.6686   17.8344   36.4005 C   0  0  1  0  0  0  0  0  0  0  0  0
   -0.1479   19.0165   35.7439 O   0  0  0  0  0  0  0  0  0  0  0  0
    0.7476   18.7836   34.6314 C   0  0  2  0  0  0  0  0  0  0  0  0
    1.5702   20.1126   34.4459 C   0  0  2  0  0  0  0  0  0  0  0  0
    2.3104   20.3897   35.6243 O   0  0  0  0  0  0  0  0  0  0  0  0
    0.5753   21.2888   34.1150 C   0  0  1  0  0  0  0  0  0  0  0  0
    1.3140   22.5765   33.9401 N   0  0  0  0  0  0  0  0  0  0  0  0
    1.2563   23.3371   35.2069 C   0  0  0  0  0  0  0  0  0  0  0  0
   -0.1997   20.9288   32.8110 C   0  0  2  0  0  0  0  0  0  0  0  0
    0.7391   20.7809   31.7470 O   0  0  0  0  0  0  0  0  0  0  0  0
   -1.1957   22.0191   32.4241 C   0  0  0  0  0  0  0  0  0  0  0  0
   -0.9581   19.5792   33.0222 C   0  0  0  0  0  0  0  0  0  0  0  0
   -0.0218   18.5009   33.4030 O   0  0  0  0  0  0  0  0  0  0  0  0
  1  3  1  0  0  0  0
  1  2  1  1  0  0  0
  3  5  1  0  0  0  0
  3  4  1  1  0  0  0
  5  6  1  6  0  0  0
  7  8  1  1  0  0  0
  7  5  1  0  0  0  0
  9 10  1  6  0  0  0
  9  7  1  0  0  0  0
 10  1  1  0  0  0  0
 11 13  1  1  0  0  0
 11  9  1  0  0  0  0
 12 11  1  0  0  0  0
 14 15  1  6  0  0  0
 16 14  1  0  0  0  0
 17 18  1  6  0  0  0
 17 16  1  0  0  0  0
 19  2  1  1  0  0  0
 19 20  1  0  0  0  0
 19 17  1  0  0  0  0
 20 21  1  6  0  0  0
 20 22  1  0  0  0  0
 22 23  1  1  0  0  0
 22 14  1  0  0  0  0
 24 23  1  1  0  0  0
 24 25  1  0  0  0  0
 25 27  1  0  0  0  0
 25 26  1  1  0  0  0
 27 28  1  6  0  0  0
 28 29  1  0  0  0  0
 30 31  1  6  0  0  0
 30 32  1  0  0  0  0
 30 27  1  0  0  0  0
 33 30  1  0  0  0  0
 34 33  1  0  0  0  0
 34 24  1  0  0  0  0
M  END
>  <CHROM.1>
178.10604682,47.39577075,-166.33807222,92.06506982,-159.42951756,-97.37851621
-2.48290642,17.87403129,36.48390271,2.35542124,0.00654232,2.45391760

>  <Name>
lig.pdb

>  <RI>
0

>  <Rbt.Current_Directory>
/home/itssahil/PROJECTS/Mol_Feturizer/New_Systems/rnas/4k32

>  <Rbt.Executable>
rbdock ($Id: //depot/dev/client3/rdock/2013.1/src/exe/rbdock.cxx#4 $)

>  <Rbt.Library>
libRbt.so (2013.1, Build901 2013/11/27)

>  <Rbt.Parameter_File>
/export/apps/rDock/src/rDock_2013.1_src/data/scripts/dock_solv.prm

>  <Rbt.Receptor>
prm/pocket_docking_5.prm

>  <SCORE>
-13.8211

>  <SCORE.INTER>
-8.59704

>  <SCORE.INTER.CONST>
1

>  <SCORE.INTER.POLAR>
0

>  <SCORE.INTER.ROT>
6

>  <SCORE.INTER.SOLV>
18.8712

>  <SCORE.INTER.VDW>
-19.6218

>  <SCORE.INTER.norm>
-0.252854

>  <SCORE.INTRA>
-5.22402

>  <SCORE.INTRA.DIHEDRAL>
-9.83766

>  <SCORE.INTRA.DIHEDRAL.0>
18.0069

>  <SCORE.INTRA.POLAR>
0

>  <SCORE.INTRA.POLAR.0>
0

>  <SCORE.INTRA.REPUL>
0

>  <SCORE.INTRA.REPUL.0>
0

>  <SCORE.INTRA.SOLV>
-1.33136

>  <SCORE.INTRA.SOLV.lig_0>
-70.7393

>  <SCORE.INTRA.VDW>
0.360489

>  <SCORE.INTRA.VDW.0>
-3.23471

>  <SCORE.INTRA.norm>
-0.153648

>  <SCORE.RESTR>
0

>  <SCORE.RESTR.CAVITY>
0

>  <SCORE.RESTR.norm>
0

>  <SCORE.SYSTEM>
0

>  <SCORE.SYSTEM.CONST>
0

>  <SCORE.SYSTEM.DIHEDRAL>
0

>  <SCORE.SYSTEM.SOLV>
0

>  <SCORE.SYSTEM.norm>
0

>  <SCORE.heavy>
34

>  <SCORE.norm>
-0.406502

>  <RMSD>
9.193

$$$$
lig.pdb
 OpenBabel11021811503D
libRbt.so/2013.1/901 2013/11/27
 34 36  0  0  0  0  0  0  0  0999 V2000
   -5.0529   17.4077   37.3822 C   0  0  2  0  0  0  0  0  0  0  0  0
   -3.9309   17.3021   38.2654 O   0  0  0  0  0  0  0  0  0  0  0  0
   -6.3478   17.7180   38.2472 C   0  0  2  0  0  0  0  0  0  0  0  0
   -6.2181   18.9897   38.9961 N   0  0  0  0  0  0  0  0  0  0  0  0
   -6.6017   16.5490   39.2320 C   0  0  1  0  0  0  0  0  0  0  0  0
   -7.7690   16.8074   40.0156 O   0  0  0  0  0  0  0  0  0  0  0  0
   -6.7479   15.2487   38.4216 C   0  0  2  0  0  0  0  0  0  0  0  0
   -6.9864   14.1623   39.3179 O   0  0  0  0  0  0  0  0  0  0  0  0
   -5.4421   15.0019   37.5729 C   0  0  2  0  0  0  0  0  0  0  0  0
   -5.1877   16.1376   36.6612 O   0  0  0  0  0  0  0  0  0  0  0  0
   -5.5489   13.7097   36.7255 C   0  0  2  0  0  0  0  0  0  0  0  0
   -6.8334   13.6436   36.1032 O   0  0  0  0  0  0  0  0  0  0  0  0
   -5.3625   12.4705   37.5870 C   0  0  0  0  0  0  0  0  0  0  0  0
    0.2913   17.3703   37.5688 C   0  0  2  0  0  0  0  0  0  0  0  0
    1.6237   17.0041   37.0824 N   0  0  0  0  0  0  0  0  0  0  0  0
   -0.3112   16.1121   38.2528 C   0  0  0  0  0  0  0  0  0  0  0  0
   -1.7161   16.4877   38.7972 C   0  0  2  0  0  0  0  0  0  0  0  0
   -2.3241   15.3235   39.4604 N   0  0  0  0  0  0  0  0  0  0  0  0
   -2.6470   16.9645   37.6501 C   0  0  2  0  0  0  0  0  0  0  0  0
   -1.9994   18.2000   36.9489 C   0  0  2  0  0  0  0  0  0  0  0  0
   -2.8546   18.6326   35.8821 O   0  0  0  0  0  0  0  0  0  0  0  0
   -0.6181   17.8336   36.3538 C   0  0  1  0  0  0  0  0  0  0  0  0
   -0.0833   19.0298   35.7351 O   0  0  0  0  0  0  0  0  0  0  0  0
    0.8090   18.8220   34.6151 C   0  0  2  0  0  0  0  0  0  0  0  0
    1.6035   20.1684   34.4327 C   0  0  2  0  0  0  0  0  0  0  0  0
    2.3462   20.4527   35.6079 O   0  0  0  0  0  0  0  0  0  0  0  0
    0.5831   21.3264   34.1162 C   0  0  1  0  0  0  0  0  0  0  0  0
    1.2946   22.6297   33.9447 N   0  0  0  0  0  0  0  0  0  0  0  0
    1.2956   23.3481   35.2372 C   0  0  0  0  0  0  0  0  0  0  0  0
   -0.1936   20.9593   32.8152 C   0  0  2  0  0  0  0  0  0  0  0  0
    0.7407   20.8370   31.7439 O   0  0  0  0  0  0  0  0  0  0  0  0
   -1.2138   22.0318   32.4421 C   0  0  0  0  0  0  0  0  0  0  0  0
   -0.9234   19.5935   33.0227 C   0  0  0  0  0  0  0  0  0  0  0  0
    0.0370   18.5317   33.3902 O   0  0  0  0  0  0  0  0  0  0  0  0
  1  3  1  0  0  0  0
  1  2  1  1  0  0  0
  3  5  1  0  0  0  0
  3  4  1  1  0  0  0
  5  6  1  6  0  0  0
  7  8  1  1  0  0  0
  7  5  1  0  0  0  0
  9 10  1  6  0  0  0
  9  7  1  0  0  0  0
 10  1  1  0  0  0  0
 11 13  1  1  0  0  0
 11  9  1  0  0  0  0
 12 11  1  0  0  0  0
 14 15  1  6  0  0  0
 16 14  1  0  0  0  0
 17 18  1  6  0  0  0
 17 16  1  0  0  0  0
 19  2  1  1  0  0  0
 19 20  1  0  0  0  0
 19 17  1  0  0  0  0
 20 21  1  6  0  0  0
 20 22  1  0  0  0  0
 22 23  1  1  0  0  0
 22 14  1  0  0  0  0
 24 23  1  1  0  0  0
 24 25  1  0  0  0  0
 25 27  1  0  0  0  0
 25 26  1  1  0  0  0
 27 28  1  6  0  0  0
 28 29  1  0  0  0  0
 30 31  1  6  0  0  0
 30 32  1  0  0  0  0
 30 27  1  0  0  0  0
 33 30  1  0  0  0  0
 34 33  1  0  0  0  0
 34 24  1  0  0  0  0
M  END
>  <CHROM.1>
177.67500419,44.17168224,-163.10066795,92.78092510,-161.81665840,-94.27800437
-2.43981191,17.84589733,36.44254373,2.34753116,-0.02990780,2.50903081

>  <Name>
lig.pdb

>  <RI>
0

>  <Rbt.Current_Directory>
/home/itssahil/PROJECTS/Mol_Feturizer/New_Systems/rnas/4k32

>  <Rbt.Executable>
rbdock ($Id: //depot/dev/client3/rdock/2013.1/src/exe/rbdock.cxx#4 $)

>  <Rbt.Library>
libRbt.so (2013.1, Build901 2013/11/27)

>  <Rbt.Parameter_File>
/export/apps/rDock/src/rDock_2013.1_src/data/scripts/dock_solv.prm

>  <Rbt.Receptor>
prm/pocket_docking_5.prm

>  <SCORE>
-13.9128

>  <SCORE.INTER>
-8.78849

>  <SCORE.INTER.CONST>
1

>  <SCORE.INTER.POLAR>
0

>  <SCORE.INTER.ROT>
6

>  <SCORE.INTER.SOLV>
18.7067

>  <SCORE.INTER.VDW>
-19.6946

>  <SCORE.INTER.norm>
-0.258485

>  <SCORE.INTRA>
-5.12433

>  <SCORE.INTRA.DIHEDRAL>
-9.43008

>  <SCORE.INTRA.DIHEDRAL.0>
18.0069

>  <SCORE.INTRA.POLAR>
0

>  <SCORE.INTRA.POLAR.0>
0

>  <SCORE.INTRA.REPUL>
0

>  <SCORE.INTRA.REPUL.0>
0

>  <SCORE.INTRA.SOLV>
-1.06302

>  <SCORE.INTRA.SOLV.lig_0>
-70.7393

>  <SCORE.INTRA.VDW>
0.122223

>  <SCORE.INTRA.VDW.0>
-3.23471

>  <SCORE.INTRA.norm>
-0.150716

>  <SCORE.RESTR>
0

>  <SCORE.RESTR.CAVITY>
0

>  <SCORE.RESTR.norm>
0

>  <SCORE.SYSTEM>
0

>  <SCORE.SYSTEM.CONST>
0

>  <SCORE.SYSTEM.DIHEDRAL>
0

>  <SCORE.SYSTEM.SOLV>
0

>  <SCORE.SYSTEM.norm>
0

>  <SCORE.heavy>
34

>  <SCORE.norm>
-0.409201

>  <RMSD>
9.205

$$$$
lig.pdb
 OpenBabel11021811503D
libRbt.so/2013.1/901 2013/11/27
 34 36  0  0  0  0  0  0  0  0999 V2000
   -5.2344   17.4192   37.5452 C   0  0  2  0  0  0  0  0  0  0  0  0
   -4.0580   17.5489   38.3511 O   0  0  0  0  0  0  0  0  0  0  0  0
   -6.5001   17.7551   38.4433 C   0  0  2  0  0  0  0  0  0  0  0  0
   -6.4459   19.1362   38.9769 N   0  0  0  0  0  0  0  0  0  0  0  0
   -6.5865   16.7409   39.6116 C   0  0  1  0  0  0  0  0  0  0  0  0
   -7.7252   17.0233   40.4282 O   0  0  0  0  0  0  0  0  0  0  0  0
   -6.6580   15.3206   39.0230 C   0  0  2  0  0  0  0  0  0  0  0  0
   -6.7418   14.3749   40.0902 O   0  0  0  0  0  0  0  0  0  0  0  0
   -5.3864   15.0507   38.1305 C   0  0  2  0  0  0  0  0  0  0  0  0
   -5.2921   16.0439   37.0393 O   0  0  0  0  0  0  0  0  0  0  0  0
   -5.4216   13.6358   37.5013 C   0  0  2  0  0  0  0  0  0  0  0  0
   -4.1657   13.3493   36.8830 O   0  0  0  0  0  0  0  0  0  0  0  0
   -6.5158   13.5285   36.4506 C   0  0  0  0  0  0  0  0  0  0  0  0
    0.1213   17.7425   37.4498 C   0  0  2  0  0  0  0  0  0  0  0  0
    1.4476   17.3937   36.9345 N   0  0  0  0  0  0  0  0  0  0  0  0
   -0.3886   16.5258   38.2704 C   0  0  0  0  0  0  0  0  0  0  0  0
   -1.7850   16.8858   38.8461 C   0  0  2  0  0  0  0  0  0  0  0  0
   -2.3059   15.7605   39.6381 N   0  0  0  0  0  0  0  0  0  0  0  0
   -2.7873   17.2147   37.7073 C   0  0  2  0  0  0  0  0  0  0  0  0
   -2.2320   18.4094   36.8694 C   0  0  2  0  0  0  0  0  0  0  0  0
   -3.1531   18.7049   35.8108 O   0  0  0  0  0  0  0  0  0  0  0  0
   -0.8618   18.0527   36.2436 C   0  0  1  0  0  0  0  0  0  0  0  0
   -0.4136   19.2107   35.4967 O   0  0  0  0  0  0  0  0  0  0  0  0
    0.5532   18.9574   34.4504 C   0  0  2  0  0  0  0  0  0  0  0  0
    1.4370   20.2557   34.3472 C   0  0  2  0  0  0  0  0  0  0  0  0
    2.0968   20.4889   35.5816 O   0  0  0  0  0  0  0  0  0  0  0  0
    0.5148   21.4737   33.9616 C   0  0  1  0  0  0  0  0  0  0  0  0
    1.3125   22.7338   33.8621 N   0  0  0  0  0  0  0  0  0  0  0  0
    1.2444   23.4468   35.1558 C   0  0  0  0  0  0  0  0  0  0  0  0
   -0.1735   21.1606   32.5982 C   0  0  2  0  0  0  0  0  0  0  0  0
    0.8362   20.9899   31.6047 O   0  0  0  0  0  0  0  0  0  0  0  0
   -1.0959   22.2935   32.1552 C   0  0  0  0  0  0  0  0  0  0  0  0
   -0.9959   19.8389   32.7314 C   0  0  0  0  0  0  0  0  0  0  0  0
   -0.1321   18.7203   33.1640 O   0  0  0  0  0  0  0  0  0  0  0  0
  1  3  1  0  0  0  0
  1  2  1  1  0  0  0
  3  5  1  0  0  0  0
  3  4  1  1  0  0  0
  5  6  1  6  0  0  0
  7  8  1  1  0  0  0
  7  5  1  0  0  0  0
  9 10  1  6  0  0  0
  9  7  1  0  0  0  0
 10  1  1  0  0  0  0
 11 13  1  6  0  0  0
 11  9  1  0  0  0  0
 12 11  1  0  0  0  0
 14 15  1  6  0  0  0
 16 14  1  0  0  0  0
 17 18  1  6  0  0  0
 17 16  1  0  0  0  0
 19  2  1  1  0  0  0
 19 20  1  0  0  0  0
 19 17  1  0  0  0  0
 20 21  1  6  0  0  0
 20 22  1  0  0  0  0
 22 23  1  1  0  0  0
 22 14  1  0  0  0  0
 24 23  1  1  0  0  0
 24 25  1  0  0  0  0
 25 27  1  0  0  0  0
 25 26  1  1  0  0  0
 27 28  1  6  0  0  0
 28 29  1  0  0  0  0
 30 31  1  6  0  0  0
 30 32  1  0  0  0  0
 30 27  1  0  0  0  0
 33 30  1  0  0  0  0
 34 33  1  0  0  0  0
 34 24  1  0  0  0  0
M  END
>  <CHROM.1>
177.20046414,-170.71446000,-158.22398701,86.23287806,-149.63183381,-94.56756865
-2.46691308,18.03243880,36.49312637,2.32233820,-0.18168233,2.57223947

>  <Name>
lig.pdb

>  <RI>
0

>  <Rbt.Current_Directory>
/home/itssahil/PROJECTS/Mol_Feturizer/New_Systems/rnas/4k32

>  <Rbt.Executable>
rbdock ($Id: //depot/dev/client3/rdock/2013.1/src/exe/rbdock.cxx#4 $)

>  <Rbt.Library>
libRbt.so (2013.1, Build901 2013/11/27)

>  <Rbt.Parameter_File>
/export/apps/rDock/src/rDock_2013.1_src/data/scripts/dock_solv.prm

>  <Rbt.Receptor>
prm/pocket_docking_6.prm

>  <SCORE>
-12.574

>  <SCORE.INTER>
-8.31994

>  <SCORE.INTER.CONST>
1

>  <SCORE.INTER.POLAR>
0

>  <SCORE.INTER.ROT>
6

>  <SCORE.INTER.SOLV>
17.7909

>  <SCORE.INTER.VDW>
-19.0769

>  <SCORE.INTER.norm>
-0.244704

>  <SCORE.INTRA>
-4.25405

>  <SCORE.INTRA.DIHEDRAL>
-8.21694

>  <SCORE.INTRA.DIHEDRAL.0>
18.0069

>  <SCORE.INTRA.POLAR>
0

>  <SCORE.INTRA.POLAR.0>
0

>  <SCORE.INTRA.REPUL>
0

>  <SCORE.INTRA.REPUL.0>
0

>  <SCORE.INTRA.SOLV>
-0.622726

>  <SCORE.INTRA.SOLV.lig_0>
-70.7393

>  <SCORE.INTRA.VDW>
0.165787

>  <SCORE.INTRA.VDW.0>
-3.23471

>  <SCORE.INTRA.norm>
-0.125119

>  <SCORE.RESTR>
0

>  <SCORE.RESTR.CAVITY>
0

>  <SCORE.RESTR.norm>
0

>  <SCORE.SYSTEM>
0

>  <SCORE.SYSTEM.CONST>
0

>  <SCORE.SYSTEM.DIHEDRAL>
0

>  <SCORE.SYSTEM.SOLV>
0

>  <SCORE.SYSTEM.norm>
0

>  <SCORE.heavy>
34

>  <SCORE.norm>
-0.369823

>  <RMSD>
9.237

$$$$
lig.pdb
 OpenBabel11021811503D
libRbt.so/2013.1/901 2013/11/27
 34 36  0  0  0  0  0  0  0  0999 V2000
   -4.2256   15.4411   35.5654 C   0  0  2  0  0  0  0  0  0  0  0  0
   -2.9679   15.3920   36.2480 O   0  0  0  0  0  0  0  0  0  0  0  0
   -5.3185   14.7292   36.4709 C   0  0  2  0  0  0  0  0  0  0  0  0
   -5.4693   15.4010   37.7828 N   0  0  0  0  0  0  0  0  0  0  0  0
   -4.9268   13.2447   36.6799 C   0  0  1  0  0  0  0  0  0  0  0  0
   -5.9038   12.5847   37.4881 O   0  0  0  0  0  0  0  0  0  0  0  0
   -4.7950   12.5740   35.3010 C   0  0  2  0  0  0  0  0  0  0  0  0
   -4.4375   11.2026   35.4793 O   0  0  0  0  0  0  0  0  0  0  0  0
   -3.7103   13.3315   34.4431 C   0  0  2  0  0  0  0  0  0  0  0  0
   -4.0737   14.7550   34.2781 O   0  0  0  0  0  0  0  0  0  0  0  0
   -3.5538   12.7011   33.0370 C   0  0  2  0  0  0  0  0  0  0  0  0
   -3.1602   11.3331   33.1606 O   0  0  0  0  0  0  0  0  0  0  0  0
   -2.5036   13.4364   32.2189 C   0  0  0  0  0  0  0  0  0  0  0  0
    0.2847   18.1679   36.0699 C   0  0  2  0  0  0  0  0  0  0  0  0
    1.4567   18.9035   35.5889 N   0  0  0  0  0  0  0  0  0  0  0  0
    0.6163   16.6537   35.9647 C   0  0  0  0  0  0  0  0  0  0  0  0
   -0.6066   15.8563   36.4936 C   0  0  2  0  0  0  0  0  0  0  0  0
   -0.3342   14.4123   36.4177 N   0  0  0  0  0  0  0  0  0  0  0  0
   -1.8799   16.1789   35.6665 C   0  0  2  0  0  0  0  0  0  0  0  0
   -2.1665   17.7114   35.7495 C   0  0  2  0  0  0  0  0  0  0  0  0
   -3.3364   18.0100   34.9757 O   0  0  0  0  0  0  0  0  0  0  0  0
   -0.9792   18.5249   35.1796 C   0  0  1  0  0  0  0  0  0  0  0  0
   -1.3183   19.9283   35.3033 O   0  0  0  0  0  0  0  0  0  0  0  0
   -2.2007   20.4612   34.2878 C   0  0  2  0  0  0  0  0  0  0  0  0
   -1.3150   20.6683   33.0032 C   0  0  2  0  0  0  0  0  0  0  0  0
   -0.7758   19.4246   32.5840 O   0  0  0  0  0  0  0  0  0  0  0  0
   -0.1686   21.6980   33.3321 C   0  0  1  0  0  0  0  0  0  0  0  0
    0.7060   21.9183   32.1401 N   0  0  0  0  0  0  0  0  0  0  0  0
    2.0968   21.5627   32.4949 C   0  0  0  0  0  0  0  0  0  0  0  0
   -0.8231   23.0410   33.7779 C   0  0  2  0  0  0  0  0  0  0  0  0
   -1.6219   23.5386   32.7055 O   0  0  0  0  0  0  0  0  0  0  0  0
    0.2252   24.0951   34.1246 C   0  0  0  0  0  0  0  0  0  0  0  0
   -1.7324   22.7795   35.0212 C   0  0  0  0  0  0  0  0  0  0  0  0
   -2.7579   21.7584   34.7206 O   0  0  0  0  0  0  0  0  0  0  0  0
  1  3  1  0  0  0  0
  1  2  1  1  0  0  0
  3  5  1  0  0  0  0
  3  4  1  1  0  0  0
  5  6  1  1  0  0  0
  7  8  1  1  0  0  0
  7  5  1  0  0  0  0
  9 10  1  6  0  0  0
  9  7  1  0  0  0  0
 10  1  1  0  0  0  0
 11 13  1  6  0  0  0
 11  9  1  0  0  0  0
 12 11  1  0  0  0  0
 14 15  1  6  0  0  0
 16 14  1  0  0  0  0
 17 18  1  6  0  0  0
 17 16  1  0  0  0  0
 19  2  1  1  0  0  0
 19 20  1  0  0  0  0
 19 17  1  0  0  0  0
 20 21  1  6  0  0  0
 20 22  1  0  0  0  0
 22 23  1  1  0  0  0
 22 14  1  0  0  0  0
 24 23  1  1  0  0  0
 24 25  1  0  0  0  0
 25 27  1  0  0  0  0
 25 26  1  1  0  0  0
 27 28  1  6  0  0  0
 28 29  1  0  0  0  0
 30 31  1  6  0  0  0
 30 32  1  0  0  0  0
 30 27  1  0  0  0  0
 33 30  1  0  0  0  0
 34 33  1  0  0  0  0
 34 24  1  0  0  0  0
M  END
>  <CHROM.1>
-170.81144957,-59.63577969,-174.64786701,163.75391423,-76.85851063,-121.50442378
-2.12612180,17.38644045,34.79582075,2.04617247,-0.58926169,-3.05285397

>  <Name>
lig.pdb

>  <RI>
0

>  <Rbt.Current_Directory>
/home/itssahil/PROJECTS/Mol_Feturizer/New_Systems/rnas/4k32

>  <Rbt.Executable>
rbdock ($Id: //depot/dev/client3/rdock/2013.1/src/exe/rbdock.cxx#4 $)

>  <Rbt.Library>
libRbt.so (2013.1, Build901 2013/11/27)

>  <Rbt.Parameter_File>
/export/apps/rDock/src/rDock_2013.1_src/data/scripts/dock_solv.prm

>  <Rbt.Receptor>
prm/pocket_docking_6.prm

>  <SCORE>
-13.6181

>  <SCORE.INTER>
-7.04684

>  <SCORE.INTER.CONST>
1

>  <SCORE.INTER.POLAR>
0

>  <SCORE.INTER.ROT>
6

>  <SCORE.INTER.SOLV>
16.2803

>  <SCORE.INTER.VDW>
-17.7247

>  <SCORE.INTER.norm>
-0.20726

>  <SCORE.INTRA>
-6.5713

>  <SCORE.INTRA.DIHEDRAL>
-13.6671

>  <SCORE.INTRA.DIHEDRAL.0>
18.0069

>  <SCORE.INTRA.POLAR>
0

>  <SCORE.INTRA.POLAR.0>
0

>  <SCORE.INTRA.REPUL>
0

>  <SCORE.INTRA.REPUL.0>
0

>  <SCORE.INTRA.SOLV>
-1.33747

>  <SCORE.INTRA.SOLV.lig_0>
-70.7393

>  <SCORE.INTRA.VDW>
0.930987

>  <SCORE.INTRA.VDW.0>
-3.23471

>  <SCORE.INTRA.norm>
-0.193274

>  <SCORE.RESTR>
0

>  <SCORE.RESTR.CAVITY>
0

>  <SCORE.RESTR.norm>
0

>  <SCORE.SYSTEM>
0

>  <SCORE.SYSTEM.CONST>
0

>  <SCORE.SYSTEM.DIHEDRAL>
0

>  <SCORE.SYSTEM.SOLV>
0

>  <SCORE.SYSTEM.norm>
0

>  <SCORE.heavy>
34

>  <SCORE.norm>
-0.400533

>  <RMSD>
9.262

$$$$
lig.pdb
 OpenBabel11021811503D
libRbt.so/2013.1/901 2013/11/27
 34 36  0  0  0  0  0  0  0  0999 V2000
   -4.2871   15.6999   35.8973 C   0  0  2  0  0  0  0  0  0  0  0  0
   -2.9899   15.5541   36.4859 O   0  0  0  0  0  0  0  0  0  0  0  0
   -5.3653   15.1062   36.9004 C   0  0  2  0  0  0  0  0  0  0  0  0
   -5.3569   15.8156   38.2011 N   0  0  0  0  0  0  0  0  0  0  0  0
   -5.0886   13.5975   37.1202 C   0  0  1  0  0  0  0  0  0  0  0  0
   -6.0546   13.0431   38.0162 O   0  0  0  0  0  0  0  0  0  0  0  0
   -5.1209   12.8895   35.7541 C   0  0  2  0  0  0  0  0  0  0  0  0
   -4.8707   11.4958   35.9426 O   0  0  0  0  0  0  0  0  0  0  0  0
   -4.0432   13.5303   34.7978 C   0  0  2  0  0  0  0  0  0  0  0  0
   -4.2937   14.9767   34.6215 O   0  0  0  0  0  0  0  0  0  0  0  0
   -4.0494   12.8597   33.4016 C   0  0  2  0  0  0  0  0  0  0  0  0
   -3.7883   11.4613   33.5350 O   0  0  0  0  0  0  0  0  0  0  0  0
   -2.9900   13.4672   32.4954 C   0  0  0  0  0  0  0  0  0  0  0  0
    0.3495   18.1810   35.9720 C   0  0  2  0  0  0  0  0  0  0  0  0
    1.5364   18.8213   35.3999 N   0  0  0  0  0  0  0  0  0  0  0  0
    0.6285   16.6534   36.0204 C   0  0  0  0  0  0  0  0  0  0  0  0
   -0.6105   15.9584   36.6474 C   0  0  2  0  0  0  0  0  0  0  0  0
   -0.3877   14.5057   36.7184 N   0  0  0  0  0  0  0  0  0  0  0  0
   -1.8871   16.2378   35.8097 C   0  0  2  0  0  0  0  0  0  0  0  0
   -2.1210   17.7798   35.7367 C   0  0  2  0  0  0  0  0  0  0  0  0
   -3.2941   18.0373   34.9531 O   0  0  0  0  0  0  0  0  0  0  0  0
   -0.9178   18.4878   35.0678 C   0  0  1  0  0  0  0  0  0  0  0  0
   -1.2077   19.9074   35.0494 O   0  0  0  0  0  0  0  0  0  0  0  0
   -2.1893   20.3434   34.0799 C   0  0  2  0  0  0  0  0  0  0  0  0
   -1.4245   20.4723   32.7103 C   0  0  2  0  0  0  0  0  0  0  0  0
   -0.8893   19.2124   32.3368 O   0  0  0  0  0  0  0  0  0  0  0  0
   -0.2831   21.5482   32.8602 C   0  0  1  0  0  0  0  0  0  0  0  0
    0.4783   21.6968   31.5826 N   0  0  0  0  0  0  0  0  0  0  0  0
    1.9228   21.5590   31.8676 C   0  0  0  0  0  0  0  0  0  0  0  0
   -0.9338   22.9065   33.2630 C   0  0  2  0  0  0  0  0  0  0  0  0
   -1.8361   23.3049   32.2321 O   0  0  0  0  0  0  0  0  0  0  0  0
    0.1109   24.0059   33.4376 C   0  0  0  0  0  0  0  0  0  0  0  0
   -1.7241   22.7199   34.5978 C   0  0  0  0  0  0  0  0  0  0  0  0
   -2.7429   21.6573   34.4644 O   0  0  0  0  0  0  0  0  0  0  0  0
  1  3  1  0  0  0  0
  1  2  1  1  0  0  0
  3  5  1  0  0  0  0
  3  4  1  1  0  0  0
  5  6  1  1  0  0  0
  7  8  1  1  0  0  0
  7  5  1  0  0  0  0
  9 10  1  6  0  0  0
  9  7  1  0  0  0  0
 10  1  1  0  0  0  0
 11 13  1  6  0  0  0
 11  9  1  0  0  0  0
 12 11  1  0  0  0  0
 14 15  1  6  0  0  0
 16 14  1  0  0  0  0
 17 18  1  6  0  0  0
 17 16  1  0  0  0  0
 19  2  1  1  0  0  0
 19 20  1  0  0  0  0
 19 17  1  0  0  0  0
 20 21  1  6  0  0  0
 20 22  1  0  0  0  0
 22 23  1  1  0  0  0
 22 14  1  0  0  0  0
 24 23  1  1  0  0  0
 24 25  1  0  0  0  0
 25 27  1  0  0  0  0
 25 26  1  1  0  0  0
 27 28  1  6  0  0  0
 28 29  1  0  0  0  0
 30 31  1  6  0  0  0
 30 32  1  0  0  0  0
 30 27  1  0  0  0  0
 33 30  1  0  0  0  0
 34 33  1  0  0  0  0
 34 24  1  0  0  0  0
M  END
>  <CHROM.1>
-170.37191311,-58.72519809,178.69894808,169.52248927,-81.45427306,-128.22785867
-2.24812134,17.44707920,34.80199630,2.10248399,-0.64566535,-3.09900184

>  <Name>
lig.pdb

>  <RI>
0

>  <Rbt.Current_Directory>
/home/itssahil/PROJECTS/Mol_Feturizer/New_Systems/rnas/4k32

>  <Rbt.Executable>
rbdock ($Id: //depot/dev/client3/rdock/2013.1/src/exe/rbdock.cxx#4 $)

>  <Rbt.Library>
libRbt.so (2013.1, Build901 2013/11/27)

>  <Rbt.Parameter_File>
/export/apps/rDock/src/rDock_2013.1_src/data/scripts/dock_solv.prm

>  <Rbt.Receptor>
prm/pocket_docking_4.prm

>  <SCORE>
-13.0752

>  <SCORE.INTER>
-6.85478

>  <SCORE.INTER.CONST>
1

>  <SCORE.INTER.POLAR>
0

>  <SCORE.INTER.ROT>
6

>  <SCORE.INTER.SOLV>
16.9175

>  <SCORE.INTER.VDW>
-17.809

>  <SCORE.INTER.norm>
-0.201611

>  <SCORE.INTRA>
-6.22268

>  <SCORE.INTRA.DIHEDRAL>
-13.7665

>  <SCORE.INTRA.DIHEDRAL.0>
18.0069

>  <SCORE.INTRA.POLAR>
0

>  <SCORE.INTRA.POLAR.0>
0

>  <SCORE.INTRA.REPUL>
0

>  <SCORE.INTRA.REPUL.0>
0

>  <SCORE.INTRA.SOLV>
-2.01602

>  <SCORE.INTRA.SOLV.lig_0>
-70.7393

>  <SCORE.INTRA.VDW>
1.66855

>  <SCORE.INTRA.VDW.0>
-3.23471

>  <SCORE.INTRA.norm>
-0.18302

>  <SCORE.RESTR>
0.00226868

>  <SCORE.RESTR.CAVITY>
0.00226868

>  <SCORE.RESTR.norm>
6.6726e-05

>  <SCORE.SYSTEM>
0

>  <SCORE.SYSTEM.CONST>
0

>  <SCORE.SYSTEM.DIHEDRAL>
0

>  <SCORE.SYSTEM.SOLV>
0

>  <SCORE.SYSTEM.norm>
0

>  <SCORE.heavy>
34

>  <SCORE.norm>
-0.384565

>  <RMSD>
9.272

$$$$
lig.pdb
 OpenBabel11021811503D
libRbt.so/2013.1/901 2013/11/27
 34 36  0  0  0  0  0  0  0  0999 V2000
   -5.5973   17.5998   37.5691 C   0  0  2  0  0  0  0  0  0  0  0  0
   -4.4131   17.7076   38.3667 O   0  0  0  0  0  0  0  0  0  0  0  0
   -6.8002   18.2702   38.3596 C   0  0  2  0  0  0  0  0  0  0  0  0
   -6.5476   19.7039   38.6342 N   0  0  0  0  0  0  0  0  0  0  0  0
   -7.0292   17.5101   39.6903 C   0  0  1  0  0  0  0  0  0  0  0  0
   -8.1143   18.0956   40.4136 O   0  0  0  0  0  0  0  0  0  0  0  0
   -7.3046   16.0305   39.3683 C   0  0  2  0  0  0  0  0  0  0  0  0
   -7.5214   15.3182   40.5873 O   0  0  0  0  0  0  0  0  0  0  0  0
   -6.0864   15.4245   38.5714 C   0  0  2  0  0  0  0  0  0  0  0  0
   -5.8525   16.1771   37.3205 O   0  0  0  0  0  0  0  0  0  0  0  0
   -6.3252   13.9375   38.2094 C   0  0  2  0  0  0  0  0  0  0  0  0
   -7.6612   13.7636   37.7334 O   0  0  0  0  0  0  0  0  0  0  0  0
   -6.1194   13.0377   39.4180 C   0  0  0  0  0  0  0  0  0  0  0  0
   -0.2254   17.5273   37.5020 C   0  0  2  0  0  0  0  0  0  0  0  0
    1.0721   17.0516   37.0161 N   0  0  0  0  0  0  0  0  0  0  0  0
   -0.8371   16.3921   38.3687 C   0  0  0  0  0  0  0  0  0  0  0  0
   -2.2042   16.8873   38.9136 C   0  0  2  0  0  0  0  0  0  0  0  0
   -2.8193   15.8428   39.7476 N   0  0  0  0  0  0  0  0  0  0  0  0
   -3.1688   17.2453   37.7513 C   0  0  2  0  0  0  0  0  0  0  0  0
   -2.5135   18.3541   36.8688 C   0  0  2  0  0  0  0  0  0  0  0  0
   -3.4005   18.6758   35.7888 O   0  0  0  0  0  0  0  0  0  0  0  0
   -1.1719   17.8622   36.2733 C   0  0  1  0  0  0  0  0  0  0  0  0
   -0.6270   18.9470   35.4822 O   0  0  0  0  0  0  0  0  0  0  0  0
    0.1992   18.5619   34.3584 C   0  0  2  0  0  0  0  0  0  0  0  0
    1.3097   19.6700   34.2315 C   0  0  2  0  0  0  0  0  0  0  0  0
    2.0840   19.7147   35.4197 O   0  0  0  0  0  0  0  0  0  0  0  0
    0.6184   21.0589   33.9561 C   0  0  1  0  0  0  0  0  0  0  0  0
    1.6376   22.1459   33.8381 N   0  0  0  0  0  0  0  0  0  0  0  0
    1.5150   23.0456   35.0052 C   0  0  0  0  0  0  0  0  0  0  0  0
   -0.2081   20.9473   32.6389 C   0  0  2  0  0  0  0  0  0  0  0  0
    0.6797   20.6325   31.5673 O   0  0  0  0  0  0  0  0  0  0  0  0
   -0.9200   22.2555   32.3037 C   0  0  0  0  0  0  0  0  0  0  0  0
   -1.2611   19.8031   32.7904 C   0  0  0  0  0  0  0  0  0  0  0  0
   -0.6043   18.5207   33.1202 O   0  0  0  0  0  0  0  0  0  0  0  0
  1  3  1  0  0  0  0
  1  2  1  1  0  0  0
  3  5  1  0  0  0  0
  3  4  1  1  0  0  0
  5  6  1  6  0  0  0
  7  8  1  1  0  0  0
  7  5  1  0  0  0  0
  9 10  1  6  0  0  0
  9  7  1  0  0  0  0
 10  1  1  0  0  0  0
 11 13  1  1  0  0  0
 11  9  1  0  0  0  0
 12 11  1  0  0  0  0
 14 15  1  6  0  0  0
 16 14  1  0  0  0  0
 17 18  1  6  0  0  0
 17 16  1  0  0  0  0
 19  2  1  1  0  0  0
 19 20  1  0  0  0  0
 19 17  1  0  0  0  0
 20 21  1  6  0  0  0
 20 22  1  0  0  0  0
 22 23  1  6  0  0  0
 22 14  1  0  0  0  0
 24 23  1  1  0  0  0
 24 25  1  0  0  0  0
 25 27  1  0  0  0  0
 25 26  1  1  0  0  0
 27 28  1  6  0  0  0
 28 29  1  0  0  0  0
 30 31  1  6  0  0  0
 30 32  1  0  0  0  0
 30 27  1  0  0  0  0
 33 30  1  0  0  0  0
 34 33  1  0  0  0  0
 34 24  1  0  0  0  0
M  END
>  <CHROM.1>
-174.89746672,43.75607386,-156.40315021,93.27798859,-145.87163473,-111.19244807
-2.85005239,18.04913421,36.67069756,2.39000050,-0.21959003,2.52197985

>  <Name>
lig.pdb

>  <RI>
0

>  <Rbt.Current_Directory>
/home/itssahil/PROJECTS/Mol_Feturizer/New_Systems/rnas/4k32

>  <Rbt.Executable>
rbdock ($Id: //depot/dev/client3/rdock/2013.1/src/exe/rbdock.cxx#4 $)

>  <Rbt.Library>
libRbt.so (2013.1, Build901 2013/11/27)

>  <Rbt.Parameter_File>
/export/apps/rDock/src/rDock_2013.1_src/data/scripts/dock_solv.prm

>  <Rbt.Receptor>
prm/pocket_docking_4.prm

>  <SCORE>
-12.3624

>  <SCORE.INTER>
-9.57043

>  <SCORE.INTER.CONST>
1

>  <SCORE.INTER.POLAR>
0

>  <SCORE.INTER.ROT>
6

>  <SCORE.INTER.SOLV>
19.6301

>  <SCORE.INTER.VDW>
-20.5236

>  <SCORE.INTER.norm>
-0.281483

>  <SCORE.INTRA>
-2.79201

>  <SCORE.INTRA.DIHEDRAL>
-4.83993

>  <SCORE.INTRA.DIHEDRAL.0>
18.0069

>  <SCORE.INTRA.POLAR>
0

>  <SCORE.INTRA.POLAR.0>
0

>  <SCORE.INTRA.REPUL>
0

>  <SCORE.INTRA.REPUL.0>
0

>  <SCORE.INTRA.SOLV>
-0.103476

>  <SCORE.INTRA.SOLV.lig_0>
-70.7393

>  <SCORE.INTRA.VDW>
-0.320313

>  <SCORE.INTRA.VDW.0>
-3.23471

>  <SCORE.INTRA.norm>
-0.0821181

>  <SCORE.RESTR>
0

>  <SCORE.RESTR.CAVITY>
0

>  <SCORE.RESTR.norm>
0

>  <SCORE.SYSTEM>
0

>  <SCORE.SYSTEM.CONST>
0

>  <SCORE.SYSTEM.DIHEDRAL>
0

>  <SCORE.SYSTEM.SOLV>
0

>  <SCORE.SYSTEM.norm>
0

>  <SCORE.heavy>
34

>  <SCORE.norm>
-0.363601

>  <RMSD>
9.290

$$$$
lig.pdb
 OpenBabel11021811503D
libRbt.so/2013.1/901 2013/11/27
 34 36  0  0  0  0  0  0  0  0999 V2000
   -4.2869   15.5947   35.7117 C   0  0  2  0  0  0  0  0  0  0  0  0
   -3.0153   15.5376   36.3675 O   0  0  0  0  0  0  0  0  0  0  0  0
   -5.3743   14.9350   36.6623 C   0  0  2  0  0  0  0  0  0  0  0  0
   -5.4804   15.6487   37.9562 N   0  0  0  0  0  0  0  0  0  0  0  0
   -5.0105   13.4489   36.9074 C   0  0  1  0  0  0  0  0  0  0  0  0
   -5.9832   12.8354   37.7566 O   0  0  0  0  0  0  0  0  0  0  0  0
   -4.9249   12.7346   35.5469 C   0  0  2  0  0  0  0  0  0  0  0  0
   -4.5935   11.3613   35.7587 O   0  0  0  0  0  0  0  0  0  0  0  0
   -3.8436   13.4415   34.6427 C   0  0  2  0  0  0  0  0  0  0  0  0
   -4.1794   14.8673   34.4427 O   0  0  0  0  0  0  0  0  0  0  0  0
   -3.7329   12.7661   33.2532 C   0  0  2  0  0  0  0  0  0  0  0  0
   -3.4145   11.3822   33.4114 O   0  0  0  0  0  0  0  0  0  0  0  0
   -2.6501   13.4201   32.4090 C   0  0  0  0  0  0  0  0  0  0  0  0
    0.3299   18.1767   35.9662 C   0  0  2  0  0  0  0  0  0  0  0  0
    1.5146   18.8424   35.4191 N   0  0  0  0  0  0  0  0  0  0  0  0
    0.6034   16.6477   35.9312 C   0  0  0  0  0  0  0  0  0  0  0  0
   -0.6331   15.9246   36.5306 C   0  0  2  0  0  0  0  0  0  0  0  0
   -0.4153   14.4695   36.5227 N   0  0  0  0  0  0  0  0  0  0  0  0
   -1.9154   16.2525   35.7195 C   0  0  2  0  0  0  0  0  0  0  0  0
   -2.1439   17.7969   35.7303 C   0  0  2  0  0  0  0  0  0  0  0  0
   -3.3223   18.0996   34.9711 O   0  0  0  0  0  0  0  0  0  0  0  0
   -0.9434   18.5353   35.0900 C   0  0  1  0  0  0  0  0  0  0  0  0
   -1.2281   19.9549   35.1494 O   0  0  0  0  0  0  0  0  0  0  0  0
   -2.1665   20.4568   34.1690 C   0  0  2  0  0  0  0  0  0  0  0  0
   -1.3432   20.6717   32.8449 C   0  0  2  0  0  0  0  0  0  0  0  0
   -0.7934   19.4369   32.4134 O   0  0  0  0  0  0  0  0  0  0  0  0
   -0.2083   21.7313   33.1137 C   0  0  1  0  0  0  0  0  0  0  0  0
    0.6077   21.9600   31.8824 N   0  0  0  0  0  0  0  0  0  0  0  0
    2.0123   21.5935   32.1643 C   0  0  0  0  0  0  0  0  0  0  0  0
   -0.8745   23.0629   33.5758 C   0  0  2  0  0  0  0  0  0  0  0  0
   -1.7311   23.5310   32.5353 O   0  0  0  0  0  0  0  0  0  0  0  0
    0.1627   24.1447   33.8665 C   0  0  0  0  0  0  0  0  0  0  0  0
   -1.7219   22.7927   34.8603 C   0  0  0  0  0  0  0  0  0  0  0  0
   -2.7350   21.7449   34.6143 O   0  0  0  0  0  0  0  0  0  0  0  0
  1  3  1  0  0  0  0
  1  2  1  1  0  0  0
  3  5  1  0  0  0  0
  3  4  1  1  0  0  0
  5  6  1  1  0  0  0
  7  8  1  1  0  0  0
  7  5  1  0  0  0  0
  9 10  1  6  0  0  0
  9  7  1  0  0  0  0
 10  1  1  0  0  0  0
 11 13  1  6  0  0  0
 11  9  1  0  0  0  0
 12 11  1  0  0  0  0
 14 15  1  6  0  0  0
 16 14  1  0  0  0  0
 17 18  1  6  0  0  0
 17 16  1  0  0  0  0
 19  2  1  1  0  0  0
 19 20  1  0  0  0  0
 19 17  1  0  0  0  0
 20 21  1  6  0  0  0
 20 22  1  0  0  0  0
 22 23  1  1  0  0  0
 22 14  1  0  0  0  0
 24 23  1  1  0  0  0
 24 25  1  0  0  0  0
 25 27  1  0  0  0  0
 25 26  1  1  0  0  0
 27 28  1  6  0  0  0
 28 29  1  0  0  0  0
 30 31  1  6  0  0  0
 30 32  1  0  0  0  0
 30 27  1  0  0  0  0
 33 30  1  0  0  0  0
 34 33  1  0  0  0  0
 34 24  1  0  0  0  0
M  END
>  <CHROM.1>
-172.39231542,-57.53851555,-174.40422399,166.58125289,-81.62506746,-119.45776355
-2.17879075,17.45646198,34.80063346,2.05949265,-0.59358607,-3.09353438

>  <Name>
lig.pdb

>  <RI>
0

>  <Rbt.Current_Directory>
/home/itssahil/PROJECTS/Mol_Feturizer/New_Systems/rnas/4k32

>  <Rbt.Executable>
rbdock ($Id: //depot/dev/client3/rdock/2013.1/src/exe/rbdock.cxx#4 $)

>  <Rbt.Library>
libRbt.so (2013.1, Build901 2013/11/27)

>  <Rbt.Parameter_File>
/export/apps/rDock/src/rDock_2013.1_src/data/scripts/dock_solv.prm

>  <Rbt.Receptor>
prm/pocket_docking_5.prm

>  <SCORE>
-13.5657

>  <SCORE.INTER>
-6.94209

>  <SCORE.INTER.CONST>
1

>  <SCORE.INTER.POLAR>
0

>  <SCORE.INTER.ROT>
6

>  <SCORE.INTER.SOLV>
16.693

>  <SCORE.INTER.VDW>
-17.7924

>  <SCORE.INTER.norm>
-0.204179

>  <SCORE.INTRA>
-6.62356

>  <SCORE.INTRA.DIHEDRAL>
-13.366

>  <SCORE.INTRA.DIHEDRAL.0>
18.0069

>  <SCORE.INTRA.POLAR>
0

>  <SCORE.INTRA.POLAR.0>
0

>  <SCORE.INTRA.REPUL>
0

>  <SCORE.INTRA.REPUL.0>
0

>  <SCORE.INTRA.SOLV>
-1.64729

>  <SCORE.INTRA.SOLV.lig_0>
-70.7393

>  <SCORE.INTRA.VDW>
0.883073

>  <SCORE.INTRA.VDW.0>
-3.23471

>  <SCORE.INTRA.norm>
-0.194811

>  <SCORE.RESTR>
0

>  <SCORE.RESTR.CAVITY>
0

>  <SCORE.RESTR.norm>
0

>  <SCORE.SYSTEM>
0

>  <SCORE.SYSTEM.CONST>
0

>  <SCORE.SYSTEM.DIHEDRAL>
0

>  <SCORE.SYSTEM.SOLV>
0

>  <SCORE.SYSTEM.norm>
0

>  <SCORE.heavy>
34

>  <SCORE.norm>
-0.39899

>  <RMSD>
9.297

$$$$
lig.pdb
 OpenBabel11021811503D
libRbt.so/2013.1/901 2013/11/27
 34 36  0  0  0  0  0  0  0  0999 V2000
   -6.1164   16.3060   38.2394 C   0  0  2  0  0  0  0  0  0  0  0  0
   -4.7879   16.3018   38.7733 O   0  0  0  0  0  0  0  0  0  0  0  0
   -7.1397   16.5147   39.4355 C   0  0  2  0  0  0  0  0  0  0  0  0
   -6.9115   17.7991   40.1377 N   0  0  0  0  0  0  0  0  0  0  0  0
   -7.0117   15.3369   40.4342 C   0  0  1  0  0  0  0  0  0  0  0  0
   -7.9313   15.5039   41.5159 O   0  0  0  0  0  0  0  0  0  0  0  0
   -7.2704   14.0222   39.6771 C   0  0  2  0  0  0  0  0  0  0  0  0
   -7.1591   12.9274   40.5878 O   0  0  0  0  0  0  0  0  0  0  0  0
   -6.2374   13.8778   38.4946 C   0  0  2  0  0  0  0  0  0  0  0  0
   -6.3418   15.0231   37.5654 O   0  0  0  0  0  0  0  0  0  0  0  0
   -6.4694   12.5741   37.6911 C   0  0  2  0  0  0  0  0  0  0  0  0
   -7.8685   12.3818   37.4738 O   0  0  0  0  0  0  0  0  0  0  0  0
   -5.9229   11.3655   38.4348 C   0  0  0  0  0  0  0  0  0  0  0  0
   -1.0016   17.4311   37.1285 C   0  0  2  0  0  0  0  0  0  0  0  0
    0.1776   17.4724   36.2603 N   0  0  0  0  0  0  0  0  0  0  0  0
   -1.1823   15.9586   37.5901 C   0  0  0  0  0  0  0  0  0  0  0  0
   -2.4150   15.8984   38.5324 C   0  0  2  0  0  0  0  0  0  0  0  0
   -2.6214   14.5187   38.9999 N   0  0  0  0  0  0  0  0  0  0  0  0
   -3.6957   16.3864   37.8034 C   0  0  2  0  0  0  0  0  0  0  0  0
   -3.4736   17.8507   37.3091 C   0  0  2  0  0  0  0  0  0  0  0  0
   -4.6531   18.2964   36.6258 O   0  0  0  0  0  0  0  0  0  0  0  0
   -2.2791   17.9248   36.3273 C   0  0  1  0  0  0  0  0  0  0  0  0
   -2.1343   19.3100   35.9272 O   0  0  0  0  0  0  0  0  0  0  0  0
   -2.5448   19.6280   34.5766 C   0  0  2  0  0  0  0  0  0  0  0  0
   -1.2696   19.4344   33.6745 C   0  0  2  0  0  0  0  0  0  0  0  0
   -0.8254   18.0889   33.7504 O   0  0  0  0  0  0  0  0  0  0  0  0
   -0.1455   20.4277   34.1566 C   0  0  1  0  0  0  0  0  0  0  0  0
    1.0914   20.2712   33.3321 N   0  0  0  0  0  0  0  0  0  0  0  0
    2.2657   20.2485   34.2306 C   0  0  0  0  0  0  0  0  0  0  0  0
   -0.6904   21.8840   34.0429 C   0  0  2  0  0  0  0  0  0  0  0  0
   -1.0099   22.1474   32.6776 O   0  0  0  0  0  0  0  0  0  0  0  0
    0.3404   22.9125   34.5014 C   0  0  0  0  0  0  0  0  0  0  0  0
   -1.9827   22.0164   34.9108 C   0  0  0  0  0  0  0  0  0  0  0  0
   -3.0018   21.0299   34.4952 O   0  0  0  0  0  0  0  0  0  0  0  0
  1  3  1  0  0  0  0
  1  2  1  1  0  0  0
  3  5  1  0  0  0  0
  3  4  1  1  0  0  0
  5  6  1  1  0  0  0
  7  8  1  1  0  0  0
  7  5  1  0  0  0  0
  9 10  1  6  0  0  0
  9  7  1  0  0  0  0
 10  1  1  0  0  0  0
 11 13  1  1  0  0  0
 11  9  1  0  0  0  0
 12 11  1  0  0  0  0
 14 15  1  6  0  0  0
 16 14  1  0  0  0  0
 17 18  1  6  0  0  0
 17 16  1  0  0  0  0
 19  2  1  1  0  0  0
 19 20  1  0  0  0  0
 19 17  1  0  0  0  0
 20 21  1  6  0  0  0
 20 22  1  0  0  0  0
 22 23  1  1  0  0  0
 22 14  1  0  0  0  0
 24 23  1  1  0  0  0
 24 25  1  0  0  0  0
 25 27  1  0  0  0  0
 25 26  1  1  0  0  0
 27 28  1  6  0  0  0
 28 29  1  0  0  0  0
 30 31  1  6  0  0  0
 30 32  1  0  0  0  0
 30 27  1  0  0  0  0
 33 30  1  0  0  0  0
 34 33  1  0  0  0  0
 34 24  1  0  0  0  0
M  END
>  <CHROM.1>
-168.30622555,43.00059493,-161.59242998,136.76587280,-89.95757619,-135.21709654
-3.50120992,17.32136961,36.91245669,2.31846101,-0.47730784,2.88493189

>  <Name>
lig.pdb

>  <RI>
0

>  <Rbt.Current_Directory>
/home/itssahil/PROJECTS/Mol_Feturizer/New_Systems/rnas/4k32

>  <Rbt.Executable>
rbdock ($Id: //depot/dev/client3/rdock/2013.1/src/exe/rbdock.cxx#4 $)

>  <Rbt.Library>
libRbt.so (2013.1, Build901 2013/11/27)

>  <Rbt.Parameter_File>
/export/apps/rDock/src/rDock_2013.1_src/data/scripts/dock_solv.prm

>  <Rbt.Receptor>
prm/pocket_docking_3.prm

>  <SCORE>
-8.74597

>  <SCORE.INTER>
-7.15284

>  <SCORE.INTER.CONST>
1

>  <SCORE.INTER.POLAR>
0

>  <SCORE.INTER.ROT>
6

>  <SCORE.INTER.SOLV>
15.2198

>  <SCORE.INTER.VDW>
-17.4418

>  <SCORE.INTER.norm>
-0.210378

>  <SCORE.INTRA>
-1.59952

>  <SCORE.INTRA.DIHEDRAL>
-4.33691

>  <SCORE.INTRA.DIHEDRAL.0>
18.0069

>  <SCORE.INTRA.POLAR>
0

>  <SCORE.INTRA.POLAR.0>
0

>  <SCORE.INTRA.REPUL>
0

>  <SCORE.INTRA.REPUL.0>
0

>  <SCORE.INTRA.SOLV>
0.880019

>  <SCORE.INTRA.SOLV.lig_0>
-70.7393

>  <SCORE.INTRA.VDW>
0.128922

>  <SCORE.INTRA.VDW.0>
-3.23471

>  <SCORE.INTRA.norm>
-0.0470448

>  <SCORE.RESTR>
0.00639526

>  <SCORE.RESTR.CAVITY>
0.00639526

>  <SCORE.RESTR.norm>
0.000188096

>  <SCORE.SYSTEM>
0

>  <SCORE.SYSTEM.CONST>
0

>  <SCORE.SYSTEM.DIHEDRAL>
0

>  <SCORE.SYSTEM.SOLV>
0

>  <SCORE.SYSTEM.norm>
0

>  <SCORE.heavy>
34

>  <SCORE.norm>
-0.257234

>  <RMSD>
9.301

$$$$
lig.pdb
 OpenBabel11021811503D
libRbt.so/2013.1/901 2013/11/27
 34 36  0  0  0  0  0  0  0  0999 V2000
   -5.4904   17.4234   37.5448 C   0  0  2  0  0  0  0  0  0  0  0  0
   -4.2715   17.6647   38.2562 O   0  0  0  0  0  0  0  0  0  0  0  0
   -6.6823   18.1067   38.3408 C   0  0  2  0  0  0  0  0  0  0  0  0
   -6.4932   19.5708   38.4659 N   0  0  0  0  0  0  0  0  0  0  0  0
   -6.7957   17.4670   39.7475 C   0  0  1  0  0  0  0  0  0  0  0  0
   -7.8693   18.0652   40.4776 O   0  0  0  0  0  0  0  0  0  0  0  0
   -7.0078   15.9517   39.5810 C   0  0  2  0  0  0  0  0  0  0  0  0
   -7.1179   15.3493   40.8715 O   0  0  0  0  0  0  0  0  0  0  0  0
   -5.8045   15.3326   38.7717 C   0  0  2  0  0  0  0  0  0  0  0  0
   -5.6814   15.9728   37.4447 O   0  0  0  0  0  0  0  0  0  0  0  0
   -5.9819   13.8079   38.5639 C   0  0  2  0  0  0  0  0  0  0  0  0
   -4.8409   13.2753   37.8885 O   0  0  0  0  0  0  0  0  0  0  0  0
   -7.2210   13.5067   37.7353 C   0  0  0  0  0  0  0  0  0  0  0  0
   -0.1246   17.6734   37.1981 C   0  0  2  0  0  0  0  0  0  0  0  0
    1.1710   17.2531   36.6586 N   0  0  0  0  0  0  0  0  0  0  0  0
   -0.6388   16.5246   38.1090 C   0  0  0  0  0  0  0  0  0  0  0  0
   -2.0019   16.9619   38.7105 C   0  0  2  0  0  0  0  0  0  0  0  0
   -2.5255   15.9029   39.5875 N   0  0  0  0  0  0  0  0  0  0  0  0
   -3.0357   17.2530   37.5897 C   0  0  2  0  0  0  0  0  0  0  0  0
   -2.4775   18.3773   36.6613 C   0  0  2  0  0  0  0  0  0  0  0  0
   -3.4283   18.6374   35.6197 O   0  0  0  0  0  0  0  0  0  0  0  0
   -1.1423   17.9412   36.0106 C   0  0  1  0  0  0  0  0  0  0  0  0
   -0.6887   19.0378   35.1790 O   0  0  0  0  0  0  0  0  0  0  0  0
    0.1756   18.6827   34.0742 C   0  0  2  0  0  0  0  0  0  0  0  0
    1.3749   19.7013   34.1118 C   0  0  2  0  0  0  0  0  0  0  0  0
    2.0723   19.5796   35.3415 O   0  0  0  0  0  0  0  0  0  0  0  0
    0.8130   21.1614   33.9241 C   0  0  1  0  0  0  0  0  0  0  0  0
    1.9192   22.1658   33.9634 N   0  0  0  0  0  0  0  0  0  0  0  0
    2.1368   22.5835   35.3651 C   0  0  0  0  0  0  0  0  0  0  0  0
    0.0669   21.2321   32.5570 C   0  0  2  0  0  0  0  0  0  0  0  0
    0.9946   20.9373   31.5139 O   0  0  0  0  0  0  0  0  0  0  0  0
   -0.5180   22.6188   32.3013 C   0  0  0  0  0  0  0  0  0  0  0  0
   -1.0797   20.1708   32.5439 C   0  0  0  0  0  0  0  0  0  0  0  0
   -0.5473   18.8147   32.7933 O   0  0  0  0  0  0  0  0  0  0  0  0
  1  3  1  0  0  0  0
  1  2  1  1  0  0  0
  3  5  1  0  0  0  0
  3  4  1  1  0  0  0
  5  6  1  6  0  0  0
  7  8  1  1  0  0  0
  7  5  1  0  0  0  0
  9 10  1  6  0  0  0
  9  7  1  0  0  0  0
 10  1  1  0  0  0  0
 11 13  1  6  0  0  0
 11  9  1  0  0  0  0
 12 11  1  0  0  0  0
 14 15  1  6  0  0  0
 16 14  1  0  0  0  0
 17 18  1  1  0  0  0
 17 16  1  0  0  0  0
 19  2  1  1  0  0  0
 19 20  1  0  0  0  0
 19 17  1  0  0  0  0
 20 21  1  6  0  0  0
 20 22  1  0  0  0  0
 22 23  1  6  0  0  0
 22 14  1  0  0  0  0
 24 23  1  1  0  0  0
 24 25  1  0  0  0  0
 25 27  1  0  0  0  0
 25 26  1  1  0  0  0
 27 28  1  6  0  0  0
 28 29  1  0  0  0  0
 30 31  1  6  0  0  0
 30 32  1  0  0  0  0
 30 27  1  0  0  0  0
 33 30  1  0  0  0  0
 34 33  1  0  0  0  0
 34 24  1  0  0  0  0
M  END
>  <CHROM.1>
-172.64523348,-177.04416592,-153.32718357,89.33735849,-133.35435437,-88.78622749
-2.62237157,18.07666021,36.56148004,2.38897073,-0.28367244,2.58742281

>  <Name>
lig.pdb

>  <RI>
0

>  <Rbt.Current_Directory>
/home/itssahil/PROJECTS/Mol_Feturizer/New_Systems/rnas/4k32

>  <Rbt.Executable>
rbdock ($Id: //depot/dev/client3/rdock/2013.1/src/exe/rbdock.cxx#4 $)

>  <Rbt.Library>
libRbt.so (2013.1, Build901 2013/11/27)

>  <Rbt.Parameter_File>
/export/apps/rDock/src/rDock_2013.1_src/data/scripts/dock_solv.prm

>  <Rbt.Receptor>
prm/pocket_docking_4.prm

>  <SCORE>
-11.7167

>  <SCORE.INTER>
-9.86889

>  <SCORE.INTER.CONST>
1

>  <SCORE.INTER.POLAR>
0

>  <SCORE.INTER.ROT>
6

>  <SCORE.INTER.SOLV>
18.6294

>  <SCORE.INTER.VDW>
-20.3891

>  <SCORE.INTER.norm>
-0.290262

>  <SCORE.INTRA>
-1.84778

>  <SCORE.INTRA.DIHEDRAL>
-4.32774

>  <SCORE.INTRA.DIHEDRAL.0>
18.0069

>  <SCORE.INTRA.POLAR>
0

>  <SCORE.INTRA.POLAR.0>
0

>  <SCORE.INTRA.REPUL>
0

>  <SCORE.INTRA.REPUL.0>
0

>  <SCORE.INTRA.SOLV>
0.263744

>  <SCORE.INTRA.SOLV.lig_0>
-70.7393

>  <SCORE.INTRA.VDW>
0.184222

>  <SCORE.INTRA.VDW.0>
-3.23471

>  <SCORE.INTRA.norm>
-0.0543464

>  <SCORE.RESTR>
0

>  <SCORE.RESTR.CAVITY>
0

>  <SCORE.RESTR.norm>
0

>  <SCORE.SYSTEM>
0

>  <SCORE.SYSTEM.CONST>
0

>  <SCORE.SYSTEM.DIHEDRAL>
0

>  <SCORE.SYSTEM.SOLV>
0

>  <SCORE.SYSTEM.norm>
0

>  <SCORE.heavy>
34

>  <SCORE.norm>
-0.344608

>  <RMSD>
9.305

$$$$
lig.pdb
 OpenBabel11021811503D
libRbt.so/2013.1/901 2013/11/27
 34 36  0  0  0  0  0  0  0  0999 V2000
   -2.3650   13.5412   36.1021 C   0  0  2  0  0  0  0  0  0  0  0  0
   -2.5788   14.9423   36.3053 O   0  0  0  0  0  0  0  0  0  0  0  0
   -2.7516   13.1845   34.6039 C   0  0  2  0  0  0  0  0  0  0  0  0
   -1.9242   13.9324   33.6287 N   0  0  0  0  0  0  0  0  0  0  0  0
   -4.2517   13.4949   34.3711 C   0  0  1  0  0  0  0  0  0  0  0  0
   -4.6205   13.1732   33.0280 O   0  0  0  0  0  0  0  0  0  0  0  0
   -5.0818   12.6908   35.3876 C   0  0  2  0  0  0  0  0  0  0  0  0
   -6.4684   12.9649   35.1815 O   0  0  0  0  0  0  0  0  0  0  0  0
   -4.6440   13.0743   36.8531 C   0  0  2  0  0  0  0  0  0  0  0  0
   -3.2039   12.8081   37.0559 O   0  0  0  0  0  0  0  0  0  0  0  0
   -5.4424   12.2762   37.9136 C   0  0  2  0  0  0  0  0  0  0  0  0
   -5.4789   10.8941   37.5532 O   0  0  0  0  0  0  0  0  0  0  0  0
   -6.8705   12.7867   38.0254 C   0  0  0  0  0  0  0  0  0  0  0  0
    0.3363   18.0754   36.2516 C   0  0  2  0  0  0  0  0  0  0  0  0
    1.4417   18.9353   35.8220 N   0  0  0  0  0  0  0  0  0  0  0  0
    0.8461   16.6087   36.1985 C   0  0  0  0  0  0  0  0  0  0  0  0
   -0.3055   15.6823   36.6744 C   0  0  2  0  0  0  0  0  0  0  0  0
    0.1358   14.2790   36.6456 N   0  0  0  0  0  0  0  0  0  0  0  0
   -1.5567   15.8417   35.7695 C   0  0  2  0  0  0  0  0  0  0  0  0
   -2.0227   17.3315   35.8027 C   0  0  2  0  0  0  0  0  0  0  0  0
   -3.1716   17.4800   34.9574 O   0  0  0  0  0  0  0  0  0  0  0  0
   -0.9058   18.2692   35.2834 C   0  0  1  0  0  0  0  0  0  0  0  0
   -1.4114   19.6252   35.3571 O   0  0  0  0  0  0  0  0  0  0  0  0
   -2.2236   20.0624   34.2422 C   0  0  2  0  0  0  0  0  0  0  0  0
   -1.2295   20.3120   33.0477 C   0  0  2  0  0  0  0  0  0  0  0  0
   -0.5544   19.1071   32.7227 O   0  0  0  0  0  0  0  0  0  0  0  0
   -0.2071   21.4381   33.4592 C   0  0  1  0  0  0  0  0  0  0  0  0
    0.7656   21.7020   32.3553 N   0  0  0  0  0  0  0  0  0  0  0  0
    2.1286   21.3834   32.8321 C   0  0  0  0  0  0  0  0  0  0  0  0
   -1.0070   22.7332   33.7959 C   0  0  2  0  0  0  0  0  0  0  0  0
   -1.7277   23.1408   32.6340 O   0  0  0  0  0  0  0  0  0  0  0  0
   -0.0855   23.8761   34.2145 C   0  0  0  0  0  0  0  0  0  0  0  0
   -2.0161   22.4266   34.9487 C   0  0  0  0  0  0  0  0  0  0  0  0
   -2.9222   21.3195   34.5772 O   0  0  0  0  0  0  0  0  0  0  0  0
  1  3  1  0  0  0  0
  1  2  1  6  0  0  0
  3  5  1  0  0  0  0
  3  4  1  6  0  0  0
  5  6  1  6  0  0  0
  7  8  1  1  0  0  0
  7  5  1  0  0  0  0
  9 10  1  6  0  0  0
  9  7  1  0  0  0  0
 10  1  1  0  0  0  0
 11 13  1  6  0  0  0
 11  9  1  0  0  0  0
 12 11  1  0  0  0  0
 14 15  1  6  0  0  0
 16 14  1  0  0  0  0
 17 18  1  6  0  0  0
 17 16  1  0  0  0  0
 19  2  1  1  0  0  0
 19 20  1  0  0  0  0
 19 17  1  0  0  0  0
 20 21  1  6  0  0  0
 20 22  1  0  0  0  0
 22 23  1  1  0  0  0
 22 14  1  0  0  0  0
 24 23  1  1  0  0  0
 24 25  1  0  0  0  0
 25 27  1  0  0  0  0
 25 26  1  1  0  0  0
 27 28  1  6  0  0  0
 28 29  1  0  0  0  0
 30 31  1  6  0  0  0
 30 32  1  0  0  0  0
 30 27  1  0  0  0  0
 33 30  1  0  0  0  0
 34 33  1  0  0  0  0
 34 24  1  0  0  0  0
M  END
>  <CHROM.1>
-77.84816722,46.56544187,-71.96411130,160.22692112,-74.34982080,-117.85546160
-2.13977751,17.03915337,35.09513392,-1.99602515,-0.14914064,-0.34172358

>  <Name>
lig.pdb

>  <RI>
0

>  <Rbt.Current_Directory>
/home/itssahil/PROJECTS/Mol_Feturizer/New_Systems/rnas/4k32

>  <Rbt.Executable>
rbdock ($Id: //depot/dev/client3/rdock/2013.1/src/exe/rbdock.cxx#4 $)

>  <Rbt.Library>
libRbt.so (2013.1, Build901 2013/11/27)

>  <Rbt.Parameter_File>
/export/apps/rDock/src/rDock_2013.1_src/data/scripts/dock_solv.prm

>  <Rbt.Receptor>
prm/pocket_docking_6.prm

>  <SCORE>
-9.32578

>  <SCORE.INTER>
-7.23753

>  <SCORE.INTER.CONST>
1

>  <SCORE.INTER.POLAR>
0

>  <SCORE.INTER.ROT>
6

>  <SCORE.INTER.SOLV>
17.5517

>  <SCORE.INTER.VDW>
-18.2756

>  <SCORE.INTER.norm>
-0.212869

>  <SCORE.INTRA>
-2.08824

>  <SCORE.INTRA.DIHEDRAL>
-11.2689

>  <SCORE.INTRA.DIHEDRAL.0>
18.0069

>  <SCORE.INTRA.POLAR>
0

>  <SCORE.INTRA.POLAR.0>
0

>  <SCORE.INTRA.REPUL>
0

>  <SCORE.INTRA.REPUL.0>
0

>  <SCORE.INTRA.SOLV>
3.04519

>  <SCORE.INTRA.SOLV.lig_0>
-70.7393

>  <SCORE.INTRA.VDW>
2.02363

>  <SCORE.INTRA.VDW.0>
-3.23471

>  <SCORE.INTRA.norm>
-0.0614189

>  <SCORE.RESTR>
0

>  <SCORE.RESTR.CAVITY>
0

>  <SCORE.RESTR.norm>
0

>  <SCORE.SYSTEM>
0

>  <SCORE.SYSTEM.CONST>
0

>  <SCORE.SYSTEM.DIHEDRAL>
0

>  <SCORE.SYSTEM.SOLV>
0

>  <SCORE.SYSTEM.norm>
0

>  <SCORE.heavy>
34

>  <SCORE.norm>
-0.274288

>  <RMSD>
9.315

$$$$
lig.pdb
 OpenBabel11021811503D
libRbt.so/2013.1/901 2013/11/27
 34 36  0  0  0  0  0  0  0  0999 V2000
   -4.2858   15.6980   35.6610 C   0  0  2  0  0  0  0  0  0  0  0  0
   -3.0172   15.6304   36.3215 O   0  0  0  0  0  0  0  0  0  0  0  0
   -5.3872   15.0746   36.6200 C   0  0  2  0  0  0  0  0  0  0  0  0
   -5.4842   15.8133   37.9006 N   0  0  0  0  0  0  0  0  0  0  0  0
   -5.0502   13.5870   36.8929 C   0  0  1  0  0  0  0  0  0  0  0  0
   -6.0357   13.0061   37.7500 O   0  0  0  0  0  0  0  0  0  0  0  0
   -4.9735   12.8470   35.5456 C   0  0  2  0  0  0  0  0  0  0  0  0
   -4.6668   11.4722   35.7830 O   0  0  0  0  0  0  0  0  0  0  0  0
   -3.8775   13.5185   34.6321 C   0  0  2  0  0  0  0  0  0  0  0  0
   -4.1877   14.9462   34.4056 O   0  0  0  0  0  0  0  0  0  0  0  0
   -3.7750   12.8164   33.2553 C   0  0  2  0  0  0  0  0  0  0  0  0
   -3.5213   11.4225   33.4402 O   0  0  0  0  0  0  0  0  0  0  0  0
   -2.6508   13.4078   32.4191 C   0  0  0  0  0  0  0  0  0  0  0  0
    0.3531   18.2411   35.9443 C   0  0  2  0  0  0  0  0  0  0  0  0
    1.5444   18.9002   35.4034 N   0  0  0  0  0  0  0  0  0  0  0  0
    0.6121   16.7099   35.8964 C   0  0  0  0  0  0  0  0  0  0  0  0
   -0.6315   15.9935   36.4890 C   0  0  2  0  0  0  0  0  0  0  0  0
   -0.4275   14.5365   36.4688 N   0  0  0  0  0  0  0  0  0  0  0  0
   -1.9102   16.3404   35.6801 C   0  0  2  0  0  0  0  0  0  0  0  0
   -2.1241   17.8868   35.7040 C   0  0  2  0  0  0  0  0  0  0  0  0
   -3.2991   18.2071   34.9468 O   0  0  0  0  0  0  0  0  0  0  0  0
   -0.9163   18.6192   35.0706 C   0  0  1  0  0  0  0  0  0  0  0  0
   -1.1875   20.0409   35.1419 O   0  0  0  0  0  0  0  0  0  0  0  0
   -2.1324   20.5572   34.1753 C   0  0  2  0  0  0  0  0  0  0  0  0
   -1.3195   20.7849   32.8469 C   0  0  2  0  0  0  0  0  0  0  0  0
   -0.7775   19.5534   32.3965 O   0  0  0  0  0  0  0  0  0  0  0  0
   -0.1789   21.8375   33.1185 C   0  0  1  0  0  0  0  0  0  0  0  0
    0.6276   22.0780   31.8832 N   0  0  0  0  0  0  0  0  0  0  0  0
    2.0119   21.6136   32.1175 C   0  0  0  0  0  0  0  0  0  0  0  0
   -0.8367   23.1659   33.6017 C   0  0  2  0  0  0  0  0  0  0  0  0
   -1.7004   23.6488   32.5739 O   0  0  0  0  0  0  0  0  0  0  0  0
    0.2065   24.2408   33.8962 C   0  0  0  0  0  0  0  0  0  0  0  0
   -1.6743   22.8834   34.8900 C   0  0  0  0  0  0  0  0  0  0  0  0
   -2.6928   21.8419   34.6403 O   0  0  0  0  0  0  0  0  0  0  0  0
  1  3  1  0  0  0  0
  1  2  1  1  0  0  0
  3  5  1  0  0  0  0
  3  4  1  1  0  0  0
  5  6  1  1  0  0  0
  7  8  1  1  0  0  0
  7  5  1  0  0  0  0
  9 10  1  6  0  0  0
  9  7  1  0  0  0  0
 10  1  1  0  0  0  0
 11 13  1  6  0  0  0
 11  9  1  0  0  0  0
 12 11  1  0  0  0  0
 14 15  1  6  0  0  0
 16 14  1  0  0  0  0
 17 18  1  6  0  0  0
 17 16  1  0  0  0  0
 19  2  1  1  0  0  0
 19 20  1  0  0  0  0
 19 17  1  0  0  0  0
 20 21  1  6  0  0  0
 20 22  1  0  0  0  0
 22 23  1  1  0  0  0
 22 14  1  0  0  0  0
 24 23  1  1  0  0  0
 24 25  1  0  0  0  0
 25 27  1  0  0  0  0
 25 26  1  1  0  0  0
 27 28  1  6  0  0  0
 28 29  1  0  0  0  0
 30 31  1  6  0  0  0
 30 32  1  0  0  0  0
 30 27  1  0  0  0  0
 33 30  1  0  0  0  0
 34 33  1  0  0  0  0
 34 24  1  0  0  0  0
M  END
>  <CHROM.1>
-171.01455005,-55.80405502,-174.01302367,167.27420507,-82.10576527,-115.45162538
-2.17723194,17.54815102,34.78981233,2.06208303,-0.57952602,-3.09324070

>  <Name>
lig.pdb

>  <RI>
0

>  <Rbt.Current_Directory>
/home/itssahil/PROJECTS/Mol_Feturizer/New_Systems/rnas/4k32

>  <Rbt.Executable>
rbdock ($Id: //depot/dev/client3/rdock/2013.1/src/exe/rbdock.cxx#4 $)

>  <Rbt.Library>
libRbt.so (2013.1, Build901 2013/11/27)

>  <Rbt.Parameter_File>
/export/apps/rDock/src/rDock_2013.1_src/data/scripts/dock_solv.prm

>  <Rbt.Receptor>
prm/pocket_docking_5.prm

>  <SCORE>
-13.5287

>  <SCORE.INTER>
-6.9854

>  <SCORE.INTER.CONST>
1

>  <SCORE.INTER.POLAR>
0

>  <SCORE.INTER.ROT>
6

>  <SCORE.INTER.SOLV>
16.8676

>  <SCORE.INTER.VDW>
-17.8795

>  <SCORE.INTER.norm>
-0.205453

>  <SCORE.INTRA>
-6.54326

>  <SCORE.INTRA.DIHEDRAL>
-13.2058

>  <SCORE.INTRA.DIHEDRAL.0>
18.0069

>  <SCORE.INTRA.POLAR>
0

>  <SCORE.INTRA.POLAR.0>
0

>  <SCORE.INTRA.REPUL>
0

>  <SCORE.INTRA.REPUL.0>
0

>  <SCORE.INTRA.SOLV>
-1.6113

>  <SCORE.INTRA.SOLV.lig_0>
-70.7393

>  <SCORE.INTRA.VDW>
0.865273

>  <SCORE.INTRA.VDW.0>
-3.23471

>  <SCORE.INTRA.norm>
-0.192449

>  <SCORE.RESTR>
0

>  <SCORE.RESTR.CAVITY>
0

>  <SCORE.RESTR.norm>
0

>  <SCORE.SYSTEM>
0

>  <SCORE.SYSTEM.CONST>
0

>  <SCORE.SYSTEM.DIHEDRAL>
0

>  <SCORE.SYSTEM.SOLV>
0

>  <SCORE.SYSTEM.norm>
0

>  <SCORE.heavy>
34

>  <SCORE.norm>
-0.397902

>  <RMSD>
9.332

$$$$
lig.pdb
 OpenBabel11021811503D
libRbt.so/2013.1/901 2013/11/27
 34 36  0  0  0  0  0  0  0  0999 V2000
   -2.1673   15.2947   35.5138 C   0  0  2  0  0  0  0  0  0  0  0  0
   -1.1142   15.8962   36.2750 O   0  0  0  0  0  0  0  0  0  0  0  0
   -2.9632   14.2953   36.4567 C   0  0  2  0  0  0  0  0  0  0  0  0
   -3.5623   14.9930   37.6182 N   0  0  0  0  0  0  0  0  0  0  0  0
   -2.0074   13.1786   36.9471 C   0  0  1  0  0  0  0  0  0  0  0  0
   -2.7086   12.2639   37.7928 O   0  0  0  0  0  0  0  0  0  0  0  0
   -1.4166   12.4647   35.7183 C   0  0  2  0  0  0  0  0  0  0  0  0
   -0.5356   11.4293   36.1565 O   0  0  0  0  0  0  0  0  0  0  0  0
   -0.6541   13.5072   34.8138 C   0  0  2  0  0  0  0  0  0  0  0  0
   -1.5644   14.5880   34.3790 O   0  0  0  0  0  0  0  0  0  0  0  0
   -0.0547   12.8366   33.5527 C   0  0  2  0  0  0  0  0  0  0  0  0
   -1.0203   11.9638   32.9632 O   0  0  0  0  0  0  0  0  0  0  0  0
    1.1853   12.0266   33.8977 C   0  0  0  0  0  0  0  0  0  0  0  0
    1.2108   19.4423   35.6950 C   0  0  2  0  0  0  0  0  0  0  0  0
    2.1285   20.4188   35.1030 N   0  0  0  0  0  0  0  0  0  0  0  0
    1.9624   18.0841   35.7596 C   0  0  0  0  0  0  0  0  0  0  0  0
    1.0131   17.0400   36.4075 C   0  0  2  0  0  0  0  0  0  0  0  0
    1.6877   15.7353   36.4944 N   0  0  0  0  0  0  0  0  0  0  0  0
   -0.2907   16.8855   35.5793 C   0  0  2  0  0  0  0  0  0  0  0  0
   -1.0042   18.2713   35.4895 C   0  0  2  0  0  0  0  0  0  0  0  0
   -2.2026   18.1298   34.7145 O   0  0  0  0  0  0  0  0  0  0  0  0
   -0.0932   19.3157   34.7998 C   0  0  1  0  0  0  0  0  0  0  0  0
   -0.8206   20.5685   34.7667 O   0  0  0  0  0  0  0  0  0  0  0  0
   -1.9531   20.6226   33.8676 C   0  0  2  0  0  0  0  0  0  0  0  0
   -1.3573   20.8254   32.4249 C   0  0  2  0  0  0  0  0  0  0  0  0
   -0.5165   19.7318   32.0927 O   0  0  0  0  0  0  0  0  0  0  0  0
   -0.5586   22.1831   32.3868 C   0  0  1  0  0  0  0  0  0  0  0  0
    0.0351   22.4127   31.0344 N   0  0  0  0  0  0  0  0  0  0  0  0
    1.4744   22.0767   31.0802 C   0  0  0  0  0  0  0  0  0  0  0  0
   -1.5354   23.3419   32.7522 C   0  0  2  0  0  0  0  0  0  0  0  0
   -2.5859   23.3760   31.7874 O   0  0  0  0  0  0  0  0  0  0  0  0
   -0.8341   24.6978   32.7462 C   0  0  0  0  0  0  0  0  0  0  0  0
   -2.1419   23.0735   34.1669 C   0  0  0  0  0  0  0  0  0  0  0  0
   -2.8259   21.7639   34.2088 O   0  0  0  0  0  0  0  0  0  0  0  0
  1  3  1  0  0  0  0
  1  2  1  1  0  0  0
  3  5  1  0  0  0  0
  3  4  1  1  0  0  0
  5  6  1  1  0  0  0
  7  8  1  1  0  0  0
  7  5  1  0  0  0  0
  9 10  1  6  0  0  0
  9  7  1  0  0  0  0
 10  1  1  0  0  0  0
 11 13  1  1  0  0  0
 11  9  1  0  0  0  0
 12 11  1  0  0  0  0
 14 15  1  6  0  0  0
 16 14  1  0  0  0  0
 17 18  1  6  0  0  0
 17 16  1  0  0  0  0
 19  2  1  1  0  0  0
 19 20  1  0  0  0  0
 19 17  1  0  0  0  0
 20 21  1  6  0  0  0
 20 22  1  0  0  0  0
 22 23  1  1  0  0  0
 22 14  1  0  0  0  0
 24 23  1  1  0  0  0
 24 25  1  0  0  0  0
 25 27  1  0  0  0  0
 25 26  1  1  0  0  0
 27 28  1  6  0  0  0
 28 29  1  0  0  0  0
 30 31  1  6  0  0  0
 30 32  1  0  0  0  0
 30 27  1  0  0  0  0
 33 30  1  0  0  0  0
 34 33  1  0  0  0  0
 34 24  1  0  0  0  0
M  END
>  <CHROM.1>
-178.19935611,44.99612511,-161.94809547,173.63098928,-77.96384003,-101.86080276
-0.83535766,17.70987508,34.55269116,1.60059362,-0.54044539,2.85708261

>  <Name>
lig.pdb

>  <RI>
0

>  <Rbt.Current_Directory>
/home/itssahil/PROJECTS/Mol_Feturizer/New_Systems/rnas/4k32

>  <Rbt.Executable>
rbdock ($Id: //depot/dev/client3/rdock/2013.1/src/exe/rbdock.cxx#4 $)

>  <Rbt.Library>
libRbt.so (2013.1, Build901 2013/11/27)

>  <Rbt.Parameter_File>
/export/apps/rDock/src/rDock_2013.1_src/data/scripts/dock_solv.prm

>  <Rbt.Receptor>
prm/pocket_docking_5.prm

>  <SCORE>
-14.9194

>  <SCORE.INTER>
-9.33903

>  <SCORE.INTER.CONST>
1

>  <SCORE.INTER.POLAR>
0

>  <SCORE.INTER.ROT>
6

>  <SCORE.INTER.SOLV>
17.9517

>  <SCORE.INTER.VDW>
-19.8099

>  <SCORE.INTER.norm>
-0.274677

>  <SCORE.INTRA>
-5.58036

>  <SCORE.INTRA.DIHEDRAL>
-13.0391

>  <SCORE.INTRA.DIHEDRAL.0>
18.0069

>  <SCORE.INTRA.POLAR>
0

>  <SCORE.INTRA.POLAR.0>
0

>  <SCORE.INTRA.REPUL>
0

>  <SCORE.INTRA.REPUL.0>
0

>  <SCORE.INTRA.SOLV>
-1.07819

>  <SCORE.INTRA.SOLV.lig_0>
-70.7393

>  <SCORE.INTRA.VDW>
1.47826

>  <SCORE.INTRA.VDW.0>
-3.23471

>  <SCORE.INTRA.norm>
-0.164128

>  <SCORE.RESTR>
0

>  <SCORE.RESTR.CAVITY>
0

>  <SCORE.RESTR.norm>
0

>  <SCORE.SYSTEM>
0

>  <SCORE.SYSTEM.CONST>
0

>  <SCORE.SYSTEM.DIHEDRAL>
0

>  <SCORE.SYSTEM.SOLV>
0

>  <SCORE.SYSTEM.norm>
0

>  <SCORE.heavy>
34

>  <SCORE.norm>
-0.438805

>  <RMSD>
9.375

$$$$
lig.pdb
 OpenBabel11021811503D
libRbt.so/2013.1/901 2013/11/27
 34 36  0  0  0  0  0  0  0  0999 V2000
   -1.0354   14.5067   36.9106 C   0  0  2  0  0  0  0  0  0  0  0  0
   -1.2475   15.9188   37.0167 O   0  0  0  0  0  0  0  0  0  0  0  0
   -1.7994   13.9776   35.6231 C   0  0  2  0  0  0  0  0  0  0  0  0
   -1.3029   14.6217   34.3847 N   0  0  0  0  0  0  0  0  0  0  0  0
   -3.3184   14.2391   35.7817 C   0  0  1  0  0  0  0  0  0  0  0  0
   -4.0245   13.7626   34.6338 O   0  0  0  0  0  0  0  0  0  0  0  0
   -3.8037   13.5438   37.0661 C   0  0  2  0  0  0  0  0  0  0  0  0
   -5.2047   13.7739   37.2227 O   0  0  0  0  0  0  0  0  0  0  0  0
   -3.0006   14.0966   38.3055 C   0  0  2  0  0  0  0  0  0  0  0  0
   -1.5494   13.8748   38.1302 O   0  0  0  0  0  0  0  0  0  0  0  0
   -3.4437   13.4127   39.6227 C   0  0  2  0  0  0  0  0  0  0  0  0
   -4.8327   13.6575   39.8519 O   0  0  0  0  0  0  0  0  0  0  0  0
   -2.6549   13.9431   40.8097 C   0  0  0  0  0  0  0  0  0  0  0  0
    1.1655   19.1890   35.6754 C   0  0  2  0  0  0  0  0  0  0  0  0
    2.0311   20.0232   34.8381 N   0  0  0  0  0  0  0  0  0  0  0  0
    1.8311   17.7887   35.7743 C   0  0  0  0  0  0  0  0  0  0  0  0
    0.9394   16.8958   36.6791 C   0  0  2  0  0  0  0  0  0  0  0  0
    1.5362   15.5569   36.8060 N   0  0  0  0  0  0  0  0  0  0  0  0
   -0.4910   16.7625   36.0912 C   0  0  2  0  0  0  0  0  0  0  0  0
   -1.1216   18.1847   35.9584 C   0  0  2  0  0  0  0  0  0  0  0  0
   -2.4386   18.0613   35.4045 O   0  0  0  0  0  0  0  0  0  0  0  0
   -0.2745   19.0766   35.0186 C   0  0  1  0  0  0  0  0  0  0  0  0
   -0.9177   20.3738   34.9588 O   0  0  0  0  0  0  0  0  0  0  0  0
   -2.0363   20.4876   34.0481 C   0  0  2  0  0  0  0  0  0  0  0  0
   -1.4159   20.6319   32.6087 C   0  0  2  0  0  0  0  0  0  0  0  0
   -0.6438   19.4824   32.2992 O   0  0  0  0  0  0  0  0  0  0  0  0
   -0.5318   21.9352   32.5603 C   0  0  1  0  0  0  0  0  0  0  0  0
    0.0874   22.1077   31.2108 N   0  0  0  0  0  0  0  0  0  0  0  0
    1.5253   21.7740   31.2979 C   0  0  0  0  0  0  0  0  0  0  0  0
   -1.4358   23.1589   32.9007 C   0  0  2  0  0  0  0  0  0  0  0  0
   -2.4733   23.2465   31.9253 O   0  0  0  0  0  0  0  0  0  0  0  0
   -0.6492   24.4671   32.8835 C   0  0  0  0  0  0  0  0  0  0  0  0
   -2.0707   22.9494   34.3129 C   0  0  0  0  0  0  0  0  0  0  0  0
   -2.8374   21.6868   34.3655 O   0  0  0  0  0  0  0  0  0  0  0  0
  1  3  1  0  0  0  0
  1  2  1  1  0  0  0
  3  5  1  0  0  0  0
  3  4  1  6  0  0  0
  5  6  1  6  0  0  0
  7  8  1  1  0  0  0
  7  5  1  0  0  0  0
  9 10  1  6  0  0  0
  9  7  1  0  0  0  0
 10  1  1  0  0  0  0
 11 13  1  1  0  0  0
 11  9  1  0  0  0  0
 12 11  1  0  0  0  0
 14 15  1  6  0  0  0
 16 14  1  0  0  0  0
 17 18  1  6  0  0  0
 17 16  1  0  0  0  0
 19  2  1  1  0  0  0
 19 20  1  0  0  0  0
 19 17  1  0  0  0  0
 20 21  1  6  0  0  0
 20 22  1  0  0  0  0
 22 23  1  1  0  0  0
 22 14  1  0  0  0  0
 24 23  1  1  0  0  0
 24 25  1  0  0  0  0
 25 27  1  0  0  0  0
 25 26  1  1  0  0  0
 27 28  1  6  0  0  0
 28 29  1  0  0  0  0
 30 31  1  6  0  0  0
 30 32  1  0  0  0  0
 30 27  1  0  0  0  0
 33 30  1  0  0  0  0
 34 33  1  0  0  0  0
 34 24  1  0  0  0  0
M  END
>  <CHROM.1>
-75.44808010,-60.28558051,-79.84218563,162.38825539,-78.13986671,-105.88910384
-1.43895302,17.85744573,35.38414715,-1.80026618,-0.01685010,-0.55804997

>  <Name>
lig.pdb

>  <RI>
0

>  <Rbt.Current_Directory>
/home/itssahil/PROJECTS/Mol_Feturizer/New_Systems/rnas/4k32

>  <Rbt.Executable>
rbdock ($Id: //depot/dev/client3/rdock/2013.1/src/exe/rbdock.cxx#4 $)

>  <Rbt.Library>
libRbt.so (2013.1, Build901 2013/11/27)

>  <Rbt.Parameter_File>
/export/apps/rDock/src/rDock_2013.1_src/data/scripts/dock_solv.prm

>  <Rbt.Receptor>
prm/pocket_docking_8.prm

>  <SCORE>
-9.09061

>  <SCORE.INTER>
-5.83327

>  <SCORE.INTER.CONST>
1

>  <SCORE.INTER.POLAR>
0

>  <SCORE.INTER.ROT>
6

>  <SCORE.INTER.SOLV>
17.9225

>  <SCORE.INTER.VDW>
-17.463

>  <SCORE.INTER.norm>
-0.171567

>  <SCORE.INTRA>
-3.25733

>  <SCORE.INTRA.DIHEDRAL>
-11.0965

>  <SCORE.INTRA.DIHEDRAL.0>
18.0069

>  <SCORE.INTRA.POLAR>
0

>  <SCORE.INTRA.POLAR.0>
0

>  <SCORE.INTRA.REPUL>
0

>  <SCORE.INTRA.REPUL.0>
0

>  <SCORE.INTRA.SOLV>
2.52414

>  <SCORE.INTRA.SOLV.lig_0>
-70.7393

>  <SCORE.INTRA.VDW>
1.02887

>  <SCORE.INTRA.VDW.0>
-3.23471

>  <SCORE.INTRA.norm>
-0.0958039

>  <SCORE.RESTR>
0

>  <SCORE.RESTR.CAVITY>
0

>  <SCORE.RESTR.norm>
0

>  <SCORE.SYSTEM>
0

>  <SCORE.SYSTEM.CONST>
0

>  <SCORE.SYSTEM.DIHEDRAL>
0

>  <SCORE.SYSTEM.SOLV>
0

>  <SCORE.SYSTEM.norm>
0

>  <SCORE.heavy>
34

>  <SCORE.norm>
-0.267371

>  <RMSD>
9.417

$$$$
lig.pdb
 OpenBabel11021811503D
libRbt.so/2013.1/901 2013/11/27
 34 36  0  0  0  0  0  0  0  0999 V2000
   -1.1229   14.5252   36.8766 C   0  0  2  0  0  0  0  0  0  0  0  0
   -1.2830   15.9418   37.0107 O   0  0  0  0  0  0  0  0  0  0  0  0
   -1.8936   14.0523   35.5714 C   0  0  2  0  0  0  0  0  0  0  0  0
   -1.3615   14.7029   34.3514 N   0  0  0  0  0  0  0  0  0  0  0  0
   -3.4032   14.3673   35.7221 C   0  0  1  0  0  0  0  0  0  0  0  0
   -4.1157   13.9418   34.5582 O   0  0  0  0  0  0  0  0  0  0  0  0
   -3.9266   13.6642   36.9872 C   0  0  2  0  0  0  0  0  0  0  0  0
   -5.3195   13.9435   37.1362 O   0  0  0  0  0  0  0  0  0  0  0  0
   -3.1154   14.1604   38.2450 C   0  0  2  0  0  0  0  0  0  0  0  0
   -1.6718   13.8878   38.0779 O   0  0  0  0  0  0  0  0  0  0  0  0
   -3.5964   13.4663   39.5435 C   0  0  2  0  0  0  0  0  0  0  0  0
   -4.9779   13.7566   39.7644 O   0  0  0  0  0  0  0  0  0  0  0  0
   -2.8013   13.9436   40.7488 C   0  0  0  0  0  0  0  0  0  0  0  0
    1.1889   19.1753   35.6876 C   0  0  2  0  0  0  0  0  0  0  0  0
    2.0720   19.9969   34.8562 N   0  0  0  0  0  0  0  0  0  0  0  0
    1.8315   17.7642   35.7871 C   0  0  0  0  0  0  0  0  0  0  0  0
    0.9211   16.8842   36.6859 C   0  0  2  0  0  0  0  0  0  0  0  0
    1.4957   15.5356   36.8132 N   0  0  0  0  0  0  0  0  0  0  0  0
   -0.5084   16.7750   36.0906 C   0  0  2  0  0  0  0  0  0  0  0  0
   -1.1154   18.2073   35.9573 C   0  0  2  0  0  0  0  0  0  0  0  0
   -2.4314   18.1060   35.3966 O   0  0  0  0  0  0  0  0  0  0  0  0
   -0.2494   19.0872   35.0234 C   0  0  1  0  0  0  0  0  0  0  0  0
   -0.8713   20.3946   34.9629 O   0  0  0  0  0  0  0  0  0  0  0  0
   -2.0103   20.5167   34.0788 C   0  0  2  0  0  0  0  0  0  0  0  0
   -1.4229   20.6664   32.6263 C   0  0  2  0  0  0  0  0  0  0  0  0
   -0.6619   19.5161   32.2932 O   0  0  0  0  0  0  0  0  0  0  0  0
   -0.5358   21.9672   32.5641 C   0  0  1  0  0  0  0  0  0  0  0  0
    0.0526   22.1446   31.2015 N   0  0  0  0  0  0  0  0  0  0  0  0
    1.5084   21.8956   31.2728 C   0  0  0  0  0  0  0  0  0  0  0  0
   -1.4277   23.1920   32.9315 C   0  0  2  0  0  0  0  0  0  0  0  0
   -2.4871   23.2879   31.9808 O   0  0  0  0  0  0  0  0  0  0  0  0
   -0.6374   24.4978   32.9028 C   0  0  0  0  0  0  0  0  0  0  0  0
   -2.0305   22.9772   34.3569 C   0  0  0  0  0  0  0  0  0  0  0  0
   -2.7999   21.7168   34.4208 O   0  0  0  0  0  0  0  0  0  0  0  0
  1  3  1  0  0  0  0
  1  2  1  1  0  0  0
  3  5  1  0  0  0  0
  3  4  1  6  0  0  0
  5  6  1  6  0  0  0
  7  8  1  1  0  0  0
  7  5  1  0  0  0  0
  9 10  1  6  0  0  0
  9  7  1  0  0  0  0
 10  1  1  0  0  0  0
 11 13  1  1  0  0  0
 11  9  1  0  0  0  0
 12 11  1  0  0  0  0
 14 15  1  6  0  0  0
 16 14  1  0  0  0  0
 17 18  1  6  0  0  0
 17 16  1  0  0  0  0
 19  2  1  1  0  0  0
 19 20  1  0  0  0  0
 19 17  1  0  0  0  0
 20 21  1  6  0  0  0
 20 22  1  0  0  0  0
 22 23  1  1  0  0  0
 22 14  1  0  0  0  0
 24 23  1  1  0  0  0
 24 25  1  0  0  0  0
 25 27  1  0  0  0  0
 25 26  1  1  0  0  0
 27 28  1  6  0  0  0
 28 29  1  0  0  0  0
 30 31  1  6  0  0  0
 30 32  1  0  0  0  0
 30 27  1  0  0  0  0
 33 30  1  0  0  0  0
 34 33  1  0  0  0  0
 34 24  1  0  0  0  0
M  END
>  <CHROM.1>
-74.16913908,-60.19100577,-81.62480648,164.30034033,-79.45122282,-109.71279447
-1.47663992,17.90231568,35.36932339,-1.81343393,-0.01665046,-0.55472588

>  <Name>
lig.pdb

>  <RI>
0

>  <Rbt.Current_Directory>
/home/itssahil/PROJECTS/Mol_Feturizer/New_Systems/rnas/4k32

>  <Rbt.Executable>
rbdock ($Id: //depot/dev/client3/rdock/2013.1/src/exe/rbdock.cxx#4 $)

>  <Rbt.Library>
libRbt.so (2013.1, Build901 2013/11/27)

>  <Rbt.Parameter_File>
/export/apps/rDock/src/rDock_2013.1_src/data/scripts/dock_solv.prm

>  <Rbt.Receptor>
prm/pocket_docking_5.prm

>  <SCORE>
-9.17467

>  <SCORE.INTER>
-5.87892

>  <SCORE.INTER.CONST>
1

>  <SCORE.INTER.POLAR>
0

>  <SCORE.INTER.ROT>
6

>  <SCORE.INTER.SOLV>
18.205

>  <SCORE.INTER.VDW>
-17.5876

>  <SCORE.INTER.norm>
-0.172909

>  <SCORE.INTRA>
-3.29575

>  <SCORE.INTRA.DIHEDRAL>
-10.9633

>  <SCORE.INTRA.DIHEDRAL.0>
18.0069

>  <SCORE.INTRA.POLAR>
0

>  <SCORE.INTRA.POLAR.0>
0

>  <SCORE.INTRA.REPUL>
0

>  <SCORE.INTRA.REPUL.0>
0

>  <SCORE.INTRA.SOLV>
2.36677

>  <SCORE.INTRA.SOLV.lig_0>
-70.7393

>  <SCORE.INTRA.VDW>
1.00254

>  <SCORE.INTRA.VDW.0>
-3.23471

>  <SCORE.INTRA.norm>
-0.0969337

>  <SCORE.RESTR>
0

>  <SCORE.RESTR.CAVITY>
0

>  <SCORE.RESTR.norm>
0

>  <SCORE.SYSTEM>
0

>  <SCORE.SYSTEM.CONST>
0

>  <SCORE.SYSTEM.DIHEDRAL>
0

>  <SCORE.SYSTEM.SOLV>
0

>  <SCORE.SYSTEM.norm>
0

>  <SCORE.heavy>
34

>  <SCORE.norm>
-0.269843

>  <RMSD>
9.422

$$$$
lig.pdb
 OpenBabel11021811503D
libRbt.so/2013.1/901 2013/11/27
 34 36  0  0  0  0  0  0  0  0999 V2000
   -2.3099   10.8070   37.3936 C   0  0  2  0  0  0  0  0  0  0  0  0
   -2.2411    9.3820   37.2713 O   0  0  0  0  0  0  0  0  0  0  0  0
   -1.4805   11.2434   38.6754 C   0  0  2  0  0  0  0  0  0  0  0  0
   -0.0563   10.8490   38.5705 N   0  0  0  0  0  0  0  0  0  0  0  0
   -2.1127   10.6074   39.9390 C   0  0  1  0  0  0  0  0  0  0  0  0
   -1.3829   10.9951   41.1055 O   0  0  0  0  0  0  0  0  0  0  0  0
   -3.5842   11.0500   40.0264 C   0  0  2  0  0  0  0  0  0  0  0  0
   -4.1787   10.4733   41.1901 O   0  0  0  0  0  0  0  0  0  0  0  0
   -4.3514   10.6044   38.7228 C   0  0  2  0  0  0  0  0  0  0  0  0
   -3.7208   11.1870   37.5192 O   0  0  0  0  0  0  0  0  0  0  0  0
   -5.8363   11.0434   38.7573 C   0  0  2  0  0  0  0  0  0  0  0  0
   -6.4664   10.5283   39.9317 O   0  0  0  0  0  0  0  0  0  0  0  0
   -6.5890   10.5325   37.5387 C   0  0  0  0  0  0  0  0  0  0  0  0
   -3.3509    7.1133   33.8162 C   0  0  2  0  0  0  0  0  0  0  0  0
   -4.1579    6.3802   32.8377 N   0  0  0  0  0  0  0  0  0  0  0  0
   -3.6548    6.5042   35.2128 C   0  0  0  0  0  0  0  0  0  0  0  0
   -2.7893    7.2530   36.2622 C   0  0  2  0  0  0  0  0  0  0  0  0
   -3.0413    6.7036   37.6036 N   0  0  0  0  0  0  0  0  0  0  0  0
   -3.1104    8.7718   36.2650 C   0  0  2  0  0  0  0  0  0  0  0  0
   -2.8416    9.3518   34.8406 C   0  0  2  0  0  0  0  0  0  0  0  0
   -3.1495   10.7525   34.8413 O   0  0  0  0  0  0  0  0  0  0  0  0
   -3.7324    8.6532   33.7848 C   0  0  1  0  0  0  0  0  0  0  0  0
   -3.4153    9.2377   32.4973 O   0  0  0  0  0  0  0  0  0  0  0  0
   -4.4725    9.2122   31.5097 C   0  0  2  0  0  0  0  0  0  0  0  0
   -3.9311   10.0139   30.2681 C   0  0  2  0  0  0  0  0  0  0  0  0
   -2.7659    9.3845   29.7587 O   0  0  0  0  0  0  0  0  0  0  0  0
   -3.6250   11.4954   30.7089 C   0  0  1  0  0  0  0  0  0  0  0  0
   -3.0974   12.2934   29.5605 N   0  0  0  0  0  0  0  0  0  0  0  0
   -1.6630   12.5707   29.7893 C   0  0  0  0  0  0  0  0  0  0  0  0
   -4.9411   12.1321   31.2503 C   0  0  2  0  0  0  0  0  0  0  0  0
   -5.9122   12.1336   30.2051 O   0  0  0  0  0  0  0  0  0  0  0  0
   -4.7274   13.5725   31.7087 C   0  0  0  0  0  0  0  0  0  0  0  0
   -5.4700   11.2763   32.4457 C   0  0  0  0  0  0  0  0  0  0  0  0
   -5.6839    9.8722   32.0365 O   0  0  0  0  0  0  0  0  0  0  0  0
  1  3  1  0  0  0  0
  1  2  1  1  0  0  0
  3  5  1  0  0  0  0
  3  4  1  6  0  0  0
  5  6  1  1  0  0  0
  7  8  1  1  0  0  0
  7  5  1  0  0  0  0
  9 10  1  6  0  0  0
  9  7  1  0  0  0  0
 10  1  1  0  0  0  0
 11 13  1  6  0  0  0
 11  9  1  0  0  0  0
 12 11  1  0  0  0  0
 14 15  1  6  0  0  0
 16 14  1  0  0  0  0
 17 18  1  1  0  0  0
 17 16  1  0  0  0  0
 19  2  1  1  0  0  0
 19 20  1  0  0  0  0
 19 17  1  0  0  0  0
 20 21  1  1  0  0  0
 20 22  1  0  0  0  0
 22 23  1  6  0  0  0
 22 14  1  0  0  0  0
 24 23  1  1  0  0  0
 24 25  1  0  0  0  0
 25 27  1  0  0  0  0
 25 26  1  1  0  0  0
 27 28  1  6  0  0  0
 28 29  1  0  0  0  0
 30 31  1  6  0  0  0
 30 32  1  0  0  0  0
 30 27  1  0  0  0  0
 33 30  1  0  0  0  0
 34 33  1  0  0  0  0
 34 24  1  0  0  0  0
M  END
>  <CHROM.1>
171.08646484,-56.11739641,176.43444122,91.05410304,174.86399798,-109.34128214
-3.65887951,10.14258240,35.11787562,1.20861097,-1.33827430,1.27811246

>  <Name>
lig.pdb

>  <RI>
0

>  <Rbt.Current_Directory>
/home/itssahil/PROJECTS/Mol_Feturizer/New_Systems/rnas/4k32

>  <Rbt.Executable>
rbdock ($Id: //depot/dev/client3/rdock/2013.1/src/exe/rbdock.cxx#4 $)

>  <Rbt.Library>
libRbt.so (2013.1, Build901 2013/11/27)

>  <Rbt.Parameter_File>
/export/apps/rDock/src/rDock_2013.1_src/data/scripts/dock_solv.prm

>  <Rbt.Receptor>
prm/pocket_docking_8.prm

>  <SCORE>
-8.47818

>  <SCORE.INTER>
-1.7734

>  <SCORE.INTER.CONST>
1

>  <SCORE.INTER.POLAR>
0

>  <SCORE.INTER.ROT>
6

>  <SCORE.INTER.SOLV>
16.4519

>  <SCORE.INTER.VDW>
-14.2662

>  <SCORE.INTER.norm>
-0.0521589

>  <SCORE.INTRA>
-6.70478

>  <SCORE.INTRA.DIHEDRAL>
-12.4434

>  <SCORE.INTRA.DIHEDRAL.0>
18.0069

>  <SCORE.INTRA.POLAR>
0

>  <SCORE.INTRA.POLAR.0>
0

>  <SCORE.INTRA.REPUL>
0

>  <SCORE.INTRA.REPUL.0>
0

>  <SCORE.INTRA.SOLV>
-2.13399

>  <SCORE.INTRA.SOLV.lig_0>
-70.7393

>  <SCORE.INTRA.VDW>
0.583933

>  <SCORE.INTRA.VDW.0>
-3.23471

>  <SCORE.INTRA.norm>
-0.197199

>  <SCORE.RESTR>
0

>  <SCORE.RESTR.CAVITY>
0

>  <SCORE.RESTR.norm>
0

>  <SCORE.SYSTEM>
0

>  <SCORE.SYSTEM.CONST>
0

>  <SCORE.SYSTEM.DIHEDRAL>
0

>  <SCORE.SYSTEM.SOLV>
0

>  <SCORE.SYSTEM.norm>
0

>  <SCORE.heavy>
34

>  <SCORE.norm>
-0.249358

>  <RMSD>
9.441

$$$$
lig.pdb
 OpenBabel11021811503D
libRbt.so/2013.1/901 2013/11/27
 34 36  0  0  0  0  0  0  0  0999 V2000
   -2.4895   15.7606   34.9687 C   0  0  2  0  0  0  0  0  0  0  0  0
   -1.4635   16.2029   35.8643 O   0  0  0  0  0  0  0  0  0  0  0  0
   -3.6889   15.1728   35.8273 C   0  0  2  0  0  0  0  0  0  0  0  0
   -4.2655   16.1901   36.7368 N   0  0  0  0  0  0  0  0  0  0  0  0
   -3.1885   13.9559   36.6457 C   0  0  1  0  0  0  0  0  0  0  0  0
   -4.2574   13.4081   37.4208 O   0  0  0  0  0  0  0  0  0  0  0  0
   -2.6122   12.9135   35.6711 C   0  0  2  0  0  0  0  0  0  0  0  0
   -2.1501   11.7836   36.4129 O   0  0  0  0  0  0  0  0  0  0  0  0
   -1.4389   13.5573   34.8372 C   0  0  2  0  0  0  0  0  0  0  0  0
   -1.9165   14.7384   34.0869 O   0  0  0  0  0  0  0  0  0  0  0  0
   -0.8366   12.5484   33.8280 C   0  0  2  0  0  0  0  0  0  0  0  0
    0.3159   13.1173   33.2039 O   0  0  0  0  0  0  0  0  0  0  0  0
   -1.8433   12.1837   32.7481 C   0  0  0  0  0  0  0  0  0  0  0  0
    1.2945   19.4683   35.6486 C   0  0  2  0  0  0  0  0  0  0  0  0
    2.3893   20.3331   35.2016 N   0  0  0  0  0  0  0  0  0  0  0  0
    1.8759   18.0369   35.8126 C   0  0  0  0  0  0  0  0  0  0  0  0
    0.7346   17.1089   36.3100 C   0  0  2  0  0  0  0  0  0  0  0  0
    1.2429   15.7393   36.4851 N   0  0  0  0  0  0  0  0  0  0  0  0
   -0.4450   17.0897   35.3012 C   0  0  2  0  0  0  0  0  0  0  0  0
   -0.9823   18.5441   35.1179 C   0  0  2  0  0  0  0  0  0  0  0  0
   -2.0645   18.5268   34.1771 O   0  0  0  0  0  0  0  0  0  0  0  0
    0.1274   19.4762   34.5737 C   0  0  1  0  0  0  0  0  0  0  0  0
   -0.4462   20.8005   34.4438 O   0  0  0  0  0  0  0  0  0  0  0  0
    0.4692   21.8558   34.0668 C   0  0  2  0  0  0  0  0  0  0  0  0
   -0.3682   23.1884   34.0839 C   0  0  2  0  0  0  0  0  0  0  0  0
   -0.8777   23.4208   35.3876 O   0  0  0  0  0  0  0  0  0  0  0  0
   -1.5370   23.0723   33.0337 C   0  0  1  0  0  0  0  0  0  0  0  0
   -2.3671   24.3153   33.0226 N   0  0  0  0  0  0  0  0  0  0  0  0
   -3.5771   24.0901   33.8424 C   0  0  0  0  0  0  0  0  0  0  0  0
   -0.9143   22.8256   31.6259 C   0  0  2  0  0  0  0  0  0  0  0  0
   -0.0798   23.9344   31.2942 O   0  0  0  0  0  0  0  0  0  0  0  0
   -1.9862   22.6923   30.5471 C   0  0  0  0  0  0  0  0  0  0  0  0
   -0.0512   21.5240   31.6687 C   0  0  0  0  0  0  0  0  0  0  0  0
    0.9957   21.6181   32.7078 O   0  0  0  0  0  0  0  0  0  0  0  0
  1  3  1  0  0  0  0
  1  2  1  1  0  0  0
  3  5  1  0  0  0  0
  3  4  1  1  0  0  0
  5  6  1  6  0  0  0
  7  8  1  1  0  0  0
  7  5  1  0  0  0  0
  9 10  1  6  0  0  0
  9  7  1  0  0  0  0
 10  1  1  0  0  0  0
 11 13  1  6  0  0  0
 11  9  1  0  0  0  0
 12 11  1  0  0  0  0
 14 15  1  6  0  0  0
 16 14  1  0  0  0  0
 17 18  1  6  0  0  0
 17 16  1  0  0  0  0
 19  2  1  1  0  0  0
 19 20  1  0  0  0  0
 19 17  1  0  0  0  0
 20 21  1  6  0  0  0
 20 22  1  0  0  0  0
 22 23  1  1  0  0  0
 22 14  1  0  0  0  0
 24 23  1  6  0  0  0
 24 25  1  0  0  0  0
 25 27  1  0  0  0  0
 25 26  1  1  0  0  0
 27 28  1  6  0  0  0
 28 29  1  0  0  0  0
 30 31  1  6  0  0  0
 30 32  1  0  0  0  0
 30 27  1  0  0  0  0
 33 30  1  0  0  0  0
 34 33  1  0  0  0  0
 34 24  1  0  0  0  0
M  END
>  <CHROM.1>
-164.18492171,-173.42232279,-164.65248705,58.23083673,-176.48870769,-98.69293214
-1.08521242,18.20603535,34.47267271,1.69910806,-0.06015764,2.90066929

>  <Name>
lig.pdb

>  <RI>
0

>  <Rbt.Current_Directory>
/home/itssahil/PROJECTS/Mol_Feturizer/New_Systems/rnas/4k32

>  <Rbt.Executable>
rbdock ($Id: //depot/dev/client3/rdock/2013.1/src/exe/rbdock.cxx#4 $)

>  <Rbt.Library>
libRbt.so (2013.1, Build901 2013/11/27)

>  <Rbt.Parameter_File>
/export/apps/rDock/src/rDock_2013.1_src/data/scripts/dock_solv.prm

>  <Rbt.Receptor>
prm/pocket_docking_5.prm

>  <SCORE>
-13.2654

>  <SCORE.INTER>
-6.9135

>  <SCORE.INTER.CONST>
1

>  <SCORE.INTER.POLAR>
0

>  <SCORE.INTER.ROT>
6

>  <SCORE.INTER.SOLV>
17.4671

>  <SCORE.INTER.VDW>
-18.0314

>  <SCORE.INTER.norm>
-0.203338

>  <SCORE.INTRA>
-6.35187

>  <SCORE.INTRA.DIHEDRAL>
-14.5641

>  <SCORE.INTRA.DIHEDRAL.0>
18.0069

>  <SCORE.INTRA.POLAR>
0

>  <SCORE.INTRA.POLAR.0>
0

>  <SCORE.INTRA.REPUL>
0

>  <SCORE.INTRA.REPUL.0>
0

>  <SCORE.INTRA.SOLV>
-0.978812

>  <SCORE.INTRA.SOLV.lig_0>
-70.7393

>  <SCORE.INTRA.VDW>
1.4196

>  <SCORE.INTRA.VDW.0>
-3.23471

>  <SCORE.INTRA.norm>
-0.18682

>  <SCORE.RESTR>
0

>  <SCORE.RESTR.CAVITY>
0

>  <SCORE.RESTR.norm>
0

>  <SCORE.SYSTEM>
0

>  <SCORE.SYSTEM.CONST>
0

>  <SCORE.SYSTEM.DIHEDRAL>
0

>  <SCORE.SYSTEM.SOLV>
0

>  <SCORE.SYSTEM.norm>
0

>  <SCORE.heavy>
34

>  <SCORE.norm>
-0.390158

>  <RMSD>
9.540

$$$$
lig.pdb
 OpenBabel11021811503D
libRbt.so/2013.1/901 2013/11/27
 34 36  0  0  0  0  0  0  0  0999 V2000
   -0.9032   14.6395   35.4145 C   0  0  2  0  0  0  0  0  0  0  0  0
   -1.3009   16.0149   35.4017 O   0  0  0  0  0  0  0  0  0  0  0  0
   -2.0061   13.7889   34.6519 C   0  0  2  0  0  0  0  0  0  0  0  0
   -2.1580   14.2211   33.2429 N   0  0  0  0  0  0  0  0  0  0  0  0
   -3.3606   13.9191   35.3930 C   0  0  1  0  0  0  0  0  0  0  0  0
   -4.3656   13.1536   34.7242 O   0  0  0  0  0  0  0  0  0  0  0  0
   -3.1715   13.4474   36.8457 C   0  0  2  0  0  0  0  0  0  0  0  0
   -4.4148   13.5588   37.5401 O   0  0  0  0  0  0  0  0  0  0  0  0
   -2.0564   14.3154   37.5454 C   0  0  2  0  0  0  0  0  0  0  0  0
   -0.7766   14.2136   36.8122 O   0  0  0  0  0  0  0  0  0  0  0  0
   -1.8184   13.8657   39.0083 C   0  0  2  0  0  0  0  0  0  0  0  0
   -3.0280   13.9953   39.7577 O   0  0  0  0  0  0  0  0  0  0  0  0
   -0.7420   14.7087   39.6743 C   0  0  0  0  0  0  0  0  0  0  0  0
    1.2793   19.4194   35.6642 C   0  0  2  0  0  0  0  0  0  0  0  0
    2.3643   20.3633   35.3851 N   0  0  0  0  0  0  0  0  0  0  0  0
    1.9194   18.0109   35.8068 C   0  0  0  0  0  0  0  0  0  0  0  0
    0.7865   16.9986   36.1275 C   0  0  2  0  0  0  0  0  0  0  0  0
    1.3494   15.6475   36.2770 N   0  0  0  0  0  0  0  0  0  0  0  0
   -0.2809   16.9842   35.0005 C   0  0  2  0  0  0  0  0  0  0  0  0
   -0.8765   18.4191   34.8448 C   0  0  2  0  0  0  0  0  0  0  0  0
   -1.8542   18.4071   33.7957 O   0  0  0  0  0  0  0  0  0  0  0  0
    0.2296   19.4368   34.4745 C   0  0  1  0  0  0  0  0  0  0  0  0
   -0.4003   20.7368   34.3604 O   0  0  0  0  0  0  0  0  0  0  0  0
    0.4820   21.8485   34.0790 C   0  0  2  0  0  0  0  0  0  0  0  0
   -0.4157   23.1407   34.1180 C   0  0  2  0  0  0  0  0  0  0  0  0
   -0.9959   23.2858   35.4047 O   0  0  0  0  0  0  0  0  0  0  0  0
   -1.5276   23.0255   33.0075 C   0  0  1  0  0  0  0  0  0  0  0  0
   -2.4127   24.2300   33.0146 N   0  0  0  0  0  0  0  0  0  0  0  0
   -3.6990   23.8750   33.6518 C   0  0  0  0  0  0  0  0  0  0  0  0
   -0.8290   22.8762   31.6218 C   0  0  2  0  0  0  0  0  0  0  0  0
   -0.0319   24.0354   31.3842 O   0  0  0  0  0  0  0  0  0  0  0  0
   -1.8420   22.7495   30.4868 C   0  0  0  0  0  0  0  0  0  0  0  0
    0.0903   21.6131   31.6453 C   0  0  0  0  0  0  0  0  0  0  0  0
    1.0820   21.7015   32.7377 O   0  0  0  0  0  0  0  0  0  0  0  0
  1  3  1  0  0  0  0
  1  2  1  1  0  0  0
  3  5  1  0  0  0  0
  3  4  1  6  0  0  0
  5  6  1  6  0  0  0
  7  8  1  1  0  0  0
  7  5  1  0  0  0  0
  9 10  1  6  0  0  0
  9  7  1  0  0  0  0
 10  1  1  0  0  0  0
 11 13  1  1  0  0  0
 11  9  1  0  0  0  0
 12 11  1  0  0  0  0
 14 15  1  6  0  0  0
 16 14  1  0  0  0  0
 17 18  1  6  0  0  0
 17 16  1  0  0  0  0
 19  2  1  1  0  0  0
 19 20  1  0  0  0  0
 19 17  1  0  0  0  0
 20 21  1  6  0  0  0
 20 22  1  0  0  0  0
 22 23  1  1  0  0  0
 22 14  1  0  0  0  0
 24 23  1  6  0  0  0
 24 25  1  0  0  0  0
 25 27  1  0  0  0  0
 25 26  1  1  0  0  0
 27 28  1  6  0  0  0
 28 29  1  0  0  0  0
 30 31  1  6  0  0  0
 30 32  1  0  0  0  0
 30 27  1  0  0  0  0
 33 30  1  0  0  0  0
 34 33  1  0  0  0  0
 34 24  1  0  0  0  0
M  END
>  <CHROM.1>
-131.80220475,-59.75015388,-68.38451120,61.08278973,-175.63880823,-103.91195244
-1.08216981,18.26031759,34.97473163,-1.74704720,-0.52194949,-0.52644423

>  <Name>
lig.pdb

>  <RI>
0

>  <Rbt.Current_Directory>
/home/itssahil/PROJECTS/Mol_Feturizer/New_Systems/rnas/4k32

>  <Rbt.Executable>
rbdock ($Id: //depot/dev/client3/rdock/2013.1/src/exe/rbdock.cxx#4 $)

>  <Rbt.Library>
libRbt.so (2013.1, Build901 2013/11/27)

>  <Rbt.Parameter_File>
/export/apps/rDock/src/rDock_2013.1_src/data/scripts/dock_solv.prm

>  <Rbt.Receptor>
prm/pocket_docking_5.prm

>  <SCORE>
-7.61566

>  <SCORE.INTER>
-5.41027

>  <SCORE.INTER.CONST>
1

>  <SCORE.INTER.POLAR>
0

>  <SCORE.INTER.ROT>
6

>  <SCORE.INTER.SOLV>
18.1401

>  <SCORE.INTER.VDW>
-17.2535

>  <SCORE.INTER.norm>
-0.159125

>  <SCORE.INTRA>
-2.20539

>  <SCORE.INTRA.DIHEDRAL>
-9.96481

>  <SCORE.INTRA.DIHEDRAL.0>
18.0069

>  <SCORE.INTRA.POLAR>
0

>  <SCORE.INTRA.POLAR.0>
0

>  <SCORE.INTRA.REPUL>
0

>  <SCORE.INTRA.REPUL.0>
0

>  <SCORE.INTRA.SOLV>
1.27656

>  <SCORE.INTRA.SOLV.lig_0>
-70.7393

>  <SCORE.INTRA.VDW>
2.13874

>  <SCORE.INTRA.VDW.0>
-3.23471

>  <SCORE.INTRA.norm>
-0.0648644

>  <SCORE.RESTR>
0

>  <SCORE.RESTR.CAVITY>
0

>  <SCORE.RESTR.norm>
0

>  <SCORE.SYSTEM>
0

>  <SCORE.SYSTEM.CONST>
0

>  <SCORE.SYSTEM.DIHEDRAL>
0

>  <SCORE.SYSTEM.SOLV>
0

>  <SCORE.SYSTEM.norm>
0

>  <SCORE.heavy>
34

>  <SCORE.norm>
-0.22399

>  <RMSD>
9.638

$$$$
lig.pdb
 OpenBabel11021811503D
libRbt.so/2013.1/901 2013/11/27
 34 36  0  0  0  0  0  0  0  0999 V2000
   -1.2753   13.9218   34.2750 C   0  0  2  0  0  0  0  0  0  0  0  0
   -1.0171   14.7463   35.4168 O   0  0  0  0  0  0  0  0  0  0  0  0
   -2.5826   13.0658   34.5567 C   0  0  2  0  0  0  0  0  0  0  0  0
   -3.7650   13.9271   34.7913 N   0  0  0  0  0  0  0  0  0  0  0  0
   -2.3444   12.1504   35.7840 C   0  0  1  0  0  0  0  0  0  0  0  0
   -3.5095   11.3659   36.0492 O   0  0  0  0  0  0  0  0  0  0  0  0
   -1.1219   11.2594   35.5007 C   0  0  2  0  0  0  0  0  0  0  0  0
   -0.8931   10.4069   36.6238 O   0  0  0  0  0  0  0  0  0  0  0  0
    0.1385   12.1622   35.2133 C   0  0  2  0  0  0  0  0  0  0  0  0
   -0.1097   13.0572   34.0630 O   0  0  0  0  0  0  0  0  0  0  0  0
    1.3933   11.3078   34.9055 C   0  0  2  0  0  0  0  0  0  0  0  0
    1.5623   10.3135   35.9176 O   0  0  0  0  0  0  0  0  0  0  0  0
    2.6460   12.1687   34.8566 C   0  0  0  0  0  0  0  0  0  0  0  0
    1.0622   18.4140   36.1524 C   0  0  2  0  0  0  0  0  0  0  0  0
    2.0879   19.4594   36.1156 N   0  0  0  0  0  0  0  0  0  0  0  0
    1.7704   17.0873   36.5425 C   0  0  0  0  0  0  0  0  0  0  0  0
    0.6942   15.9702   36.6106 C   0  0  2  0  0  0  0  0  0  0  0  0
    1.3211   14.6924   36.9836 N   0  0  0  0  0  0  0  0  0  0  0  0
   -0.0232   15.8061   35.2438 C   0  0  2  0  0  0  0  0  0  0  0  0
   -0.6878   17.1633   34.8512 C   0  0  2  0  0  0  0  0  0  0  0  0
   -1.3404   17.0137   33.5830 O   0  0  0  0  0  0  0  0  0  0  0  0
    0.3757   18.2814   34.7280 C   0  0  1  0  0  0  0  0  0  0  0  0
   -0.3202   19.5022   34.3743 O   0  0  0  0  0  0  0  0  0  0  0  0
   -0.1445   19.9631   33.0140 C   0  0  2  0  0  0  0  0  0  0  0  0
    1.0389   21.0001   33.0526 C   0  0  2  0  0  0  0  0  0  0  0  0
    2.2210   20.3654   33.5141 O   0  0  0  0  0  0  0  0  0  0  0  0
    0.6385   22.1994   33.9929 C   0  0  1  0  0  0  0  0  0  0  0  0
    1.7402   23.2068   34.0677 N   0  0  0  0  0  0  0  0  0  0  0  0
    2.1436   23.3708   35.4808 C   0  0  0  0  0  0  0  0  0  0  0  0
   -0.6583   22.8571   33.4304 C   0  0  2  0  0  0  0  0  0  0  0  0
   -0.3905   23.3460   32.1170 O   0  0  0  0  0  0  0  0  0  0  0  0
   -1.1201   24.0286   34.2935 C   0  0  0  0  0  0  0  0  0  0  0  0
   -1.7893   21.7815   33.3607 C   0  0  0  0  0  0  0  0  0  0  0  0
   -1.3723   20.6290   32.5346 O   0  0  0  0  0  0  0  0  0  0  0  0
  1  3  1  0  0  0  0
  1  2  1  1  0  0  0
  3  5  1  0  0  0  0
  3  4  1  1  0  0  0
  5  6  1  6  0  0  0
  7  8  1  1  0  0  0
  7  5  1  0  0  0  0
  9 10  1  6  0  0  0
  9  7  1  0  0  0  0
 10  1  1  0  0  0  0
 11 13  1  1  0  0  0
 11  9  1  0  0  0  0
 12 11  1  0  0  0  0
 14 15  1  6  0  0  0
 16 14  1  0  0  0  0
 17 18  1  6  0  0  0
 17 16  1  0  0  0  0
 19  2  1  1  0  0  0
 19 20  1  0  0  0  0
 19 17  1  0  0  0  0
 20 21  1  6  0  0  0
 20 22  1  0  0  0  0
 22 23  1  1  0  0  0
 22 14  1  0  0  0  0
 24 23  1  1  0  0  0
 24 25  1  0  0  0  0
 25 27  1  0  0  0  0
 25 26  1  1  0  0  0
 27 28  1  6  0  0  0
 28 29  1  0  0  0  0
 30 31  1  6  0  0  0
 30 32  1  0  0  0  0
 30 27  1  0  0  0  0
 33 30  1  0  0  0  0
 34 33  1  0  0  0  0
 34 24  1  0  0  0  0
M  END
>  <CHROM.1>
-167.63149451,-50.39776217,-146.91887921,136.43547919,-94.37264926,-122.12522256
-0.11020245,16.92921473,34.75421860,1.66253082,0.31318923,2.94502127

>  <Name>
lig.pdb

>  <RI>
0

>  <Rbt.Current_Directory>
/home/itssahil/PROJECTS/Mol_Feturizer/New_Systems/rnas/4k32

>  <Rbt.Executable>
rbdock ($Id: //depot/dev/client3/rdock/2013.1/src/exe/rbdock.cxx#4 $)

>  <Rbt.Library>
libRbt.so (2013.1, Build901 2013/11/27)

>  <Rbt.Parameter_File>
/export/apps/rDock/src/rDock_2013.1_src/data/scripts/dock_solv.prm

>  <Rbt.Receptor>
prm/pocket_docking_8.prm

>  <SCORE>
-10.9879

>  <SCORE.INTER>
-10.5563

>  <SCORE.INTER.CONST>
1

>  <SCORE.INTER.POLAR>
0

>  <SCORE.INTER.ROT>
6

>  <SCORE.INTER.SOLV>
19.2952

>  <SCORE.INTER.VDW>
-21.0693

>  <SCORE.INTER.norm>
-0.310479

>  <SCORE.INTRA>
-0.431638

>  <SCORE.INTRA.DIHEDRAL>
-1.21507

>  <SCORE.INTRA.DIHEDRAL.0>
18.0069

>  <SCORE.INTRA.POLAR>
0

>  <SCORE.INTRA.POLAR.0>
0

>  <SCORE.INTRA.REPUL>
0

>  <SCORE.INTRA.REPUL.0>
0

>  <SCORE.INTRA.SOLV>
2.18277

>  <SCORE.INTRA.SOLV.lig_0>
-70.7393

>  <SCORE.INTRA.VDW>
-0.915486

>  <SCORE.INTRA.VDW.0>
-3.23471

>  <SCORE.INTRA.norm>
-0.0126952

>  <SCORE.RESTR>
0

>  <SCORE.RESTR.CAVITY>
0

>  <SCORE.RESTR.norm>
0

>  <SCORE.SYSTEM>
0

>  <SCORE.SYSTEM.CONST>
0

>  <SCORE.SYSTEM.DIHEDRAL>
0

>  <SCORE.SYSTEM.SOLV>
0

>  <SCORE.SYSTEM.norm>
0

>  <SCORE.heavy>
34

>  <SCORE.norm>
-0.323175

>  <RMSD>
9.679

$$$$
lig.pdb
 OpenBabel11021811503D
libRbt.so/2013.1/901 2013/11/27
 34 36  0  0  0  0  0  0  0  0999 V2000
   -3.5400   17.1719   36.2599 C   0  0  2  0  0  0  0  0  0  0  0  0
   -2.2013   17.2239   36.7653 O   0  0  0  0  0  0  0  0  0  0  0  0
   -4.5315   16.9543   37.4808 C   0  0  2  0  0  0  0  0  0  0  0  0
   -4.4435   18.0579   38.4653 N   0  0  0  0  0  0  0  0  0  0  0  0
   -4.2105   15.6045   38.1707 C   0  0  1  0  0  0  0  0  0  0  0  0
   -5.0987   15.3874   39.2696 O   0  0  0  0  0  0  0  0  0  0  0  0
   -4.3271   14.4803   37.1260 C   0  0  2  0  0  0  0  0  0  0  0  0
   -4.0371   13.2287   37.7502 O   0  0  0  0  0  0  0  0  0  0  0  0
   -3.3336   14.7581   35.9335 C   0  0  2  0  0  0  0  0  0  0  0  0
   -3.6242   16.0635   35.3031 O   0  0  0  0  0  0  0  0  0  0  0  0
   -3.4271   13.6590   34.8461 C   0  0  2  0  0  0  0  0  0  0  0  0
   -3.1954   12.3768   35.4324 O   0  0  0  0  0  0  0  0  0  0  0  0
   -2.3995   13.8836   33.7478 C   0  0  0  0  0  0  0  0  0  0  0  0
    1.1839   19.4321   35.3578 C   0  0  2  0  0  0  0  0  0  0  0  0
    2.3089   19.8674   34.5266 N   0  0  0  0  0  0  0  0  0  0  0  0
    1.3678   17.9122   35.6224 C   0  0  0  0  0  0  0  0  0  0  0  0
    0.1962   17.4363   36.5234 C   0  0  2  0  0  0  0  0  0  0  0  0
    0.3329   15.9987   36.8054 N   0  0  0  0  0  0  0  0  0  0  0  0
   -1.1722   17.6932   35.8370 C   0  0  2  0  0  0  0  0  0  0  0  0
   -1.3144   19.2193   35.5398 C   0  0  2  0  0  0  0  0  0  0  0  0
   -2.5738   19.4539   34.8953 O   0  0  0  0  0  0  0  0  0  0  0  0
   -0.1836   19.7046   34.6005 C   0  0  1  0  0  0  0  0  0  0  0  0
   -0.3806   21.1239   34.3849 O   0  0  0  0  0  0  0  0  0  0  0  0
    0.5497   21.7650   33.4809 C   0  0  2  0  0  0  0  0  0  0  0  0
    0.3338   23.3141   33.6566 C   0  0  2  0  0  0  0  0  0  0  0  0
    0.6105   23.6904   34.9964 O   0  0  0  0  0  0  0  0  0  0  0  0
   -1.1499   23.6722   33.2650 C   0  0  1  0  0  0  0  0  0  0  0  0
   -1.4037   25.1363   33.4268 N   0  0  0  0  0  0  0  0  0  0  0  0
   -2.5254   25.3259   34.3715 C   0  0  0  0  0  0  0  0  0  0  0  0
   -1.3882   23.2425   31.7854 C   0  0  2  0  0  0  0  0  0  0  0  0
   -0.4842   23.9624   30.9487 O   0  0  0  0  0  0  0  0  0  0  0  0
   -2.8123   23.5486   31.3284 C   0  0  0  0  0  0  0  0  0  0  0  0
   -1.1127   21.7108   31.6463 C   0  0  0  0  0  0  0  0  0  0  0  0
    0.2590   21.3787   32.0855 O   0  0  0  0  0  0  0  0  0  0  0  0
  1  3  1  0  0  0  0
  1  2  1  1  0  0  0
  3  5  1  0  0  0  0
  3  4  1  1  0  0  0
  5  6  1  1  0  0  0
  7  8  1  1  0  0  0
  7  5  1  0  0  0  0
  9 10  1  6  0  0  0
  9  7  1  0  0  0  0
 10  1  1  0  0  0  0
 11 13  1  6  0  0  0
 11  9  1  0  0  0  0
 12 11  1  0  0  0  0
 14 15  1  6  0  0  0
 16 14  1  0  0  0  0
 17 18  1  6  0  0  0
 17 16  1  0  0  0  0
 19  2  1  1  0  0  0
 19 20  1  0  0  0  0
 19 17  1  0  0  0  0
 20 21  1  6  0  0  0
 20 22  1  0  0  0  0
 22 23  1  1  0  0  0
 22 14  1  0  0  0  0
 24 23  1  1  0  0  0
 24 25  1  0  0  0  0
 25 27  1  0  0  0  0
 25 26  1  1  0  0  0
 27 28  1  6  0  0  0
 28 29  1  0  0  0  0
 30 31  1  6  0  0  0
 30 32  1  0  0  0  0
 30 27  1  0  0  0  0
 33 30  1  0  0  0  0
 34 33  1  0  0  0  0
 34 24  1  0  0  0  0
M  END
>  <CHROM.1>
-167.71715770,-55.86406395,-170.73846403,66.36716725,-167.96619351,-122.06670335
-1.71771590,18.91815068,35.03977446,1.89390798,-0.38875704,2.84487147

>  <Name>
lig.pdb

>  <RI>
0

>  <Rbt.Current_Directory>
/home/itssahil/PROJECTS/Mol_Feturizer/New_Systems/rnas/4k32

>  <Rbt.Executable>
rbdock ($Id: //depot/dev/client3/rdock/2013.1/src/exe/rbdock.cxx#4 $)

>  <Rbt.Library>
libRbt.so (2013.1, Build901 2013/11/27)

>  <Rbt.Parameter_File>
/export/apps/rDock/src/rDock_2013.1_src/data/scripts/dock_solv.prm

>  <Rbt.Receptor>
prm/pocket_docking_7.prm

>  <SCORE>
-13.3099

>  <SCORE.INTER>
-5.97683

>  <SCORE.INTER.CONST>
1

>  <SCORE.INTER.POLAR>
0

>  <SCORE.INTER.ROT>
6

>  <SCORE.INTER.SOLV>
15.0631

>  <SCORE.INTER.VDW>
-16.6056

>  <SCORE.INTER.norm>
-0.175789

>  <SCORE.INTRA>
-7.33305

>  <SCORE.INTRA.DIHEDRAL>
-14.6513

>  <SCORE.INTRA.DIHEDRAL.0>
18.0069

>  <SCORE.INTRA.POLAR>
0

>  <SCORE.INTRA.POLAR.0>
0

>  <SCORE.INTRA.REPUL>
0

>  <SCORE.INTRA.REPUL.0>
0

>  <SCORE.INTRA.SOLV>
-1.29504

>  <SCORE.INTRA.SOLV.lig_0>
-70.7393

>  <SCORE.INTRA.VDW>
0.640131

>  <SCORE.INTRA.VDW.0>
-3.23471

>  <SCORE.INTRA.norm>
-0.215678

>  <SCORE.RESTR>
0

>  <SCORE.RESTR.CAVITY>
0

>  <SCORE.RESTR.norm>
0

>  <SCORE.SYSTEM>
0

>  <SCORE.SYSTEM.CONST>
0

>  <SCORE.SYSTEM.DIHEDRAL>
0

>  <SCORE.SYSTEM.SOLV>
0

>  <SCORE.SYSTEM.norm>
0

>  <SCORE.heavy>
34

>  <SCORE.norm>
-0.391467

>  <RMSD>
9.698

$$$$
lig.pdb
 OpenBabel11021811503D
libRbt.so/2013.1/901 2013/11/27
 34 36  0  0  0  0  0  0  0  0999 V2000
   -3.4231   17.2911   36.0434 C   0  0  2  0  0  0  0  0  0  0  0  0
   -2.0740   17.3811   36.5148 O   0  0  0  0  0  0  0  0  0  0  0  0
   -4.3818   17.0944   37.2937 C   0  0  2  0  0  0  0  0  0  0  0  0
   -4.2901   18.2290   38.2419 N   0  0  0  0  0  0  0  0  0  0  0  0
   -4.0211   15.7720   38.0164 C   0  0  1  0  0  0  0  0  0  0  0  0
   -4.8794   15.5739   39.1422 O   0  0  0  0  0  0  0  0  0  0  0  0
   -4.1424   14.6145   37.0093 C   0  0  2  0  0  0  0  0  0  0  0  0
   -3.8159   13.3877   37.6640 O   0  0  0  0  0  0  0  0  0  0  0  0
   -3.1821   14.8722   35.7854 C   0  0  2  0  0  0  0  0  0  0  0  0
   -3.5102   16.1526   35.1230 O   0  0  0  0  0  0  0  0  0  0  0  0
   -3.2818   13.7389   34.7344 C   0  0  2  0  0  0  0  0  0  0  0  0
   -3.0224   12.4784   35.3553 O   0  0  0  0  0  0  0  0  0  0  0  0
   -2.2779   13.9420   33.6102 C   0  0  0  0  0  0  0  0  0  0  0  0
    1.2108   19.6890   35.0315 C   0  0  2  0  0  0  0  0  0  0  0  0
    2.3009   20.1595   34.1735 N   0  0  0  0  0  0  0  0  0  0  0  0
    1.4431   18.1734   35.2820 C   0  0  0  0  0  0  0  0  0  0  0  0
    0.3094   17.6606   36.2108 C   0  0  2  0  0  0  0  0  0  0  0  0
    0.4929   16.2259   36.4804 N   0  0  0  0  0  0  0  0  0  0  0  0
   -1.0833   17.8834   35.5625 C   0  0  2  0  0  0  0  0  0  0  0  0
   -1.2750   19.4066   35.2783 C   0  0  2  0  0  0  0  0  0  0  0  0
   -2.5571   19.6098   34.6688 O   0  0  0  0  0  0  0  0  0  0  0  0
   -0.1833   19.9278   34.3124 C   0  0  1  0  0  0  0  0  0  0  0  0
   -0.4248   21.3423   34.1106 O   0  0  0  0  0  0  0  0  0  0  0  0
    0.4242   22.0004   33.1413 C   0  0  2  0  0  0  0  0  0  0  0  0
    0.1547   23.5431   33.2991 C   0  0  2  0  0  0  0  0  0  0  0  0
    0.4925   23.9594   34.6128 O   0  0  0  0  0  0  0  0  0  0  0  0
   -1.3627   23.8323   32.9883 C   0  0  1  0  0  0  0  0  0  0  0  0
   -1.6674   25.2882   33.1362 N   0  0  0  0  0  0  0  0  0  0  0  0
   -2.5988   25.4694   34.2704 C   0  0  0  0  0  0  0  0  0  0  0  0
   -1.6682   23.3611   31.5339 C   0  0  2  0  0  0  0  0  0  0  0  0
   -0.8447   24.0984   30.6318 O   0  0  0  0  0  0  0  0  0  0  0  0
   -3.1277   23.5995   31.1554 C   0  0  0  0  0  0  0  0  0  0  0  0
   -1.3377   21.8392   31.4087 C   0  0  0  0  0  0  0  0  0  0  0  0
    0.0696   21.5723   31.7731 O   0  0  0  0  0  0  0  0  0  0  0  0
  1  3  1  0  0  0  0
  1  2  1  1  0  0  0
  3  5  1  0  0  0  0
  3  4  1  1  0  0  0
  5  6  1  1  0  0  0
  7  8  1  1  0  0  0
  7  5  1  0  0  0  0
  9 10  1  6  0  0  0
  9  7  1  0  0  0  0
 10  1  1  0  0  0  0
 11 13  1  6  0  0  0
 11  9  1  0  0  0  0
 12 11  1  0  0  0  0
 14 15  1  6  0  0  0
 16 14  1  0  0  0  0
 17 18  1  6  0  0  0
 17 16  1  0  0  0  0
 19  2  1  1  0  0  0
 19 20  1  0  0  0  0
 19 17  1  0  0  0  0
 20 21  1  6  0  0  0
 20 22  1  0  0  0  0
 22 23  1  1  0  0  0
 22 14  1  0  0  0  0
 24 23  1  1  0  0  0
 24 25  1  0  0  0  0
 25 27  1  0  0  0  0
 25 26  1  1  0  0  0
 27 28  1  6  0  0  0
 28 29  1  0  0  0  0
 30 31  1  6  0  0  0
 30 32  1  0  0  0  0
 30 27  1  0  0  0  0
 33 30  1  0  0  0  0
 34 33  1  0  0  0  0
 34 24  1  0  0  0  0
M  END
>  <CHROM.1>
-165.64523011,-55.49080846,-170.55335581,69.05033751,-169.76030531,-114.21068952
-1.71229061,19.08609114,34.80466177,1.85205664,-0.39369261,2.82132759

>  <Name>
lig.pdb

>  <RI>
0

>  <Rbt.Current_Directory>
/home/itssahil/PROJECTS/Mol_Feturizer/New_Systems/rnas/4k32

>  <Rbt.Executable>
rbdock ($Id: //depot/dev/client3/rdock/2013.1/src/exe/rbdock.cxx#4 $)

>  <Rbt.Library>
libRbt.so (2013.1, Build901 2013/11/27)

>  <Rbt.Parameter_File>
/export/apps/rDock/src/rDock_2013.1_src/data/scripts/dock_solv.prm

>  <Rbt.Receptor>
prm/pocket_docking_6.prm

>  <SCORE>
-13.3476

>  <SCORE.INTER>
-5.97038

>  <SCORE.INTER.CONST>
1

>  <SCORE.INTER.POLAR>
0

>  <SCORE.INTER.ROT>
6

>  <SCORE.INTER.SOLV>
15.2543

>  <SCORE.INTER.VDW>
-16.665

>  <SCORE.INTER.norm>
-0.175599

>  <SCORE.INTRA>
-7.3772

>  <SCORE.INTRA.DIHEDRAL>
-14.3861

>  <SCORE.INTRA.DIHEDRAL.0>
18.0069

>  <SCORE.INTRA.POLAR>
0

>  <SCORE.INTRA.POLAR.0>
0

>  <SCORE.INTRA.REPUL>
0

>  <SCORE.INTRA.REPUL.0>
0

>  <SCORE.INTRA.SOLV>
-1.26554

>  <SCORE.INTRA.SOLV.lig_0>
-70.7393

>  <SCORE.INTRA.VDW>
0.448595

>  <SCORE.INTRA.VDW.0>
-3.23471

>  <SCORE.INTRA.norm>
-0.216977

>  <SCORE.RESTR>
0

>  <SCORE.RESTR.CAVITY>
0

>  <SCORE.RESTR.norm>
0

>  <SCORE.SYSTEM>
0

>  <SCORE.SYSTEM.CONST>
0

>  <SCORE.SYSTEM.DIHEDRAL>
0

>  <SCORE.SYSTEM.SOLV>
0

>  <SCORE.SYSTEM.norm>
0

>  <SCORE.heavy>
34

>  <SCORE.norm>
-0.392576

>  <RMSD>
9.768

$$$$
lig.pdb
 OpenBabel11021811503D
libRbt.so/2013.1/901 2013/11/27
 34 36  0  0  0  0  0  0  0  0999 V2000
    1.7175   15.6735   36.7747 C   0  0  2  0  0  0  0  0  0  0  0  0
    0.3663   15.9361   36.3801 O   0  0  0  0  0  0  0  0  0  0  0  0
    1.9159   14.1015   36.8779 C   0  0  2  0  0  0  0  0  0  0  0  0
    1.6656   13.4285   35.5819 N   0  0  0  0  0  0  0  0  0  0  0  0
    0.9648   13.5323   37.9606 C   0  0  1  0  0  0  0  0  0  0  0  0
    1.1343   12.1173   38.0731 O   0  0  0  0  0  0  0  0  0  0  0  0
    1.2622   14.2396   39.2948 C   0  0  2  0  0  0  0  0  0  0  0  0
    0.3941   13.7211   40.3037 O   0  0  0  0  0  0  0  0  0  0  0  0
    1.0646   15.7949   39.1272 C   0  0  2  0  0  0  0  0  0  0  0  0
    1.9501   16.3243   38.0682 O   0  0  0  0  0  0  0  0  0  0  0  0
    1.3694   16.5532   40.4430 C   0  0  2  0  0  0  0  0  0  0  0  0
    0.5136   16.0792   41.4844 O   0  0  0  0  0  0  0  0  0  0  0  0
    1.1512   18.0492   40.2785 C   0  0  0  0  0  0  0  0  0  0  0  0
   -1.3374   19.4997   34.7325 C   0  0  2  0  0  0  0  0  0  0  0  0
   -1.8596   20.8636   34.6174 N   0  0  0  0  0  0  0  0  0  0  0  0
   -2.0795   18.8208   35.9166 C   0  0  0  0  0  0  0  0  0  0  0  0
   -1.5563   17.3640   36.0395 C   0  0  2  0  0  0  0  0  0  0  0  0
   -2.2380   16.6786   37.1488 N   0  0  0  0  0  0  0  0  0  0  0  0
   -0.0248   17.3433   36.2918 C   0  0  2  0  0  0  0  0  0  0  0  0
    0.6955   18.0706   35.1130 C   0  0  2  0  0  0  0  0  0  0  0  0
    2.1094   18.0610   35.3528 O   0  0  0  0  0  0  0  0  0  0  0  0
    0.2253   19.5415   35.0044 C   0  0  1  0  0  0  0  0  0  0  0  0
    0.9283   20.1383   33.8866 O   0  0  0  0  0  0  0  0  0  0  0  0
    0.5871   21.5106   33.5803 C   0  0  2  0  0  0  0  0  0  0  0  0
    1.5821   21.9672   32.4495 C   0  0  2  0  0  0  0  0  0  0  0  0
    1.4148   21.1501   31.3016 O   0  0  0  0  0  0  0  0  0  0  0  0
    3.0567   21.8756   32.9971 C   0  0  1  0  0  0  0  0  0  0  0  0
    4.0392   22.2915   31.9503 N   0  0  0  0  0  0  0  0  0  0  0  0
    4.4758   21.0938   31.2009 C   0  0  0  0  0  0  0  0  0  0  0  0
    3.1775   22.7974   34.2486 C   0  0  2  0  0  0  0  0  0  0  0  0
    2.8937   24.1397   33.8571 O   0  0  0  0  0  0  0  0  0  0  0  0
    4.5811   22.7589   34.8477 C   0  0  0  0  0  0  0  0  0  0  0  0
    2.1382   22.3417   35.3225 C   0  0  0  0  0  0  0  0  0  0  0  0
    0.7664   22.3631   34.7727 O   0  0  0  0  0  0  0  0  0  0  0  0
  1  3  1  0  0  0  0
  1  2  1  1  0  0  0
  3  5  1  0  0  0  0
  3  4  1  6  0  0  0
  5  6  1  1  0  0  0
  7  8  1  1  0  0  0
  7  5  1  0  0  0  0
  9 10  1  6  0  0  0
  9  7  1  0  0  0  0
 10  1  1  0  0  0  0
 11 13  1  6  0  0  0
 11  9  1  0  0  0  0
 12 11  1  0  0  0  0
 14 15  1  1  0  0  0
 16 14  1  0  0  0  0
 17 18  1  1  0  0  0
 17 16  1  0  0  0  0
 19  2  1  6  0  0  0
 19 20  1  0  0  0  0
 19 17  1  0  0  0  0
 20 21  1  1  0  0  0
 20 22  1  0  0  0  0
 22 23  1  6  0  0  0
 22 14  1  0  0  0  0
 24 23  1  1  0  0  0
 24 25  1  0  0  0  0
 25 27  1  0  0  0  0
 25 26  1  6  0  0  0
 27 28  1  6  0  0  0
 28 29  1  0  0  0  0
 30 31  1  6  0  0  0
 30 32  1  0  0  0  0
 30 27  1  0  0  0  0
 33 30  1  0  0  0  0
 34 33  1  0  0  0  0
 34 24  1  0  0  0  0
M  END
>  <CHROM.1>
177.25418557,-58.71630152,-172.57808019,61.51886032,174.04027881,-92.08297853
1.16767151,18.41943986,35.93369674,-1.76208935,0.48652631,-0.55092804

>  <Name>
lig.pdb

>  <RI>
0

>  <Rbt.Current_Directory>
/home/itssahil/PROJECTS/Mol_Feturizer/New_Systems/rnas/4k32

>  <Rbt.Executable>
rbdock ($Id: //depot/dev/client3/rdock/2013.1/src/exe/rbdock.cxx#4 $)

>  <Rbt.Library>
libRbt.so (2013.1, Build901 2013/11/27)

>  <Rbt.Parameter_File>
/export/apps/rDock/src/rDock_2013.1_src/data/scripts/dock_solv.prm

>  <Rbt.Receptor>
prm/pocket_docking_7.prm

>  <SCORE>
-16.4784

>  <SCORE.INTER>
-8.79197

>  <SCORE.INTER.CONST>
1

>  <SCORE.INTER.POLAR>
0

>  <SCORE.INTER.ROT>
6

>  <SCORE.INTER.SOLV>
16.3524

>  <SCORE.INTER.VDW>
-18.9121

>  <SCORE.INTER.norm>
-0.258587

>  <SCORE.INTRA>
-7.69579

>  <SCORE.INTRA.DIHEDRAL>
-16.7723

>  <SCORE.INTRA.DIHEDRAL.0>
18.0069

>  <SCORE.INTRA.POLAR>
0

>  <SCORE.INTRA.POLAR.0>
0

>  <SCORE.INTRA.REPUL>
0

>  <SCORE.INTRA.REPUL.0>
0

>  <SCORE.INTRA.SOLV>
-1.06976

>  <SCORE.INTRA.SOLV.lig_0>
-70.7393

>  <SCORE.INTRA.VDW>
1.22523

>  <SCORE.INTRA.VDW.0>
-3.23471

>  <SCORE.INTRA.norm>
-0.226347

>  <SCORE.RESTR>
0.00935932

>  <SCORE.RESTR.CAVITY>
0.00935932

>  <SCORE.RESTR.norm>
0.000275274

>  <SCORE.SYSTEM>
0

>  <SCORE.SYSTEM.CONST>
0

>  <SCORE.SYSTEM.DIHEDRAL>
0

>  <SCORE.SYSTEM.SOLV>
0

>  <SCORE.SYSTEM.norm>
0

>  <SCORE.heavy>
34

>  <SCORE.norm>
-0.484659

>  <RMSD>
9.884

$$$$
lig.pdb
 OpenBabel11021811503D
libRbt.so/2013.1/901 2013/11/27
 34 36  0  0  0  0  0  0  0  0999 V2000
    1.0199   16.8099   37.7179 C   0  0  2  0  0  0  0  0  0  0  0  0
    0.0881   16.7932   36.6308 O   0  0  0  0  0  0  0  0  0  0  0  0
    1.6176   15.3492   37.8917 C   0  0  2  0  0  0  0  0  0  0  0  0
    2.3263   14.8954   36.6724 N   0  0  0  0  0  0  0  0  0  0  0  0
    0.4738   14.3621   38.2358 C   0  0  1  0  0  0  0  0  0  0  0  0
    0.9943   13.0413   38.4032 O   0  0  0  0  0  0  0  0  0  0  0  0
   -0.2291   14.8531   39.5139 C   0  0  2  0  0  0  0  0  0  0  0  0
   -1.2845   13.9492   39.8449 O   0  0  0  0  0  0  0  0  0  0  0  0
   -0.7867   16.3105   39.2872 C   0  0  2  0  0  0  0  0  0  0  0  0
    0.3057   17.2386   38.9250 O   0  0  0  0  0  0  0  0  0  0  0  0
   -1.4901   16.8552   40.5551 C   0  0  2  0  0  0  0  0  0  0  0  0
   -2.2205   18.0401   40.2324 O   0  0  0  0  0  0  0  0  0  0  0  0
   -0.4812   17.1880   41.6433 C   0  0  0  0  0  0  0  0  0  0  0  0
   -0.8818   19.6283   33.5750 C   0  0  2  0  0  0  0  0  0  0  0  0
   -1.3130   20.8617   32.9124 N   0  0  0  0  0  0  0  0  0  0  0  0
   -2.0018   19.2264   34.5740 C   0  0  0  0  0  0  0  0  0  0  0  0
   -1.5735   17.9059   35.2698 C   0  0  2  0  0  0  0  0  0  0  0  0
   -2.6107   17.4832   36.2241 N   0  0  0  0  0  0  0  0  0  0  0  0
   -0.2294   18.0867   36.0250 C   0  0  2  0  0  0  0  0  0  0  0  0
    0.8689   18.5347   35.0098 C   0  0  2  0  0  0  0  0  0  0  0  0
    2.1075   18.7124   35.7105 O   0  0  0  0  0  0  0  0  0  0  0  0
    0.4854   19.8770   34.3410 C   0  0  1  0  0  0  0  0  0  0  0  0
    1.5444   20.2143   33.4111 O   0  0  0  0  0  0  0  0  0  0  0  0
    2.7829   20.6775   33.9988 C   0  0  2  0  0  0  0  0  0  0  0  0
    2.5286   22.1673   34.4383 C   0  0  2  0  0  0  0  0  0  0  0  0
    1.4814   22.2156   35.3945 O   0  0  0  0  0  0  0  0  0  0  0  0
    2.1696   23.0228   33.1647 C   0  0  1  0  0  0  0  0  0  0  0  0
    1.9094   24.4469   33.5371 N   0  0  0  0  0  0  0  0  0  0  0  0
    0.4559   24.6313   33.7368 C   0  0  0  0  0  0  0  0  0  0  0  0
    3.3579   22.9355   32.1593 C   0  0  2  0  0  0  0  0  0  0  0  0
    4.5248   23.4697   32.7828 O   0  0  0  0  0  0  0  0  0  0  0  0
    3.0847   23.7348   30.8877 C   0  0  0  0  0  0  0  0  0  0  0  0
    3.6084   21.4378   31.7914 C   0  0  0  0  0  0  0  0  0  0  0  0
    3.8723   20.6331   33.0028 O   0  0  0  0  0  0  0  0  0  0  0  0
  1  3  1  0  0  0  0
  1  2  1  6  0  0  0
  3  5  1  0  0  0  0
  3  4  1  6  0  0  0
  5  6  1  1  0  0  0
  7  8  1  6  0  0  0
  7  5  1  0  0  0  0
  9 10  1  1  0  0  0
  9  7  1  0  0  0  0
 10  1  1  0  0  0  0
 11 13  1  1  0  0  0
 11  9  1  0  0  0  0
 12 11  1  0  0  0  0
 14 15  1  1  0  0  0
 16 14  1  0  0  0  0
 17 18  1  1  0  0  0
 17 16  1  0  0  0  0
 19  2  1  6  0  0  0
 19 20  1  0  0  0  0
 19 17  1  0  0  0  0
 20 21  1  1  0  0  0
 20 22  1  0  0  0  0
 22 23  1  6  0  0  0
 22 14  1  0  0  0  0
 24 23  1  6  0  0  0
 24 25  1  0  0  0  0
 25 27  1  0  0  0  0
 25 26  1  1  0  0  0
 27 28  1  1  0  0  0
 28 29  1  0  0  0  0
 30 31  1  1  0  0  0
 30 32  1  0  0  0  0
 30 27  1  0  0  0  0
 33 30  1  0  0  0  0
 34 33  1  0  0  0  0
 34 24  1  0  0  0  0
M  END
>  <CHROM.1>
-160.20641486,-167.78055086,-160.09754891,170.21889209,-76.65593023,-94.37522078
0.79386823,18.99030375,35.83124657,-1.90661026,0.51878645,-0.54924416

>  <Name>
lig.pdb

>  <RI>
0

>  <Rbt.Current_Directory>
/home/itssahil/PROJECTS/Mol_Feturizer/New_Systems/rnas/4k32

>  <Rbt.Executable>
rbdock ($Id: //depot/dev/client3/rdock/2013.1/src/exe/rbdock.cxx#4 $)

>  <Rbt.Library>
libRbt.so (2013.1, Build901 2013/11/27)

>  <Rbt.Parameter_File>
/export/apps/rDock/src/rDock_2013.1_src/data/scripts/dock_solv.prm

>  <Rbt.Receptor>
prm/pocket_docking_8.prm

>  <SCORE>
-10.98

>  <SCORE.INTER>
-6.35786

>  <SCORE.INTER.CONST>
1

>  <SCORE.INTER.POLAR>
0

>  <SCORE.INTER.ROT>
6

>  <SCORE.INTER.SOLV>
17.1448

>  <SCORE.INTER.VDW>
-17.5535

>  <SCORE.INTER.norm>
-0.186996

>  <SCORE.INTRA>
-4.62964

>  <SCORE.INTRA.DIHEDRAL>
-11.3654

>  <SCORE.INTRA.DIHEDRAL.0>
18.0069

>  <SCORE.INTRA.POLAR>
0

>  <SCORE.INTRA.POLAR.0>
0

>  <SCORE.INTRA.REPUL>
0

>  <SCORE.INTRA.REPUL.0>
0

>  <SCORE.INTRA.SOLV>
-0.84236

>  <SCORE.INTRA.SOLV.lig_0>
-70.7393

>  <SCORE.INTRA.VDW>
1.47426

>  <SCORE.INTRA.VDW.0>
-3.23471

>  <SCORE.INTRA.norm>
-0.136166

>  <SCORE.RESTR>
0.00745971

>  <SCORE.RESTR.CAVITY>
0.00745971

>  <SCORE.RESTR.norm>
0.000219403

>  <SCORE.SYSTEM>
0

>  <SCORE.SYSTEM.CONST>
0

>  <SCORE.SYSTEM.DIHEDRAL>
0

>  <SCORE.SYSTEM.SOLV>
0

>  <SCORE.SYSTEM.norm>
0

>  <SCORE.heavy>
34

>  <SCORE.norm>
-0.322942

>  <RMSD>
10.045

$$$$
lig.pdb
 OpenBabel11021811503D
libRbt.so/2013.1/901 2013/11/27
 34 36  0  0  0  0  0  0  0  0999 V2000
    1.1684   16.1150   37.0782 C   0  0  2  0  0  0  0  0  0  0  0  0
    0.1668   16.2807   36.0684 O   0  0  0  0  0  0  0  0  0  0  0  0
    1.3898   14.5611   37.3183 C   0  0  2  0  0  0  0  0  0  0  0  0
    1.8449   13.8730   36.0877 N   0  0  0  0  0  0  0  0  0  0  0  0
    0.0698   13.9245   37.8217 C   0  0  1  0  0  0  0  0  0  0  0  0
    0.2516   12.5252   38.0504 O   0  0  0  0  0  0  0  0  0  0  0  0
   -0.3650   14.6501   39.1074 C   0  0  2  0  0  0  0  0  0  0  0  0
   -1.5799   14.0701   39.5848 O   0  0  0  0  0  0  0  0  0  0  0  0
   -0.5533   16.1876   38.8120 C   0  0  2  0  0  0  0  0  0  0  0  0
    0.7005   16.7797   38.2990 O   0  0  0  0  0  0  0  0  0  0  0  0
   -0.9759   16.9646   40.0835 C   0  0  2  0  0  0  0  0  0  0  0  0
   -0.2513   16.4748   41.2135 O   0  0  0  0  0  0  0  0  0  0  0  0
   -2.4638   16.8065   40.3552 C   0  0  0  0  0  0  0  0  0  0  0  0
   -0.8759   19.6441   33.6360 C   0  0  2  0  0  0  0  0  0  0  0  0
   -1.3514   20.9689   33.2298 N   0  0  0  0  0  0  0  0  0  0  0  0
   -1.9946   18.9978   34.4989 C   0  0  0  0  0  0  0  0  0  0  0  0
   -1.5187   17.5809   34.9197 C   0  0  2  0  0  0  0  0  0  0  0  0
   -2.5529   16.9270   35.7368 N   0  0  0  0  0  0  0  0  0  0  0  0
   -0.1990   17.6572   35.7333 C   0  0  2  0  0  0  0  0  0  0  0  0
    0.8964   18.3509   34.8635 C   0  0  2  0  0  0  0  0  0  0  0  0
    2.1118   18.4312   35.6203 O   0  0  0  0  0  0  0  0  0  0  0  0
    0.4635   19.7855   34.4749 C   0  0  1  0  0  0  0  0  0  0  0  0
    1.5231   20.3517   33.6647 O   0  0  0  0  0  0  0  0  0  0  0  0
    1.3300   21.7183   33.2299 C   0  0  2  0  0  0  0  0  0  0  0  0
    2.5705   22.0699   32.3272 C   0  0  2  0  0  0  0  0  0  0  0  0
    2.6146   21.1985   31.2081 O   0  0  0  0  0  0  0  0  0  0  0  0
    3.8831   21.9469   33.1900 C   0  0  1  0  0  0  0  0  0  0  0  0
    5.0910   22.2630   32.3682 N   0  0  0  0  0  0  0  0  0  0  0  0
    5.6588   21.0011   31.8469 C   0  0  0  0  0  0  0  0  0  0  0  0
    3.7767   22.9302   34.3951 C   0  0  2  0  0  0  0  0  0  0  0  0
    3.6566   24.2597   33.8913 O   0  0  0  0  0  0  0  0  0  0  0  0
    5.0117   22.8660   35.2901 C   0  0  0  0  0  0  0  0  0  0  0  0
    2.5055   22.5782   35.2325 C   0  0  0  0  0  0  0  0  0  0  0  0
    1.2898   22.6268   34.3934 O   0  0  0  0  0  0  0  0  0  0  0  0
  1  3  1  0  0  0  0
  1  2  1  6  0  0  0
  3  5  1  0  0  0  0
  3  4  1  6  0  0  0
  5  6  1  1  0  0  0
  7  8  1  6  0  0  0
  7  5  1  0  0  0  0
  9 10  1  1  0  0  0
  9  7  1  0  0  0  0
 10  1  1  0  0  0  0
 11 13  1  1  0  0  0
 11  9  1  0  0  0  0
 12 11  1  0  0  0  0
 14 15  1  1  0  0  0
 16 14  1  0  0  0  0
 17 18  1  1  0  0  0
 17 16  1  0  0  0  0
 19  2  1  6  0  0  0
 19 20  1  0  0  0  0
 19 17  1  0  0  0  0
 20 21  1  1  0  0  0
 20 22  1  0  0  0  0
 22 23  1  6  0  0  0
 22 14  1  0  0  0  0
 24 23  1  1  0  0  0
 24 25  1  0  0  0  0
 25 27  1  0  0  0  0
 25 26  1  6  0  0  0
 27 28  1  6  0  0  0
 28 29  1  0  0  0  0
 30 31  1  6  0  0  0
 30 32  1  0  0  0  0
 30 27  1  0  0  0  0
 33 30  1  0  0  0  0
 34 33  1  0  0  0  0
 34 24  1  0  0  0  0
M  END
>  <CHROM.1>
178.50973822,40.26232807,-165.65603574,65.80446654,-177.57009282,-95.08386712
0.99479260,18.62718433,35.71612001,-1.96695584,0.02312600,-0.64178097

>  <Name>
lig.pdb

>  <RI>
0

>  <Rbt.Current_Directory>
/home/itssahil/PROJECTS/Mol_Feturizer/New_Systems/rnas/4k32

>  <Rbt.Executable>
rbdock ($Id: //depot/dev/client3/rdock/2013.1/src/exe/rbdock.cxx#4 $)

>  <Rbt.Library>
libRbt.so (2013.1, Build901 2013/11/27)

>  <Rbt.Parameter_File>
/export/apps/rDock/src/rDock_2013.1_src/data/scripts/dock_solv.prm

>  <Rbt.Receptor>
prm/pocket_docking_8.prm

>  <SCORE>
-15.6912

>  <SCORE.INTER>
-8.63294

>  <SCORE.INTER.CONST>
1

>  <SCORE.INTER.POLAR>
0

>  <SCORE.INTER.ROT>
6

>  <SCORE.INTER.SOLV>
14.322

>  <SCORE.INTER.VDW>
-18.1293

>  <SCORE.INTER.norm>
-0.25391

>  <SCORE.INTRA>
-7.07011

>  <SCORE.INTRA.DIHEDRAL>
-14.7178

>  <SCORE.INTRA.DIHEDRAL.0>
18.0069

>  <SCORE.INTRA.POLAR>
0

>  <SCORE.INTRA.POLAR.0>
0

>  <SCORE.INTRA.REPUL>
0

>  <SCORE.INTRA.REPUL.0>
0

>  <SCORE.INTRA.SOLV>
-0.93129

>  <SCORE.INTRA.SOLV.lig_0>
-70.7393

>  <SCORE.INTRA.VDW>
0.75445

>  <SCORE.INTRA.VDW.0>
-3.23471

>  <SCORE.INTRA.norm>
-0.207944

>  <SCORE.RESTR>
0.011815

>  <SCORE.RESTR.CAVITY>
0.011815

>  <SCORE.RESTR.norm>
0.0003475

>  <SCORE.SYSTEM>
0

>  <SCORE.SYSTEM.CONST>
0

>  <SCORE.SYSTEM.DIHEDRAL>
0

>  <SCORE.SYSTEM.SOLV>
0

>  <SCORE.SYSTEM.norm>
0

>  <SCORE.heavy>
34

>  <SCORE.norm>
-0.461507

>  <RMSD>
10.155

$$$$
lig.pdb
 OpenBabel11021811503D
libRbt.so/2013.1/901 2013/11/27
 34 36  0  0  0  0  0  0  0  0999 V2000
   -3.2444   17.9500   36.0040 C   0  0  2  0  0  0  0  0  0  0  0  0
   -1.9388   18.1196   36.5668 O   0  0  0  0  0  0  0  0  0  0  0  0
   -4.3049   17.9382   37.1857 C   0  0  2  0  0  0  0  0  0  0  0  0
   -4.2858   19.2039   37.9555 N   0  0  0  0  0  0  0  0  0  0  0  0
   -4.0133   16.7430   38.1277 C   0  0  1  0  0  0  0  0  0  0  0  0
   -4.9633   16.7117   39.1953 O   0  0  0  0  0  0  0  0  0  0  0  0
   -4.0571   15.4456   37.3010 C   0  0  2  0  0  0  0  0  0  0  0  0
   -3.7933   14.3343   38.1587 O   0  0  0  0  0  0  0  0  0  0  0  0
   -2.9969   15.5217   36.1362 C   0  0  2  0  0  0  0  0  0  0  0  0
   -3.2613   16.6847   35.2626 O   0  0  0  0  0  0  0  0  0  0  0  0
   -3.0154   14.2416   35.2643 C   0  0  2  0  0  0  0  0  0  0  0  0
   -2.7946   13.0932   36.0853 O   0  0  0  0  0  0  0  0  0  0  0  0
   -1.9349   14.2891   34.1952 C   0  0  0  0  0  0  0  0  0  0  0  0
    1.4970   19.9220   34.7603 C   0  0  2  0  0  0  0  0  0  0  0  0
    2.6828   20.1174   33.9225 N   0  0  0  0  0  0  0  0  0  0  0  0
    1.7008   18.5967   35.5450 C   0  0  0  0  0  0  0  0  0  0  0  0
    0.4633   18.3841   36.4584 C   0  0  2  0  0  0  0  0  0  0  0  0
    0.6160   17.1390   37.2274 N   0  0  0  0  0  0  0  0  0  0  0  0
   -0.8402   18.3079   35.6189 C   0  0  2  0  0  0  0  0  0  0  0  0
   -0.9996   19.6306   34.8047 C   0  0  2  0  0  0  0  0  0  0  0  0
   -2.1980   19.5545   34.0208 O   0  0  0  0  0  0  0  0  0  0  0  0
    0.2008   19.8365   33.8491 C   0  0  1  0  0  0  0  0  0  0  0  0
   -0.0178   21.0833   33.1437 O   0  0  0  0  0  0  0  0  0  0  0  0
   -0.2823   22.2425   33.9683 C   0  0  2  0  0  0  0  0  0  0  0  0
   -0.8105   23.3609   32.9948 C   0  0  2  0  0  0  0  0  0  0  0  0
   -2.0029   22.9247   32.3614 O   0  0  0  0  0  0  0  0  0  0  0  0
    0.3070   23.6845   31.9321 C   0  0  1  0  0  0  0  0  0  0  0  0
   -0.1562   24.7374   30.9776 N   0  0  0  0  0  0  0  0  0  0  0  0
   -0.5158   24.0958   29.6948 C   0  0  0  0  0  0  0  0  0  0  0  0
    1.5839   24.1634   32.6875 C   0  0  2  0  0  0  0  0  0  0  0  0
    1.2647   25.3438   33.4225 O   0  0  0  0  0  0  0  0  0  0  0  0
    2.7227   24.4907   31.7250 C   0  0  0  0  0  0  0  0  0  0  0  0
    2.0421   23.0458   33.6784 C   0  0  0  0  0  0  0  0  0  0  0  0
    0.9592   22.7010   34.6234 O   0  0  0  0  0  0  0  0  0  0  0  0
  1  3  1  0  0  0  0
  1  2  1  1  0  0  0
  3  5  1  0  0  0  0
  3  4  1  1  0  0  0
  5  6  1  1  0  0  0
  7  8  1  1  0  0  0
  7  5  1  0  0  0  0
  9 10  1  6  0  0  0
  9  7  1  0  0  0  0
 10  1  1  0  0  0  0
 11 13  1  6  0  0  0
 11  9  1  0  0  0  0
 12 11  1  0  0  0  0
 14 15  1  6  0  0  0
 16 14  1  0  0  0  0
 17 18  1  6  0  0  0
 17 16  1  0  0  0  0
 19  2  1  1  0  0  0
 19 20  1  0  0  0  0
 19 17  1  0  0  0  0
 20 21  1  6  0  0  0
 20 22  1  0  0  0  0
 22 23  1  1  0  0  0
 22 14  1  0  0  0  0
 24 23  1  6  0  0  0
 24 25  1  0  0  0  0
 25 27  1  0  0  0  0
 25 26  1  6  0  0  0
 27 28  1  6  0  0  0
 28 29  1  0  0  0  0
 30 31  1  1  0  0  0
 30 32  1  0  0  0  0
 30 27  1  0  0  0  0
 33 30  1  0  0  0  0
 34 33  1  0  0  0  0
 34 24  1  0  0  0  0
M  END
>  <CHROM.1>
-173.26080432,-56.41049821,-176.78614461,-63.25126903,-167.03193991,-103.63433888
-1.09213605,19.51035320,34.84320675,2.00334455,-0.22591493,2.72891967

>  <Name>
lig.pdb

>  <RI>
0

>  <Rbt.Current_Directory>
/home/itssahil/PROJECTS/Mol_Feturizer/New_Systems/rnas/4k32

>  <Rbt.Executable>
rbdock ($Id: //depot/dev/client3/rdock/2013.1/src/exe/rbdock.cxx#4 $)

>  <Rbt.Library>
libRbt.so (2013.1, Build901 2013/11/27)

>  <Rbt.Parameter_File>
/export/apps/rDock/src/rDock_2013.1_src/data/scripts/dock_solv.prm

>  <Rbt.Receptor>
prm/pocket_docking_7.prm

>  <SCORE>
-11.8757

>  <SCORE.INTER>
-5.14778

>  <SCORE.INTER.CONST>
1

>  <SCORE.INTER.POLAR>
0

>  <SCORE.INTER.ROT>
6

>  <SCORE.INTER.SOLV>
18.2554

>  <SCORE.INTER.VDW>
-17.117

>  <SCORE.INTER.norm>
-0.151405

>  <SCORE.INTRA>
-6.72791

>  <SCORE.INTRA.DIHEDRAL>
-15.7693

>  <SCORE.INTRA.DIHEDRAL.0>
18.0069

>  <SCORE.INTRA.POLAR>
0

>  <SCORE.INTRA.POLAR.0>
0

>  <SCORE.INTRA.REPUL>
0

>  <SCORE.INTRA.REPUL.0>
0

>  <SCORE.INTRA.SOLV>
-0.771466

>  <SCORE.INTRA.SOLV.lig_0>
-70.7393

>  <SCORE.INTRA.VDW>
1.54247

>  <SCORE.INTRA.VDW.0>
-3.23471

>  <SCORE.INTRA.norm>
-0.19788

>  <SCORE.RESTR>
0

>  <SCORE.RESTR.CAVITY>
0

>  <SCORE.RESTR.norm>
0

>  <SCORE.SYSTEM>
0

>  <SCORE.SYSTEM.CONST>
0

>  <SCORE.SYSTEM.DIHEDRAL>
0

>  <SCORE.SYSTEM.SOLV>
0

>  <SCORE.SYSTEM.norm>
0

>  <SCORE.heavy>
34

>  <SCORE.norm>
-0.349285

>  <RMSD>
10.196

$$$$
lig.pdb
 OpenBabel11021811503D
libRbt.so/2013.1/901 2013/11/27
 34 36  0  0  0  0  0  0  0  0999 V2000
   -0.6138   15.5817   36.2240 C   0  0  2  0  0  0  0  0  0  0  0  0
   -0.2540   16.3779   35.0896 O   0  0  0  0  0  0  0  0  0  0  0  0
    0.5778   15.6301   37.2722 C   0  0  2  0  0  0  0  0  0  0  0  0
    0.8488   17.0113   37.7346 N   0  0  0  0  0  0  0  0  0  0  0  0
    1.8533   15.0285   36.6302 C   0  0  1  0  0  0  0  0  0  0  0  0
    2.9366   15.0571   37.5624 O   0  0  0  0  0  0  0  0  0  0  0  0
    1.5424   13.5910   36.1770 C   0  0  2  0  0  0  0  0  0  0  0  0
    2.7121   13.0226   35.5861 O   0  0  0  0  0  0  0  0  0  0  0  0
    0.3439   13.6043   35.1524 C   0  0  2  0  0  0  0  0  0  0  0  0
   -0.8587   14.2117   35.7611 O   0  0  0  0  0  0  0  0  0  0  0  0
   -0.0173   12.1743   34.6792 C   0  0  2  0  0  0  0  0  0  0  0  0
   -0.1245   11.3037   35.8072 O   0  0  0  0  0  0  0  0  0  0  0  0
    1.0427   11.6223   33.7389 C   0  0  0  0  0  0  0  0  0  0  0  0
   -1.1228   20.3973   33.9037 C   0  0  2  0  0  0  0  0  0  0  0  0
   -1.4491   21.8240   33.9695 N   0  0  0  0  0  0  0  0  0  0  0  0
   -2.1895   19.6417   34.7435 C   0  0  0  0  0  0  0  0  0  0  0  0
   -1.8745   18.1232   34.6661 C   0  0  2  0  0  0  0  0  0  0  0  0
   -2.8661   17.3654   35.4453 N   0  0  0  0  0  0  0  0  0  0  0  0
   -0.4549   17.8216   35.2170 C   0  0  2  0  0  0  0  0  0  0  0  0
    0.5948   18.6267   34.3878 C   0  0  2  0  0  0  0  0  0  0  0  0
    1.9048   18.3563   34.9050 O   0  0  0  0  0  0  0  0  0  0  0  0
    0.3293   20.1482   34.4927 C   0  0  1  0  0  0  0  0  0  0  0  0
    1.3336   20.8181   33.6914 O   0  0  0  0  0  0  0  0  0  0  0  0
    2.6421   20.9530   34.2942 C   0  0  2  0  0  0  0  0  0  0  0  0
    2.7756   22.4631   34.7173 C   0  0  2  0  0  0  0  0  0  0  0  0
    1.7643   22.7917   35.6567 O   0  0  0  0  0  0  0  0  0  0  0  0
    2.6661   23.3669   33.4312 C   0  0  1  0  0  0  0  0  0  0  0  0
    2.7777   24.8143   33.7876 N   0  0  0  0  0  0  0  0  0  0  0  0
    1.5000   25.4859   33.4670 C   0  0  0  0  0  0  0  0  0  0  0  0
    3.8043   22.9637   32.4451 C   0  0  2  0  0  0  0  0  0  0  0  0
    5.0615   23.1861   33.0821 O   0  0  0  0  0  0  0  0  0  0  0  0
    3.7631   23.7910   31.1628 C   0  0  0  0  0  0  0  0  0  0  0  0
    3.6642   21.4478   32.0937 C   0  0  0  0  0  0  0  0  0  0  0  0
    3.6958   20.6169   33.3157 O   0  0  0  0  0  0  0  0  0  0  0  0
  1  3  1  0  0  0  0
  1  2  1  6  0  0  0
  3  5  1  0  0  0  0
  3  4  1  6  0  0  0
  5  6  1  1  0  0  0
  7  8  1  6  0  0  0
  7  5  1  0  0  0  0
  9 10  1  1  0  0  0
  9  7  1  0  0  0  0
 10  1  1  0  0  0  0
 11 13  1  6  0  0  0
 11  9  1  0  0  0  0
 12 11  1  0  0  0  0
 14 15  1  1  0  0  0
 16 14  1  0  0  0  0
 17 18  1  1  0  0  0
 17 16  1  0  0  0  0
 19  2  1  6  0  0  0
 19 20  1  0  0  0  0
 19 17  1  0  0  0  0
 20 21  1  1  0  0  0
 20 22  1  0  0  0  0
 22 23  1  6  0  0  0
 22 14  1  0  0  0  0
 24 23  1  6  0  0  0
 24 25  1  0  0  0  0
 25 27  1  0  0  0  0
 25 26  1  1  0  0  0
 27 28  1  1  0  0  0
 28 29  1  0  0  0  0
 30 31  1  1  0  0  0
 30 32  1  0  0  0  0
 30 27  1  0  0  0  0
 33 30  1  0  0  0  0
 34 33  1  0  0  0  0
 34 24  1  0  0  0  0
M  END
>  <CHROM.1>
-81.47920584,47.96481707,-92.12823571,165.07970867,-105.56385562,-115.62481558
1.16369572,18.48490085,34.71434296,1.79004382,-0.17381095,2.93271291

>  <Name>
lig.pdb

>  <RI>
0

>  <Rbt.Current_Directory>
/home/itssahil/PROJECTS/Mol_Feturizer/New_Systems/rnas/4k32

>  <Rbt.Executable>
rbdock ($Id: //depot/dev/client3/rdock/2013.1/src/exe/rbdock.cxx#4 $)

>  <Rbt.Library>
libRbt.so (2013.1, Build901 2013/11/27)

>  <Rbt.Parameter_File>
/export/apps/rDock/src/rDock_2013.1_src/data/scripts/dock_solv.prm

>  <Rbt.Receptor>
prm/pocket_docking_8.prm

>  <SCORE>
-11.0184

>  <SCORE.INTER>
-10.5904

>  <SCORE.INTER.CONST>
1

>  <SCORE.INTER.POLAR>
0

>  <SCORE.INTER.ROT>
6

>  <SCORE.INTER.SOLV>
18.4595

>  <SCORE.INTER.VDW>
-20.8135

>  <SCORE.INTER.norm>
-0.311483

>  <SCORE.INTRA>
-0.42797

>  <SCORE.INTRA.DIHEDRAL>
-2.96846

>  <SCORE.INTRA.DIHEDRAL.0>
18.0069

>  <SCORE.INTRA.POLAR>
0

>  <SCORE.INTRA.POLAR.0>
0

>  <SCORE.INTRA.REPUL>
0

>  <SCORE.INTRA.REPUL.0>
0

>  <SCORE.INTRA.SOLV>
0.830467

>  <SCORE.INTRA.SOLV.lig_0>
-70.7393

>  <SCORE.INTRA.VDW>
0.641028

>  <SCORE.INTRA.VDW.0>
-3.23471

>  <SCORE.INTRA.norm>
-0.0125874

>  <SCORE.RESTR>
0

>  <SCORE.RESTR.CAVITY>
0

>  <SCORE.RESTR.norm>
0

>  <SCORE.SYSTEM>
0

>  <SCORE.SYSTEM.CONST>
0

>  <SCORE.SYSTEM.DIHEDRAL>
0

>  <SCORE.SYSTEM.SOLV>
0

>  <SCORE.SYSTEM.norm>
0

>  <SCORE.heavy>
34

>  <SCORE.norm>
-0.324071

>  <RMSD>
10.203

$$$$
lig.pdb
 OpenBabel11021811503D
libRbt.so/2013.1/901 2013/11/27
 34 36  0  0  0  0  0  0  0  0999 V2000
    1.4318   16.9027   37.5618 C   0  0  2  0  0  0  0  0  0  0  0  0
    0.6842   16.5719   36.3863 O   0  0  0  0  0  0  0  0  0  0  0  0
    2.1222   15.5813   38.1083 C   0  0  2  0  0  0  0  0  0  0  0  0
    3.0479   14.9916   37.1132 N   0  0  0  0  0  0  0  0  0  0  0  0
    1.0307   14.5500   38.4902 C   0  0  1  0  0  0  0  0  0  0  0  0
    1.6337   13.3548   38.9916 O   0  0  0  0  0  0  0  0  0  0  0  0
    0.0983   15.1877   39.5354 C   0  0  2  0  0  0  0  0  0  0  0  0
   -0.9116   14.2453   39.8995 O   0  0  0  0  0  0  0  0  0  0  0  0
   -0.5441   16.5006   38.9437 C   0  0  2  0  0  0  0  0  0  0  0  0
    0.5048   17.4650   38.5494 O   0  0  0  0  0  0  0  0  0  0  0  0
   -1.4802   17.1887   39.9681 C   0  0  2  0  0  0  0  0  0  0  0  0
   -0.8520   17.2234   41.2510 O   0  0  0  0  0  0  0  0  0  0  0  0
   -2.7999   16.4436   40.0938 C   0  0  0  0  0  0  0  0  0  0  0  0
   -0.5162   19.0026   33.0746 C   0  0  2  0  0  0  0  0  0  0  0  0
   -1.2005   20.0254   32.2798 N   0  0  0  0  0  0  0  0  0  0  0  0
   -1.6116   18.1757   33.8026 C   0  0  0  0  0  0  0  0  0  0  0  0
   -0.9061   17.0692   34.6326 C   0  0  2  0  0  0  0  0  0  0  0  0
   -1.9089   16.2551   35.3372 N   0  0  0  0  0  0  0  0  0  0  0  0
    0.0676   17.6892   35.6705 C   0  0  2  0  0  0  0  0  0  0  0  0
    1.1305   18.5519   34.9198 C   0  0  2  0  0  0  0  0  0  0  0  0
    2.0225   19.1334   35.8804 O   0  0  0  0  0  0  0  0  0  0  0  0
    0.4511   19.6937   34.1255 C   0  0  1  0  0  0  0  0  0  0  0  0
    1.4991   20.4351   33.4532 O   0  0  0  0  0  0  0  0  0  0  0  0
    1.0619   21.4894   32.5638 C   0  0  2  0  0  0  0  0  0  0  0  0
    2.3709   22.1620   32.0055 C   0  0  2  0  0  0  0  0  0  0  0  0
    3.1390   21.2043   31.2941 O   0  0  0  0  0  0  0  0  0  0  0  0
    3.1918   22.7621   33.2092 C   0  0  1  0  0  0  0  0  0  0  0  0
    4.4520   23.4040   32.7255 N   0  0  0  0  0  0  0  0  0  0  0  0
    5.5903   22.5083   33.0237 C   0  0  0  0  0  0  0  0  0  0  0  0
    2.2994   23.8085   33.9434 C   0  0  2  0  0  0  0  0  0  0  0  0
    1.9644   24.8482   33.0256 O   0  0  0  0  0  0  0  0  0  0  0  0
    3.0218   24.4339   35.1340 C   0  0  0  0  0  0  0  0  0  0  0  0
    0.9903   23.1108   34.4340 C   0  0  0  0  0  0  0  0  0  0  0  0
    0.2673   22.4898   33.3044 O   0  0  0  0  0  0  0  0  0  0  0  0
  1  3  1  0  0  0  0
  1  2  1  6  0  0  0
  3  5  1  0  0  0  0
  3  4  1  6  0  0  0
  5  6  1  1  0  0  0
  7  8  1  6  0  0  0
  7  5  1  0  0  0  0
  9 10  1  1  0  0  0
  9  7  1  0  0  0  0
 10  1  1  0  0  0  0
 11 13  1  1  0  0  0
 11  9  1  0  0  0  0
 12 11  1  0  0  0  0
 14 15  1  1  0  0  0
 16 14  1  0  0  0  0
 17 18  1  1  0  0  0
 17 16  1  0  0  0  0
 19  2  1  6  0  0  0
 19 20  1  0  0  0  0
 19 17  1  0  0  0  0
 20 21  1  1  0  0  0
 20 22  1  0  0  0  0
 22 23  1  6  0  0  0
 22 14  1  0  0  0  0
 24 23  1  1  0  0  0
 24 25  1  0  0  0  0
 25 27  1  0  0  0  0
 25 26  1  1  0  0  0
 27 28  1  6  0  0  0
 28 29  1  0  0  0  0
 30 31  1  6  0  0  0
 30 32  1  0  0  0  0
 30 27  1  0  0  0  0
 33 30  1  0  0  0  0
 34 33  1  0  0  0  0
 34 24  1  0  0  0  0
M  END
>  <CHROM.1>
-174.89024316,44.82615994,-168.66434350,59.13695282,178.15798050,-103.69120199
0.93248023,18.96059265,35.69322862,-1.86171351,-0.39217776,-0.80774555

>  <Name>
lig.pdb

>  <RI>
0

>  <Rbt.Current_Directory>
/home/itssahil/PROJECTS/Mol_Feturizer/New_Systems/rnas/4k32

>  <Rbt.Executable>
rbdock ($Id: //depot/dev/client3/rdock/2013.1/src/exe/rbdock.cxx#4 $)

>  <Rbt.Library>
libRbt.so (2013.1, Build901 2013/11/27)

>  <Rbt.Parameter_File>
/export/apps/rDock/src/rDock_2013.1_src/data/scripts/dock_solv.prm

>  <Rbt.Receptor>
prm/pocket_docking_6.prm

>  <SCORE>
-13.1571

>  <SCORE.INTER>
-6.30584

>  <SCORE.INTER.CONST>
1

>  <SCORE.INTER.POLAR>
0

>  <SCORE.INTER.ROT>
6

>  <SCORE.INTER.SOLV>
21.4771

>  <SCORE.INTER.VDW>
-18.9629

>  <SCORE.INTER.norm>
-0.185466

>  <SCORE.INTRA>
-6.85122

>  <SCORE.INTRA.DIHEDRAL>
-15.3921

>  <SCORE.INTRA.DIHEDRAL.0>
18.0069

>  <SCORE.INTRA.POLAR>
0

>  <SCORE.INTRA.POLAR.0>
0

>  <SCORE.INTRA.REPUL>
0

>  <SCORE.INTRA.REPUL.0>
0

>  <SCORE.INTRA.SOLV>
-0.877533

>  <SCORE.INTRA.SOLV.lig_0>
-70.7393

>  <SCORE.INTRA.VDW>
1.28358

>  <SCORE.INTRA.VDW.0>
-3.23471

>  <SCORE.INTRA.norm>
-0.201506

>  <SCORE.RESTR>
0

>  <SCORE.RESTR.CAVITY>
0

>  <SCORE.RESTR.norm>
0

>  <SCORE.SYSTEM>
0

>  <SCORE.SYSTEM.CONST>
0

>  <SCORE.SYSTEM.DIHEDRAL>
0

>  <SCORE.SYSTEM.SOLV>
0

>  <SCORE.SYSTEM.norm>
0

>  <SCORE.heavy>
34

>  <SCORE.norm>
-0.386972

>  <RMSD>
10.217

$$$$
lig.pdb
 OpenBabel11021811503D
libRbt.so/2013.1/901 2013/11/27
 34 36  0  0  0  0  0  0  0  0999 V2000
    0.5931   16.1805   35.9004 C   0  0  2  0  0  0  0  0  0  0  0  0
   -0.0173   17.2100   36.6864 O   0  0  0  0  0  0  0  0  0  0  0  0
   -0.4946   15.0632   35.6011 C   0  0  2  0  0  0  0  0  0  0  0  0
   -1.6495   15.6063   34.8488 N   0  0  0  0  0  0  0  0  0  0  0  0
   -0.9784   14.4444   36.9367 C   0  0  1  0  0  0  0  0  0  0  0  0
   -1.9542   13.4301   36.6868 O   0  0  0  0  0  0  0  0  0  0  0  0
    0.2414   13.8760   37.6836 C   0  0  2  0  0  0  0  0  0  0  0  0
   -0.1914   13.2986   38.9164 O   0  0  0  0  0  0  0  0  0  0  0  0
    1.2912   15.0247   37.9381 C   0  0  2  0  0  0  0  0  0  0  0  0
    1.7213   15.6333   36.6612 O   0  0  0  0  0  0  0  0  0  0  0  0
    2.5471   14.4960   38.6746 C   0  0  2  0  0  0  0  0  0  0  0  0
    2.1593   13.8395   39.8830 O   0  0  0  0  0  0  0  0  0  0  0  0
    3.4987   15.6302   39.0220 C   0  0  0  0  0  0  0  0  0  0  0  0
   -0.7818   19.9315   33.4731 C   0  0  2  0  0  0  0  0  0  0  0  0
   -1.1441   21.1474   32.7406 N   0  0  0  0  0  0  0  0  0  0  0  0
   -1.9467   19.6196   34.4527 C   0  0  0  0  0  0  0  0  0  0  0  0
   -1.5918   18.3185   35.2223 C   0  0  2  0  0  0  0  0  0  0  0  0
   -2.6733   17.9806   36.1609 N   0  0  0  0  0  0  0  0  0  0  0  0
   -0.2654   18.4843   36.0116 C   0  0  2  0  0  0  0  0  0  0  0  0
    0.8802   18.8422   35.0129 C   0  0  2  0  0  0  0  0  0  0  0  0
    2.1026   19.0064   35.7445 O   0  0  0  0  0  0  0  0  0  0  0  0
    0.5699   20.1648   34.2707 C   0  0  1  0  0  0  0  0  0  0  0  0
    1.6693   20.4177   33.3612 O   0  0  0  0  0  0  0  0  0  0  0  0
    2.9239   20.8017   33.9713 C   0  0  2  0  0  0  0  0  0  0  0  0
    2.7380   22.2873   34.4567 C   0  0  2  0  0  0  0  0  0  0  0  0
    1.6867   22.3559   35.4072 O   0  0  0  0  0  0  0  0  0  0  0  0
    2.4307   23.1992   33.2090 C   0  0  1  0  0  0  0  0  0  0  0  0
    2.2362   24.6216   33.6251 N   0  0  0  0  0  0  0  0  0  0  0  0
    0.7873   24.9133   33.6699 C   0  0  0  0  0  0  0  0  0  0  0  0
    3.6214   23.0865   32.2089 C   0  0  2  0  0  0  0  0  0  0  0  0
    4.8076   23.5436   32.8567 O   0  0  0  0  0  0  0  0  0  0  0  0
    3.3971   23.9380   30.9619 C   0  0  0  0  0  0  0  0  0  0  0  0
    3.8025   21.5909   31.7948 C   0  0  0  0  0  0  0  0  0  0  0  0
    4.0178   20.7364   32.9815 O   0  0  0  0  0  0  0  0  0  0  0  0
  1  3  1  0  0  0  0
  1  2  1  1  0  0  0
  3  5  1  0  0  0  0
  3  4  1  1  0  0  0
  5  6  1  6  0  0  0
  7  8  1  1  0  0  0
  7  5  1  0  0  0  0
  9 10  1  6  0  0  0
  9  7  1  0  0  0  0
 10  1  1  0  0  0  0
 11 13  1  1  0  0  0
 11  9  1  0  0  0  0
 12 11  1  0  0  0  0
 14 15  1  1  0  0  0
 16 14  1  0  0  0  0
 17 18  1  1  0  0  0
 17 16  1  0  0  0  0
 19  2  1  6  0  0  0
 19 20  1  0  0  0  0
 19 17  1  0  0  0  0
 20 21  1  1  0  0  0
 20 22  1  0  0  0  0
 22 23  1  6  0  0  0
 22 14  1  0  0  0  0
 24 23  1  6  0  0  0
 24 25  1  0  0  0  0
 25 27  1  0  0  0  0
 25 26  1  1  0  0  0
 27 28  1  1  0  0  0
 28 29  1  0  0  0  0
 30 31  1  1  0  0  0
 30 32  1  0  0  0  0
 30 27  1  0  0  0  0
 33 30  1  0  0  0  0
 34 33  1  0  0  0  0
 34 24  1  0  0  0  0
M  END
>  <CHROM.1>
-108.42991536,-54.85386196,82.01656293,172.97310123,-73.80593998,-100.83299917
1.09078472,18.77527825,35.23303365,1.81582179,0.22683686,2.57213110

>  <Name>
lig.pdb

>  <RI>
0

>  <Rbt.Current_Directory>
/home/itssahil/PROJECTS/Mol_Feturizer/New_Systems/rnas/4k32

>  <Rbt.Executable>
rbdock ($Id: //depot/dev/client3/rdock/2013.1/src/exe/rbdock.cxx#4 $)

>  <Rbt.Library>
libRbt.so (2013.1, Build901 2013/11/27)

>  <Rbt.Parameter_File>
/export/apps/rDock/src/rDock_2013.1_src/data/scripts/dock_solv.prm

>  <Rbt.Receptor>
prm/pocket_docking_8.prm

>  <SCORE>
-8.94814

>  <SCORE.INTER>
-9.54868

>  <SCORE.INTER.CONST>
1

>  <SCORE.INTER.POLAR>
0

>  <SCORE.INTER.ROT>
6

>  <SCORE.INTER.SOLV>
16.8556

>  <SCORE.INTER.VDW>
-19.5843

>  <SCORE.INTER.norm>
-0.280844

>  <SCORE.INTRA>
0.597909

>  <SCORE.INTRA.DIHEDRAL>
-7.07984

>  <SCORE.INTRA.DIHEDRAL.0>
18.0069

>  <SCORE.INTRA.POLAR>
0

>  <SCORE.INTRA.POLAR.0>
0

>  <SCORE.INTRA.REPUL>
0

>  <SCORE.INTRA.REPUL.0>
0

>  <SCORE.INTRA.SOLV>
2.98196

>  <SCORE.INTRA.SOLV.lig_0>
-70.7393

>  <SCORE.INTRA.VDW>
2.64685

>  <SCORE.INTRA.VDW.0>
-3.23471

>  <SCORE.INTRA.norm>
0.0175856

>  <SCORE.RESTR>
0.00263279

>  <SCORE.RESTR.CAVITY>
0.00263279

>  <SCORE.RESTR.norm>
7.74349e-05

>  <SCORE.SYSTEM>
0

>  <SCORE.SYSTEM.CONST>
0

>  <SCORE.SYSTEM.DIHEDRAL>
0

>  <SCORE.SYSTEM.SOLV>
0

>  <SCORE.SYSTEM.norm>
0

>  <SCORE.heavy>
34

>  <SCORE.norm>
-0.263181

>  <RMSD>
10.272

$$$$
lig.pdb
 OpenBabel11021811503D
libRbt.so/2013.1/901 2013/11/27
 34 36  0  0  0  0  0  0  0  0999 V2000
    0.7117   17.1674   37.2753 C   0  0  2  0  0  0  0  0  0  0  0  0
    0.3691   17.1502   35.8852 O   0  0  0  0  0  0  0  0  0  0  0  0
    1.1595   15.7050   37.7021 C   0  0  2  0  0  0  0  0  0  0  0  0
    2.3388   15.2437   36.9331 N   0  0  0  0  0  0  0  0  0  0  0  0
   -0.0219   14.7238   37.4959 C   0  0  1  0  0  0  0  0  0  0  0  0
    0.3605   13.4016   37.8818 O   0  0  0  0  0  0  0  0  0  0  0  0
   -1.2224   15.2224   38.3197 C   0  0  2  0  0  0  0  0  0  0  0  0
   -2.3186   14.3240   38.1415 O   0  0  0  0  0  0  0  0  0  0  0  0
   -1.6105   16.6812   37.8639 C   0  0  2  0  0  0  0  0  0  0  0  0
   -0.4672   17.6036   38.0309 O   0  0  0  0  0  0  0  0  0  0  0  0
   -2.8066   17.2335   38.6784 C   0  0  2  0  0  0  0  0  0  0  0  0
   -3.1872   18.5142   38.1720 O   0  0  0  0  0  0  0  0  0  0  0  0
   -2.4492   17.3798   40.1494 C   0  0  0  0  0  0  0  0  0  0  0  0
    0.2367   20.2379   32.9246 C   0  0  2  0  0  0  0  0  0  0  0  0
   -0.1415   21.4586   32.2083 N   0  0  0  0  0  0  0  0  0  0  0  0
   -1.0696   19.4452   33.2053 C   0  0  0  0  0  0  0  0  0  0  0  0
   -0.6866   18.1340   33.9437 C   0  0  2  0  0  0  0  0  0  0  0  0
   -1.8966   17.3460   34.2260 N   0  0  0  0  0  0  0  0  0  0  0  0
    0.0442   18.4414   35.2783 C   0  0  2  0  0  0  0  0  0  0  0  0
    1.3278   19.2771   34.9754 C   0  0  2  0  0  0  0  0  0  0  0  0
    1.9960   19.5702   36.2100 O   0  0  0  0  0  0  0  0  0  0  0  0
    0.9639   20.6134   34.2839 C   0  0  1  0  0  0  0  0  0  0  0  0
    2.2035   21.3191   34.0287 O   0  0  0  0  0  0  0  0  0  0  0  0
    2.7975   21.9919   35.1638 C   0  0  2  0  0  0  0  0  0  0  0  0
    2.0953   23.3974   35.2562 C   0  0  2  0  0  0  0  0  0  0  0  0
    0.7013   23.2273   35.4587 O   0  0  0  0  0  0  0  0  0  0  0  0
    2.3790   24.1999   33.9303 C   0  0  1  0  0  0  0  0  0  0  0  0
    1.7207   25.5414   33.9696 N   0  0  0  0  0  0  0  0  0  0  0  0
    0.4191   25.4563   33.2730 C   0  0  0  0  0  0  0  0  0  0  0  0
    3.9215   24.3592   33.7691 C   0  0  2  0  0  0  0  0  0  0  0  0
    4.4254   25.0875   34.8877 O   0  0  0  0  0  0  0  0  0  0  0  0
    4.2828   25.1225   32.4973 C   0  0  0  0  0  0  0  0  0  0  0  0
    4.5816   22.9436   33.7343 C   0  0  0  0  0  0  0  0  0  0  0  0
    4.2474   22.1747   34.9516 O   0  0  0  0  0  0  0  0  0  0  0  0
  1  3  1  0  0  0  0
  1  2  1  6  0  0  0
  3  5  1  0  0  0  0
  3  4  1  6  0  0  0
  5  6  1  1  0  0  0
  7  8  1  6  0  0  0
  7  5  1  0  0  0  0
  9 10  1  1  0  0  0
  9  7  1  0  0  0  0
 10  1  1  0  0  0  0
 11 13  1  1  0  0  0
 11  9  1  0  0  0  0
 12 11  1  0  0  0  0
 14 15  1  1  0  0  0
 16 14  1  0  0  0  0
 17 18  1  1  0  0  0
 17 16  1  0  0  0  0
 19  2  1  6  0  0  0
 19 20  1  0  0  0  0
 19 17  1  0  0  0  0
 20 21  1  1  0  0  0
 20 22  1  0  0  0  0
 22 23  1  6  0  0  0
 22 14  1  0  0  0  0
 24 23  1  6  0  0  0
 24 25  1  0  0  0  0
 25 27  1  0  0  0  0
 25 26  1  6  0  0  0
 27 28  1  1  0  0  0
 28 29  1  0  0  0  0
 30 31  1  1  0  0  0
 30 32  1  0  0  0  0
 30 27  1  0  0  0  0
 33 30  1  0  0  0  0
 34 33  1  0  0  0  0
 34 24  1  0  0  0  0
M  END
>  <CHROM.1>
-174.70263072,-175.86607310,-163.41339078,165.77958090,-84.72605323,-96.07678790
0.74817138,19.70371303,35.63629209,-1.96834707,0.04928742,-0.42944030

>  <Name>
lig.pdb

>  <RI>
0

>  <Rbt.Current_Directory>
/home/itssahil/PROJECTS/Mol_Feturizer/New_Systems/rnas/4k32

>  <Rbt.Executable>
rbdock ($Id: //depot/dev/client3/rdock/2013.1/src/exe/rbdock.cxx#4 $)

>  <Rbt.Library>
libRbt.so (2013.1, Build901 2013/11/27)

>  <Rbt.Parameter_File>
/export/apps/rDock/src/rDock_2013.1_src/data/scripts/dock_solv.prm

>  <Rbt.Receptor>
prm/pocket_docking_7.prm

>  <SCORE>
-13.2707

>  <SCORE.INTER>
-7.38204

>  <SCORE.INTER.CONST>
1

>  <SCORE.INTER.POLAR>
0

>  <SCORE.INTER.ROT>
6

>  <SCORE.INTER.SOLV>
21.4641

>  <SCORE.INTER.VDW>
-19.6761

>  <SCORE.INTER.norm>
-0.217119

>  <SCORE.INTRA>
-5.8887

>  <SCORE.INTRA.DIHEDRAL>
-12.1145

>  <SCORE.INTRA.DIHEDRAL.0>
18.0069

>  <SCORE.INTRA.POLAR>
0

>  <SCORE.INTRA.POLAR.0>
0

>  <SCORE.INTRA.REPUL>
0

>  <SCORE.INTRA.REPUL.0>
0

>  <SCORE.INTRA.SOLV>
-1.40822

>  <SCORE.INTRA.SOLV.lig_0>
-70.7393

>  <SCORE.INTRA.VDW>
0.872666

>  <SCORE.INTRA.VDW.0>
-3.23471

>  <SCORE.INTRA.norm>
-0.173197

>  <SCORE.RESTR>
0

>  <SCORE.RESTR.CAVITY>
0

>  <SCORE.RESTR.norm>
0

>  <SCORE.SYSTEM>
0

>  <SCORE.SYSTEM.CONST>
0

>  <SCORE.SYSTEM.DIHEDRAL>
0

>  <SCORE.SYSTEM.SOLV>
0

>  <SCORE.SYSTEM.norm>
0

>  <SCORE.heavy>
34

>  <SCORE.norm>
-0.390316

>  <RMSD>
10.472

$$$$
lig.pdb
 OpenBabel11021811503D
libRbt.so/2013.1/901 2013/11/27
 34 36  0  0  0  0  0  0  0  0999 V2000
    0.6576   17.2078   37.1434 C   0  0  2  0  0  0  0  0  0  0  0  0
    0.4231   17.2192   35.7309 O   0  0  0  0  0  0  0  0  0  0  0  0
    1.0748   15.7372   37.5731 C   0  0  2  0  0  0  0  0  0  0  0  0
    2.3110   15.2931   36.8879 N   0  0  0  0  0  0  0  0  0  0  0  0
   -0.0847   14.7595   37.2562 C   0  0  1  0  0  0  0  0  0  0  0  0
    0.2702   13.4298   37.6430 O   0  0  0  0  0  0  0  0  0  0  0  0
   -1.3464   15.2397   37.9953 C   0  0  2  0  0  0  0  0  0  0  0  0
   -2.4233   14.3442   37.7146 O   0  0  0  0  0  0  0  0  0  0  0  0
   -1.7019   16.7073   37.5412 C   0  0  2  0  0  0  0  0  0  0  0  0
   -0.5771   17.6271   37.8148 O   0  0  0  0  0  0  0  0  0  0  0  0
   -2.9585   17.2415   38.2723 C   0  0  2  0  0  0  0  0  0  0  0  0
   -4.0577   16.3542   38.0571 O   0  0  0  0  0  0  0  0  0  0  0  0
   -3.3434   18.6229   37.7661 C   0  0  0  0  0  0  0  0  0  0  0  0
    0.4074   20.3341   32.7960 C   0  0  2  0  0  0  0  0  0  0  0  0
    0.0660   21.5675   32.0831 N   0  0  0  0  0  0  0  0  0  0  0  0
   -0.9185   19.5627   33.0427 C   0  0  0  0  0  0  0  0  0  0  0  0
   -0.5743   18.2386   33.7771 C   0  0  2  0  0  0  0  0  0  0  0  0
   -1.8038   17.4701   34.0272 N   0  0  0  0  0  0  0  0  0  0  0  0
    0.1340   18.5212   35.1291 C   0  0  2  0  0  0  0  0  0  0  0  0
    1.4383   19.3362   34.8602 C   0  0  2  0  0  0  0  0  0  0  0  0
    2.0858   19.6066   36.1109 O   0  0  0  0  0  0  0  0  0  0  0  0
    1.1128   20.6847   34.1734 C   0  0  1  0  0  0  0  0  0  0  0  0
    2.3698   21.3701   33.9501 O   0  0  0  0  0  0  0  0  0  0  0  0
    2.9436   22.0365   35.0992 C   0  0  2  0  0  0  0  0  0  0  0  0
    2.1998   23.4182   35.2206 C   0  0  2  0  0  0  0  0  0  0  0  0
    0.8114   23.2024   35.4188 O   0  0  0  0  0  0  0  0  0  0  0  0
    2.4592   24.2563   33.9118 C   0  0  1  0  0  0  0  0  0  0  0  0
    1.7612   25.5764   33.9788 N   0  0  0  0  0  0  0  0  0  0  0  0
    0.4908   25.4846   33.2275 C   0  0  0  0  0  0  0  0  0  0  0  0
    3.9962   24.4649   33.7547 C   0  0  2  0  0  0  0  0  0  0  0  0
    4.4784   25.1844   34.8885 O   0  0  0  0  0  0  0  0  0  0  0  0
    4.3345   25.2650   32.4994 C   0  0  0  0  0  0  0  0  0  0  0  0
    4.6983   23.0706   33.6908 C   0  0  0  0  0  0  0  0  0  0  0  0
    4.3874   22.2669   34.8917 O   0  0  0  0  0  0  0  0  0  0  0  0
  1  3  1  0  0  0  0
  1  2  1  6  0  0  0
  3  5  1  0  0  0  0
  3  4  1  6  0  0  0
  5  6  1  1  0  0  0
  7  8  1  6  0  0  0
  7  5  1  0  0  0  0
  9 10  1  1  0  0  0
  9  7  1  0  0  0  0
 10  1  1  0  0  0  0
 11 13  1  6  0  0  0
 11  9  1  0  0  0  0
 12 11  1  0  0  0  0
 14 15  1  1  0  0  0
 16 14  1  0  0  0  0
 17 18  1  1  0  0  0
 17 16  1  0  0  0  0
 19  2  1  6  0  0  0
 19 20  1  0  0  0  0
 19 17  1  0  0  0  0
 20 21  1  1  0  0  0
 20 22  1  0  0  0  0
 22 23  1  6  0  0  0
 22 14  1  0  0  0  0
 24 23  1  6  0  0  0
 24 25  1  0  0  0  0
 25 27  1  0  0  0  0
 25 26  1  6  0  0  0
 27 28  1  1  0  0  0
 28 29  1  0  0  0  0
 30 31  1  1  0  0  0
 30 32  1  0  0  0  0
 30 27  1  0  0  0  0
 33 30  1  0  0  0  0
 34 33  1  0  0  0  0
 34 24  1  0  0  0  0
M  END
>  <CHROM.1>
-175.09044561,-56.26764655,-159.76602658,165.03055101,-81.41204016,-98.61550205
0.73490162,19.72675141,35.43371857,-2.00733081,-0.02577446,-0.41603023

>  <Name>
lig.pdb

>  <RI>
0

>  <Rbt.Current_Directory>
/home/itssahil/PROJECTS/Mol_Feturizer/New_Systems/rnas/4k32

>  <Rbt.Executable>
rbdock ($Id: //depot/dev/client3/rdock/2013.1/src/exe/rbdock.cxx#4 $)

>  <Rbt.Library>
libRbt.so (2013.1, Build901 2013/11/27)

>  <Rbt.Parameter_File>
/export/apps/rDock/src/rDock_2013.1_src/data/scripts/dock_solv.prm

>  <Rbt.Receptor>
prm/pocket_docking_7.prm

>  <SCORE>
-13.9437

>  <SCORE.INTER>
-8.01655

>  <SCORE.INTER.CONST>
1

>  <SCORE.INTER.POLAR>
0

>  <SCORE.INTER.ROT>
6

>  <SCORE.INTER.SOLV>
21.3767

>  <SCORE.INTER.VDW>
-20.0699

>  <SCORE.INTER.norm>
-0.235781

>  <SCORE.INTRA>
-5.9271

>  <SCORE.INTRA.DIHEDRAL>
-11.9947

>  <SCORE.INTRA.DIHEDRAL.0>
18.0069

>  <SCORE.INTRA.POLAR>
0

>  <SCORE.INTRA.POLAR.0>
0

>  <SCORE.INTRA.REPUL>
0

>  <SCORE.INTRA.REPUL.0>
0

>  <SCORE.INTRA.SOLV>
-0.412556

>  <SCORE.INTRA.SOLV.lig_0>
-70.7393

>  <SCORE.INTRA.VDW>
0.276501

>  <SCORE.INTRA.VDW.0>
-3.23471

>  <SCORE.INTRA.norm>
-0.174327

>  <SCORE.RESTR>
0

>  <SCORE.RESTR.CAVITY>
0

>  <SCORE.RESTR.norm>
0

>  <SCORE.SYSTEM>
0

>  <SCORE.SYSTEM.CONST>
0

>  <SCORE.SYSTEM.DIHEDRAL>
0

>  <SCORE.SYSTEM.SOLV>
0

>  <SCORE.SYSTEM.norm>
0

>  <SCORE.heavy>
34

>  <SCORE.norm>
-0.410107

>  <RMSD>
10.526

$$$$
lig.pdb
 OpenBabel11021811503D
libRbt.so/2013.1/901 2013/11/27
 34 36  0  0  0  0  0  0  0  0999 V2000
    7.9600   16.8054   19.2208 C   0  0  2  0  0  0  0  0  0  0  0  0
    7.0698   16.6660   18.1080 O   0  0  0  0  0  0  0  0  0  0  0  0
    9.2099   15.8541   18.9885 C   0  0  2  0  0  0  0  0  0  0  0  0
    9.9459   16.2040   17.7512 N   0  0  0  0  0  0  0  0  0  0  0  0
    8.7311   14.3821   18.9195 C   0  0  1  0  0  0  0  0  0  0  0  0
    9.8447   13.5089   18.7174 O   0  0  0  0  0  0  0  0  0  0  0  0
    7.9866   14.0473   20.2243 C   0  0  2  0  0  0  0  0  0  0  0  0
    7.5425   12.6906   20.1755 O   0  0  0  0  0  0  0  0  0  0  0  0
    6.7688   15.0319   20.4088 C   0  0  2  0  0  0  0  0  0  0  0  0
    7.2305   16.4361   20.4383 O   0  0  0  0  0  0  0  0  0  0  0  0
    5.9968   14.7438   21.7203 C   0  0  2  0  0  0  0  0  0  0  0  0
    5.3932   13.4504   21.6528 O   0  0  0  0  0  0  0  0  0  0  0  0
    4.9057   15.7771   21.9541 C   0  0  0  0  0  0  0  0  0  0  0  0
    4.2223   19.5211   19.5421 C   0  0  2  0  0  0  0  0  0  0  0  0
    3.1272   20.4938   19.5731 N   0  0  0  0  0  0  0  0  0  0  0  0
    5.2113   19.9763   18.4337 C   0  0  0  0  0  0  0  0  0  0  0  0
    6.3932   18.9698   18.4016 C   0  0  2  0  0  0  0  0  0  0  0  0
    7.3609   19.3661   17.3665 N   0  0  0  0  0  0  0  0  0  0  0  0
    5.8901   17.5316   18.1052 C   0  0  2  0  0  0  0  0  0  0  0  0
    4.8641   17.1140   19.2055 C   0  0  2  0  0  0  0  0  0  0  0  0
    4.3914   15.7896   18.9242 O   0  0  0  0  0  0  0  0  0  0  0  0
    3.6514   18.0760   19.2206 C   0  0  1  0  0  0  0  0  0  0  0  0
    2.7581   17.6283   20.2700 O   0  0  0  0  0  0  0  0  0  0  0  0
    1.8182   18.6099   20.7668 C   0  0  2  0  0  0  0  0  0  0  0  0
    1.1832   17.9895   22.0664 C   0  0  2  0  0  0  0  0  0  0  0  0
    2.1967   17.7466   23.0293 O   0  0  0  0  0  0  0  0  0  0  0  0
    0.4361   16.6557   21.6849 C   0  0  1  0  0  0  0  0  0  0  0  0
   -0.1756   16.0246   22.8940 N   0  0  0  0  0  0  0  0  0  0  0  0
    0.8688   15.2711   23.6208 C   0  0  0  0  0  0  0  0  0  0  0  0
   -0.6654   16.9892   20.6334 C   0  0  2  0  0  0  0  0  0  0  0  0
   -1.5898   17.9074   21.2149 O   0  0  0  0  0  0  0  0  0  0  0  0
   -1.4340   15.7426   20.2025 C   0  0  0  0  0  0  0  0  0  0  0  0
    0.0020   17.6494   19.3845 C   0  0  0  0  0  0  0  0  0  0  0  0
    0.7596   18.8592   19.7678 O   0  0  0  0  0  0  0  0  0  0  0  0
  1  3  1  0  0  0  0
  1  2  1  6  0  0  0
  3  5  1  0  0  0  0
  3  4  1  6  0  0  0
  5  6  1  1  0  0  0
  7  8  1  6  0  0  0
  7  5  1  0  0  0  0
  9 10  1  1  0  0  0
  9  7  1  0  0  0  0
 10  1  1  0  0  0  0
 11 13  1  6  0  0  0
 11  9  1  0  0  0  0
 12 11  1  0  0  0  0
 14 15  1  6  0  0  0
 16 14  1  0  0  0  0
 17 18  1  6  0  0  0
 17 16  1  0  0  0  0
 19  2  1  1  0  0  0
 19 20  1  0  0  0  0
 19 17  1  0  0  0  0
 20 21  1  6  0  0  0
 20 22  1  0  0  0  0
 22 23  1  1  0  0  0
 22 14  1  0  0  0  0
 24 23  1  6  0  0  0
 24 25  1  0  0  0  0
 25 27  1  0  0  0  0
 25 26  1  1  0  0  0
 27 28  1  1  0  0  0
 28 29  1  0  0  0  0
 30 31  1  1  0  0  0
 30 32  1  0  0  0  0
 30 27  1  0  0  0  0
 33 30  1  0  0  0  0
 34 33  1  0  0  0  0
 34 24  1  0  0  0  0
M  END
>  <CHROM.1>
-176.44507734,-65.03935185,48.57525282,43.34252219,-168.77082457,-81.05031165
4.38830026,16.71229999,20.09712141,-0.07180210,0.34016308,-0.52390801

>  <Name>
lig.pdb

>  <RI>
0

>  <Rbt.Current_Directory>
/home/itssahil/PROJECTS/Mol_Feturizer/New_Systems/rnas/4k32

>  <Rbt.Executable>
rbdock ($Id: //depot/dev/client3/rdock/2013.1/src/exe/rbdock.cxx#4 $)

>  <Rbt.Library>
libRbt.so (2013.1, Build901 2013/11/27)

>  <Rbt.Parameter_File>
/export/apps/rDock/src/rDock_2013.1_src/data/scripts/dock_solv.prm

>  <Rbt.Receptor>
prm/blind_docking_80.prm

>  <SCORE>
10.3032

>  <SCORE.INTER>
2.93541

>  <SCORE.INTER.CONST>
1

>  <SCORE.INTER.POLAR>
0

>  <SCORE.INTER.ROT>
6

>  <SCORE.INTER.SOLV>
21.1953

>  <SCORE.INTER.VDW>
-12.7081

>  <SCORE.INTER.norm>
0.0863355

>  <SCORE.INTRA>
-2.59444

>  <SCORE.INTRA.DIHEDRAL>
-14.9633

>  <SCORE.INTRA.DIHEDRAL.0>
18.0069

>  <SCORE.INTRA.POLAR>
0

>  <SCORE.INTRA.POLAR.0>
0

>  <SCORE.INTRA.REPUL>
0

>  <SCORE.INTRA.REPUL.0>
0

>  <SCORE.INTRA.SOLV>
1.06687

>  <SCORE.INTRA.SOLV.lig_0>
-70.7393

>  <SCORE.INTRA.VDW>
4.35377

>  <SCORE.INTRA.VDW.0>
-3.23471

>  <SCORE.INTRA.norm>
-0.0763071

>  <SCORE.RESTR>
9.96221

>  <SCORE.RESTR.CAVITY>
9.96221

>  <SCORE.RESTR.norm>
0.293006

>  <SCORE.SYSTEM>
0

>  <SCORE.SYSTEM.CONST>
0

>  <SCORE.SYSTEM.DIHEDRAL>
0

>  <SCORE.SYSTEM.SOLV>
0

>  <SCORE.SYSTEM.norm>
0

>  <SCORE.heavy>
34

>  <SCORE.norm>
0.303035

>  <RMSD>
19.139

$$$$
lig.pdb
 OpenBabel11021811503D
libRbt.so/2013.1/901 2013/11/27
 34 36  0  0  0  0  0  0  0  0999 V2000
    8.0807   16.3701   19.1304 C   0  0  2  0  0  0  0  0  0  0  0  0
    7.1283   16.2337   18.0700 O   0  0  0  0  0  0  0  0  0  0  0  0
    8.9669   15.0537   19.1844 C   0  0  2  0  0  0  0  0  0  0  0  0
    9.7027   14.8329   17.9176 N   0  0  0  0  0  0  0  0  0  0  0  0
    8.0602   13.8344   19.4877 C   0  0  1  0  0  0  0  0  0  0  0  0
    8.8423   12.6393   19.5471 O   0  0  0  0  0  0  0  0  0  0  0  0
    7.3248   14.0890   20.8155 C   0  0  2  0  0  0  0  0  0  0  0  0
    6.4873   12.9698   21.1094 O   0  0  0  0  0  0  0  0  0  0  0  0
    6.4765   15.4138   20.7076 C   0  0  2  0  0  0  0  0  0  0  0  0
    7.3441   16.5662   20.3834 O   0  0  0  0  0  0  0  0  0  0  0  0
    5.7295   15.7213   22.0291 C   0  0  2  0  0  0  0  0  0  0  0  0
    6.5652   15.4023   23.1434 O   0  0  0  0  0  0  0  0  0  0  0  0
    4.4468   14.9115   22.1368 C   0  0  0  0  0  0  0  0  0  0  0  0
    4.6491   19.4855   19.3333 C   0  0  2  0  0  0  0  0  0  0  0  0
    3.6929   20.5949   19.3028 N   0  0  0  0  0  0  0  0  0  0  0  0
    5.7193   19.7696   18.2434 C   0  0  0  0  0  0  0  0  0  0  0  0
    6.7570   18.6151   18.2766 C   0  0  2  0  0  0  0  0  0  0  0  0
    7.7962   18.8460   17.2609 N   0  0  0  0  0  0  0  0  0  0  0  0
    6.0749   17.2472   18.0060 C   0  0  2  0  0  0  0  0  0  0  0  0
    4.9734   17.0049   19.0856 C   0  0  2  0  0  0  0  0  0  0  0  0
    4.3361   15.7463   18.8278 O   0  0  0  0  0  0  0  0  0  0  0  0
    3.8997   18.1189   19.0358 C   0  0  1  0  0  0  0  0  0  0  0  0
    2.9269   17.8276   20.0695 O   0  0  0  0  0  0  0  0  0  0  0  0
    2.0797   18.9287   20.4739 C   0  0  2  0  0  0  0  0  0  0  0  0
    1.2191   18.3986   21.6805 C   0  0  2  0  0  0  0  0  0  0  0  0
    2.0710   18.0148   22.7482 O   0  0  0  0  0  0  0  0  0  0  0  0
    0.3451   17.1825   21.1909 C   0  0  1  0  0  0  0  0  0  0  0  0
   -0.4836   16.6389   22.3099 N   0  0  0  0  0  0  0  0  0  0  0  0
    0.3806   15.8300   23.1962 C   0  0  0  0  0  0  0  0  0  0  0  0
   -0.5708   17.6686   20.0267 C   0  0  2  0  0  0  0  0  0  0  0  0
   -1.4213   18.7044   20.5159 O   0  0  0  0  0  0  0  0  0  0  0  0
   -1.4483   16.5419   19.4872 C   0  0  0  0  0  0  0  0  0  0  0  0
    0.3213   18.2334   18.8750 C   0  0  0  0  0  0  0  0  0  0  0  0
    1.1884   19.3253   19.3653 O   0  0  0  0  0  0  0  0  0  0  0  0
  1  3  1  0  0  0  0
  1  2  1  6  0  0  0
  3  5  1  0  0  0  0
  3  4  1  6  0  0  0
  5  6  1  1  0  0  0
  7  8  1  6  0  0  0
  7  5  1  0  0  0  0
  9 10  1  1  0  0  0
  9  7  1  0  0  0  0
 10  1  1  0  0  0  0
 11 13  1  1  0  0  0
 11  9  1  0  0  0  0
 12 11  1  0  0  0  0
 14 15  1  6  0  0  0
 16 14  1  0  0  0  0
 17 18  1  6  0  0  0
 17 16  1  0  0  0  0
 19  2  1  1  0  0  0
 19 20  1  0  0  0  0
 19 17  1  0  0  0  0
 20 21  1  6  0  0  0
 20 22  1  0  0  0  0
 22 23  1  1  0  0  0
 22 14  1  0  0  0  0
 24 23  1  6  0  0  0
 24 25  1  0  0  0  0
 25 27  1  0  0  0  0
 25 26  1  1  0  0  0
 27 28  1  1  0  0  0
 28 29  1  0  0  0  0
 30 31  1  1  0  0  0
 30 32  1  0  0  0  0
 30 27  1  0  0  0  0
 33 30  1  0  0  0  0
 34 33  1  0  0  0  0
 34 24  1  0  0  0  0
M  END
>  <CHROM.1>
170.01240101,38.95500670,42.46547827,45.53624380,-174.89429318,-76.71059255
4.38073247,16.81581830,20.05700600,-0.17330053,0.33682078,-0.64641706

>  <Name>
lig.pdb

>  <RI>
0

>  <Rbt.Current_Directory>
/home/itssahil/PROJECTS/Mol_Feturizer/New_Systems/rnas/4k32

>  <Rbt.Executable>
rbdock ($Id: //depot/dev/client3/rdock/2013.1/src/exe/rbdock.cxx#4 $)

>  <Rbt.Library>
libRbt.so (2013.1, Build901 2013/11/27)

>  <Rbt.Parameter_File>
/export/apps/rDock/src/rDock_2013.1_src/data/scripts/dock_solv.prm

>  <Rbt.Receptor>
prm/blind_docking_80.prm

>  <SCORE>
13.0167

>  <SCORE.INTER>
4.07009

>  <SCORE.INTER.CONST>
1

>  <SCORE.INTER.POLAR>
0

>  <SCORE.INTER.ROT>
6

>  <SCORE.INTER.SOLV>
23.4849

>  <SCORE.INTER.VDW>
-12.7149

>  <SCORE.INTER.norm>
0.119709

>  <SCORE.INTRA>
0.106073

>  <SCORE.INTRA.DIHEDRAL>
-13.279

>  <SCORE.INTRA.DIHEDRAL.0>
18.0069

>  <SCORE.INTRA.POLAR>
0

>  <SCORE.INTRA.POLAR.0>
0

>  <SCORE.INTRA.REPUL>
0

>  <SCORE.INTRA.REPUL.0>
0

>  <SCORE.INTRA.SOLV>
1.11794

>  <SCORE.INTRA.SOLV.lig_0>
-70.7393

>  <SCORE.INTRA.VDW>
6.1866

>  <SCORE.INTRA.VDW.0>
-3.23471

>  <SCORE.INTRA.norm>
0.0031198

>  <SCORE.RESTR>
8.84053

>  <SCORE.RESTR.CAVITY>
8.84053

>  <SCORE.RESTR.norm>
0.260016

>  <SCORE.SYSTEM>
0

>  <SCORE.SYSTEM.CONST>
0

>  <SCORE.SYSTEM.DIHEDRAL>
0

>  <SCORE.SYSTEM.SOLV>
0

>  <SCORE.SYSTEM.norm>
0

>  <SCORE.heavy>
34

>  <SCORE.norm>
0.382844

>  <RMSD>
19.268

$$$$
lig.pdb
 OpenBabel11021811503D
libRbt.so/2013.1/901 2013/11/27
 34 36  0  0  0  0  0  0  0  0999 V2000
    7.7217   14.5223   18.7928 C   0  0  2  0  0  0  0  0  0  0  0  0
    7.7030   14.9062   20.1722 O   0  0  0  0  0  0  0  0  0  0  0  0
    9.1955   14.0672   18.4162 C   0  0  2  0  0  0  0  0  0  0  0  0
    9.6407   12.9129   19.2313 N   0  0  0  0  0  0  0  0  0  0  0  0
   10.1680   15.2576   18.6116 C   0  0  1  0  0  0  0  0  0  0  0  0
   11.5005   14.8686   18.2703 O   0  0  0  0  0  0  0  0  0  0  0  0
    9.6868   16.4314   17.7400 C   0  0  2  0  0  0  0  0  0  0  0  0
   10.5774   17.5355   17.9078 O   0  0  0  0  0  0  0  0  0  0  0  0
    8.2160   16.8277   18.1475 C   0  0  2  0  0  0  0  0  0  0  0  0
    7.3013   15.6767   17.9918 O   0  0  0  0  0  0  0  0  0  0  0  0
    7.6810   17.9971   17.2842 C   0  0  2  0  0  0  0  0  0  0  0  0
    8.2925   17.9652   15.9932 O   0  0  0  0  0  0  0  0  0  0  0  0
    7.9819   19.3403   17.9309 C   0  0  0  0  0  0  0  0  0  0  0  0
    3.4563   14.6383   20.6306 C   0  0  2  0  0  0  0  0  0  0  0  0
    2.1189   14.6872   21.2264 N   0  0  0  0  0  0  0  0  0  0  0  0
    4.3432   13.7651   21.5605 C   0  0  0  0  0  0  0  0  0  0  0  0
    5.7607   13.6810   20.9322 C   0  0  2  0  0  0  0  0  0  0  0  0
    6.6362   12.8560   21.7794 N   0  0  0  0  0  0  0  0  0  0  0  0
    6.3847   15.0940   20.7784 C   0  0  2  0  0  0  0  0  0  0  0  0
    5.4537   15.9667   19.8786 C   0  0  2  0  0  0  0  0  0  0  0  0
    6.0253   17.2753   19.7465 O   0  0  0  0  0  0  0  0  0  0  0  0
    4.0484   16.1057   20.5126 C   0  0  1  0  0  0  0  0  0  0  0  0
    3.2481   16.9150   19.6157 O   0  0  0  0  0  0  0  0  0  0  0  0
    2.9280   18.2485   20.0772 C   0  0  2  0  0  0  0  0  0  0  0  0
    1.8325   18.0741   21.1937 C   0  0  2  0  0  0  0  0  0  0  0  0
    2.3510   17.2950   22.2603 O   0  0  0  0  0  0  0  0  0  0  0  0
    0.5614   17.3903   20.5617 C   0  0  1  0  0  0  0  0  0  0  0  0
   -0.5045   17.1951   21.5913 N   0  0  0  0  0  0  0  0  0  0  0  0
   -0.1036   16.0931   22.4921 C   0  0  0  0  0  0  0  0  0  0  0  0
    0.0368   18.2948   19.4053 C   0  0  2  0  0  0  0  0  0  0  0  0
   -0.3209   19.5660   19.9453 O   0  0  0  0  0  0  0  0  0  0  0  0
   -1.1951   17.6960   18.7313 C   0  0  0  0  0  0  0  0  0  0  0  0
    1.1714   18.4834   18.3478 C   0  0  0  0  0  0  0  0  0  0  0  0
    2.3828   19.0585   18.9694 O   0  0  0  0  0  0  0  0  0  0  0  0
  1  3  1  0  0  0  0
  1  2  1  1  0  0  0
  3  5  1  0  0  0  0
  3  4  1  1  0  0  0
  5  6  1  6  0  0  0
  7  8  1  1  0  0  0
  7  5  1  0  0  0  0
  9 10  1  6  0  0  0
  9  7  1  0  0  0  0
 10  1  1  0  0  0  0
 11 13  1  1  0  0  0
 11  9  1  0  0  0  0
 12 11  1  0  0  0  0
 14 15  1  1  0  0  0
 16 14  1  0  0  0  0
 17 18  1  1  0  0  0
 17 16  1  0  0  0  0
 19  2  1  6  0  0  0
 19 20  1  0  0  0  0
 19 17  1  0  0  0  0
 20 21  1  1  0  0  0
 20 22  1  0  0  0  0
 22 23  1  6  0  0  0
 22 14  1  0  0  0  0
 24 23  1  6  0  0  0
 24 25  1  0  0  0  0
 25 27  1  0  0  0  0
 25 26  1  1  0  0  0
 27 28  1  1  0  0  0
 28 29  1  0  0  0  0
 30 31  1  1  0  0  0
 30 32  1  0  0  0  0
 30 27  1  0  0  0  0
 33 30  1  0  0  0  0
 34 33  1  0  0  0  0
 34 24  1  0  0  0  0
M  END
>  <CHROM.1>
-167.85326945,29.28910098,71.59824143,134.60961790,-73.93433337,-73.26177309
5.07931343,16.41401945,19.59162352,0.04597186,-0.31375379,2.53488367

>  <Name>
lig.pdb

>  <RI>
0

>  <Rbt.Current_Directory>
/home/itssahil/PROJECTS/Mol_Feturizer/New_Systems/rnas/4k32

>  <Rbt.Executable>
rbdock ($Id: //depot/dev/client3/rdock/2013.1/src/exe/rbdock.cxx#4 $)

>  <Rbt.Library>
libRbt.so (2013.1, Build901 2013/11/27)

>  <Rbt.Parameter_File>
/export/apps/rDock/src/rDock_2013.1_src/data/scripts/dock_solv.prm

>  <Rbt.Receptor>
prm/blind_docking_80.prm

>  <SCORE>
16.9245

>  <SCORE.INTER>
3.11696

>  <SCORE.INTER.CONST>
1

>  <SCORE.INTER.POLAR>
0

>  <SCORE.INTER.ROT>
6

>  <SCORE.INTER.SOLV>
19.5076

>  <SCORE.INTER.VDW>
-12.0246

>  <SCORE.INTER.norm>
0.0916753

>  <SCORE.INTRA>
2.14076

>  <SCORE.INTRA.DIHEDRAL>
-6.66163

>  <SCORE.INTRA.DIHEDRAL.0>
18.0069

>  <SCORE.INTRA.POLAR>
0

>  <SCORE.INTRA.POLAR.0>
0

>  <SCORE.INTRA.REPUL>
0

>  <SCORE.INTRA.REPUL.0>
0

>  <SCORE.INTRA.SOLV>
3.33959

>  <SCORE.INTRA.SOLV.lig_0>
-70.7393

>  <SCORE.INTRA.VDW>
3.80179

>  <SCORE.INTRA.VDW.0>
-3.23471

>  <SCORE.INTRA.norm>
0.0629636

>  <SCORE.RESTR>
11.6667

>  <SCORE.RESTR.CAVITY>
11.6667

>  <SCORE.RESTR.norm>
0.343139

>  <SCORE.SYSTEM>
0

>  <SCORE.SYSTEM.CONST>
0

>  <SCORE.SYSTEM.DIHEDRAL>
0

>  <SCORE.SYSTEM.SOLV>
0

>  <SCORE.SYSTEM.norm>
0

>  <SCORE.heavy>
34

>  <SCORE.norm>
0.497778

>  <RMSD>
19.703

$$$$
lig.pdb
 OpenBabel11021811503D
libRbt.so/2013.1/901 2013/11/27
 34 36  0  0  0  0  0  0  0  0999 V2000
    1.0155   17.6201   21.1180 C   0  0  2  0  0  0  0  0  0  0  0  0
    1.5591   16.7617   20.1091 O   0  0  0  0  0  0  0  0  0  0  0  0
   -0.4043   18.1362   20.6292 C   0  0  2  0  0  0  0  0  0  0  0  0
   -1.3495   17.0177   20.4047 N   0  0  0  0  0  0  0  0  0  0  0  0
   -0.2339   18.9533   19.3237 C   0  0  1  0  0  0  0  0  0  0  0  0
   -1.5023   19.4328   18.8715 O   0  0  0  0  0  0  0  0  0  0  0  0
    0.7390   20.1144   19.5960 C   0  0  2  0  0  0  0  0  0  0  0  0
    0.9024   20.8789   18.4005 O   0  0  0  0  0  0  0  0  0  0  0  0
    2.1224   19.5432   20.0923 C   0  0  2  0  0  0  0  0  0  0  0  0
    1.9461   18.7358   21.3182 O   0  0  0  0  0  0  0  0  0  0  0  0
    3.1317   20.6782   20.3959 C   0  0  2  0  0  0  0  0  0  0  0  0
    2.4970   21.6956   21.1727 O   0  0  0  0  0  0  0  0  0  0  0  0
    3.6576   21.3037   19.1133 C   0  0  0  0  0  0  0  0  0  0  0  0
    5.3289   16.0722   22.0144 C   0  0  2  0  0  0  0  0  0  0  0  0
    6.5498   15.4067   22.4752 N   0  0  0  0  0  0  0  0  0  0  0  0
    4.1303   15.1759   22.4313 C   0  0  0  0  0  0  0  0  0  0  0  0
    2.8233   15.8774   21.9723 C   0  0  2  0  0  0  0  0  0  0  0  0
    1.6577   15.0639   22.3525 N   0  0  0  0  0  0  0  0  0  0  0  0
    2.8172   16.0892   20.4345 C   0  0  2  0  0  0  0  0  0  0  0  0
    4.0547   16.9531   20.0344 C   0  0  2  0  0  0  0  0  0  0  0  0
    4.0543   17.1384   18.6124 O   0  0  0  0  0  0  0  0  0  0  0  0
    5.3720   16.2474   20.4379 C   0  0  1  0  0  0  0  0  0  0  0  0
    6.4644   17.1143   20.0443 O   0  0  0  0  0  0  0  0  0  0  0  0
    6.5976   17.3651   18.6255 C   0  0  2  0  0  0  0  0  0  0  0  0
    6.9894   15.9876   17.9723 C   0  0  2  0  0  0  0  0  0  0  0  0
    5.9666   15.0333   18.2099 O   0  0  0  0  0  0  0  0  0  0  0  0
    8.3621   15.5059   18.5775 C   0  0  1  0  0  0  0  0  0  0  0  0
    8.7696   14.1925   17.9917 N   0  0  0  0  0  0  0  0  0  0  0  0
    9.0206   13.2355   19.0907 C   0  0  0  0  0  0  0  0  0  0  0  0
    9.4421   16.5897   18.2782 C   0  0  2  0  0  0  0  0  0  0  0  0
    9.5655   16.7340   16.8641 O   0  0  0  0  0  0  0  0  0  0  0  0
   10.8066   16.2013   18.8418 C   0  0  0  0  0  0  0  0  0  0  0  0
    8.9883   17.9499   18.8987 C   0  0  0  0  0  0  0  0  0  0  0  0
    7.6658   18.3538   18.3765 O   0  0  0  0  0  0  0  0  0  0  0  0
  1  3  1  0  0  0  0
  1  2  1  6  0  0  0
  3  5  1  0  0  0  0
  3  4  1  6  0  0  0
  5  6  1  1  0  0  0
  7  8  1  6  0  0  0
  7  5  1  0  0  0  0
  9 10  1  1  0  0  0
  9  7  1  0  0  0  0
 10  1  1  0  0  0  0
 11 13  1  6  0  0  0
 11  9  1  0  0  0  0
 12 11  1  0  0  0  0
 14 15  1  6  0  0  0
 16 14  1  0  0  0  0
 17 18  1  6  0  0  0
 17 16  1  0  0  0  0
 19  2  1  1  0  0  0
 19 20  1  0  0  0  0
 19 17  1  0  0  0  0
 20 21  1  6  0  0  0
 20 22  1  0  0  0  0
 22 23  1  1  0  0  0
 22 14  1  0  0  0  0
 24 23  1  1  0  0  0
 24 25  1  0  0  0  0
 25 27  1  0  0  0  0
 25 26  1  1  0  0  0
 27 28  1  6  0  0  0
 28 29  1  0  0  0  0
 30 31  1  6  0  0  0
 30 32  1  0  0  0  0
 30 27  1  0  0  0  0
 33 30  1  0  0  0  0
 34 33  1  0  0  0  0
 34 24  1  0  0  0  0
M  END
>  <CHROM.1>
-174.63303986,46.58413136,30.09679215,-179.25211357,-66.40386973,-125.70957387
4.40476564,17.35876291,19.76486862,2.88794461,0.31958368,-0.43457239

>  <Name>
lig.pdb

>  <RI>
0

>  <Rbt.Current_Directory>
/home/itssahil/PROJECTS/Mol_Feturizer/New_Systems/rnas/4k32

>  <Rbt.Executable>
rbdock ($Id: //depot/dev/client3/rdock/2013.1/src/exe/rbdock.cxx#4 $)

>  <Rbt.Library>
libRbt.so (2013.1, Build901 2013/11/27)

>  <Rbt.Parameter_File>
/export/apps/rDock/src/rDock_2013.1_src/data/scripts/dock_solv.prm

>  <Rbt.Receptor>
prm/blind_docking_80.prm

>  <SCORE>
6.05849

>  <SCORE.INTER>
-2.9021

>  <SCORE.INTER.CONST>
1

>  <SCORE.INTER.POLAR>
0

>  <SCORE.INTER.ROT>
6

>  <SCORE.INTER.SOLV>
25.4465

>  <SCORE.INTER.VDW>
-18.0169

>  <SCORE.INTER.norm>
-0.0853559

>  <SCORE.INTRA>
-0.684051

>  <SCORE.INTRA.DIHEDRAL>
-12.2201

>  <SCORE.INTRA.DIHEDRAL.0>
18.0069

>  <SCORE.INTRA.POLAR>
0

>  <SCORE.INTRA.POLAR.0>
0

>  <SCORE.INTRA.REPUL>
0

>  <SCORE.INTRA.REPUL.0>
0

>  <SCORE.INTRA.SOLV>
-0.344485

>  <SCORE.INTRA.SOLV.lig_0>
-70.7393

>  <SCORE.INTRA.VDW>
5.59826

>  <SCORE.INTRA.VDW.0>
-3.23471

>  <SCORE.INTRA.norm>
-0.0201191

>  <SCORE.RESTR>
9.64464

>  <SCORE.RESTR.CAVITY>
9.64464

>  <SCORE.RESTR.norm>
0.283666

>  <SCORE.SYSTEM>
0

>  <SCORE.SYSTEM.CONST>
0

>  <SCORE.SYSTEM.DIHEDRAL>
0

>  <SCORE.SYSTEM.SOLV>
0

>  <SCORE.SYSTEM.norm>
0

>  <SCORE.heavy>
34

>  <SCORE.norm>
0.178191

>  <RMSD>
19.972

$$$$
lig.pdb
 OpenBabel11021811503D
libRbt.so/2013.1/901 2013/11/27
 34 36  0  0  0  0  0  0  0  0999 V2000
    7.6807   13.7331   19.2855 C   0  0  2  0  0  0  0  0  0  0  0  0
    7.8594   14.1344   20.6483 O   0  0  0  0  0  0  0  0  0  0  0  0
    9.0767   13.2287   18.7215 C   0  0  2  0  0  0  0  0  0  0  0  0
    9.5947   12.0716   19.4880 N   0  0  0  0  0  0  0  0  0  0  0  0
   10.1001   14.3914   18.7646 C   0  0  1  0  0  0  0  0  0  0  0  0
   11.3627   13.9578   18.2536 O   0  0  0  0  0  0  0  0  0  0  0  0
    9.5393   15.5683   17.9467 C   0  0  2  0  0  0  0  0  0  0  0  0
   10.4755   16.6468   17.9751 O   0  0  0  0  0  0  0  0  0  0  0  0
    8.1488   16.0142   18.5419 C   0  0  2  0  0  0  0  0  0  0  0  0
    7.1890   14.8897   18.5296 O   0  0  0  0  0  0  0  0  0  0  0  0
    7.5356   17.1886   17.7394 C   0  0  2  0  0  0  0  0  0  0  0  0
    8.2297   17.3427   16.5000 O   0  0  0  0  0  0  0  0  0  0  0  0
    7.6313   18.4933   18.5148 C   0  0  0  0  0  0  0  0  0  0  0  0
    3.6778   14.5408   21.4641 C   0  0  2  0  0  0  0  0  0  0  0  0
    2.4135   14.6938   22.1882 N   0  0  0  0  0  0  0  0  0  0  0  0
    4.4262   13.3338   22.0942 C   0  0  0  0  0  0  0  0  0  0  0  0
    5.7600   13.1401   21.3232 C   0  0  2  0  0  0  0  0  0  0  0  0
    6.5021   12.0001   21.8842 N   0  0  0  0  0  0  0  0  0  0  0  0
    6.6419   14.4146   21.4099 C   0  0  2  0  0  0  0  0  0  0  0  0
    5.8520   15.6220   20.8134 C   0  0  2  0  0  0  0  0  0  0  0  0
    6.6631   16.8012   20.9046 O   0  0  0  0  0  0  0  0  0  0  0  0
    4.5413   15.8649   21.6005 C   0  0  1  0  0  0  0  0  0  0  0  0
    3.8668   16.9875   20.9803 O   0  0  0  0  0  0  0  0  0  0  0  0
    3.6133   16.8715   19.5604 C   0  0  2  0  0  0  0  0  0  0  0  0
    3.3802   18.3372   19.0362 C   0  0  2  0  0  0  0  0  0  0  0  0
    4.5397   19.1217   19.2669 O   0  0  0  0  0  0  0  0  0  0  0  0
    2.1285   18.9509   19.7707 C   0  0  1  0  0  0  0  0  0  0  0  0
    1.8751   20.3501   19.3100 N   0  0  0  0  0  0  0  0  0  0  0  0
    2.6608   21.2800   20.1494 C   0  0  0  0  0  0  0  0  0  0  0  0
    0.8904   18.0512   19.4734 C   0  0  2  0  0  0  0  0  0  0  0  0
    0.6618   18.0387   18.0652 O   0  0  0  0  0  0  0  0  0  0  0  0
   -0.3688   18.5749   20.1593 C   0  0  0  0  0  0  0  0  0  0  0  0
    1.1853   16.5967   19.9620 C   0  0  0  0  0  0  0  0  0  0  0  0
    2.4033   16.0601   19.3192 O   0  0  0  0  0  0  0  0  0  0  0  0
  1  3  1  0  0  0  0
  1  2  1  1  0  0  0
  3  5  1  0  0  0  0
  3  4  1  1  0  0  0
  5  6  1  6  0  0  0
  7  8  1  1  0  0  0
  7  5  1  0  0  0  0
  9 10  1  6  0  0  0
  9  7  1  0  0  0  0
 10  1  1  0  0  0  0
 11 13  1  1  0  0  0
 11  9  1  0  0  0  0
 12 11  1  0  0  0  0
 14 15  1  1  0  0  0
 16 14  1  0  0  0  0
 17 18  1  1  0  0  0
 17 16  1  0  0  0  0
 19  2  1  6  0  0  0
 19 20  1  0  0  0  0
 19 17  1  0  0  0  0
 20 21  1  1  0  0  0
 20 22  1  0  0  0  0
 22 23  1  6  0  0  0
 22 14  1  0  0  0  0
 24 23  1  1  0  0  0
 24 25  1  0  0  0  0
 25 27  1  0  0  0  0
 25 26  1  1  0  0  0
 27 28  1  6  0  0  0
 28 29  1  0  0  0  0
 30 31  1  6  0  0  0
 30 32  1  0  0  0  0
 30 27  1  0  0  0  0
 33 30  1  0  0  0  0
 34 33  1  0  0  0  0
 34 24  1  0  0  0  0
M  END
>  <CHROM.1>
-169.90121465,13.70663843,55.84223896,-61.28256690,-159.97769053,-88.20898960
5.53839015,16.13777637,19.66855633,0.36433819,-0.34375129,2.62287348

>  <Name>
lig.pdb

>  <RI>
0

>  <Rbt.Current_Directory>
/home/itssahil/PROJECTS/Mol_Feturizer/New_Systems/rnas/4k32

>  <Rbt.Executable>
rbdock ($Id: //depot/dev/client3/rdock/2013.1/src/exe/rbdock.cxx#4 $)

>  <Rbt.Library>
libRbt.so (2013.1, Build901 2013/11/27)

>  <Rbt.Parameter_File>
/export/apps/rDock/src/rDock_2013.1_src/data/scripts/dock_solv.prm

>  <Rbt.Receptor>
prm/blind_docking_80.prm

>  <SCORE>
8.49274

>  <SCORE.INTER>
0.788886

>  <SCORE.INTER.CONST>
1

>  <SCORE.INTER.POLAR>
0

>  <SCORE.INTER.ROT>
6

>  <SCORE.INTER.SOLV>
22.2894

>  <SCORE.INTER.VDW>
-14.5039

>  <SCORE.INTER.norm>
0.0232025

>  <SCORE.INTRA>
-2.70237

>  <SCORE.INTRA.DIHEDRAL>
-10.3097

>  <SCORE.INTRA.DIHEDRAL.0>
18.0069

>  <SCORE.INTRA.POLAR>
0

>  <SCORE.INTRA.POLAR.0>
0

>  <SCORE.INTRA.REPUL>
0

>  <SCORE.INTRA.REPUL.0>
0

>  <SCORE.INTRA.SOLV>
1.43507

>  <SCORE.INTRA.SOLV.lig_0>
-70.7393

>  <SCORE.INTRA.VDW>
1.73493

>  <SCORE.INTRA.VDW.0>
-3.23471

>  <SCORE.INTRA.norm>
-0.0794815

>  <SCORE.RESTR>
10.4062

>  <SCORE.RESTR.CAVITY>
10.4062

>  <SCORE.RESTR.norm>
0.306065

>  <SCORE.SYSTEM>
0

>  <SCORE.SYSTEM.CONST>
0

>  <SCORE.SYSTEM.DIHEDRAL>
0

>  <SCORE.SYSTEM.SOLV>
0

>  <SCORE.SYSTEM.norm>
0

>  <SCORE.heavy>
34

>  <SCORE.norm>
0.249786

>  <RMSD>
19.989

$$$$
lig.pdb
 OpenBabel11021811503D
libRbt.so/2013.1/901 2013/11/27
 34 36  0  0  0  0  0  0  0  0999 V2000
    1.9993   16.8991   21.7916 C   0  0  2  0  0  0  0  0  0  0  0  0
    2.0637   15.7586   20.9283 O   0  0  0  0  0  0  0  0  0  0  0  0
    0.4889   17.1131   22.2322 C   0  0  2  0  0  0  0  0  0  0  0  0
   -0.0430   15.9395   22.9635 N   0  0  0  0  0  0  0  0  0  0  0  0
   -0.3787   17.3918   20.9790 C   0  0  1  0  0  0  0  0  0  0  0  0
   -1.7424   17.5942   21.3569 O   0  0  0  0  0  0  0  0  0  0  0  0
    0.1902   18.6242   20.2536 C   0  0  2  0  0  0  0  0  0  0  0  0
   -0.6033   18.8949   19.0971 O   0  0  0  0  0  0  0  0  0  0  0  0
    1.6930   18.3599   19.8557 C   0  0  2  0  0  0  0  0  0  0  0  0
    2.5067   18.0602   21.0531 O   0  0  0  0  0  0  0  0  0  0  0  0
    2.3152   19.5819   19.1356 C   0  0  2  0  0  0  0  0  0  0  0  0
    1.4696   19.9921   18.0594 O   0  0  0  0  0  0  0  0  0  0  0  0
    3.6885   19.2483   18.5739 C   0  0  0  0  0  0  0  0  0  0  0  0
    6.1145   14.7717   21.8942 C   0  0  2  0  0  0  0  0  0  0  0  0
    7.3942   14.0608   21.9505 N   0  0  0  0  0  0  0  0  0  0  0  0
    5.0063   13.7572   22.2898 C   0  0  0  0  0  0  0  0  0  0  0  0
    3.6427   14.4994   22.2596 C   0  0  2  0  0  0  0  0  0  0  0  0
    2.5608   13.5753   22.6344 N   0  0  0  0  0  0  0  0  0  0  0  0
    3.3548   15.0750   20.8470 C   0  0  2  0  0  0  0  0  0  0  0  0
    4.5041   16.0554   20.4526 C   0  0  2  0  0  0  0  0  0  0  0  0
    4.2430   16.5778   19.1428 O   0  0  0  0  0  0  0  0  0  0  0  0
    5.8676   15.3230   20.4270 C   0  0  1  0  0  0  0  0  0  0  0  0
    6.8756   16.2993   20.0656 O   0  0  0  0  0  0  0  0  0  0  0  0
    6.8717   16.7366   18.6864 C   0  0  2  0  0  0  0  0  0  0  0  0
    7.3942   15.5175   17.8391 C   0  0  2  0  0  0  0  0  0  0  0  0
    6.5266   14.4073   18.0062 O   0  0  0  0  0  0  0  0  0  0  0  0
    8.8587   15.1634   18.3003 C   0  0  1  0  0  0  0  0  0  0  0  0
    9.3931   14.0012   17.5271 N   0  0  0  0  0  0  0  0  0  0  0  0
   10.2042   13.1574   18.4308 C   0  0  0  0  0  0  0  0  0  0  0  0
    9.7612   16.4164   18.0857 C   0  0  2  0  0  0  0  0  0  0  0  0
    9.7621   16.7471   16.6978 O   0  0  0  0  0  0  0  0  0  0  0  0
   11.2022   16.1580   18.5183 C   0  0  0  0  0  0  0  0  0  0  0  0
    9.1773   17.6139   18.9018 C   0  0  0  0  0  0  0  0  0  0  0  0
    7.7788   17.8885   18.5100 O   0  0  0  0  0  0  0  0  0  0  0  0
  1  3  1  0  0  0  0
  1  2  1  6  0  0  0
  3  5  1  0  0  0  0
  3  4  1  6  0  0  0
  5  6  1  1  0  0  0
  7  8  1  6  0  0  0
  7  5  1  0  0  0  0
  9 10  1  1  0  0  0
  9  7  1  0  0  0  0
 10  1  1  0  0  0  0
 11 13  1  6  0  0  0
 11  9  1  0  0  0  0
 12 11  1  0  0  0  0
 14 15  1  6  0  0  0
 16 14  1  0  0  0  0
 17 18  1  6  0  0  0
 17 16  1  0  0  0  0
 19  2  1  1  0  0  0
 19 20  1  0  0  0  0
 19 17  1  0  0  0  0
 20 21  1  6  0  0  0
 20 22  1  0  0  0  0
 22 23  1  1  0  0  0
 22 14  1  0  0  0  0
 24 23  1  1  0  0  0
 24 25  1  0  0  0  0
 25 27  1  0  0  0  0
 25 26  1  1  0  0  0
 27 28  1  6  0  0  0
 28 29  1  0  0  0  0
 30 31  1  6  0  0  0
 30 32  1  0  0  0  0
 30 27  1  0  0  0  0
 33 30  1  0  0  0  0
 34 33  1  0  0  0  0
 34 24  1  0  0  0  0
M  END
>  <CHROM.1>
-156.11999457,-51.31516471,64.26510279,171.59267079,-71.13596050,-142.52717623
4.70542675,16.41946499,19.89383523,3.12983816,0.35485024,-0.68189729

>  <Name>
lig.pdb

>  <RI>
0

>  <Rbt.Current_Directory>
/home/itssahil/PROJECTS/Mol_Feturizer/New_Systems/rnas/4k32

>  <Rbt.Executable>
rbdock ($Id: //depot/dev/client3/rdock/2013.1/src/exe/rbdock.cxx#4 $)

>  <Rbt.Library>
libRbt.so (2013.1, Build901 2013/11/27)

>  <Rbt.Parameter_File>
/export/apps/rDock/src/rDock_2013.1_src/data/scripts/dock_solv.prm

>  <Rbt.Receptor>
prm/blind_docking_80.prm

>  <SCORE>
10.3563

>  <SCORE.INTER>
2.51749

>  <SCORE.INTER.CONST>
1

>  <SCORE.INTER.POLAR>
0

>  <SCORE.INTER.ROT>
6

>  <SCORE.INTER.SOLV>
21.376

>  <SCORE.INTER.VDW>
-13.047

>  <SCORE.INTER.norm>
0.0740437

>  <SCORE.INTRA>
-2.8802

>  <SCORE.INTRA.DIHEDRAL>
-13.3353

>  <SCORE.INTRA.DIHEDRAL.0>
18.0069

>  <SCORE.INTRA.POLAR>
0

>  <SCORE.INTRA.POLAR.0>
0

>  <SCORE.INTRA.REPUL>
0

>  <SCORE.INTRA.REPUL.0>
0

>  <SCORE.INTRA.SOLV>
0.546642

>  <SCORE.INTRA.SOLV.lig_0>
-70.7393

>  <SCORE.INTRA.VDW>
3.51415

>  <SCORE.INTRA.VDW.0>
-3.23471

>  <SCORE.INTRA.norm>
-0.0847117

>  <SCORE.RESTR>
10.719

>  <SCORE.RESTR.CAVITY>
10.719

>  <SCORE.RESTR.norm>
0.315265

>  <SCORE.SYSTEM>
0

>  <SCORE.SYSTEM.CONST>
0

>  <SCORE.SYSTEM.DIHEDRAL>
0

>  <SCORE.SYSTEM.SOLV>
0

>  <SCORE.SYSTEM.norm>
0

>  <SCORE.heavy>
34

>  <SCORE.norm>
0.304597

>  <RMSD>
20.081

$$$$
lig.pdb
 OpenBabel11021811503D
libRbt.so/2013.1/901 2013/11/27
 34 36  0  0  0  0  0  0  0  0999 V2000
    2.0977   16.9263   21.7417 C   0  0  2  0  0  0  0  0  0  0  0  0
    2.1277   15.7324   20.9519 O   0  0  0  0  0  0  0  0  0  0  0  0
    0.6004   17.1903   22.1996 C   0  0  2  0  0  0  0  0  0  0  0  0
    0.0691   16.0737   23.0156 N   0  0  0  0  0  0  0  0  0  0  0  0
   -0.2908   17.4014   20.9498 C   0  0  1  0  0  0  0  0  0  0  0  0
   -1.6430   17.6477   21.3427 O   0  0  0  0  0  0  0  0  0  0  0  0
    0.2784   18.5766   20.1350 C   0  0  2  0  0  0  0  0  0  0  0  0
   -0.5368   18.7848   18.9807 O   0  0  0  0  0  0  0  0  0  0  0  0
    1.7683   18.2653   19.7232 C   0  0  2  0  0  0  0  0  0  0  0  0
    2.6042   18.0304   20.9198 O   0  0  0  0  0  0  0  0  0  0  0  0
    2.3909   19.4296   18.9133 C   0  0  2  0  0  0  0  0  0  0  0  0
    3.6967   19.0629   18.4639 O   0  0  0  0  0  0  0  0  0  0  0  0
    2.5042   20.6884   19.7591 C   0  0  0  0  0  0  0  0  0  0  0  0
    6.1795   14.7189   21.8857 C   0  0  2  0  0  0  0  0  0  0  0  0
    7.4586   14.0056   21.9222 N   0  0  0  0  0  0  0  0  0  0  0  0
    5.0711   13.6961   22.2588 C   0  0  0  0  0  0  0  0  0  0  0  0
    3.7082   14.4400   22.2493 C   0  0  2  0  0  0  0  0  0  0  0  0
    2.6262   13.5081   22.6038 N   0  0  0  0  0  0  0  0  0  0  0  0
    3.4180   15.0498   20.8516 C   0  0  2  0  0  0  0  0  0  0  0  0
    4.5675   16.0385   20.4787 C   0  0  2  0  0  0  0  0  0  0  0  0
    4.3042   16.5925   19.1824 O   0  0  0  0  0  0  0  0  0  0  0  0
    5.9302   15.3056   20.4327 C   0  0  1  0  0  0  0  0  0  0  0  0
    6.9384   16.2895   20.0930 O   0  0  0  0  0  0  0  0  0  0  0  0
    6.9359   16.7558   18.7232 C   0  0  2  0  0  0  0  0  0  0  0  0
    7.4374   15.5472   17.8485 C   0  0  2  0  0  0  0  0  0  0  0  0
    6.5543   14.4464   17.9958 O   0  0  0  0  0  0  0  0  0  0  0  0
    8.8983   15.1623   18.2964 C   0  0  1  0  0  0  0  0  0  0  0  0
    9.4128   14.0089   17.4969 N   0  0  0  0  0  0  0  0  0  0  0  0
   10.1953   13.1223   18.3848 C   0  0  0  0  0  0  0  0  0  0  0  0
    9.8182   16.4063   18.1046 C   0  0  2  0  0  0  0  0  0  0  0  0
    9.8189   16.7660   16.7240 O   0  0  0  0  0  0  0  0  0  0  0  0
   11.2569   16.1179   18.5260 C   0  0  0  0  0  0  0  0  0  0  0  0
    9.2548   17.5947   18.9479 C   0  0  0  0  0  0  0  0  0  0  0  0
    7.8591   17.8977   18.5675 O   0  0  0  0  0  0  0  0  0  0  0  0
  1  3  1  0  0  0  0
  1  2  1  6  0  0  0
  3  5  1  0  0  0  0
  3  4  1  6  0  0  0
  5  6  1  1  0  0  0
  7  8  1  6  0  0  0
  7  5  1  0  0  0  0
  9 10  1  1  0  0  0
  9  7  1  0  0  0  0
 10  1  1  0  0  0  0
 11 13  1  1  0  0  0
 11  9  1  0  0  0  0
 12 11  1  0  0  0  0
 14 15  1  6  0  0  0
 16 14  1  0  0  0  0
 17 18  1  6  0  0  0
 17 16  1  0  0  0  0
 19  2  1  1  0  0  0
 19 20  1  0  0  0  0
 19 17  1  0  0  0  0
 20 21  1  6  0  0  0
 20 22  1  0  0  0  0
 22 23  1  1  0  0  0
 22 14  1  0  0  0  0
 24 23  1  1  0  0  0
 24 25  1  0  0  0  0
 25 27  1  0  0  0  0
 25 26  1  1  0  0  0
 27 28  1  6  0  0  0
 28 29  1  0  0  0  0
 30 31  1  6  0  0  0
 30 32  1  0  0  0  0
 30 27  1  0  0  0  0
 33 30  1  0  0  0  0
 34 33  1  0  0  0  0
 34 24  1  0  0  0  0
M  END
>  <CHROM.1>
-158.05183976,-175.11801182,70.05560978,171.33420153,-70.24555193,-141.55755103
4.80426913,16.41960505,19.92527409,3.11218306,0.36373322,-0.61711855

>  <Name>
lig.pdb

>  <RI>
0

>  <Rbt.Current_Directory>
/home/itssahil/PROJECTS/Mol_Feturizer/New_Systems/rnas/4k32

>  <Rbt.Executable>
rbdock ($Id: //depot/dev/client3/rdock/2013.1/src/exe/rbdock.cxx#4 $)

>  <Rbt.Library>
libRbt.so (2013.1, Build901 2013/11/27)

>  <Rbt.Parameter_File>
/export/apps/rDock/src/rDock_2013.1_src/data/scripts/dock_solv.prm

>  <Rbt.Receptor>
prm/blind_docking_80.prm

>  <SCORE>
8.08326

>  <SCORE.INTER>
1.93264

>  <SCORE.INTER.CONST>
1

>  <SCORE.INTER.POLAR>
0

>  <SCORE.INTER.ROT>
6

>  <SCORE.INTER.SOLV>
21.9963

>  <SCORE.INTER.VDW>
-13.6437

>  <SCORE.INTER.norm>
0.0568424

>  <SCORE.INTRA>
-3.26819

>  <SCORE.INTRA.DIHEDRAL>
-13.5078

>  <SCORE.INTRA.DIHEDRAL.0>
18.0069

>  <SCORE.INTRA.POLAR>
0

>  <SCORE.INTRA.POLAR.0>
0

>  <SCORE.INTRA.REPUL>
0.00634519

>  <SCORE.INTRA.REPUL.0>
0

>  <SCORE.INTRA.SOLV>
0.378787

>  <SCORE.INTRA.SOLV.lig_0>
-70.7393

>  <SCORE.INTRA.VDW>
3.26458

>  <SCORE.INTRA.VDW.0>
-3.23471

>  <SCORE.INTRA.norm>
-0.0961231

>  <SCORE.RESTR>
9.41881

>  <SCORE.RESTR.CAVITY>
9.41881

>  <SCORE.RESTR.norm>
0.277024

>  <SCORE.SYSTEM>
0

>  <SCORE.SYSTEM.CONST>
0

>  <SCORE.SYSTEM.DIHEDRAL>
0

>  <SCORE.SYSTEM.SOLV>
0

>  <SCORE.SYSTEM.norm>
0

>  <SCORE.heavy>
34

>  <SCORE.norm>
0.237743

>  <RMSD>
20.091

$$$$
lig.pdb
 OpenBabel11021811503D
libRbt.so/2013.1/901 2013/11/27
 34 36  0  0  0  0  0  0  0  0999 V2000
    7.9888   13.7726   18.9711 C   0  0  2  0  0  0  0  0  0  0  0  0
    8.2327   14.0219   20.3598 O   0  0  0  0  0  0  0  0  0  0  0  0
    9.3596   13.3582   18.2851 C   0  0  2  0  0  0  0  0  0  0  0  0
    9.9293   12.1316   18.8898 N   0  0  0  0  0  0  0  0  0  0  0  0
   10.3706   14.5260   18.4079 C   0  0  1  0  0  0  0  0  0  0  0  0
   11.6102   14.1738   17.7891 O   0  0  0  0  0  0  0  0  0  0  0  0
    9.7553   15.7773   17.7566 C   0  0  2  0  0  0  0  0  0  0  0  0
   10.6794   16.8616   17.8595 O   0  0  0  0  0  0  0  0  0  0  0  0
    8.3923   16.1302   18.4666 C   0  0  2  0  0  0  0  0  0  0  0  0
    7.4459   14.9979   18.3755 O   0  0  0  0  0  0  0  0  0  0  0  0
    7.7254   17.3763   17.8329 C   0  0  2  0  0  0  0  0  0  0  0  0
    8.0404   17.4387   16.4406 O   0  0  0  0  0  0  0  0  0  0  0  0
    8.2083   18.6560   18.4977 C   0  0  0  0  0  0  0  0  0  0  0  0
    4.0983   14.3670   21.4110 C   0  0  2  0  0  0  0  0  0  0  0  0
    2.8739   14.4870   22.2062 N   0  0  0  0  0  0  0  0  0  0  0  0
    4.8882   13.1481   21.9626 C   0  0  0  0  0  0  0  0  0  0  0  0
    6.1798   12.9894   21.1155 C   0  0  2  0  0  0  0  0  0  0  0  0
    6.9591   11.8395   21.6007 N   0  0  0  0  0  0  0  0  0  0  0  0
    7.0560   14.2683   21.1939 C   0  0  2  0  0  0  0  0  0  0  0  0
    6.2266   15.4864   20.6780 C   0  0  2  0  0  0  0  0  0  0  0  0
    7.0332   16.6692   20.7617 O   0  0  0  0  0  0  0  0  0  0  0  0
    4.9586   15.6939   21.5414 C   0  0  1  0  0  0  0  0  0  0  0  0
    4.2438   16.8288   20.9930 O   0  0  0  0  0  0  0  0  0  0  0  0
    4.1068   16.8586   19.5529 C   0  0  2  0  0  0  0  0  0  0  0  0
    4.1335   18.3777   19.1419 C   0  0  2  0  0  0  0  0  0  0  0  0
    5.3670   18.9608   19.5315 O   0  0  0  0  0  0  0  0  0  0  0  0
    2.9202   19.1147   19.8257 C   0  0  1  0  0  0  0  0  0  0  0  0
    2.9116   20.5666   19.4704 N   0  0  0  0  0  0  0  0  0  0  0  0
    2.9468   21.3641   20.7151 C   0  0  0  0  0  0  0  0  0  0  0  0
    1.5990   18.4348   19.3537 C   0  0  2  0  0  0  0  0  0  0  0  0
    1.5003   18.5619   17.9361 O   0  0  0  0  0  0  0  0  0  0  0  0
    0.3699   19.0878   19.9808 C   0  0  0  0  0  0  0  0  0  0  0  0
    1.6380   16.9201   19.7351 C   0  0  0  0  0  0  0  0  0  0  0  0
    2.8208   16.2573   19.1465 O   0  0  0  0  0  0  0  0  0  0  0  0
  1  3  1  0  0  0  0
  1  2  1  1  0  0  0
  3  5  1  0  0  0  0
  3  4  1  1  0  0  0
  5  6  1  6  0  0  0
  7  8  1  1  0  0  0
  7  5  1  0  0  0  0
  9 10  1  6  0  0  0
  9  7  1  0  0  0  0
 10  1  1  0  0  0  0
 11 13  1  1  0  0  0
 11  9  1  0  0  0  0
 12 11  1  0  0  0  0
 14 15  1  1  0  0  0
 16 14  1  0  0  0  0
 17 18  1  1  0  0  0
 17 16  1  0  0  0  0
 19  2  1  6  0  0  0
 19 20  1  0  0  0  0
 19 17  1  0  0  0  0
 20 21  1  1  0  0  0
 20 22  1  0  0  0  0
 22 23  1  6  0  0  0
 22 14  1  0  0  0  0
 24 23  1  1  0  0  0
 24 25  1  0  0  0  0
 25 27  1  0  0  0  0
 25 26  1  1  0  0  0
 27 28  1  6  0  0  0
 28 29  1  0  0  0  0
 30 31  1  6  0  0  0
 30 32  1  0  0  0  0
 30 27  1  0  0  0  0
 33 30  1  0  0  0  0
 34 33  1  0  0  0  0
 34 24  1  0  0  0  0
M  END
>  <CHROM.1>
-173.19189175,31.70918113,60.98617843,-71.04797398,-147.06736076,-123.19031721
5.97253386,16.20468461,19.55656077,0.41075973,-0.38581850,2.67070563

>  <Name>
lig.pdb

>  <RI>
0

>  <Rbt.Current_Directory>
/home/itssahil/PROJECTS/Mol_Feturizer/New_Systems/rnas/4k32

>  <Rbt.Executable>
rbdock ($Id: //depot/dev/client3/rdock/2013.1/src/exe/rbdock.cxx#4 $)

>  <Rbt.Library>
libRbt.so (2013.1, Build901 2013/11/27)

>  <Rbt.Parameter_File>
/export/apps/rDock/src/rDock_2013.1_src/data/scripts/dock_solv.prm

>  <Rbt.Receptor>
prm/blind_docking_80.prm

>  <SCORE>
9.10674

>  <SCORE.INTER>
1.13033

>  <SCORE.INTER.CONST>
1

>  <SCORE.INTER.POLAR>
0

>  <SCORE.INTER.ROT>
6

>  <SCORE.INTER.SOLV>
23.4907

>  <SCORE.INTER.VDW>
-14.6767

>  <SCORE.INTER.norm>
0.0332449

>  <SCORE.INTRA>
-2.30078

>  <SCORE.INTRA.DIHEDRAL>
-9.36915

>  <SCORE.INTRA.DIHEDRAL.0>
18.0069

>  <SCORE.INTRA.POLAR>
0

>  <SCORE.INTRA.POLAR.0>
0

>  <SCORE.INTRA.REPUL>
0

>  <SCORE.INTRA.REPUL.0>
0

>  <SCORE.INTRA.SOLV>
0.777927

>  <SCORE.INTRA.SOLV.lig_0>
-70.7393

>  <SCORE.INTRA.VDW>
1.99483

>  <SCORE.INTRA.VDW.0>
-3.23471

>  <SCORE.INTRA.norm>
-0.06767

>  <SCORE.RESTR>
10.2772

>  <SCORE.RESTR.CAVITY>
10.2772

>  <SCORE.RESTR.norm>
0.30227

>  <SCORE.SYSTEM>
0

>  <SCORE.SYSTEM.CONST>
0

>  <SCORE.SYSTEM.DIHEDRAL>
0

>  <SCORE.SYSTEM.SOLV>
0

>  <SCORE.SYSTEM.norm>
0

>  <SCORE.heavy>
34

>  <SCORE.norm>
0.267845

>  <RMSD>
20.298

$$$$
lig.pdb
 OpenBabel11021811503D
libRbt.so/2013.1/901 2013/11/27
 34 36  0  0  0  0  0  0  0  0999 V2000
    8.7847   15.6834   19.4146 C   0  0  2  0  0  0  0  0  0  0  0  0
    7.4725   15.1108   19.3895 O   0  0  0  0  0  0  0  0  0  0  0  0
    8.8914   16.7504   18.2435 C   0  0  2  0  0  0  0  0  0  0  0  0
    7.9000   17.8402   18.3993 N   0  0  0  0  0  0  0  0  0  0  0  0
    8.6870   16.0416   16.8809 C   0  0  1  0  0  0  0  0  0  0  0  0
    8.7866   16.9862   15.8125 O   0  0  0  0  0  0  0  0  0  0  0  0
    9.7412   14.9287   16.7445 C   0  0  2  0  0  0  0  0  0  0  0  0
    9.5664   14.2689   15.4897 O   0  0  0  0  0  0  0  0  0  0  0  0
    9.5973   13.9110   17.9403 C   0  0  2  0  0  0  0  0  0  0  0  0
    9.7587   14.6014   19.2377 O   0  0  0  0  0  0  0  0  0  0  0  0
   10.6509   12.7788   17.8551 C   0  0  2  0  0  0  0  0  0  0  0  0
   10.9312   12.4803   16.4861 O   0  0  0  0  0  0  0  0  0  0  0  0
   10.1539   11.5131   18.5361 C   0  0  0  0  0  0  0  0  0  0  0  0
    3.8466   15.4137   21.6429 C   0  0  2  0  0  0  0  0  0  0  0  0
    2.8791   15.8111   22.6686 N   0  0  0  0  0  0  0  0  0  0  0  0
    5.1192   14.9122   22.3796 C   0  0  0  0  0  0  0  0  0  0  0  0
    6.1491   14.4629   21.3079 C   0  0  2  0  0  0  0  0  0  0  0  0
    7.3724   13.9733   21.9627 N   0  0  0  0  0  0  0  0  0  0  0  0
    6.5132   15.6375   20.3607 C   0  0  2  0  0  0  0  0  0  0  0  0
    5.2133   16.1543   19.6672 C   0  0  2  0  0  0  0  0  0  0  0  0
    5.5491   17.2468   18.8011 O   0  0  0  0  0  0  0  0  0  0  0  0
    4.1915   16.6550   20.7167 C   0  0  1  0  0  0  0  0  0  0  0  0
    3.0171   17.1039   19.9962 O   0  0  0  0  0  0  0  0  0  0  0  0
    1.8319   17.3355   20.7933 C   0  0  2  0  0  0  0  0  0  0  0  0
    0.6186   17.3106   19.7910 C   0  0  2  0  0  0  0  0  0  0  0  0
    0.5447   16.0443   19.1550 O   0  0  0  0  0  0  0  0  0  0  0  0
    0.8044   18.4633   18.7330 C   0  0  1  0  0  0  0  0  0  0  0  0
   -0.3231   18.4711   17.7518 N   0  0  0  0  0  0  0  0  0  0  0  0
   -1.6006   18.3720   18.4900 C   0  0  0  0  0  0  0  0  0  0  0  0
    0.8709   19.8241   19.4909 C   0  0  2  0  0  0  0  0  0  0  0  0
   -0.3538   20.0144   20.1975 O   0  0  0  0  0  0  0  0  0  0  0  0
    1.0598   20.9979   18.5332 C   0  0  0  0  0  0  0  0  0  0  0  0
    2.0547   19.7854   20.5099 C   0  0  0  0  0  0  0  0  0  0  0  0
    1.9050   18.6556   21.4511 O   0  0  0  0  0  0  0  0  0  0  0  0
  1  3  1  0  0  0  0
  1  2  1  6  0  0  0
  3  5  1  0  0  0  0
  3  4  1  1  0  0  0
  5  6  1  6  0  0  0
  7  8  1  6  0  0  0
  7  5  1  0  0  0  0
  9 10  1  1  0  0  0
  9  7  1  0  0  0  0
 10  1  1  0  0  0  0
 11 13  1  6  0  0  0
 11  9  1  0  0  0  0
 12 11  1  0  0  0  0
 14 15  1  1  0  0  0
 16 14  1  0  0  0  0
 17 18  1  1  0  0  0
 17 16  1  0  0  0  0
 19  2  1  6  0  0  0
 19 20  1  0  0  0  0
 19 17  1  0  0  0  0
 20 21  1  6  0  0  0
 20 22  1  0  0  0  0
 22 23  1  6  0  0  0
 22 14  1  0  0  0  0
 24 23  1  6  0  0  0
 24 25  1  0  0  0  0
 25 27  1  0  0  0  0
 25 26  1  6  0  0  0
 27 28  1  6  0  0  0
 28 29  1  0  0  0  0
 30 31  1  1  0  0  0
 30 32  1  0  0  0  0
 30 27  1  0  0  0  0
 33 30  1  0  0  0  0
 34 33  1  0  0  0  0
 34 24  1  0  0  0  0
M  END
>  <CHROM.1>
-100.20119595,-32.92489663,-116.24489043,50.74931589,-160.68443998,47.16763429
5.24047900,16.34019998,19.22615646,0.06966705,-0.49041648,2.12594550

>  <Name>
lig.pdb

>  <RI>
0

>  <Rbt.Current_Directory>
/home/itssahil/PROJECTS/Mol_Feturizer/New_Systems/rnas/4k32

>  <Rbt.Executable>
rbdock ($Id: //depot/dev/client3/rdock/2013.1/src/exe/rbdock.cxx#4 $)

>  <Rbt.Library>
libRbt.so (2013.1, Build901 2013/11/27)

>  <Rbt.Parameter_File>
/export/apps/rDock/src/rDock_2013.1_src/data/scripts/dock_solv.prm

>  <Rbt.Receptor>
prm/blind_docking_80.prm

>  <SCORE>
25.9698

>  <SCORE.INTER>
7.71603

>  <SCORE.INTER.CONST>
1

>  <SCORE.INTER.POLAR>
0

>  <SCORE.INTER.ROT>
6

>  <SCORE.INTER.SOLV>
26.9415

>  <SCORE.INTER.VDW>
-11.4365

>  <SCORE.INTER.norm>
0.226942

>  <SCORE.INTRA>
8.50655

>  <SCORE.INTRA.DIHEDRAL>
-0.850065

>  <SCORE.INTRA.DIHEDRAL.0>
18.0069

>  <SCORE.INTRA.POLAR>
0

>  <SCORE.INTRA.POLAR.0>
0

>  <SCORE.INTRA.REPUL>
0

>  <SCORE.INTRA.REPUL.0>
0

>  <SCORE.INTRA.SOLV>
2.05112

>  <SCORE.INTRA.SOLV.lig_0>
-70.7393

>  <SCORE.INTRA.VDW>
7.90602

>  <SCORE.INTRA.VDW.0>
-3.23471

>  <SCORE.INTRA.norm>
0.250193

>  <SCORE.RESTR>
9.74723

>  <SCORE.RESTR.CAVITY>
9.74723

>  <SCORE.RESTR.norm>
0.286683

>  <SCORE.SYSTEM>
0

>  <SCORE.SYSTEM.CONST>
0

>  <SCORE.SYSTEM.DIHEDRAL>
0

>  <SCORE.SYSTEM.SOLV>
0

>  <SCORE.SYSTEM.norm>
0

>  <SCORE.heavy>
34

>  <SCORE.norm>
0.763818

>  <RMSD>
20.451

$$$$
lig.pdb
 OpenBabel11021811503D
libRbt.so/2013.1/901 2013/11/27
 34 36  0  0  0  0  0  0  0  0999 V2000
    9.0465   15.4218   19.0188 C   0  0  2  0  0  0  0  0  0  0  0  0
    7.8519   14.6694   19.2576 O   0  0  0  0  0  0  0  0  0  0  0  0
    9.0799   15.8419   17.4879 C   0  0  2  0  0  0  0  0  0  0  0  0
    7.9151   16.6808   17.1215 N   0  0  0  0  0  0  0  0  0  0  0  0
    9.1123   14.5689   16.6051 C   0  0  1  0  0  0  0  0  0  0  0  0
    9.1497   14.9275   15.2218 O   0  0  0  0  0  0  0  0  0  0  0  0
   10.3409   13.7302   16.9995 C   0  0  2  0  0  0  0  0  0  0  0  0
   10.3850   12.5542   16.1899 O   0  0  0  0  0  0  0  0  0  0  0  0
   10.2608   13.3574   18.5295 C   0  0  2  0  0  0  0  0  0  0  0  0
   10.1948   14.5768   19.3629 O   0  0  0  0  0  0  0  0  0  0  0  0
   11.4875   12.5249   18.9783 C   0  0  2  0  0  0  0  0  0  0  0  0
   12.6824   13.0950   18.4409 O   0  0  0  0  0  0  0  0  0  0  0  0
   11.3791   11.0851   18.5007 C   0  0  0  0  0  0  0  0  0  0  0  0
    4.2349   15.1114   21.5024 C   0  0  2  0  0  0  0  0  0  0  0  0
    3.2826   15.5410   22.5294 N   0  0  0  0  0  0  0  0  0  0  0  0
    5.4808   14.5449   22.2377 C   0  0  0  0  0  0  0  0  0  0  0  0
    6.4933   14.0612   21.1644 C   0  0  2  0  0  0  0  0  0  0  0  0
    7.6908   13.5097   21.8177 N   0  0  0  0  0  0  0  0  0  0  0  0
    6.9137   15.2284   20.2314 C   0  0  2  0  0  0  0  0  0  0  0  0
    5.6410   15.8109   19.5394 C   0  0  2  0  0  0  0  0  0  0  0  0
    6.0292   16.8965   18.6865 O   0  0  0  0  0  0  0  0  0  0  0  0
    4.6390   16.3459   20.5911 C   0  0  1  0  0  0  0  0  0  0  0  0
    3.4888   16.8553   19.8718 O   0  0  0  0  0  0  0  0  0  0  0  0
    3.1700   18.2499   20.0882 C   0  0  2  0  0  0  0  0  0  0  0  0
    1.8869   18.2694   20.9996 C   0  0  2  0  0  0  0  0  0  0  0  0
    2.1641   17.6300   22.2356 O   0  0  0  0  0  0  0  0  0  0  0  0
    0.7095   17.5465   20.2420 C   0  0  1  0  0  0  0  0  0  0  0  0
   -0.5302   17.5323   21.0770 N   0  0  0  0  0  0  0  0  0  0  0  0
   -0.4492   16.4086   22.0348 C   0  0  0  0  0  0  0  0  0  0  0  0
    0.4495   18.2977   18.9009 C   0  0  2  0  0  0  0  0  0  0  0  0
    0.0763   19.6430   19.1952 O   0  0  0  0  0  0  0  0  0  0  0  0
   -0.6771   17.6518   18.0984 C   0  0  0  0  0  0  0  0  0  0  0  0
    1.7613   18.2994   18.0522 C   0  0  0  0  0  0  0  0  0  0  0  0
    2.8756   18.9151   18.8030 O   0  0  0  0  0  0  0  0  0  0  0  0
  1  3  1  0  0  0  0
  1  2  1  6  0  0  0
  3  5  1  0  0  0  0
  3  4  1  6  0  0  0
  5  6  1  6  0  0  0
  7  8  1  6  0  0  0
  7  5  1  0  0  0  0
  9 10  1  1  0  0  0
  9  7  1  0  0  0  0
 10  1  1  0  0  0  0
 11 13  1  6  0  0  0
 11  9  1  0  0  0  0
 12 11  1  0  0  0  0
 14 15  1  1  0  0  0
 16 14  1  0  0  0  0
 17 18  1  1  0  0  0
 17 16  1  0  0  0  0
 19  2  1  6  0  0  0
 19 20  1  0  0  0  0
 19 17  1  0  0  0  0
 20 21  1  6  0  0  0
 20 22  1  0  0  0  0
 22 23  1  6  0  0  0
 22 14  1  0  0  0  0
 24 23  1  6  0  0  0
 24 25  1  0  0  0  0
 25 27  1  0  0  0  0
 25 26  1  1  0  0  0
 27 28  1  1  0  0  0
 28 29  1  0  0  0  0
 30 31  1  1  0  0  0
 30 32  1  0  0  0  0
 30 27  1  0  0  0  0
 33 30  1  0  0  0  0
 34 33  1  0  0  0  0
 34 24  1  0  0  0  0
M  END
>  <CHROM.1>
-119.08354133,44.26969538,-133.79579207,122.52632528,-106.26492580,-82.27773715
5.72457406,15.75005232,19.37489288,0.01688108,0.47410269,-1.13404380

>  <Name>
lig.pdb

>  <RI>
0

>  <Rbt.Current_Directory>
/home/itssahil/PROJECTS/Mol_Feturizer/New_Systems/rnas/4k32

>  <Rbt.Executable>
rbdock ($Id: //depot/dev/client3/rdock/2013.1/src/exe/rbdock.cxx#4 $)

>  <Rbt.Library>
libRbt.so (2013.1, Build901 2013/11/27)

>  <Rbt.Parameter_File>
/export/apps/rDock/src/rDock_2013.1_src/data/scripts/dock_solv.prm

>  <Rbt.Receptor>
prm/blind_docking_80.prm

>  <SCORE>
24.0524

>  <SCORE.INTER>
7.75308

>  <SCORE.INTER.CONST>
1

>  <SCORE.INTER.POLAR>
0

>  <SCORE.INTER.ROT>
6

>  <SCORE.INTER.SOLV>
28.7423

>  <SCORE.INTER.VDW>
-12.012

>  <SCORE.INTER.norm>
0.228032

>  <SCORE.INTRA>
8.76051

>  <SCORE.INTRA.DIHEDRAL>
10.1263

>  <SCORE.INTRA.DIHEDRAL.0>
18.0069

>  <SCORE.INTRA.POLAR>
0

>  <SCORE.INTRA.POLAR.0>
0

>  <SCORE.INTRA.REPUL>
0

>  <SCORE.INTRA.REPUL.0>
0

>  <SCORE.INTRA.SOLV>
3.10642

>  <SCORE.INTRA.SOLV.lig_0>
-70.7393

>  <SCORE.INTRA.VDW>
2.14417

>  <SCORE.INTRA.VDW.0>
-3.23471

>  <SCORE.INTRA.norm>
0.257662

>  <SCORE.RESTR>
7.53886

>  <SCORE.RESTR.CAVITY>
7.53886

>  <SCORE.RESTR.norm>
0.221731

>  <SCORE.SYSTEM>
0

>  <SCORE.SYSTEM.CONST>
0

>  <SCORE.SYSTEM.DIHEDRAL>
0

>  <SCORE.SYSTEM.SOLV>
0

>  <SCORE.SYSTEM.norm>
0

>  <SCORE.heavy>
34

>  <SCORE.norm>
0.707425

>  <RMSD>
20.482

$$$$
lig.pdb
 OpenBabel11021811503D
libRbt.so/2013.1/901 2013/11/27
 34 36  0  0  0  0  0  0  0  0999 V2000
    8.0531   14.5039   17.4718 C   0  0  2  0  0  0  0  0  0  0  0  0
    7.5861   13.9112   18.6887 O   0  0  0  0  0  0  0  0  0  0  0  0
    9.5447   14.0227   17.2169 C   0  0  2  0  0  0  0  0  0  0  0  0
    9.6335   12.5496   17.0865 N   0  0  0  0  0  0  0  0  0  0  0  0
   10.4474   14.5051   18.3803 C   0  0  1  0  0  0  0  0  0  0  0  0
   11.7972   14.0868   18.1647 O   0  0  0  0  0  0  0  0  0  0  0  0
   10.3447   16.0376   18.4770 C   0  0  2  0  0  0  0  0  0  0  0  0
   11.1759   16.4965   19.5443 O   0  0  0  0  0  0  0  0  0  0  0  0
    8.8429   16.4557   18.7136 C   0  0  2  0  0  0  0  0  0  0  0  0
    7.9828   15.9615   17.6173 O   0  0  0  0  0  0  0  0  0  0  0  0
    8.6866   17.9942   18.8014 C   0  0  2  0  0  0  0  0  0  0  0  0
    9.5459   18.6233   17.8487 O   0  0  0  0  0  0  0  0  0  0  0  0
    9.0437   18.5047   20.1887 C   0  0  0  0  0  0  0  0  0  0  0  0
    4.6228   15.2631   21.4650 C   0  0  2  0  0  0  0  0  0  0  0  0
    3.9461   16.0499   22.4991 N   0  0  0  0  0  0  0  0  0  0  0  0
    6.0158   14.8656   22.0266 C   0  0  0  0  0  0  0  0  0  0  0  0
    6.7401   14.0092   20.9528 C   0  0  2  0  0  0  0  0  0  0  0  0
    8.0660   13.6041   21.4455 N   0  0  0  0  0  0  0  0  0  0  0  0
    6.9089   14.8036   19.6299 C   0  0  2  0  0  0  0  0  0  0  0  0
    5.5004   15.2314   19.1095 C   0  0  2  0  0  0  0  0  0  0  0  0
    5.6583   15.9751   17.8935 O   0  0  0  0  0  0  0  0  0  0  0  0
    4.7805   16.1292   20.1449 C   0  0  1  0  0  0  0  0  0  0  0  0
    3.4848   16.4709   19.5934 O   0  0  0  0  0  0  0  0  0  0  0  0
    3.4909   17.3985   18.4829 C   0  0  2  0  0  0  0  0  0  0  0  0
    3.6037   18.8360   19.1139 C   0  0  2  0  0  0  0  0  0  0  0  0
    4.8101   18.9446   19.8530 O   0  0  0  0  0  0  0  0  0  0  0  0
    2.3520   19.0900   20.0366 C   0  0  1  0  0  0  0  0  0  0  0  0
    2.4222   20.4436   20.6669 N   0  0  0  0  0  0  0  0  0  0  0  0
    2.7778   21.4363   19.6302 C   0  0  0  0  0  0  0  0  0  0  0  0
    1.0636   18.9644   19.1679 C   0  0  2  0  0  0  0  0  0  0  0  0
    1.1084   19.9508   18.1380 O   0  0  0  0  0  0  0  0  0  0  0  0
   -0.2009   19.1894   19.9931 C   0  0  0  0  0  0  0  0  0  0  0  0
    1.0191   17.5431   18.5205 C   0  0  0  0  0  0  0  0  0  0  0  0
    2.2333   17.2905   17.7164 O   0  0  0  0  0  0  0  0  0  0  0  0
  1  3  1  0  0  0  0
  1  2  1  1  0  0  0
  3  5  1  0  0  0  0
  3  4  1  1  0  0  0
  5  6  1  6  0  0  0
  7  8  1  1  0  0  0
  7  5  1  0  0  0  0
  9 10  1  6  0  0  0
  9  7  1  0  0  0  0
 10  1  1  0  0  0  0
 11 13  1  1  0  0  0
 11  9  1  0  0  0  0
 12 11  1  0  0  0  0
 14 15  1  1  0  0  0
 16 14  1  0  0  0  0
 17 18  1  1  0  0  0
 17 16  1  0  0  0  0
 19  2  1  6  0  0  0
 19 20  1  0  0  0  0
 19 17  1  0  0  0  0
 20 21  1  6  0  0  0
 20 22  1  0  0  0  0
 22 23  1  6  0  0  0
 22 14  1  0  0  0  0
 24 23  1  1  0  0  0
 24 25  1  0  0  0  0
 25 27  1  0  0  0  0
 25 26  1  1  0  0  0
 27 28  1  6  0  0  0
 28 29  1  0  0  0  0
 30 31  1  6  0  0  0
 30 32  1  0  0  0  0
 30 27  1  0  0  0  0
 33 30  1  0  0  0  0
 34 33  1  0  0  0  0
 34 24  1  0  0  0  0
M  END
>  <CHROM.1>
133.22461897,38.90706182,-169.68881832,172.56987553,-81.76566014,46.52806663
5.98212599,16.65519067,19.22080604,0.43048396,-0.23224656,2.89477245

>  <Name>
lig.pdb

>  <RI>
0

>  <Rbt.Current_Directory>
/home/itssahil/PROJECTS/Mol_Feturizer/New_Systems/rnas/4k32

>  <Rbt.Executable>
rbdock ($Id: //depot/dev/client3/rdock/2013.1/src/exe/rbdock.cxx#4 $)

>  <Rbt.Library>
libRbt.so (2013.1, Build901 2013/11/27)

>  <Rbt.Parameter_File>
/export/apps/rDock/src/rDock_2013.1_src/data/scripts/dock_solv.prm

>  <Rbt.Receptor>
prm/blind_docking_80.prm

>  <SCORE>
15.6082

>  <SCORE.INTER>
0.528557

>  <SCORE.INTER.CONST>
1

>  <SCORE.INTER.POLAR>
0

>  <SCORE.INTER.ROT>
6

>  <SCORE.INTER.SOLV>
26.0433

>  <SCORE.INTER.VDW>
-15.9287

>  <SCORE.INTER.norm>
0.0155458

>  <SCORE.INTRA>
6.9935

>  <SCORE.INTRA.DIHEDRAL>
-7.09982

>  <SCORE.INTRA.DIHEDRAL.0>
18.0069

>  <SCORE.INTRA.POLAR>
0

>  <SCORE.INTRA.POLAR.0>
0

>  <SCORE.INTRA.REPUL>
0

>  <SCORE.INTRA.REPUL.0>
0

>  <SCORE.INTRA.SOLV>
-0.611653

>  <SCORE.INTRA.SOLV.lig_0>
-70.7393

>  <SCORE.INTRA.VDW>
10.8492

>  <SCORE.INTRA.VDW.0>
-3.23471

>  <SCORE.INTRA.norm>
0.205691

>  <SCORE.RESTR>
8.08611

>  <SCORE.RESTR.CAVITY>
8.08611

>  <SCORE.RESTR.norm>
0.237827

>  <SCORE.SYSTEM>
0

>  <SCORE.SYSTEM.CONST>
0

>  <SCORE.SYSTEM.DIHEDRAL>
0

>  <SCORE.SYSTEM.SOLV>
0

>  <SCORE.SYSTEM.norm>
0

>  <SCORE.heavy>
34

>  <SCORE.norm>
0.459064

>  <RMSD>
20.595

$$$$
lig.pdb
 OpenBabel11021811503D
libRbt.so/2013.1/901 2013/11/27
 34 36  0  0  0  0  0  0  0  0999 V2000
    8.9899   15.3485   19.4041 C   0  0  2  0  0  0  0  0  0  0  0  0
    7.6938   14.7402   19.3864 O   0  0  0  0  0  0  0  0  0  0  0  0
    9.0650   16.4090   18.2246 C   0  0  2  0  0  0  0  0  0  0  0  0
    8.0446   17.4726   18.3745 N   0  0  0  0  0  0  0  0  0  0  0  0
    8.8770   15.6845   16.8679 C   0  0  1  0  0  0  0  0  0  0  0  0
    8.9486   16.6232   15.7921 O   0  0  0  0  0  0  0  0  0  0  0  0
    9.9609   14.5997   16.7374 C   0  0  2  0  0  0  0  0  0  0  0  0
    9.8014   13.9258   15.4881 O   0  0  0  0  0  0  0  0  0  0  0  0
    9.8473   13.5877   17.9413 C   0  0  2  0  0  0  0  0  0  0  0  0
    9.9926   14.2920   19.2330 O   0  0  0  0  0  0  0  0  0  0  0  0
   10.9312   12.4840   17.8621 C   0  0  2  0  0  0  0  0  0  0  0  0
   12.2058   13.0748   17.6016 O   0  0  0  0  0  0  0  0  0  0  0  0
   10.6221   11.4884   16.7549 C   0  0  0  0  0  0  0  0  0  0  0  0
    4.1555   14.7422   21.7941 C   0  0  2  0  0  0  0  0  0  0  0  0
    3.2578   14.8949   22.9417 N   0  0  0  0  0  0  0  0  0  0  0  0
    5.3470   13.8585   22.2558 C   0  0  0  0  0  0  0  0  0  0  0  0
    6.2990   13.6647   21.0446 C   0  0  2  0  0  0  0  0  0  0  0  0
    7.4432   12.8263   21.4356 N   0  0  0  0  0  0  0  0  0  0  0  0
    6.8222   15.0308   20.5252 C   0  0  2  0  0  0  0  0  0  0  0  0
    5.6060   15.9177   20.1107 C   0  0  2  0  0  0  0  0  0  0  0  0
    6.0899   17.1836   19.6418 O   0  0  0  0  0  0  0  0  0  0  0  0
    4.6692   16.1659   21.3178 C   0  0  1  0  0  0  0  0  0  0  0  0
    3.5675   16.9821   20.8488 O   0  0  0  0  0  0  0  0  0  0  0  0
    3.3398   16.9826   19.4199 C   0  0  2  0  0  0  0  0  0  0  0  0
    3.2465   18.4944   18.9919 C   0  0  2  0  0  0  0  0  0  0  0  0
    4.4632   19.1576   19.2969 O   0  0  0  0  0  0  0  0  0  0  0  0
    2.0346   19.1653   19.7428 C   0  0  1  0  0  0  0  0  0  0  0  0
    1.9137   20.6087   19.3734 N   0  0  0  0  0  0  0  0  0  0  0  0
    2.7374   21.4112   20.3029 C   0  0  0  0  0  0  0  0  0  0  0  0
    0.7314   18.3989   19.3621 C   0  0  2  0  0  0  0  0  0  0  0  0
    0.5371   18.4992   17.9523 O   0  0  0  0  0  0  0  0  0  0  0  0
   -0.4946   18.9843   20.0583 C   0  0  0  0  0  0  0  0  0  0  0  0
    0.8880   16.8952   19.7564 C   0  0  0  0  0  0  0  0  0  0  0  0
    2.0708   16.2977   19.1016 O   0  0  0  0  0  0  0  0  0  0  0  0
  1  3  1  0  0  0  0
  1  2  1  6  0  0  0
  3  5  1  0  0  0  0
  3  4  1  1  0  0  0
  5  6  1  6  0  0  0
  7  8  1  6  0  0  0
  7  5  1  0  0  0  0
  9 10  1  1  0  0  0
  9  7  1  0  0  0  0
 10  1  1  0  0  0  0
 11 13  1  6  0  0  0
 11  9  1  0  0  0  0
 12 11  1  0  0  0  0
 14 15  1  1  0  0  0
 16 14  1  0  0  0  0
 17 18  1  1  0  0  0
 17 16  1  0  0  0  0
 19  2  1  6  0  0  0
 19 20  1  0  0  0  0
 19 17  1  0  0  0  0
 20 21  1  1  0  0  0
 20 22  1  0  0  0  0
 22 23  1  6  0  0  0
 22 14  1  0  0  0  0
 24 23  1  1  0  0  0
 24 25  1  0  0  0  0
 25 27  1  0  0  0  0
 25 26  1  1  0  0  0
 27 28  1  6  0  0  0
 28 29  1  0  0  0  0
 30 31  1  6  0  0  0
 30 32  1  0  0  0  0
 30 27  1  0  0  0  0
 33 30  1  0  0  0  0
 34 33  1  0  0  0  0
 34 24  1  0  0  0  0
M  END
>  <CHROM.1>
-113.03767487,47.27503772,-129.64238407,-96.09639505,-129.76298776,-89.16897492
5.88818762,16.06801962,19.22653867,0.20052238,-0.52120378,2.38342689

>  <Name>
lig.pdb

>  <RI>
0

>  <Rbt.Current_Directory>
/home/itssahil/PROJECTS/Mol_Feturizer/New_Systems/rnas/4k32

>  <Rbt.Executable>
rbdock ($Id: //depot/dev/client3/rdock/2013.1/src/exe/rbdock.cxx#4 $)

>  <Rbt.Library>
libRbt.so (2013.1, Build901 2013/11/27)

>  <Rbt.Parameter_File>
/export/apps/rDock/src/rDock_2013.1_src/data/scripts/dock_solv.prm

>  <Rbt.Receptor>
prm/blind_docking_80.prm

>  <SCORE>
24.8288

>  <SCORE.INTER>
7.17312

>  <SCORE.INTER.CONST>
1

>  <SCORE.INTER.POLAR>
0

>  <SCORE.INTER.ROT>
6

>  <SCORE.INTER.SOLV>
25.8609

>  <SCORE.INTER.VDW>
-11.4382

>  <SCORE.INTER.norm>
0.210974

>  <SCORE.INTRA>
10.8589

>  <SCORE.INTRA.DIHEDRAL>
8.29563

>  <SCORE.INTRA.DIHEDRAL.0>
18.0069

>  <SCORE.INTRA.POLAR>
0

>  <SCORE.INTRA.POLAR.0>
0

>  <SCORE.INTRA.REPUL>
0.0264509

>  <SCORE.INTRA.REPUL.0>
0

>  <SCORE.INTRA.SOLV>
0.950653

>  <SCORE.INTRA.SOLV.lig_0>
-70.7393

>  <SCORE.INTRA.VDW>
6.10353

>  <SCORE.INTRA.VDW.0>
-3.23471

>  <SCORE.INTRA.norm>
0.31938

>  <SCORE.RESTR>
6.79677

>  <SCORE.RESTR.CAVITY>
6.79677

>  <SCORE.RESTR.norm>
0.199905

>  <SCORE.SYSTEM>
0

>  <SCORE.SYSTEM.CONST>
0

>  <SCORE.SYSTEM.DIHEDRAL>
0

>  <SCORE.SYSTEM.SOLV>
0

>  <SCORE.SYSTEM.norm>
0

>  <SCORE.heavy>
34

>  <SCORE.norm>
0.730259

>  <RMSD>
20.719

$$$$
lig.pdb
 OpenBabel11021811503D
libRbt.so/2013.1/901 2013/11/27
 34 36  0  0  0  0  0  0  0  0999 V2000
    2.6977   17.4004   19.5097 C   0  0  2  0  0  0  0  0  0  0  0  0
    3.1739   18.6534   20.0132 O   0  0  0  0  0  0  0  0  0  0  0  0
    1.5715   17.6871   18.4278 C   0  0  2  0  0  0  0  0  0  0  0  0
    2.0897   18.4838   17.2912 N   0  0  0  0  0  0  0  0  0  0  0  0
    0.3900   18.4316   19.0990 C   0  0  1  0  0  0  0  0  0  0  0  0
   -0.6382   18.6927   18.1409 O   0  0  0  0  0  0  0  0  0  0  0  0
   -0.1341   17.5708   20.2623 C   0  0  2  0  0  0  0  0  0  0  0  0
   -1.2272   18.2444   20.8882 O   0  0  0  0  0  0  0  0  0  0  0  0
    1.0290   17.3064   21.2936 C   0  0  2  0  0  0  0  0  0  0  0  0
    2.1666   16.6274   20.6372 O   0  0  0  0  0  0  0  0  0  0  0  0
    0.5526   16.4278   22.4769 C   0  0  2  0  0  0  0  0  0  0  0  0
   -0.6558   16.9622   23.0209 O   0  0  0  0  0  0  0  0  0  0  0  0
    1.5994   16.3752   23.5788 C   0  0  0  0  0  0  0  0  0  0  0  0
    6.7744   18.8090   17.7048 C   0  0  2  0  0  0  0  0  0  0  0  0
    8.0902   19.2237   17.2119 N   0  0  0  0  0  0  0  0  0  0  0  0
    5.8717   20.0733   17.7275 C   0  0  0  0  0  0  0  0  0  0  0  0
    4.4632   19.6490   18.2249 C   0  0  2  0  0  0  0  0  0  0  0  0
    3.5701   20.8178   18.2573 N   0  0  0  0  0  0  0  0  0  0  0  0
    4.5399   19.0267   19.6450 C   0  0  2  0  0  0  0  0  0  0  0  0
    5.4878   17.7866   19.6072 C   0  0  2  0  0  0  0  0  0  0  0  0
    5.5668   17.2194   20.9219 O   0  0  0  0  0  0  0  0  0  0  0  0
    6.9126   18.1965   19.1620 C   0  0  1  0  0  0  0  0  0  0  0  0
    7.7214   16.9943   19.1424 O   0  0  0  0  0  0  0  0  0  0  0  0
    7.6640   16.2090   17.9285 C   0  0  2  0  0  0  0  0  0  0  0  0
    7.6633   14.7018   18.3818 C   0  0  2  0  0  0  0  0  0  0  0  0
    6.5266   14.4423   19.1905 O   0  0  0  0  0  0  0  0  0  0  0  0
    8.9954   14.4029   19.1685 C   0  0  1  0  0  0  0  0  0  0  0  0
    9.0335   12.9811   19.6284 N   0  0  0  0  0  0  0  0  0  0  0  0
    8.3705   12.8867   20.9467 C   0  0  0  0  0  0  0  0  0  0  0  0
   10.2025   14.6992   18.2274 C   0  0  2  0  0  0  0  0  0  0  0  0
   10.1155   13.8438   17.0888 O   0  0  0  0  0  0  0  0  0  0  0  0
   11.5382   14.4415   18.9202 C   0  0  0  0  0  0  0  0  0  0  0  0
   10.1345   16.1888   17.7609 C   0  0  0  0  0  0  0  0  0  0  0  0
    8.8495   16.4738   17.0887 O   0  0  0  0  0  0  0  0  0  0  0  0
  1  3  1  0  0  0  0
  1  2  1  1  0  0  0
  3  5  1  0  0  0  0
  3  4  1  6  0  0  0
  5  6  1  6  0  0  0
  7  8  1  1  0  0  0
  7  5  1  0  0  0  0
  9 10  1  6  0  0  0
  9  7  1  0  0  0  0
 10  1  1  0  0  0  0
 11 13  1  1  0  0  0
 11  9  1  0  0  0  0
 12 11  1  0  0  0  0
 14 15  1  1  0  0  0
 16 14  1  0  0  0  0
 17 18  1  1  0  0  0
 17 16  1  0  0  0  0
 19  2  1  6  0  0  0
 19 20  1  0  0  0  0
 19 17  1  0  0  0  0
 20 21  1  1  0  0  0
 20 22  1  0  0  0  0
 22 23  1  6  0  0  0
 22 14  1  0  0  0  0
 24 23  1  1  0  0  0
 24 25  1  0  0  0  0
 25 27  1  0  0  0  0
 25 26  1  1  0  0  0
 27 28  1  6  0  0  0
 28 29  1  0  0  0  0
 30 31  1  6  0  0  0
 30 32  1  0  0  0  0
 30 27  1  0  0  0  0
 33 30  1  0  0  0  0
 34 33  1  0  0  0  0
 34 24  1  0  0  0  0
M  END
>  <CHROM.1>
-110.92850333,-50.01139359,82.31292428,-30.77712894,-140.73997697,-87.60519931
5.00174025,16.97298841,19.33846085,3.03843804,0.36381533,-0.64797604

>  <Name>
lig.pdb

>  <RI>
0

>  <Rbt.Current_Directory>
/home/itssahil/PROJECTS/Mol_Feturizer/New_Systems/rnas/4k32

>  <Rbt.Executable>
rbdock ($Id: //depot/dev/client3/rdock/2013.1/src/exe/rbdock.cxx#4 $)

>  <Rbt.Library>
libRbt.so (2013.1, Build901 2013/11/27)

>  <Rbt.Parameter_File>
/export/apps/rDock/src/rDock_2013.1_src/data/scripts/dock_solv.prm

>  <Rbt.Receptor>
prm/blind_docking_80.prm

>  <SCORE>
16.4962

>  <SCORE.INTER>
-0.309473

>  <SCORE.INTER.CONST>
1

>  <SCORE.INTER.POLAR>
0

>  <SCORE.INTER.ROT>
6

>  <SCORE.INTER.SOLV>
18.3149

>  <SCORE.INTER.VDW>
-13.9113

>  <SCORE.INTER.norm>
-0.00910215

>  <SCORE.INTRA>
4.96989

>  <SCORE.INTRA.DIHEDRAL>
0.623685

>  <SCORE.INTRA.DIHEDRAL.0>
18.0069

>  <SCORE.INTRA.POLAR>
0

>  <SCORE.INTRA.POLAR.0>
0

>  <SCORE.INTRA.REPUL>
0

>  <SCORE.INTRA.REPUL.0>
0

>  <SCORE.INTRA.SOLV>
3.85955

>  <SCORE.INTRA.SOLV.lig_0>
-70.7393

>  <SCORE.INTRA.VDW>
2.72827

>  <SCORE.INTRA.VDW.0>
-3.23471

>  <SCORE.INTRA.norm>
0.146173

>  <SCORE.RESTR>
11.8357

>  <SCORE.RESTR.CAVITY>
11.8357

>  <SCORE.RESTR.norm>
0.34811

>  <SCORE.SYSTEM>
0

>  <SCORE.SYSTEM.CONST>
0

>  <SCORE.SYSTEM.DIHEDRAL>
0

>  <SCORE.SYSTEM.SOLV>
0

>  <SCORE.SYSTEM.norm>
0

>  <SCORE.heavy>
34

>  <SCORE.norm>
0.485181

>  <RMSD>
20.756

$$$$
lig.pdb
 OpenBabel11021811503D
libRbt.so/2013.1/901 2013/11/27
 34 36  0  0  0  0  0  0  0  0999 V2000
    9.0755   15.0540   19.4515 C   0  0  2  0  0  0  0  0  0  0  0  0
    7.8437   14.3242   19.4385 O   0  0  0  0  0  0  0  0  0  0  0  0
    9.0210   16.1551   18.3088 C   0  0  2  0  0  0  0  0  0  0  0  0
    7.9071   17.1096   18.5164 N   0  0  0  0  0  0  0  0  0  0  0  0
    8.8718   15.4611   16.9315 C   0  0  1  0  0  0  0  0  0  0  0  0
    8.8280   16.4374   15.8882 O   0  0  0  0  0  0  0  0  0  0  0  0
   10.0514   14.4910   16.7414 C   0  0  2  0  0  0  0  0  0  0  0  0
    9.9282   13.8465   15.4726 O   0  0  0  0  0  0  0  0  0  0  0  0
   10.0635   13.4335   17.9110 C   0  0  2  0  0  0  0  0  0  0  0  0
   10.1707   14.1056   19.2235 O   0  0  0  0  0  0  0  0  0  0  0  0
   11.2461   12.4430   17.7714 C   0  0  2  0  0  0  0  0  0  0  0  0
   12.4666   13.1666   17.6028 O   0  0  0  0  0  0  0  0  0  0  0  0
   11.0562   11.5255   16.5736 C   0  0  0  0  0  0  0  0  0  0  0  0
    4.3560   14.1193   21.9104 C   0  0  2  0  0  0  0  0  0  0  0  0
    3.4955   14.0665   23.0949 N   0  0  0  0  0  0  0  0  0  0  0  0
    5.4220   12.9998   22.0652 C   0  0  0  0  0  0  0  0  0  0  0  0
    6.3303   13.0239   20.8060 C   0  0  2  0  0  0  0  0  0  0  0  0
    7.3549   11.9728   20.9070 N   0  0  0  0  0  0  0  0  0  0  0  0
    7.0275   14.4020   20.6504 C   0  0  2  0  0  0  0  0  0  0  0  0
    5.9378   15.5149   20.5430 C   0  0  2  0  0  0  0  0  0  0  0  0
    6.5831   16.7887   20.4108 O   0  0  0  0  0  0  0  0  0  0  0  0
    5.0518   15.5419   21.8121 C   0  0  1  0  0  0  0  0  0  0  0  0
    4.0657   16.5877   21.6283 O   0  0  0  0  0  0  0  0  0  0  0  0
    2.9099   16.2387   20.8308 C   0  0  2  0  0  0  0  0  0  0  0  0
    3.1817   16.8137   19.3910 C   0  0  2  0  0  0  0  0  0  0  0  0
    4.3514   16.2216   18.8485 O   0  0  0  0  0  0  0  0  0  0  0  0
    3.3335   18.3792   19.4850 C   0  0  1  0  0  0  0  0  0  0  0  0
    3.6035   18.9689   18.1383 N   0  0  0  0  0  0  0  0  0  0  0  0
    5.0660   19.0701   17.9448 C   0  0  0  0  0  0  0  0  0  0  0  0
    2.0182   18.9688   20.0793 C   0  0  2  0  0  0  0  0  0  0  0  0
    0.9364   18.6431   19.2081 O   0  0  0  0  0  0  0  0  0  0  0  0
    2.0870   20.4880   20.2119 C   0  0  0  0  0  0  0  0  0  0  0  0
    1.7606   18.3328   21.4830 C   0  0  0  0  0  0  0  0  0  0  0  0
    1.6927   16.8592   21.3911 O   0  0  0  0  0  0  0  0  0  0  0  0
  1  3  1  0  0  0  0
  1  2  1  6  0  0  0
  3  5  1  0  0  0  0
  3  4  1  1  0  0  0
  5  6  1  6  0  0  0
  7  8  1  6  0  0  0
  7  5  1  0  0  0  0
  9 10  1  1  0  0  0
  9  7  1  0  0  0  0
 10  1  1  0  0  0  0
 11 13  1  6  0  0  0
 11  9  1  0  0  0  0
 12 11  1  0  0  0  0
 14 15  1  1  0  0  0
 16 14  1  0  0  0  0
 17 18  1  1  0  0  0
 17 16  1  0  0  0  0
 19  2  1  6  0  0  0
 19 20  1  0  0  0  0
 19 17  1  0  0  0  0
 20 21  1  1  0  0  0
 20 22  1  0  0  0  0
 22 23  1  6  0  0  0
 22 14  1  0  0  0  0
 24 23  1  1  0  0  0
 24 25  1  0  0  0  0
 25 27  1  0  0  0  0
 25 26  1  1  0  0  0
 27 28  1  6  0  0  0
 28 29  1  0  0  0  0
 30 31  1  6  0  0  0
 30 32  1  0  0  0  0
 30 27  1  0  0  0  0
 33 30  1  0  0  0  0
 34 33  1  0  0  0  0
 34 24  1  0  0  0  0
M  END
>  <CHROM.1>
-118.00960494,51.43999944,-145.91463511,-34.81245323,-99.33826639,-92.61816897
6.28304771,15.64768584,19.39896483,0.13367795,-0.57063550,2.41216891

>  <Name>
lig.pdb

>  <RI>
0

>  <Rbt.Current_Directory>
/home/itssahil/PROJECTS/Mol_Feturizer/New_Systems/rnas/4k32

>  <Rbt.Executable>
rbdock ($Id: //depot/dev/client3/rdock/2013.1/src/exe/rbdock.cxx#4 $)

>  <Rbt.Library>
libRbt.so (2013.1, Build901 2013/11/27)

>  <Rbt.Parameter_File>
/export/apps/rDock/src/rDock_2013.1_src/data/scripts/dock_solv.prm

>  <Rbt.Receptor>
prm/blind_docking_80.prm

>  <SCORE>
24.3567

>  <SCORE.INTER>
7.86216

>  <SCORE.INTER.CONST>
1

>  <SCORE.INTER.POLAR>
0

>  <SCORE.INTER.ROT>
6

>  <SCORE.INTER.SOLV>
26.9416

>  <SCORE.INTER.VDW>
-11.3391

>  <SCORE.INTER.norm>
0.23124

>  <SCORE.INTRA>
9.24354

>  <SCORE.INTRA.DIHEDRAL>
2.48554

>  <SCORE.INTRA.DIHEDRAL.0>
18.0069

>  <SCORE.INTRA.POLAR>
0

>  <SCORE.INTRA.POLAR.0>
0

>  <SCORE.INTRA.REPUL>
0.0971819

>  <SCORE.INTRA.REPUL.0>
0

>  <SCORE.INTRA.SOLV>
2.78554

>  <SCORE.INTRA.SOLV.lig_0>
-70.7393

>  <SCORE.INTRA.VDW>
6.12209

>  <SCORE.INTRA.VDW.0>
-3.23471

>  <SCORE.INTRA.norm>
0.271869

>  <SCORE.RESTR>
7.25095

>  <SCORE.RESTR.CAVITY>
7.25095

>  <SCORE.RESTR.norm>
0.213263

>  <SCORE.SYSTEM>
0

>  <SCORE.SYSTEM.CONST>
0

>  <SCORE.SYSTEM.DIHEDRAL>
0

>  <SCORE.SYSTEM.SOLV>
0

>  <SCORE.SYSTEM.norm>
0

>  <SCORE.heavy>
34

>  <SCORE.norm>
0.716372

>  <RMSD>
20.757

$$$$
lig.pdb
 OpenBabel11021811503D
libRbt.so/2013.1/901 2013/11/27
 34 36  0  0  0  0  0  0  0  0999 V2000
    3.5107   17.4343   18.8513 C   0  0  2  0  0  0  0  0  0  0  0  0
    3.8452   17.0930   20.2010 O   0  0  0  0  0  0  0  0  0  0  0  0
    4.1854   18.8286   18.5020 C   0  0  2  0  0  0  0  0  0  0  0  0
    5.6611   18.7713   18.6203 N   0  0  0  0  0  0  0  0  0  0  0  0
    3.6225   19.9233   19.4430 C   0  0  1  0  0  0  0  0  0  0  0  0
    4.2138   21.1887   19.1387 O   0  0  0  0  0  0  0  0  0  0  0  0
    2.0924   19.9673   19.2832 C   0  0  2  0  0  0  0  0  0  0  0  0
    1.5603   20.9760   20.1433 O   0  0  0  0  0  0  0  0  0  0  0  0
    1.4814   18.5549   19.6269 C   0  0  2  0  0  0  0  0  0  0  0  0
    2.0497   17.5106   18.7481 O   0  0  0  0  0  0  0  0  0  0  0  0
   -0.0589   18.5453   19.4639 C   0  0  2  0  0  0  0  0  0  0  0  0
   -0.6329   19.6106   20.2237 O   0  0  0  0  0  0  0  0  0  0  0  0
   -0.6542   17.2309   19.9440 C   0  0  0  0  0  0  0  0  0  0  0  0
    6.6792   14.1662   21.5121 C   0  0  2  0  0  0  0  0  0  0  0  0
    7.2841   12.8777   21.8586 N   0  0  0  0  0  0  0  0  0  0  0  0
    5.3281   14.2603   22.2734 C   0  0  0  0  0  0  0  0  0  0  0  0
    4.6820   15.6317   21.9377 C   0  0  2  0  0  0  0  0  0  0  0  0
    3.3983   15.7672   22.6438 N   0  0  0  0  0  0  0  0  0  0  0  0
    4.4410   15.7732   20.4107 C   0  0  2  0  0  0  0  0  0  0  0  0
    5.8049   15.6295   19.6644 C   0  0  2  0  0  0  0  0  0  0  0  0
    5.5795   15.7489   18.2532 O   0  0  0  0  0  0  0  0  0  0  0  0
    6.4428   14.2473   19.9452 C   0  0  1  0  0  0  0  0  0  0  0  0
    7.7021   14.1995   19.2298 O   0  0  0  0  0  0  0  0  0  0  0  0
    7.7483   14.9187   17.9751 C   0  0  2  0  0  0  0  0  0  0  0  0
    8.9943   14.3574   17.1943 C   0  0  2  0  0  0  0  0  0  0  0  0
    8.8300   12.9677   16.9597 O   0  0  0  0  0  0  0  0  0  0  0  0
   10.2956   14.6372   18.0376 C   0  0  1  0  0  0  0  0  0  0  0  0
   11.5064   14.1104   17.3370 N   0  0  0  0  0  0  0  0  0  0  0  0
   11.6302   12.6638   17.6175 C   0  0  0  0  0  0  0  0  0  0  0  0
   10.4231   16.1758   18.2544 C   0  0  2  0  0  0  0  0  0  0  0  0
   10.5312   16.8097   16.9808 O   0  0  0  0  0  0  0  0  0  0  0  0
   11.6605   16.5322   19.0744 C   0  0  0  0  0  0  0  0  0  0  0  0
    9.1442   16.6977   18.9845 C   0  0  0  0  0  0  0  0  0  0  0  0
    7.9251   16.3646   18.2179 O   0  0  0  0  0  0  0  0  0  0  0  0
  1  3  1  0  0  0  0
  1  2  1  1  0  0  0
  3  5  1  0  0  0  0
  3  4  1  1  0  0  0
  5  6  1  6  0  0  0
  7  8  1  1  0  0  0
  7  5  1  0  0  0  0
  9 10  1  6  0  0  0
  9  7  1  0  0  0  0
 10  1  1  0  0  0  0
 11 13  1  1  0  0  0
 11  9  1  0  0  0  0
 12 11  1  0  0  0  0
 14 15  1  6  0  0  0
 16 14  1  0  0  0  0
 17 18  1  1  0  0  0
 17 16  1  0  0  0  0
 19  2  1  1  0  0  0
 19 20  1  0  0  0  0
 19 17  1  0  0  0  0
 20 21  1  6  0  0  0
 20 22  1  0  0  0  0
 22 23  1  6  0  0  0
 22 14  1  0  0  0  0
 24 23  1  1  0  0  0
 24 25  1  0  0  0  0
 25 27  1  0  0  0  0
 25 26  1  1  0  0  0
 27 28  1  6  0  0  0
 28 29  1  0  0  0  0
 30 31  1  6  0  0  0
 30 32  1  0  0  0  0
 30 27  1  0  0  0  0
 33 30  1  0  0  0  0
 34 33  1  0  0  0  0
 34 24  1  0  0  0  0
M  END
>  <CHROM.1>
-126.84874365,-53.45394585,-178.86156852,-149.12334425,-162.39217155,-82.32309637
5.78037884,16.49820752,19.28834745,-2.81784987,-0.38877590,2.65925258

>  <Name>
lig.pdb

>  <RI>
0

>  <Rbt.Current_Directory>
/home/itssahil/PROJECTS/Mol_Feturizer/New_Systems/rnas/4k32

>  <Rbt.Executable>
rbdock ($Id: //depot/dev/client3/rdock/2013.1/src/exe/rbdock.cxx#4 $)

>  <Rbt.Library>
libRbt.so (2013.1, Build901 2013/11/27)

>  <Rbt.Parameter_File>
/export/apps/rDock/src/rDock_2013.1_src/data/scripts/dock_solv.prm

>  <Rbt.Receptor>
prm/blind_docking_80.prm

>  <SCORE>
22.4055

>  <SCORE.INTER>
6.0142

>  <SCORE.INTER.CONST>
1

>  <SCORE.INTER.POLAR>
0

>  <SCORE.INTER.ROT>
6

>  <SCORE.INTER.SOLV>
26.6853

>  <SCORE.INTER.VDW>
-12.4856

>  <SCORE.INTER.norm>
0.176888

>  <SCORE.INTRA>
10.2212

>  <SCORE.INTRA.DIHEDRAL>
-5.29581

>  <SCORE.INTRA.DIHEDRAL.0>
18.0069

>  <SCORE.INTRA.POLAR>
0

>  <SCORE.INTRA.POLAR.0>
0

>  <SCORE.INTRA.REPUL>
0.469636

>  <SCORE.INTRA.REPUL.0>
0

>  <SCORE.INTRA.SOLV>
-0.212876

>  <SCORE.INTRA.SOLV.lig_0>
-70.7393

>  <SCORE.INTRA.VDW>
10.6274

>  <SCORE.INTRA.VDW.0>
-3.23471

>  <SCORE.INTRA.norm>
0.300623

>  <SCORE.RESTR>
6.1701

>  <SCORE.RESTR.CAVITY>
6.1701

>  <SCORE.RESTR.norm>
0.181474

>  <SCORE.SYSTEM>
0

>  <SCORE.SYSTEM.CONST>
0

>  <SCORE.SYSTEM.DIHEDRAL>
0

>  <SCORE.SYSTEM.SOLV>
0

>  <SCORE.SYSTEM.norm>
0

>  <SCORE.heavy>
34

>  <SCORE.norm>
0.658985

>  <RMSD>
20.942

$$$$
lig.pdb
 OpenBabel11021811503D
libRbt.so/2013.1/901 2013/11/27
 34 36  0  0  0  0  0  0  0  0999 V2000
    3.5080   17.5278   18.8550 C   0  0  2  0  0  0  0  0  0  0  0  0
    3.9987   17.2409   20.1692 O   0  0  0  0  0  0  0  0  0  0  0  0
    3.4724   19.1036   18.6631 C   0  0  2  0  0  0  0  0  0  0  0  0
    4.8186   19.7060   18.8039 N   0  0  0  0  0  0  0  0  0  0  0  0
    2.5041   19.7270   19.6997 C   0  0  1  0  0  0  0  0  0  0  0  0
    2.4534   21.1464   19.5377 O   0  0  0  0  0  0  0  0  0  0  0  0
    1.1141   19.0924   19.5152 C   0  0  2  0  0  0  0  0  0  0  0  0
    0.2097   19.6614   20.4632 O   0  0  0  0  0  0  0  0  0  0  0  0
    1.2145   17.5298   19.7010 C   0  0  2  0  0  0  0  0  0  0  0  0
    2.1668   16.9473   18.7316 O   0  0  0  0  0  0  0  0  0  0  0  0
   -0.1605   16.8434   19.5077 C   0  0  2  0  0  0  0  0  0  0  0  0
   -0.8872   17.4995   18.4670 O   0  0  0  0  0  0  0  0  0  0  0  0
   -0.9856   16.8965   20.7840 C   0  0  0  0  0  0  0  0  0  0  0  0
    6.7395   14.2171   21.4579 C   0  0  2  0  0  0  0  0  0  0  0  0
    7.2995   12.9092   21.8072 N   0  0  0  0  0  0  0  0  0  0  0  0
    5.4088   14.3733   22.2444 C   0  0  0  0  0  0  0  0  0  0  0  0
    4.8112   15.7659   21.9057 C   0  0  2  0  0  0  0  0  0  0  0  0
    3.5484   15.9602   22.6353 N   0  0  0  0  0  0  0  0  0  0  0  0
    4.5456   15.9006   20.3822 C   0  0  2  0  0  0  0  0  0  0  0  0
    5.8874   15.6945   19.6111 C   0  0  2  0  0  0  0  0  0  0  0  0
    5.6388   15.8078   18.2033 O   0  0  0  0  0  0  0  0  0  0  0  0
    6.4753   14.2909   19.8951 C   0  0  1  0  0  0  0  0  0  0  0  0
    7.7171   14.1852   19.1557 O   0  0  0  0  0  0  0  0  0  0  0  0
    7.7903   14.9414   17.9243 C   0  0  2  0  0  0  0  0  0  0  0  0
    9.0422   14.3900   17.1458 C   0  0  2  0  0  0  0  0  0  0  0  0
    8.8667   13.0099   16.8666 O   0  0  0  0  0  0  0  0  0  0  0  0
   10.3333   14.6296   18.0166 C   0  0  1  0  0  0  0  0  0  0  0  0
   11.5490   14.1108   17.3187 N   0  0  0  0  0  0  0  0  0  0  0  0
   11.6846   12.6662   17.6039 C   0  0  0  0  0  0  0  0  0  0  0  0
   10.4738   16.1595   18.2820 C   0  0  2  0  0  0  0  0  0  0  0  0
   10.6083   16.8304   17.0300 O   0  0  0  0  0  0  0  0  0  0  0  0
   11.7021   16.4772   19.1310 C   0  0  0  0  0  0  0  0  0  0  0  0
    9.1894   16.6734   19.0081 C   0  0  0  0  0  0  0  0  0  0  0  0
    7.9789   16.3772   18.2134 O   0  0  0  0  0  0  0  0  0  0  0  0
  1  3  1  0  0  0  0
  1  2  1  1  0  0  0
  3  5  1  0  0  0  0
  3  4  1  1  0  0  0
  5  6  1  6  0  0  0
  7  8  1  1  0  0  0
  7  5  1  0  0  0  0
  9 10  1  6  0  0  0
  9  7  1  0  0  0  0
 10  1  1  0  0  0  0
 11 13  1  1  0  0  0
 11  9  1  0  0  0  0
 12 11  1  0  0  0  0
 14 15  1  6  0  0  0
 16 14  1  0  0  0  0
 17 18  1  1  0  0  0
 17 16  1  0  0  0  0
 19  2  1  1  0  0  0
 19 20  1  0  0  0  0
 19 17  1  0  0  0  0
 20 21  1  6  0  0  0
 20 22  1  0  0  0  0
 22 23  1  6  0  0  0
 22 14  1  0  0  0  0
 24 23  1  1  0  0  0
 24 25  1  0  0  0  0
 25 27  1  0  0  0  0
 25 26  1  1  0  0  0
 27 28  1  6  0  0  0
 28 29  1  0  0  0  0
 30 31  1  6  0  0  0
 30 32  1  0  0  0  0
 30 27  1  0  0  0  0
 33 30  1  0  0  0  0
 34 33  1  0  0  0  0
 34 24  1  0  0  0  0
M  END
>  <CHROM.1>
-159.19094811,37.07922382,-171.87636942,-146.21048285,-166.02925729,-84.68264390
5.59396638,16.31765384,19.28939628,-2.89976276,-0.34474124,2.62651178

>  <Name>
lig.pdb

>  <RI>
0

>  <Rbt.Current_Directory>
/home/itssahil/PROJECTS/Mol_Feturizer/New_Systems/rnas/4k32

>  <Rbt.Executable>
rbdock ($Id: //depot/dev/client3/rdock/2013.1/src/exe/rbdock.cxx#4 $)

>  <Rbt.Library>
libRbt.so (2013.1, Build901 2013/11/27)

>  <Rbt.Parameter_File>
/export/apps/rDock/src/rDock_2013.1_src/data/scripts/dock_solv.prm

>  <Rbt.Receptor>
prm/blind_docking_80.prm

>  <SCORE>
20.9392

>  <SCORE.INTER>
7.86415

>  <SCORE.INTER.CONST>
1

>  <SCORE.INTER.POLAR>
0

>  <SCORE.INTER.ROT>
6

>  <SCORE.INTER.SOLV>
26.0513

>  <SCORE.INTER.VDW>
-11.041

>  <SCORE.INTER.norm>
0.231299

>  <SCORE.INTRA>
6.04293

>  <SCORE.INTRA.DIHEDRAL>
-8.388

>  <SCORE.INTRA.DIHEDRAL.0>
18.0069

>  <SCORE.INTRA.POLAR>
0

>  <SCORE.INTRA.POLAR.0>
0

>  <SCORE.INTRA.REPUL>
0

>  <SCORE.INTRA.REPUL.0>
0

>  <SCORE.INTRA.SOLV>
-2.10527

>  <SCORE.INTRA.SOLV.lig_0>
-70.7393

>  <SCORE.INTRA.VDW>
11.2896

>  <SCORE.INTRA.VDW.0>
-3.23471

>  <SCORE.INTRA.norm>
0.177733

>  <SCORE.RESTR>
7.03211

>  <SCORE.RESTR.CAVITY>
7.03211

>  <SCORE.RESTR.norm>
0.206827

>  <SCORE.SYSTEM>
0

>  <SCORE.SYSTEM.CONST>
0

>  <SCORE.SYSTEM.DIHEDRAL>
0

>  <SCORE.SYSTEM.SOLV>
0

>  <SCORE.SYSTEM.norm>
0

>  <SCORE.heavy>
34

>  <SCORE.norm>
0.615859

>  <RMSD>
20.964

$$$$
lig.pdb
 OpenBabel11021811503D
libRbt.so/2013.1/901 2013/11/27
 34 36  0  0  0  0  0  0  0  0999 V2000
    2.4926   17.3281   21.1320 C   0  0  2  0  0  0  0  0  0  0  0  0
    3.1605   16.9024   19.9391 O   0  0  0  0  0  0  0  0  0  0  0  0
    1.2017   16.4263   21.3359 C   0  0  2  0  0  0  0  0  0  0  0  0
    1.5481   14.9927   21.4774 N   0  0  0  0  0  0  0  0  0  0  0  0
    0.2421   16.6215   20.1351 C   0  0  1  0  0  0  0  0  0  0  0  0
   -0.9307   15.8218   20.3045 O   0  0  0  0  0  0  0  0  0  0  0  0
   -0.1100   18.1159   20.0273 C   0  0  2  0  0  0  0  0  0  0  0  0
   -0.9981   18.3097   18.9254 O   0  0  0  0  0  0  0  0  0  0  0  0
    1.2087   18.9604   19.8425 C   0  0  2  0  0  0  0  0  0  0  0  0
    2.1338   18.7414   20.9749 O   0  0  0  0  0  0  0  0  0  0  0  0
    0.9057   20.4763   19.7456 C   0  0  2  0  0  0  0  0  0  0  0  0
    0.3112   20.7713   18.4802 O   0  0  0  0  0  0  0  0  0  0  0  0
    2.1754   21.3009   19.8895 C   0  0  0  0  0  0  0  0  0  0  0  0
    6.7356   17.8706   17.7948 C   0  0  2  0  0  0  0  0  0  0  0  0
    7.9833   18.5309   17.4031 N   0  0  0  0  0  0  0  0  0  0  0  0
    5.6551   18.9773   17.9416 C   0  0  0  0  0  0  0  0  0  0  0  0
    4.3172   18.2935   18.3334 C   0  0  2  0  0  0  0  0  0  0  0  0
    3.2602   19.3067   18.4783 N   0  0  0  0  0  0  0  0  0  0  0  0
    4.4619   17.5136   19.6677 C   0  0  2  0  0  0  0  0  0  0  0  0
    5.5837   16.4391   19.5105 C   0  0  2  0  0  0  0  0  0  0  0  0
    5.7244   15.7270   20.7473 O   0  0  0  0  0  0  0  0  0  0  0  0
    6.9392   17.1045   19.1693 C   0  0  1  0  0  0  0  0  0  0  0  0
    7.9175   16.0447   19.0300 O   0  0  0  0  0  0  0  0  0  0  0  0
    9.2636   16.4612   18.7009 C   0  0  2  0  0  0  0  0  0  0  0  0
    9.5424   15.9307   17.2455 C   0  0  2  0  0  0  0  0  0  0  0  0
    8.6139   16.5030   16.3378 O   0  0  0  0  0  0  0  0  0  0  0  0
    9.4367   14.3586   17.2443 C   0  0  1  0  0  0  0  0  0  0  0  0
    9.6849   13.8102   15.8761 N   0  0  0  0  0  0  0  0  0  0  0  0
    8.6250   12.8308   15.5536 C   0  0  0  0  0  0  0  0  0  0  0  0
   10.4828   13.7919   18.2519 C   0  0  2  0  0  0  0  0  0  0  0  0
   11.7867   14.1854   17.8270 O   0  0  0  0  0  0  0  0  0  0  0  0
   10.4390   12.2674   18.3172 C   0  0  0  0  0  0  0  0  0  0  0  0
   10.2008   14.3841   19.6699 C   0  0  0  0  0  0  0  0  0  0  0  0
   10.2314   15.8615   19.6413 O   0  0  0  0  0  0  0  0  0  0  0  0
  1  3  1  0  0  0  0
  1  2  1  6  0  0  0
  3  5  1  0  0  0  0
  3  4  1  6  0  0  0
  5  6  1  1  0  0  0
  7  8  1  6  0  0  0
  7  5  1  0  0  0  0
  9 10  1  1  0  0  0
  9  7  1  0  0  0  0
 10  1  1  0  0  0  0
 11 13  1  6  0  0  0
 11  9  1  0  0  0  0
 12 11  1  0  0  0  0
 14 15  1  1  0  0  0
 16 14  1  0  0  0  0
 17 18  1  1  0  0  0
 17 16  1  0  0  0  0
 19  2  1  6  0  0  0
 19 20  1  0  0  0  0
 19 17  1  0  0  0  0
 20 21  1  1  0  0  0
 20 22  1  0  0  0  0
 22 23  1  6  0  0  0
 22 14  1  0  0  0  0
 24 23  1  1  0  0  0
 24 25  1  0  0  0  0
 25 27  1  0  0  0  0
 25 26  1  6  0  0  0
 27 28  1  6  0  0  0
 28 29  1  0  0  0  0
 30 31  1  6  0  0  0
 30 32  1  0  0  0  0
 30 27  1  0  0  0  0
 33 30  1  0  0  0  0
 34 33  1  0  0  0  0
 34 24  1  0  0  0  0
M  END
>  <CHROM.1>
-173.03718096,-72.82361034,-117.46998516,63.58641671,-112.68395971,-132.19586531
5.29460942,16.78686966,18.96694340,2.83906233,0.33599827,-0.29100525

>  <Name>
lig.pdb

>  <RI>
0

>  <Rbt.Current_Directory>
/home/itssahil/PROJECTS/Mol_Feturizer/New_Systems/rnas/4k32

>  <Rbt.Executable>
rbdock ($Id: //depot/dev/client3/rdock/2013.1/src/exe/rbdock.cxx#4 $)

>  <Rbt.Library>
libRbt.so (2013.1, Build901 2013/11/27)

>  <Rbt.Parameter_File>
/export/apps/rDock/src/rDock_2013.1_src/data/scripts/dock_solv.prm

>  <Rbt.Receptor>
prm/blind_docking_80.prm

>  <SCORE>
22.3494

>  <SCORE.INTER>
2.51152

>  <SCORE.INTER.CONST>
1

>  <SCORE.INTER.POLAR>
0

>  <SCORE.INTER.ROT>
6

>  <SCORE.INTER.SOLV>
22.0768

>  <SCORE.INTER.VDW>
-13.2846

>  <SCORE.INTER.norm>
0.0738681

>  <SCORE.INTRA>
8.30329

>  <SCORE.INTRA.DIHEDRAL>
-1.89672

>  <SCORE.INTRA.DIHEDRAL.0>
18.0069

>  <SCORE.INTRA.POLAR>
0

>  <SCORE.INTRA.POLAR.0>
0

>  <SCORE.INTRA.REPUL>
0

>  <SCORE.INTRA.REPUL.0>
0

>  <SCORE.INTRA.SOLV>
5.13495

>  <SCORE.INTRA.SOLV.lig_0>
-70.7393

>  <SCORE.INTRA.VDW>
6.68417

>  <SCORE.INTRA.VDW.0>
-3.23471

>  <SCORE.INTRA.norm>
0.244214

>  <SCORE.RESTR>
11.5346

>  <SCORE.RESTR.CAVITY>
11.5346

>  <SCORE.RESTR.norm>
0.339254

>  <SCORE.SYSTEM>
0

>  <SCORE.SYSTEM.CONST>
0

>  <SCORE.SYSTEM.DIHEDRAL>
0

>  <SCORE.SYSTEM.SOLV>
0

>  <SCORE.SYSTEM.norm>
0

>  <SCORE.heavy>
34

>  <SCORE.norm>
0.657337

>  <RMSD>
21.176

$$$$
lig.pdb
 OpenBabel11021811503D
libRbt.so/2013.1/901 2013/11/27
 34 36  0  0  0  0  0  0  0  0999 V2000
    3.2573   17.0054   18.9714 C   0  0  2  0  0  0  0  0  0  0  0  0
    4.5562   16.9823   19.5734 O   0  0  0  0  0  0  0  0  0  0  0  0
    2.9967   18.4602   18.3908 C   0  0  2  0  0  0  0  0  0  0  0  0
    3.9976   18.8304   17.3631 N   0  0  0  0  0  0  0  0  0  0  0  0
    3.0236   19.4894   19.5487 C   0  0  1  0  0  0  0  0  0  0  0  0
    2.7837   20.8058   19.0458 O   0  0  0  0  0  0  0  0  0  0  0  0
    1.9630   19.0852   20.5882 C   0  0  2  0  0  0  0  0  0  0  0  0
    1.9744   20.0287   21.6606 O   0  0  0  0  0  0  0  0  0  0  0  0
    2.2635   17.6299   21.1157 C   0  0  2  0  0  0  0  0  0  0  0  0
    2.2708   16.6597   20.0001 O   0  0  0  0  0  0  0  0  0  0  0  0
    1.2102   17.1716   22.1547 C   0  0  2  0  0  0  0  0  0  0  0  0
    1.2809   18.0027   23.3149 O   0  0  0  0  0  0  0  0  0  0  0  0
    1.4449   15.7292   22.5757 C   0  0  0  0  0  0  0  0  0  0  0  0
    7.4322   14.0584   20.7965 C   0  0  2  0  0  0  0  0  0  0  0  0
    8.0267   12.7858   21.2126 N   0  0  0  0  0  0  0  0  0  0  0  0
    6.2343   14.3392   21.7451 C   0  0  0  0  0  0  0  0  0  0  0  0
    5.6049   15.6981   21.3348 C   0  0  2  0  0  0  0  0  0  0  0  0
    4.4660   16.0084   22.2131 N   0  0  0  0  0  0  0  0  0  0  0  0
    5.1172   15.6620   19.8615 C   0  0  2  0  0  0  0  0  0  0  0  0
    6.3280   15.3331   18.9322 C   0  0  2  0  0  0  0  0  0  0  0  0
    5.8741   15.2887   17.5726 O   0  0  0  0  0  0  0  0  0  0  0  0
    6.9396   13.9572   19.2916 C   0  0  1  0  0  0  0  0  0  0  0  0
    8.0570   13.7342   18.3962 O   0  0  0  0  0  0  0  0  0  0  0  0
    8.8091   14.9095   18.0130 C   0  0  2  0  0  0  0  0  0  0  0  0
    9.7360   14.4664   16.8206 C   0  0  2  0  0  0  0  0  0  0  0  0
    8.9419   14.0143   15.7351 O   0  0  0  0  0  0  0  0  0  0  0  0
   10.7066   13.3306   17.3211 C   0  0  1  0  0  0  0  0  0  0  0  0
   11.6013   12.8707   16.2156 N   0  0  0  0  0  0  0  0  0  0  0  0
   11.5148   11.3982   16.1111 C   0  0  0  0  0  0  0  0  0  0  0  0
   11.5534   13.8897   18.5047 C   0  0  2  0  0  0  0  0  0  0  0  0
   12.3163   15.0007   18.0365 O   0  0  0  0  0  0  0  0  0  0  0  0
   12.5185   12.8430   19.0556 C   0  0  0  0  0  0  0  0  0  0  0  0
   10.5930   14.3648   19.6418 C   0  0  0  0  0  0  0  0  0  0  0  0
    9.6404   15.3775   19.1402 O   0  0  0  0  0  0  0  0  0  0  0  0
  1  3  1  0  0  0  0
  1  2  1  1  0  0  0
  3  5  1  0  0  0  0
  3  4  1  6  0  0  0
  5  6  1  6  0  0  0
  7  8  1  1  0  0  0
  7  5  1  0  0  0  0
  9 10  1  6  0  0  0
  9  7  1  0  0  0  0
 10  1  1  0  0  0  0
 11 13  1  1  0  0  0
 11  9  1  0  0  0  0
 12 11  1  0  0  0  0
 14 15  1  1  0  0  0
 16 14  1  0  0  0  0
 17 18  1  1  0  0  0
 17 16  1  0  0  0  0
 19  2  1  6  0  0  0
 19 20  1  0  0  0  0
 19 17  1  0  0  0  0
 20 21  1  6  0  0  0
 20 22  1  0  0  0  0
 22 23  1  6  0  0  0
 22 14  1  0  0  0  0
 24 23  1  1  0  0  0
 24 25  1  0  0  0  0
 25 27  1  0  0  0  0
 25 26  1  6  0  0  0
 27 28  1  6  0  0  0
 28 29  1  0  0  0  0
 30 31  1  6  0  0  0
 30 32  1  0  0  0  0
 30 27  1  0  0  0  0
 33 30  1  0  0  0  0
 34 33  1  0  0  0  0
 34 24  1  0  0  0  0
M  END
>  <CHROM.1>
-165.02705427,-64.22256679,-130.40982633,-81.87506465,-167.78207264,-127.98401780
6.32095889,15.75654958,19.41236357,-3.14074914,-0.58617172,2.15657020

>  <Name>
lig.pdb

>  <RI>
0

>  <Rbt.Current_Directory>
/home/itssahil/PROJECTS/Mol_Feturizer/New_Systems/rnas/4k32

>  <Rbt.Executable>
rbdock ($Id: //depot/dev/client3/rdock/2013.1/src/exe/rbdock.cxx#4 $)

>  <Rbt.Library>
libRbt.so (2013.1, Build901 2013/11/27)

>  <Rbt.Parameter_File>
/export/apps/rDock/src/rDock_2013.1_src/data/scripts/dock_solv.prm

>  <Rbt.Receptor>
prm/blind_docking_80.prm

>  <SCORE>
12.066

>  <SCORE.INTER>
6.21916

>  <SCORE.INTER.CONST>
1

>  <SCORE.INTER.POLAR>
0

>  <SCORE.INTER.ROT>
6

>  <SCORE.INTER.SOLV>
30.5222

>  <SCORE.INTER.VDW>
-13.628

>  <SCORE.INTER.norm>
0.182916

>  <SCORE.INTRA>
-0.287149

>  <SCORE.INTRA.DIHEDRAL>
-6.20881

>  <SCORE.INTRA.DIHEDRAL.0>
18.0069

>  <SCORE.INTRA.POLAR>
0

>  <SCORE.INTRA.POLAR.0>
0

>  <SCORE.INTRA.REPUL>
0

>  <SCORE.INTRA.REPUL.0>
0

>  <SCORE.INTRA.SOLV>
2.22609

>  <SCORE.INTRA.SOLV.lig_0>
-70.7393

>  <SCORE.INTRA.VDW>
1.70421

>  <SCORE.INTRA.VDW.0>
-3.23471

>  <SCORE.INTRA.norm>
-0.00844557

>  <SCORE.RESTR>
6.13404

>  <SCORE.RESTR.CAVITY>
6.13404

>  <SCORE.RESTR.norm>
0.180413

>  <SCORE.SYSTEM>
0

>  <SCORE.SYSTEM.CONST>
0

>  <SCORE.SYSTEM.DIHEDRAL>
0

>  <SCORE.SYSTEM.SOLV>
0

>  <SCORE.SYSTEM.norm>
0

>  <SCORE.heavy>
34

>  <SCORE.norm>
0.354884

>  <RMSD>
21.215

$$$$
lig.pdb
 OpenBabel11021811503D
libRbt.so/2013.1/901 2013/11/27
 34 36  0  0  0  0  0  0  0  0999 V2000
    3.8451   17.4065   18.6884 C   0  0  2  0  0  0  0  0  0  0  0  0
    4.3812   17.0955   19.9792 O   0  0  0  0  0  0  0  0  0  0  0  0
    4.0558   18.9564   18.4153 C   0  0  2  0  0  0  0  0  0  0  0  0
    5.4898   19.3284   18.4307 N   0  0  0  0  0  0  0  0  0  0  0  0
    3.2863   19.7765   19.4812 C   0  0  1  0  0  0  0  0  0  0  0  0
    3.4585   21.1762   19.2474 O   0  0  0  0  0  0  0  0  0  0  0  0
    1.8006   19.3785   19.4270 C   0  0  2  0  0  0  0  0  0  0  0  0
    1.0780   20.1306   20.4031 O   0  0  0  0  0  0  0  0  0  0  0  0
    1.6554   17.8303   19.6888 C   0  0  2  0  0  0  0  0  0  0  0  0
    2.4210   17.0561   18.6888 O   0  0  0  0  0  0  0  0  0  0  0  0
    0.1751   17.3784   19.6275 C   0  0  2  0  0  0  0  0  0  0  0  0
   -0.6414   18.2937   20.3604 O   0  0  0  0  0  0  0  0  0  0  0  0
   -0.0004   15.9890   20.2206 C   0  0  0  0  0  0  0  0  0  0  0  0
    7.2578   14.0520   20.8618 C   0  0  2  0  0  0  0  0  0  0  0  0
    7.8479   12.7450   21.1612 N   0  0  0  0  0  0  0  0  0  0  0  0
    6.1100   14.2839   21.8830 C   0  0  0  0  0  0  0  0  0  0  0  0
    5.4868   15.6771   21.5970 C   0  0  2  0  0  0  0  0  0  0  0  0
    4.3953   15.9424   22.5473 N   0  0  0  0  0  0  0  0  0  0  0  0
    4.9312   15.7504   20.1493 C   0  0  2  0  0  0  0  0  0  0  0  0
    6.0918   15.4690   19.1436 C   0  0  2  0  0  0  0  0  0  0  0  0
    5.5750   15.5256   17.8070 O   0  0  0  0  0  0  0  0  0  0  0  0
    6.6946   14.0626   19.3784 C   0  0  1  0  0  0  0  0  0  0  0  0
    7.7654   13.8859   18.4182 O   0  0  0  0  0  0  0  0  0  0  0  0
    8.3534   15.0984   17.8912 C   0  0  2  0  0  0  0  0  0  0  0  0
    9.4392   14.6407   16.8477 C   0  0  2  0  0  0  0  0  0  0  0  0
    8.8242   13.8986   15.8064 O   0  0  0  0  0  0  0  0  0  0  0  0
   10.5292   13.7768   17.5882 C   0  0  1  0  0  0  0  0  0  0  0  0
   11.5784   13.3106   16.6310 N   0  0  0  0  0  0  0  0  0  0  0  0
   11.6046   11.8321   16.6326 C   0  0  0  0  0  0  0  0  0  0  0  0
   11.1706   14.6471   18.7115 C   0  0  2  0  0  0  0  0  0  0  0  0
   11.7868   15.7859   18.1123 O   0  0  0  0  0  0  0  0  0  0  0  0
   12.2367   13.8769   19.4865 C   0  0  0  0  0  0  0  0  0  0  0  0
   10.0517   15.1219   19.6933 C   0  0  0  0  0  0  0  0  0  0  0  0
    8.9990   15.8687   18.9732 O   0  0  0  0  0  0  0  0  0  0  0  0
  1  3  1  0  0  0  0
  1  2  1  1  0  0  0
  3  5  1  0  0  0  0
  3  4  1  1  0  0  0
  5  6  1  6  0  0  0
  7  8  1  1  0  0  0
  7  5  1  0  0  0  0
  9 10  1  6  0  0  0
  9  7  1  0  0  0  0
 10  1  1  0  0  0  0
 11 13  1  1  0  0  0
 11  9  1  0  0  0  0
 12 11  1  0  0  0  0
 14 15  1  1  0  0  0
 16 14  1  0  0  0  0
 17 18  1  1  0  0  0
 17 16  1  0  0  0  0
 19  2  1  6  0  0  0
 19 20  1  0  0  0  0
 19 17  1  0  0  0  0
 20 21  1  6  0  0  0
 20 22  1  0  0  0  0
 22 23  1  6  0  0  0
 22 14  1  0  0  0  0
 24 23  1  1  0  0  0
 24 25  1  0  0  0  0
 25 27  1  0  0  0  0
 25 26  1  6  0  0  0
 27 28  1  6  0  0  0
 28 29  1  0  0  0  0
 30 31  1  6  0  0  0
 30 32  1  0  0  0  0
 30 27  1  0  0  0  0
 33 30  1  0  0  0  0
 34 33  1  0  0  0  0
 34 24  1  0  0  0  0
M  END
>  <CHROM.1>
-148.78227123,-45.25476160,178.07470369,-93.08785688,-178.03222988,-120.27487467
6.09451199,16.04763298,19.15838696,-2.85368454,-0.42134303,2.57157700

>  <Name>
lig.pdb

>  <RI>
0

>  <Rbt.Current_Directory>
/home/itssahil/PROJECTS/Mol_Feturizer/New_Systems/rnas/4k32

>  <Rbt.Executable>
rbdock ($Id: //depot/dev/client3/rdock/2013.1/src/exe/rbdock.cxx#4 $)

>  <Rbt.Library>
libRbt.so (2013.1, Build901 2013/11/27)

>  <Rbt.Parameter_File>
/export/apps/rDock/src/rDock_2013.1_src/data/scripts/dock_solv.prm

>  <Rbt.Receptor>
prm/blind_docking_80.prm

>  <SCORE>
14.0878

>  <SCORE.INTER>
8.20583

>  <SCORE.INTER.CONST>
1

>  <SCORE.INTER.POLAR>
0

>  <SCORE.INTER.ROT>
6

>  <SCORE.INTER.SOLV>
27.9634

>  <SCORE.INTER.VDW>
-11.4506

>  <SCORE.INTER.norm>
0.241348

>  <SCORE.INTRA>
-0.234494

>  <SCORE.INTRA.DIHEDRAL>
-7.96838

>  <SCORE.INTRA.DIHEDRAL.0>
18.0069

>  <SCORE.INTRA.POLAR>
0

>  <SCORE.INTRA.POLAR.0>
0

>  <SCORE.INTRA.REPUL>
0

>  <SCORE.INTRA.REPUL.0>
0

>  <SCORE.INTRA.SOLV>
-1.23434

>  <SCORE.INTRA.SOLV.lig_0>
-70.7393

>  <SCORE.INTRA.VDW>
4.36687

>  <SCORE.INTRA.VDW.0>
-3.23471

>  <SCORE.INTRA.norm>
-0.00689689

>  <SCORE.RESTR>
6.11643

>  <SCORE.RESTR.CAVITY>
6.11643

>  <SCORE.RESTR.norm>
0.179895

>  <SCORE.SYSTEM>
0

>  <SCORE.SYSTEM.CONST>
0

>  <SCORE.SYSTEM.DIHEDRAL>
0

>  <SCORE.SYSTEM.SOLV>
0

>  <SCORE.SYSTEM.norm>
0

>  <SCORE.heavy>
34

>  <SCORE.norm>
0.414346

>  <RMSD>
21.247

$$$$
lig.pdb
 OpenBabel11021811503D
libRbt.so/2013.1/901 2013/11/27
 34 36  0  0  0  0  0  0  0  0999 V2000
    3.5284   17.0940   18.8490 C   0  0  2  0  0  0  0  0  0  0  0  0
    4.7601   17.0280   19.5761 O   0  0  0  0  0  0  0  0  0  0  0  0
    3.2859   18.5988   18.4040 C   0  0  2  0  0  0  0  0  0  0  0  0
    4.3742   19.0971   17.5309 N   0  0  0  0  0  0  0  0  0  0  0  0
    3.1663   19.4952   19.6623 C   0  0  1  0  0  0  0  0  0  0  0  0
    2.9405   20.8544   19.2814 O   0  0  0  0  0  0  0  0  0  0  0  0
    2.0184   18.9608   20.5372 C   0  0  2  0  0  0  0  0  0  0  0  0
    1.8945   19.7810   21.7000 O   0  0  0  0  0  0  0  0  0  0  0  0
    2.3060   17.4620   20.9337 C   0  0  2  0  0  0  0  0  0  0  0  0
    2.4537   16.6202   19.7273 O   0  0  0  0  0  0  0  0  0  0  0  0
    1.1670   16.8739   21.8032 C   0  0  2  0  0  0  0  0  0  0  0  0
   -0.0860   17.4308   21.4011 O   0  0  0  0  0  0  0  0  0  0  0  0
    1.3849   17.1822   23.2764 C   0  0  0  0  0  0  0  0  0  0  0  0
    7.4947   14.0079   20.8867 C   0  0  2  0  0  0  0  0  0  0  0  0
    8.0326   12.7151   21.3176 N   0  0  0  0  0  0  0  0  0  0  0  0
    6.2730   14.3236   21.7932 C   0  0  0  0  0  0  0  0  0  0  0  0
    5.7029   15.7037   21.3675 C   0  0  2  0  0  0  0  0  0  0  0  0
    4.5436   16.0473   22.2059 N   0  0  0  0  0  0  0  0  0  0  0  0
    5.2677   15.6892   19.8775 C   0  0  2  0  0  0  0  0  0  0  0  0
    6.4999   15.3249   18.9905 C   0  0  2  0  0  0  0  0  0  0  0  0
    6.0941   15.3005   17.6153 O   0  0  0  0  0  0  0  0  0  0  0  0
    7.0536   13.9285   19.3646 C   0  0  1  0  0  0  0  0  0  0  0  0
    8.1947   13.6730   18.5089 O   0  0  0  0  0  0  0  0  0  0  0  0
    9.0191   14.8185   18.1894 C   0  0  2  0  0  0  0  0  0  0  0  0
    9.8709   14.4075   16.9313 C   0  0  2  0  0  0  0  0  0  0  0  0
    9.0102   14.1019   15.8454 O   0  0  0  0  0  0  0  0  0  0  0  0
   10.7704   13.1687   17.3042 C   0  0  1  0  0  0  0  0  0  0  0  0
   11.5917   12.7363   16.1325 N   0  0  0  0  0  0  0  0  0  0  0  0
   11.3894   11.2877   15.9148 C   0  0  0  0  0  0  0  0  0  0  0  0
   11.6947   13.5691   18.4941 C   0  0  2  0  0  0  0  0  0  0  0  0
   12.5222   14.6568   18.0845 O   0  0  0  0  0  0  0  0  0  0  0  0
   12.5970   12.4153   18.9243 C   0  0  0  0  0  0  0  0  0  0  0  0
   10.8101   14.0188   19.7009 C   0  0  0  0  0  0  0  0  0  0  0  0
    9.9195   15.1340   19.3165 O   0  0  0  0  0  0  0  0  0  0  0  0
  1  3  1  0  0  0  0
  1  2  1  1  0  0  0
  3  5  1  0  0  0  0
  3  4  1  6  0  0  0
  5  6  1  6  0  0  0
  7  8  1  1  0  0  0
  7  5  1  0  0  0  0
  9 10  1  6  0  0  0
  9  7  1  0  0  0  0
 10  1  1  0  0  0  0
 11 13  1  1  0  0  0
 11  9  1  0  0  0  0
 12 11  1  0  0  0  0
 14 15  1  1  0  0  0
 16 14  1  0  0  0  0
 17 18  1  1  0  0  0
 17 16  1  0  0  0  0
 19  2  1  6  0  0  0
 19 20  1  0  0  0  0
 19 17  1  0  0  0  0
 20 21  1  6  0  0  0
 20 22  1  0  0  0  0
 22 23  1  6  0  0  0
 22 14  1  0  0  0  0
 24 23  1  1  0  0  0
 24 25  1  0  0  0  0
 25 27  1  0  0  0  0
 25 26  1  6  0  0  0
 27 28  1  6  0  0  0
 28 29  1  0  0  0  0
 30 31  1  6  0  0  0
 30 32  1  0  0  0  0
 30 27  1  0  0  0  0
 33 30  1  0  0  0  0
 34 33  1  0  0  0  0
 34 24  1  0  0  0  0
M  END
>  <CHROM.1>
-170.12594800,33.93240582,-134.43307333,-80.20358802,-162.31993076,-127.81193538
6.38935935,15.70648902,19.38407075,-3.10958312,-0.57909941,2.16821839

>  <Name>
lig.pdb

>  <RI>
0

>  <Rbt.Current_Directory>
/home/itssahil/PROJECTS/Mol_Feturizer/New_Systems/rnas/4k32

>  <Rbt.Executable>
rbdock ($Id: //depot/dev/client3/rdock/2013.1/src/exe/rbdock.cxx#4 $)

>  <Rbt.Library>
libRbt.so (2013.1, Build901 2013/11/27)

>  <Rbt.Parameter_File>
/export/apps/rDock/src/rDock_2013.1_src/data/scripts/dock_solv.prm

>  <Rbt.Receptor>
prm/blind_docking_80.prm

>  <SCORE>
10.863

>  <SCORE.INTER>
4.71996

>  <SCORE.INTER.CONST>
1

>  <SCORE.INTER.POLAR>
0

>  <SCORE.INTER.ROT>
6

>  <SCORE.INTER.SOLV>
29.8224

>  <SCORE.INTER.VDW>
-14.3942

>  <SCORE.INTER.norm>
0.138822

>  <SCORE.INTRA>
-0.114621

>  <SCORE.INTRA.DIHEDRAL>
-4.74578

>  <SCORE.INTRA.DIHEDRAL.0>
18.0069

>  <SCORE.INTRA.POLAR>
0

>  <SCORE.INTRA.POLAR.0>
0

>  <SCORE.INTRA.REPUL>
0

>  <SCORE.INTRA.REPUL.0>
0

>  <SCORE.INTRA.SOLV>
1.75031

>  <SCORE.INTRA.SOLV.lig_0>
-70.7393

>  <SCORE.INTRA.VDW>
1.38312

>  <SCORE.INTRA.VDW.0>
-3.23471

>  <SCORE.INTRA.norm>
-0.0033712

>  <SCORE.RESTR>
6.25762

>  <SCORE.RESTR.CAVITY>
6.25762

>  <SCORE.RESTR.norm>
0.184048

>  <SCORE.SYSTEM>
0

>  <SCORE.SYSTEM.CONST>
0

>  <SCORE.SYSTEM.DIHEDRAL>
0

>  <SCORE.SYSTEM.SOLV>
0

>  <SCORE.SYSTEM.norm>
0

>  <SCORE.heavy>
34

>  <SCORE.norm>
0.319499

>  <RMSD>
21.260

$$$$
lig.pdb
 OpenBabel11021811503D
libRbt.so/2013.1/901 2013/11/27
 34 36  0  0  0  0  0  0  0  0999 V2000
    3.6708   17.1515   18.9632 C   0  0  2  0  0  0  0  0  0  0  0  0
    4.7421   17.0004   19.9011 O   0  0  0  0  0  0  0  0  0  0  0  0
    3.7311   18.6197   18.3614 C   0  0  2  0  0  0  0  0  0  0  0  0
    5.0102   18.8748   17.6588 N   0  0  0  0  0  0  0  0  0  0  0  0
    3.5399   19.6518   19.5012 C   0  0  1  0  0  0  0  0  0  0  0  0
    3.5843   20.9810   18.9771 O   0  0  0  0  0  0  0  0  0  0  0  0
    2.1970   19.3692   20.1979 C   0  0  2  0  0  0  0  0  0  0  0  0
    2.0061   20.3168   21.2496 O   0  0  0  0  0  0  0  0  0  0  0  0
    2.1896   17.8958   20.7598 C   0  0  2  0  0  0  0  0  0  0  0  0
    2.4077   16.9193   19.6713 O   0  0  0  0  0  0  0  0  0  0  0  0
    0.8483   17.5586   21.4571 C   0  0  2  0  0  0  0  0  0  0  0  0
    0.9762   16.3376   22.1882 O   0  0  0  0  0  0  0  0  0  0  0  0
   -0.2742   17.4020   20.4431 C   0  0  0  0  0  0  0  0  0  0  0  0
    7.4808   13.8822   20.9464 C   0  0  2  0  0  0  0  0  0  0  0  0
    8.0177   12.5602   21.2785 N   0  0  0  0  0  0  0  0  0  0  0  0
    6.2826   14.1455   21.8997 C   0  0  0  0  0  0  0  0  0  0  0  0
    5.7142   15.5545   21.5791 C   0  0  2  0  0  0  0  0  0  0  0  0
    4.5771   15.8496   22.4649 N   0  0  0  0  0  0  0  0  0  0  0  0
    5.2454   15.6413   20.1018 C   0  0  2  0  0  0  0  0  0  0  0  0
    6.4542   15.3282   19.1646 C   0  0  2  0  0  0  0  0  0  0  0  0
    6.0172   15.3974   17.8005 O   0  0  0  0  0  0  0  0  0  0  0  0
    7.0048   13.9065   19.4330 C   0  0  1  0  0  0  0  0  0  0  0  0
    8.1242   13.7005   18.5361 O   0  0  0  0  0  0  0  0  0  0  0  0
    8.8627   14.8860   18.1581 C   0  0  2  0  0  0  0  0  0  0  0  0
    9.7697   14.4675   16.9417 C   0  0  2  0  0  0  0  0  0  0  0  0
    8.9580   14.0284   15.8639 O   0  0  0  0  0  0  0  0  0  0  0  0
   10.7555   13.3293   17.4057 C   0  0  1  0  0  0  0  0  0  0  0  0
   11.6320   12.8923   16.2765 N   0  0  0  0  0  0  0  0  0  0  0  0
   11.5281   11.4245   16.1304 C   0  0  0  0  0  0  0  0  0  0  0  0
   11.6211   13.8741   18.5824 C   0  0  2  0  0  0  0  0  0  0  0  0
   12.3691   14.9969   18.1182 O   0  0  0  0  0  0  0  0  0  0  0  0
   12.6019   12.8242   19.0983 C   0  0  0  0  0  0  0  0  0  0  0  0
   10.6795   14.3254   19.7446 C   0  0  0  0  0  0  0  0  0  0  0  0
    9.7123   15.3406   19.2771 O   0  0  0  0  0  0  0  0  0  0  0  0
  1  3  1  0  0  0  0
  1  2  1  1  0  0  0
  3  5  1  0  0  0  0
  3  4  1  1  0  0  0
  5  6  1  6  0  0  0
  7  8  1  1  0  0  0
  7  5  1  0  0  0  0
  9 10  1  6  0  0  0
  9  7  1  0  0  0  0
 10  1  1  0  0  0  0
 11 13  1  6  0  0  0
 11  9  1  0  0  0  0
 12 11  1  0  0  0  0
 14 15  1  1  0  0  0
 16 14  1  0  0  0  0
 17 18  1  1  0  0  0
 17 16  1  0  0  0  0
 19  2  1  6  0  0  0
 19 20  1  0  0  0  0
 19 17  1  0  0  0  0
 20 21  1  6  0  0  0
 20 22  1  0  0  0  0
 22 23  1  6  0  0  0
 22 14  1  0  0  0  0
 24 23  1  1  0  0  0
 24 25  1  0  0  0  0
 25 27  1  0  0  0  0
 25 26  1  6  0  0  0
 27 28  1  6  0  0  0
 28 29  1  0  0  0  0
 30 31  1  6  0  0  0
 30 32  1  0  0  0  0
 30 27  1  0  0  0  0
 33 30  1  0  0  0  0
 34 33  1  0  0  0  0
 34 24  1  0  0  0  0
M  END
>  <CHROM.1>
-152.98937834,-167.96997691,-148.02344450,-86.71776964,-166.51454588,-126.73149443
6.40494525,15.78998665,19.34280243,-2.97257513,-0.53946082,2.37284596

>  <Name>
lig.pdb

>  <RI>
0

>  <Rbt.Current_Directory>
/home/itssahil/PROJECTS/Mol_Feturizer/New_Systems/rnas/4k32

>  <Rbt.Executable>
rbdock ($Id: //depot/dev/client3/rdock/2013.1/src/exe/rbdock.cxx#4 $)

>  <Rbt.Library>
libRbt.so (2013.1, Build901 2013/11/27)

>  <Rbt.Parameter_File>
/export/apps/rDock/src/rDock_2013.1_src/data/scripts/dock_solv.prm

>  <Rbt.Receptor>
prm/blind_docking_80.prm

>  <SCORE>
10.1219

>  <SCORE.INTER>
4.16448

>  <SCORE.INTER.CONST>
1

>  <SCORE.INTER.POLAR>
0

>  <SCORE.INTER.ROT>
6

>  <SCORE.INTER.SOLV>
29.9836

>  <SCORE.INTER.VDW>
-14.8182

>  <SCORE.INTER.norm>
0.122485

>  <SCORE.INTRA>
-0.0644141

>  <SCORE.INTRA.DIHEDRAL>
-5.43239

>  <SCORE.INTRA.DIHEDRAL.0>
18.0069

>  <SCORE.INTRA.POLAR>
0

>  <SCORE.INTRA.POLAR.0>
0

>  <SCORE.INTRA.REPUL>
0

>  <SCORE.INTRA.REPUL.0>
0

>  <SCORE.INTRA.SOLV>
0.196848

>  <SCORE.INTRA.SOLV.lig_0>
-70.7393

>  <SCORE.INTRA.VDW>
2.55336

>  <SCORE.INTRA.VDW.0>
-3.23471

>  <SCORE.INTRA.norm>
-0.00189453

>  <SCORE.RESTR>
6.02186

>  <SCORE.RESTR.CAVITY>
6.02186

>  <SCORE.RESTR.norm>
0.177114

>  <SCORE.SYSTEM>
0

>  <SCORE.SYSTEM.CONST>
0

>  <SCORE.SYSTEM.DIHEDRAL>
0

>  <SCORE.SYSTEM.SOLV>
0

>  <SCORE.SYSTEM.norm>
0

>  <SCORE.heavy>
34

>  <SCORE.norm>
0.297704

>  <RMSD>
21.260

$$$$
lig.pdb
 OpenBabel11021811503D
libRbt.so/2013.1/901 2013/11/27
 34 36  0  0  0  0  0  0  0  0999 V2000
    3.6899   17.1860   18.9630 C   0  0  2  0  0  0  0  0  0  0  0  0
    4.7151   17.0178   19.9483 O   0  0  0  0  0  0  0  0  0  0  0  0
    3.8000   18.6534   18.3666 C   0  0  2  0  0  0  0  0  0  0  0  0
    5.1135   18.8892   17.7231 N   0  0  0  0  0  0  0  0  0  0  0  0
    3.5731   19.6876   19.4979 C   0  0  1  0  0  0  0  0  0  0  0  0
    3.6617   21.0163   18.9781 O   0  0  0  0  0  0  0  0  0  0  0  0
    2.1958   19.4252   20.1326 C   0  0  2  0  0  0  0  0  0  0  0  0
    1.9720   20.3750   21.1757 O   0  0  0  0  0  0  0  0  0  0  0  0
    2.1403   17.9518   20.6915 C   0  0  2  0  0  0  0  0  0  0  0  0
    2.3925   16.9727   19.6128 O   0  0  0  0  0  0  0  0  0  0  0  0
    0.7637   17.6348   21.3268 C   0  0  2  0  0  0  0  0  0  0  0  0
    0.8640   16.4649   22.1409 O   0  0  0  0  0  0  0  0  0  0  0  0
   -0.2922   17.3942   20.2591 C   0  0  0  0  0  0  0  0  0  0  0  0
    7.4838   13.8997   20.9118 C   0  0  2  0  0  0  0  0  0  0  0  0
    8.0305   12.5776   21.2269 N   0  0  0  0  0  0  0  0  0  0  0  0
    6.3128   14.1611   21.8989 C   0  0  0  0  0  0  0  0  0  0  0  0
    5.7349   15.5702   21.5963 C   0  0  2  0  0  0  0  0  0  0  0  0
    4.6231   15.8635   22.5143 N   0  0  0  0  0  0  0  0  0  0  0  0
    5.2245   15.6586   20.1330 C   0  0  2  0  0  0  0  0  0  0  0  0
    6.4066   15.3474   19.1616 C   0  0  2  0  0  0  0  0  0  0  0  0
    5.9312   15.4182   17.8104 O   0  0  0  0  0  0  0  0  0  0  0  0
    6.9652   13.9257   19.4124 C   0  0  1  0  0  0  0  0  0  0  0  0
    8.0589   13.7215   18.4840 O   0  0  0  0  0  0  0  0  0  0  0  0
    8.8112   14.9021   18.1180 C   0  0  2  0  0  0  0  0  0  0  0  0
    9.7234   14.4817   16.9062 C   0  0  2  0  0  0  0  0  0  0  0  0
    8.9159   14.0558   15.8200 O   0  0  0  0  0  0  0  0  0  0  0  0
   10.6952   13.3320   17.3715 C   0  0  1  0  0  0  0  0  0  0  0  0
   11.5762   12.8929   16.2466 N   0  0  0  0  0  0  0  0  0  0  0  0
   11.4878   11.4227   16.1153 C   0  0  0  0  0  0  0  0  0  0  0  0
   11.5569   13.8625   18.5575 C   0  0  2  0  0  0  0  0  0  0  0  0
   12.3187   14.9807   18.1050 O   0  0  0  0  0  0  0  0  0  0  0  0
   12.5241   12.8008   19.0751 C   0  0  0  0  0  0  0  0  0  0  0  0
   10.6107   14.3163   19.7150 C   0  0  0  0  0  0  0  0  0  0  0  0
    9.6565   15.3429   19.2458 O   0  0  0  0  0  0  0  0  0  0  0  0
  1  3  1  0  0  0  0
  1  2  1  1  0  0  0
  3  5  1  0  0  0  0
  3  4  1  1  0  0  0
  5  6  1  6  0  0  0
  7  8  1  1  0  0  0
  7  5  1  0  0  0  0
  9 10  1  6  0  0  0
  9  7  1  0  0  0  0
 10  1  1  0  0  0  0
 11 13  1  6  0  0  0
 11  9  1  0  0  0  0
 12 11  1  0  0  0  0
 14 15  1  1  0  0  0
 16 14  1  0  0  0  0
 17 18  1  1  0  0  0
 17 16  1  0  0  0  0
 19  2  1  6  0  0  0
 19 20  1  0  0  0  0
 19 17  1  0  0  0  0
 20 21  1  6  0  0  0
 20 22  1  0  0  0  0
 22 23  1  6  0  0  0
 22 14  1  0  0  0  0
 24 23  1  1  0  0  0
 24 25  1  0  0  0  0
 25 27  1  0  0  0  0
 25 26  1  6  0  0  0
 27 28  1  6  0  0  0
 28 29  1  0  0  0  0
 30 31  1  6  0  0  0
 30 32  1  0  0  0  0
 30 27  1  0  0  0  0
 33 30  1  0  0  0  0
 34 33  1  0  0  0  0
 34 24  1  0  0  0  0
M  END
>  <CHROM.1>
-150.68849684,-163.75406837,-152.84066674,-84.93369789,-168.71147604,-128.23691127
6.38057486,15.81282660,19.31637208,-2.96596426,-0.54237943,2.37517760

>  <Name>
lig.pdb

>  <RI>
0

>  <Rbt.Current_Directory>
/home/itssahil/PROJECTS/Mol_Feturizer/New_Systems/rnas/4k32

>  <Rbt.Executable>
rbdock ($Id: //depot/dev/client3/rdock/2013.1/src/exe/rbdock.cxx#4 $)

>  <Rbt.Library>
libRbt.so (2013.1, Build901 2013/11/27)

>  <Rbt.Parameter_File>
/export/apps/rDock/src/rDock_2013.1_src/data/scripts/dock_solv.prm

>  <Rbt.Receptor>
prm/blind_docking_80.prm

>  <SCORE>
10.29

>  <SCORE.INTER>
4.81892

>  <SCORE.INTER.CONST>
1

>  <SCORE.INTER.POLAR>
0

>  <SCORE.INTER.ROT>
6

>  <SCORE.INTER.SOLV>
30.0899

>  <SCORE.INTER.VDW>
-14.4174

>  <SCORE.INTER.norm>
0.141733

>  <SCORE.INTRA>
-0.438366

>  <SCORE.INTRA.DIHEDRAL>
-6.09325

>  <SCORE.INTRA.DIHEDRAL.0>
18.0069

>  <SCORE.INTRA.POLAR>
0

>  <SCORE.INTRA.POLAR.0>
0

>  <SCORE.INTRA.REPUL>
0

>  <SCORE.INTRA.REPUL.0>
0

>  <SCORE.INTRA.SOLV>
-0.050634

>  <SCORE.INTRA.SOLV.lig_0>
-70.7393

>  <SCORE.INTRA.VDW>
2.63358

>  <SCORE.INTRA.VDW.0>
-3.23471

>  <SCORE.INTRA.norm>
-0.0128931

>  <SCORE.RESTR>
5.90946

>  <SCORE.RESTR.CAVITY>
5.90946

>  <SCORE.RESTR.norm>
0.173808

>  <SCORE.SYSTEM>
0

>  <SCORE.SYSTEM.CONST>
0

>  <SCORE.SYSTEM.DIHEDRAL>
0

>  <SCORE.SYSTEM.SOLV>
0

>  <SCORE.SYSTEM.norm>
0

>  <SCORE.heavy>
34

>  <SCORE.norm>
0.302647

>  <RMSD>
21.262

$$$$
lig.pdb
 OpenBabel11021811503D
libRbt.so/2013.1/901 2013/11/27
 34 36  0  0  0  0  0  0  0  0999 V2000
    3.9558   17.3124   18.6806 C   0  0  2  0  0  0  0  0  0  0  0  0
    4.5732   17.0336   19.9421 O   0  0  0  0  0  0  0  0  0  0  0  0
    4.1847   18.8451   18.3352 C   0  0  2  0  0  0  0  0  0  0  0  0
    5.6250   19.1785   18.2373 N   0  0  0  0  0  0  0  0  0  0  0  0
    3.5121   19.7237   19.4199 C   0  0  1  0  0  0  0  0  0  0  0  0
    3.7018   21.1088   19.1219 O   0  0  0  0  0  0  0  0  0  0  0  0
    2.0169   19.3643   19.4836 C   0  0  2  0  0  0  0  0  0  0  0  0
    1.3832   20.1704   20.4781 O   0  0  0  0  0  0  0  0  0  0  0  0
    1.8525   17.8311   19.8132 C   0  0  2  0  0  0  0  0  0  0  0  0
    2.5270   17.0008   18.7927 O   0  0  0  0  0  0  0  0  0  0  0  0
    0.3610   17.4175   19.8716 C   0  0  2  0  0  0  0  0  0  0  0  0
   -0.3749   18.3668   20.6454 O   0  0  0  0  0  0  0  0  0  0  0  0
    0.1958   16.0439   20.5031 C   0  0  0  0  0  0  0  0  0  0  0  0
    7.3839   13.9512   20.8986 C   0  0  2  0  0  0  0  0  0  0  0  0
    7.9484   12.6361   21.2115 N   0  0  0  0  0  0  0  0  0  0  0  0
    6.2109   14.1960   21.8874 C   0  0  0  0  0  0  0  0  0  0  0  0
    5.6141   15.5977   21.5871 C   0  0  2  0  0  0  0  0  0  0  0  0
    4.4996   15.8753   22.5068 N   0  0  0  0  0  0  0  0  0  0  0  0
    5.1007   15.6811   20.1246 C   0  0  2  0  0  0  0  0  0  0  0  0
    6.2856   15.3867   19.1514 C   0  0  2  0  0  0  0  0  0  0  0  0
    5.8076   15.4527   17.8009 O   0  0  0  0  0  0  0  0  0  0  0  0
    6.8632   13.9721   19.3999 C   0  0  1  0  0  0  0  0  0  0  0  0
    7.9584   13.7834   18.4699 O   0  0  0  0  0  0  0  0  0  0  0  0
    8.7275   14.9652   18.1450 C   0  0  2  0  0  0  0  0  0  0  0  0
    9.6401   14.5717   16.9245 C   0  0  2  0  0  0  0  0  0  0  0  0
    8.8324   14.1912   15.8217 O   0  0  0  0  0  0  0  0  0  0  0  0
   10.5948   13.3952   17.3572 C   0  0  1  0  0  0  0  0  0  0  0  0
   11.4754   12.9807   16.2227 N   0  0  0  0  0  0  0  0  0  0  0  0
   11.4015   11.5116   16.0715 C   0  0  0  0  0  0  0  0  0  0  0  0
   11.4574   13.8764   18.5633 C   0  0  2  0  0  0  0  0  0  0  0  0
   12.2358   14.9984   18.1501 O   0  0  0  0  0  0  0  0  0  0  0  0
   12.4083   12.7863   19.0510 C   0  0  0  0  0  0  0  0  0  0  0  0
   10.5116   14.3054   19.7305 C   0  0  0  0  0  0  0  0  0  0  0  0
    9.5730   15.3588   19.2900 O   0  0  0  0  0  0  0  0  0  0  0  0
  1  3  1  0  0  0  0
  1  2  1  1  0  0  0
  3  5  1  0  0  0  0
  3  4  1  1  0  0  0
  5  6  1  6  0  0  0
  7  8  1  1  0  0  0
  7  5  1  0  0  0  0
  9 10  1  6  0  0  0
  9  7  1  0  0  0  0
 10  1  1  0  0  0  0
 11 13  1  1  0  0  0
 11  9  1  0  0  0  0
 12 11  1  0  0  0  0
 14 15  1  1  0  0  0
 16 14  1  0  0  0  0
 17 18  1  1  0  0  0
 17 16  1  0  0  0  0
 19  2  1  6  0  0  0
 19 20  1  0  0  0  0
 19 17  1  0  0  0  0
 20 21  1  6  0  0  0
 20 22  1  0  0  0  0
 22 23  1  6  0  0  0
 22 14  1  0  0  0  0
 24 23  1  1  0  0  0
 24 25  1  0  0  0  0
 25 27  1  0  0  0  0
 25 26  1  6  0  0  0
 27 28  1  6  0  0  0
 28 29  1  0  0  0  0
 30 31  1  6  0  0  0
 30 32  1  0  0  0  0
 30 27  1  0  0  0  0
 33 30  1  0  0  0  0
 34 33  1  0  0  0  0
 34 24  1  0  0  0  0
M  END
>  <CHROM.1>
-148.77899004,-46.35374973,-175.83602635,-82.58834199,-168.73369177,-129.99604501
6.28200650,15.86628285,19.15123441,-2.89350778,-0.49049800,2.44621223

>  <Name>
lig.pdb

>  <RI>
0

>  <Rbt.Current_Directory>
/home/itssahil/PROJECTS/Mol_Feturizer/New_Systems/rnas/4k32

>  <Rbt.Executable>
rbdock ($Id: //depot/dev/client3/rdock/2013.1/src/exe/rbdock.cxx#4 $)

>  <Rbt.Library>
libRbt.so (2013.1, Build901 2013/11/27)

>  <Rbt.Parameter_File>
/export/apps/rDock/src/rDock_2013.1_src/data/scripts/dock_solv.prm

>  <Rbt.Receptor>
prm/blind_docking_80.prm

>  <SCORE>
10.7434

>  <SCORE.INTER>
6.28806

>  <SCORE.INTER.CONST>
1

>  <SCORE.INTER.POLAR>
0

>  <SCORE.INTER.ROT>
6

>  <SCORE.INTER.SOLV>
27.9798

>  <SCORE.INTER.VDW>
-12.7345

>  <SCORE.INTER.norm>
0.184943

>  <SCORE.INTRA>
-2.25241

>  <SCORE.INTRA.DIHEDRAL>
-9.41338

>  <SCORE.INTRA.DIHEDRAL.0>
18.0069

>  <SCORE.INTRA.POLAR>
0

>  <SCORE.INTRA.POLAR.0>
0

>  <SCORE.INTRA.REPUL>
0

>  <SCORE.INTRA.REPUL.0>
0

>  <SCORE.INTRA.SOLV>
-0.770678

>  <SCORE.INTRA.SOLV.lig_0>
-70.7393

>  <SCORE.INTRA.VDW>
2.83962

>  <SCORE.INTRA.VDW.0>
-3.23471

>  <SCORE.INTRA.norm>
-0.0662474

>  <SCORE.RESTR>
6.70771

>  <SCORE.RESTR.CAVITY>
6.70771

>  <SCORE.RESTR.norm>
0.197286

>  <SCORE.SYSTEM>
0

>  <SCORE.SYSTEM.CONST>
0

>  <SCORE.SYSTEM.DIHEDRAL>
0

>  <SCORE.SYSTEM.SOLV>
0

>  <SCORE.SYSTEM.norm>
0

>  <SCORE.heavy>
34

>  <SCORE.norm>
0.315981

>  <RMSD>
21.329

$$$$
lig.pdb
 OpenBabel11021811503D
libRbt.so/2013.1/901 2013/11/27
 34 36  0  0  0  0  0  0  0  0999 V2000
    3.9610   17.3012   18.6581 C   0  0  2  0  0  0  0  0  0  0  0  0
    4.5806   17.0245   19.9189 O   0  0  0  0  0  0  0  0  0  0  0  0
    4.1919   18.8327   18.3084 C   0  0  2  0  0  0  0  0  0  0  0  0
    5.6325   19.1633   18.2067 N   0  0  0  0  0  0  0  0  0  0  0  0
    3.5231   19.7150   19.3925 C   0  0  1  0  0  0  0  0  0  0  0  0
    3.7145   21.0991   19.0907 O   0  0  0  0  0  0  0  0  0  0  0  0
    2.0274   19.3584   19.4602 C   0  0  2  0  0  0  0  0  0  0  0  0
    1.3973   20.1680   20.4541 O   0  0  0  0  0  0  0  0  0  0  0  0
    1.8611   17.8263   19.7939 C   0  0  2  0  0  0  0  0  0  0  0  0
    2.5320   16.9924   18.7739 O   0  0  0  0  0  0  0  0  0  0  0  0
    0.3690   17.4153   19.8565 C   0  0  2  0  0  0  0  0  0  0  0  0
   -0.3658   18.3744   20.6194 O   0  0  0  0  0  0  0  0  0  0  0  0
    0.2018   16.0492   20.5034 C   0  0  0  0  0  0  0  0  0  0  0  0
    7.3632   13.9284   20.9130 C   0  0  2  0  0  0  0  0  0  0  0  0
    7.9174   12.6102   21.2315 N   0  0  0  0  0  0  0  0  0  0  0  0
    6.1748   14.1750   21.8829 C   0  0  0  0  0  0  0  0  0  0  0  0
    5.5885   15.5799   21.5769 C   0  0  2  0  0  0  0  0  0  0  0  0
    4.4600   15.8592   22.4787 N   0  0  0  0  0  0  0  0  0  0  0  0
    5.0999   15.6694   20.1062 C   0  0  2  0  0  0  0  0  0  0  0  0
    6.2996   15.3730   19.1520 C   0  0  2  0  0  0  0  0  0  0  0  0
    5.8444   15.4447   17.7939 O   0  0  0  0  0  0  0  0  0  0  0  0
    6.8676   13.9556   19.4060 C   0  0  1  0  0  0  0  0  0  0  0  0
    7.9773   13.7652   18.4937 O   0  0  0  0  0  0  0  0  0  0  0  0
    8.7405   14.9497   18.1649 C   0  0  2  0  0  0  0  0  0  0  0  0
    9.6513   14.5581   16.9424 C   0  0  2  0  0  0  0  0  0  0  0  0
    8.8421   14.1725   15.8425 O   0  0  0  0  0  0  0  0  0  0  0  0
   10.6121   13.3863   17.3742 C   0  0  1  0  0  0  0  0  0  0  0  0
   11.4913   12.9738   16.2379 N   0  0  0  0  0  0  0  0  0  0  0  0
   11.4303   11.5033   16.0950 C   0  0  0  0  0  0  0  0  0  0  0  0
   11.4762   13.8731   18.5771 C   0  0  2  0  0  0  0  0  0  0  0  0
   12.2486   14.9978   18.1599 O   0  0  0  0  0  0  0  0  0  0  0  0
   12.4331   12.7878   19.0638 C   0  0  0  0  0  0  0  0  0  0  0  0
   10.5318   14.3000   19.7463 C   0  0  0  0  0  0  0  0  0  0  0  0
    9.5875   15.3487   19.3068 O   0  0  0  0  0  0  0  0  0  0  0  0
  1  3  1  0  0  0  0
  1  2  1  1  0  0  0
  3  5  1  0  0  0  0
  3  4  1  1  0  0  0
  5  6  1  6  0  0  0
  7  8  1  1  0  0  0
  7  5  1  0  0  0  0
  9 10  1  6  0  0  0
  9  7  1  0  0  0  0
 10  1  1  0  0  0  0
 11 13  1  1  0  0  0
 11  9  1  0  0  0  0
 12 11  1  0  0  0  0
 14 15  1  1  0  0  0
 16 14  1  0  0  0  0
 17 18  1  1  0  0  0
 17 16  1  0  0  0  0
 19  2  1  6  0  0  0
 19 20  1  0  0  0  0
 19 17  1  0  0  0  0
 20 21  1  6  0  0  0
 20 22  1  0  0  0  0
 22 23  1  6  0  0  0
 22 14  1  0  0  0  0
 24 23  1  1  0  0  0
 24 25  1  0  0  0  0
 25 27  1  0  0  0  0
 25 26  1  6  0  0  0
 27 28  1  6  0  0  0
 28 29  1  0  0  0  0
 30 31  1  6  0  0  0
 30 32  1  0  0  0  0
 30 27  1  0  0  0  0
 33 30  1  0  0  0  0
 34 33  1  0  0  0  0
 34 24  1  0  0  0  0
M  END
>  <CHROM.1>
-149.09654145,-45.82746786,-174.60812827,-83.73980795,-167.55587647,-130.37210779
6.28885992,15.85650157,19.14805925,-2.88826754,-0.48626357,2.45232290

>  <Name>
lig.pdb

>  <RI>
0

>  <Rbt.Current_Directory>
/home/itssahil/PROJECTS/Mol_Feturizer/New_Systems/rnas/4k32

>  <Rbt.Executable>
rbdock ($Id: //depot/dev/client3/rdock/2013.1/src/exe/rbdock.cxx#4 $)

>  <Rbt.Library>
libRbt.so (2013.1, Build901 2013/11/27)

>  <Rbt.Parameter_File>
/export/apps/rDock/src/rDock_2013.1_src/data/scripts/dock_solv.prm

>  <Rbt.Receptor>
prm/blind_docking_80.prm

>  <SCORE>
10.2677

>  <SCORE.INTER>
5.44005

>  <SCORE.INTER.CONST>
1

>  <SCORE.INTER.POLAR>
0

>  <SCORE.INTER.ROT>
6

>  <SCORE.INTER.SOLV>
27.6123

>  <SCORE.INTER.VDW>
-13.1774

>  <SCORE.INTER.norm>
0.160001

>  <SCORE.INTRA>
-2.00769

>  <SCORE.INTRA.DIHEDRAL>
-9.04265

>  <SCORE.INTRA.DIHEDRAL.0>
18.0069

>  <SCORE.INTRA.POLAR>
0

>  <SCORE.INTRA.POLAR.0>
0

>  <SCORE.INTRA.REPUL>
0

>  <SCORE.INTRA.REPUL.0>
0

>  <SCORE.INTRA.SOLV>
-0.769419

>  <SCORE.INTRA.SOLV.lig_0>
-70.7393

>  <SCORE.INTRA.VDW>
2.89834

>  <SCORE.INTRA.VDW.0>
-3.23471

>  <SCORE.INTRA.norm>
-0.0590498

>  <SCORE.RESTR>
6.83534

>  <SCORE.RESTR.CAVITY>
6.83534

>  <SCORE.RESTR.norm>
0.201039

>  <SCORE.SYSTEM>
0

>  <SCORE.SYSTEM.CONST>
0

>  <SCORE.SYSTEM.DIHEDRAL>
0

>  <SCORE.SYSTEM.SOLV>
0

>  <SCORE.SYSTEM.norm>
0

>  <SCORE.heavy>
34

>  <SCORE.norm>
0.301991

>  <RMSD>
21.334

$$$$
lig.pdb
 OpenBabel11021811503D
libRbt.so/2013.1/901 2013/11/27
 34 36  0  0  0  0  0  0  0  0999 V2000
    3.8876   17.2002   18.7243 C   0  0  2  0  0  0  0  0  0  0  0  0
    4.7231   16.9547   19.8609 O   0  0  0  0  0  0  0  0  0  0  0  0
    3.9245   18.7536   18.3977 C   0  0  2  0  0  0  0  0  0  0  0  0
    5.2956   19.2176   18.0819 N   0  0  0  0  0  0  0  0  0  0  0  0
    3.3636   19.5471   19.6046 C   0  0  1  0  0  0  0  0  0  0  0  0
    3.3824   20.9492   19.3263 O   0  0  0  0  0  0  0  0  0  0  0  0
    1.9352   19.0530   19.8946 C   0  0  2  0  0  0  0  0  0  0  0  0
    1.4041   19.7796   21.0039 O   0  0  0  0  0  0  0  0  0  0  0  0
    1.9591   17.5052   20.1952 C   0  0  2  0  0  0  0  0  0  0  0  0
    2.5282   16.7587   19.0529 O   0  0  0  0  0  0  0  0  0  0  0  0
    0.5381   16.9574   20.4776 C   0  0  2  0  0  0  0  0  0  0  0  0
   -0.4353   17.7810   19.8327 O   0  0  0  0  0  0  0  0  0  0  0  0
    0.2439   16.9355   21.9694 C   0  0  0  0  0  0  0  0  0  0  0  0
    7.5184   13.8333   20.7327 C   0  0  2  0  0  0  0  0  0  0  0  0
    8.0764   12.5071   21.0081 N   0  0  0  0  0  0  0  0  0  0  0  0
    6.3440   14.0541   21.7257 C   0  0  0  0  0  0  0  0  0  0  0  0
    5.7539   15.4666   21.4654 C   0  0  2  0  0  0  0  0  0  0  0  0
    4.6385   15.7219   22.3903 N   0  0  0  0  0  0  0  0  0  0  0  0
    5.2444   15.5951   20.0047 C   0  0  2  0  0  0  0  0  0  0  0  0
    6.4303   15.3242   19.0259 C   0  0  2  0  0  0  0  0  0  0  0  0
    5.9558   15.4319   17.6769 O   0  0  0  0  0  0  0  0  0  0  0  0
    7.0013   13.9004   19.2341 C   0  0  1  0  0  0  0  0  0  0  0  0
    8.0978   13.7343   18.3014 O   0  0  0  0  0  0  0  0  0  0  0  0
    8.6854   14.9525   17.7873 C   0  0  2  0  0  0  0  0  0  0  0  0
    9.8244   14.5053   16.7974 C   0  0  2  0  0  0  0  0  0  0  0  0
    9.2698   13.7409   15.7384 O   0  0  0  0  0  0  0  0  0  0  0  0
   10.8970   13.6704   17.5943 C   0  0  1  0  0  0  0  0  0  0  0  0
   11.9958   13.2148   16.6891 N   0  0  0  0  0  0  0  0  0  0  0  0
   11.9880   11.7372   16.6330 C   0  0  0  0  0  0  0  0  0  0  0  0
   11.4718   14.5643   18.7349 C   0  0  2  0  0  0  0  0  0  0  0  0
   12.0921   15.7086   18.1506 O   0  0  0  0  0  0  0  0  0  0  0  0
   12.5173   13.8228   19.5642 C   0  0  0  0  0  0  0  0  0  0  0  0
   10.3021   15.0273   19.6615 C   0  0  0  0  0  0  0  0  0  0  0  0
    9.2681   15.7462   18.8879 O   0  0  0  0  0  0  0  0  0  0  0  0
  1  3  1  0  0  0  0
  1  2  1  1  0  0  0
  3  5  1  0  0  0  0
  3  4  1  1  0  0  0
  5  6  1  6  0  0  0
  7  8  1  1  0  0  0
  7  5  1  0  0  0  0
  9 10  1  6  0  0  0
  9  7  1  0  0  0  0
 10  1  1  0  0  0  0
 11 13  1  1  0  0  0
 11  9  1  0  0  0  0
 12 11  1  0  0  0  0
 14 15  1  1  0  0  0
 16 14  1  0  0  0  0
 17 18  1  1  0  0  0
 17 16  1  0  0  0  0
 19  2  1  1  0  0  0
 19 20  1  0  0  0  0
 19 17  1  0  0  0  0
 20 21  1  6  0  0  0
 20 22  1  0  0  0  0
 22 23  1  6  0  0  0
 22 14  1  0  0  0  0
 24 23  1  1  0  0  0
 24 25  1  0  0  0  0
 25 27  1  0  0  0  0
 25 26  1  6  0  0  0
 27 28  1  6  0  0  0
 28 29  1  0  0  0  0
 30 31  1  6  0  0  0
 30 32  1  0  0  0  0
 30 27  1  0  0  0  0
 33 30  1  0  0  0  0
 34 33  1  0  0  0  0
 34 24  1  0  0  0  0
M  END
>  <CHROM.1>
-156.66877180,25.92177665,-164.11332698,-95.62276187,-179.30319492,-116.28825282
6.34224919,15.89065321,19.22505467,-2.92690681,-0.46182911,2.48317368

>  <Name>
lig.pdb

>  <RI>
0

>  <Rbt.Current_Directory>
/home/itssahil/PROJECTS/Mol_Feturizer/New_Systems/rnas/4k32

>  <Rbt.Executable>
rbdock ($Id: //depot/dev/client3/rdock/2013.1/src/exe/rbdock.cxx#4 $)

>  <Rbt.Library>
libRbt.so (2013.1, Build901 2013/11/27)

>  <Rbt.Parameter_File>
/export/apps/rDock/src/rDock_2013.1_src/data/scripts/dock_solv.prm

>  <Rbt.Receptor>
prm/blind_docking_80.prm

>  <SCORE>
11.5299

>  <SCORE.INTER>
4.53531

>  <SCORE.INTER.CONST>
1

>  <SCORE.INTER.POLAR>
0

>  <SCORE.INTER.ROT>
6

>  <SCORE.INTER.SOLV>
27.4491

>  <SCORE.INTER.VDW>
-13.7262

>  <SCORE.INTER.norm>
0.133392

>  <SCORE.INTRA>
0.660579

>  <SCORE.INTRA.DIHEDRAL>
-5.39036

>  <SCORE.INTRA.DIHEDRAL.0>
18.0069

>  <SCORE.INTRA.POLAR>
0

>  <SCORE.INTRA.POLAR.0>
0

>  <SCORE.INTRA.REPUL>
0

>  <SCORE.INTRA.REPUL.0>
0

>  <SCORE.INTRA.SOLV>
-0.762897

>  <SCORE.INTRA.SOLV.lig_0>
-70.7393

>  <SCORE.INTRA.VDW>
3.73721

>  <SCORE.INTRA.VDW.0>
-3.23471

>  <SCORE.INTRA.norm>
0.0194288

>  <SCORE.RESTR>
6.33398

>  <SCORE.RESTR.CAVITY>
6.33398

>  <SCORE.RESTR.norm>
0.186294

>  <SCORE.SYSTEM>
0

>  <SCORE.SYSTEM.CONST>
0

>  <SCORE.SYSTEM.DIHEDRAL>
0

>  <SCORE.SYSTEM.SOLV>
0

>  <SCORE.SYSTEM.norm>
0

>  <SCORE.heavy>
34

>  <SCORE.norm>
0.339114

>  <RMSD>
21.350

$$$$
lig.pdb
 OpenBabel11021811503D
libRbt.so/2013.1/901 2013/11/27
 34 36  0  0  0  0  0  0  0  0999 V2000
    9.7655   14.5290   18.3616 C   0  0  2  0  0  0  0  0  0  0  0  0
    8.5583   13.8795   18.7753 O   0  0  0  0  0  0  0  0  0  0  0  0
    9.6065   14.9692   16.8444 C   0  0  2  0  0  0  0  0  0  0  0  0
    8.4787   15.9120   16.6597 N   0  0  0  0  0  0  0  0  0  0  0  0
    9.3939   13.7127   15.9630 C   0  0  1  0  0  0  0  0  0  0  0  0
    9.2556   14.0889   14.5909 O   0  0  0  0  0  0  0  0  0  0  0  0
   10.5889   12.7642   16.1658 C   0  0  2  0  0  0  0  0  0  0  0  0
   10.4074   11.6020   15.3553 O   0  0  0  0  0  0  0  0  0  0  0  0
   10.7059   12.3751   17.6894 C   0  0  2  0  0  0  0  0  0  0  0  0
   10.8732   13.5821   18.5267 O   0  0  0  0  0  0  0  0  0  0  0  0
   11.9075   11.4321   17.9461 C   0  0  2  0  0  0  0  0  0  0  0  0
   11.8835   10.9745   19.2995 O   0  0  0  0  0  0  0  0  0  0  0  0
   13.2280   12.1444   17.6978 C   0  0  0  0  0  0  0  0  0  0  0  0
    5.2352   14.7296   21.3347 C   0  0  2  0  0  0  0  0  0  0  0  0
    4.4293   15.2860   22.4243 N   0  0  0  0  0  0  0  0  0  0  0  0
    6.5012   14.0963   21.9752 C   0  0  0  0  0  0  0  0  0  0  0  0
    7.3577   13.4789   20.8367 C   0  0  2  0  0  0  0  0  0  0  0  0
    8.5685   12.8607   21.3995 N   0  0  0  0  0  0  0  0  0  0  0  0
    7.7712   14.5609   19.8034 C   0  0  2  0  0  0  0  0  0  0  0  0
    6.4844   15.2144   19.2077 C   0  0  2  0  0  0  0  0  0  0  0  0
    6.8677   16.2218   18.2618 O   0  0  0  0  0  0  0  0  0  0  0  0
    5.6401   15.8811   20.3209 C   0  0  1  0  0  0  0  0  0  0  0  0
    4.4661   16.4502   19.6901 O   0  0  0  0  0  0  0  0  0  0  0  0
    4.1940   17.8395   19.9893 C   0  0  2  0  0  0  0  0  0  0  0  0
    2.6916   17.9010   20.4544 C   0  0  2  0  0  0  0  0  0  0  0  0
    2.5132   17.1033   21.6142 O   0  0  0  0  0  0  0  0  0  0  0  0
    1.7704   17.4004   19.2782 C   0  0  1  0  0  0  0  0  0  0  0  0
    0.3310   17.4322   19.6800 N   0  0  0  0  0  0  0  0  0  0  0  0
    0.0426   16.2504   20.5207 C   0  0  0  0  0  0  0  0  0  0  0  0
    2.0065   18.3181   18.0402 C   0  0  2  0  0  0  0  0  0  0  0  0
    1.6547   19.6561   18.3890 O   0  0  0  0  0  0  0  0  0  0  0  0
    1.1531   17.8928   16.8481 C   0  0  0  0  0  0  0  0  0  0  0  0
    3.5175   18.2673   17.6460 C   0  0  0  0  0  0  0  0  0  0  0  0
    4.3738   18.6699   18.7815 O   0  0  0  0  0  0  0  0  0  0  0  0
  1  3  1  0  0  0  0
  1  2  1  6  0  0  0
  3  5  1  0  0  0  0
  3  4  1  1  0  0  0
  5  6  1  6  0  0  0
  7  8  1  6  0  0  0
  7  5  1  0  0  0  0
  9 10  1  1  0  0  0
  9  7  1  0  0  0  0
 10  1  1  0  0  0  0
 11 13  1  1  0  0  0
 11  9  1  0  0  0  0
 12 11  1  0  0  0  0
 14 15  1  1  0  0  0
 16 14  1  0  0  0  0
 17 18  1  1  0  0  0
 17 16  1  0  0  0  0
 19  2  1  6  0  0  0
 19 20  1  0  0  0  0
 19 17  1  0  0  0  0
 20 21  1  6  0  0  0
 20 22  1  0  0  0  0
 22 23  1  6  0  0  0
 22 14  1  0  0  0  0
 24 23  1  6  0  0  0
 24 25  1  0  0  0  0
 25 27  1  0  0  0  0
 25 26  1  1  0  0  0
 27 28  1  1  0  0  0
 28 29  1  0  0  0  0
 30 31  1  1  0  0  0
 30 32  1  0  0  0  0
 30 27  1  0  0  0  0
 33 30  1  0  0  0  0
 34 33  1  0  0  0  0
 34 24  1  0  0  0  0
M  END
>  <CHROM.1>
-114.13064553,-172.98707285,-134.89735982,115.40197558,-128.55485945,-78.81117209
6.54243005,15.22149547,18.81285113,0.01217428,0.55377995,-1.22313692

>  <Name>
lig.pdb

>  <RI>
0

>  <Rbt.Current_Directory>
/home/itssahil/PROJECTS/Mol_Feturizer/New_Systems/rnas/4k32

>  <Rbt.Executable>
rbdock ($Id: //depot/dev/client3/rdock/2013.1/src/exe/rbdock.cxx#4 $)

>  <Rbt.Library>
libRbt.so (2013.1, Build901 2013/11/27)

>  <Rbt.Parameter_File>
/export/apps/rDock/src/rDock_2013.1_src/data/scripts/dock_solv.prm

>  <Rbt.Receptor>
prm/blind_docking_80.prm

>  <SCORE>
28.54

>  <SCORE.INTER>
9.8902

>  <SCORE.INTER.CONST>
1

>  <SCORE.INTER.POLAR>
0

>  <SCORE.INTER.ROT>
6

>  <SCORE.INTER.SOLV>
28.1899

>  <SCORE.INTER.VDW>
-10.4032

>  <SCORE.INTER.norm>
0.290888

>  <SCORE.INTRA>
8.71216

>  <SCORE.INTRA.DIHEDRAL>
9.53565

>  <SCORE.INTRA.DIHEDRAL.0>
18.0069

>  <SCORE.INTRA.POLAR>
0

>  <SCORE.INTRA.POLAR.0>
0

>  <SCORE.INTRA.REPUL>
0.00909555

>  <SCORE.INTRA.REPUL.0>
0

>  <SCORE.INTRA.SOLV>
1.57322

>  <SCORE.INTRA.SOLV.lig_0>
-70.7393

>  <SCORE.INTRA.VDW>
3.11225

>  <SCORE.INTRA.VDW.0>
-3.23471

>  <SCORE.INTRA.norm>
0.25624

>  <SCORE.RESTR>
9.93765

>  <SCORE.RESTR.CAVITY>
9.93765

>  <SCORE.RESTR.norm>
0.292284

>  <SCORE.SYSTEM>
0

>  <SCORE.SYSTEM.CONST>
0

>  <SCORE.SYSTEM.DIHEDRAL>
0

>  <SCORE.SYSTEM.SOLV>
0

>  <SCORE.SYSTEM.norm>
0

>  <SCORE.heavy>
34

>  <SCORE.norm>
0.839412

>  <RMSD>
21.415

$$$$
lig.pdb
 OpenBabel11021811503D
libRbt.so/2013.1/901 2013/11/27
 34 36  0  0  0  0  0  0  0  0999 V2000
    3.9512   17.2172   18.6167 C   0  0  2  0  0  0  0  0  0  0  0  0
    5.0895   17.0837   19.4750 O   0  0  0  0  0  0  0  0  0  0  0  0
    3.7750   18.7516   18.2482 C   0  0  2  0  0  0  0  0  0  0  0  0
    4.9617   19.2881   17.5418 N   0  0  0  0  0  0  0  0  0  0  0  0
    3.5176   19.5656   19.5412 C   0  0  1  0  0  0  0  0  0  0  0  0
    3.3492   20.9502   19.2285 O   0  0  0  0  0  0  0  0  0  0  0  0
    2.2712   18.9938   20.2401 C   0  0  2  0  0  0  0  0  0  0  0  0
    2.0200   19.7382   21.4330 O   0  0  0  0  0  0  0  0  0  0  0  0
    2.4979   17.4678   20.5662 C   0  0  2  0  0  0  0  0  0  0  0  0
    2.7777   16.7044   19.3313 O   0  0  0  0  0  0  0  0  0  0  0  0
    1.2606   16.8427   21.2571 C   0  0  2  0  0  0  0  0  0  0  0  0
    0.0663   17.4199   20.7259 O   0  0  0  0  0  0  0  0  0  0  0  0
    1.2897   17.0828   22.7585 C   0  0  0  0  0  0  0  0  0  0  0  0
    7.5116   13.8610   20.9116 C   0  0  2  0  0  0  0  0  0  0  0  0
    8.1079   12.5307   21.0567 N   0  0  0  0  0  0  0  0  0  0  0  0
    5.9688   13.6803   20.9453 C   0  0  0  0  0  0  0  0  0  0  0  0
    5.3179   15.0842   20.8171 C   0  0  2  0  0  0  0  0  0  0  0  0
    3.8520   14.9618   20.8500 N   0  0  0  0  0  0  0  0  0  0  0  0
    5.7420   15.7742   19.4929 C   0  0  2  0  0  0  0  0  0  0  0  0
    7.2977   15.9031   19.4613 C   0  0  2  0  0  0  0  0  0  0  0  0
    7.6891   16.5303   18.2324 O   0  0  0  0  0  0  0  0  0  0  0  0
    7.9670   14.5093   19.5369 C   0  0  1  0  0  0  0  0  0  0  0  0
    9.4009   14.7170   19.5136 O   0  0  0  0  0  0  0  0  0  0  0  0
    9.9622   15.1366   18.2477 C   0  0  2  0  0  0  0  0  0  0  0  0
    9.9484   13.8654   17.3198 C   0  0  2  0  0  0  0  0  0  0  0  0
    8.6153   13.4132   17.1418 O   0  0  0  0  0  0  0  0  0  0  0  0
   10.8418   12.7443   17.9737 C   0  0  1  0  0  0  0  0  0  0  0  0
   10.8497   11.5110   17.1291 N   0  0  0  0  0  0  0  0  0  0  0  0
   10.8372   10.3256   18.0129 C   0  0  0  0  0  0  0  0  0  0  0  0
   12.2902   13.2979   18.1355 C   0  0  2  0  0  0  0  0  0  0  0  0
   12.8012   13.6265   16.8446 O   0  0  0  0  0  0  0  0  0  0  0  0
   13.2220   12.2705   18.7732 C   0  0  0  0  0  0  0  0  0  0  0  0
   12.2502   14.5862   19.0186 C   0  0  0  0  0  0  0  0  0  0  0  0
   11.3517   15.6020   18.4308 O   0  0  0  0  0  0  0  0  0  0  0  0
  1  3  1  0  0  0  0
  1  2  1  1  0  0  0
  3  5  1  0  0  0  0
  3  4  1  1  0  0  0
  5  6  1  6  0  0  0
  7  8  1  1  0  0  0
  7  5  1  0  0  0  0
  9 10  1  6  0  0  0
  9  7  1  0  0  0  0
 10  1  1  0  0  0  0
 11 13  1  1  0  0  0
 11  9  1  0  0  0  0
 12 11  1  0  0  0  0
 14 15  1  6  0  0  0
 16 14  1  0  0  0  0
 17 18  1  6  0  0  0
 17 16  1  0  0  0  0
 19  2  1  1  0  0  0
 19 20  1  0  0  0  0
 19 17  1  0  0  0  0
 20 21  1  6  0  0  0
 20 22  1  0  0  0  0
 22 23  1  1  0  0  0
 22 14  1  0  0  0  0
 24 23  1  1  0  0  0
 24 25  1  0  0  0  0
 25 27  1  0  0  0  0
 25 26  1  1  0  0  0
 27 28  1  6  0  0  0
 28 29  1  0  0  0  0
 30 31  1  6  0  0  0
 30 32  1  0  0  0  0
 30 27  1  0  0  0  0
 33 30  1  0  0  0  0
 34 33  1  0  0  0  0
 34 24  1  0  0  0  0
M  END
>  <CHROM.1>
-156.02497432,35.45099942,-104.03724325,172.05033573,-74.04023813,-142.17629697
6.72154263,15.63808737,19.31096028,-2.77043552,-0.42892392,2.72513905

>  <Name>
lig.pdb

>  <RI>
0

>  <Rbt.Current_Directory>
/home/itssahil/PROJECTS/Mol_Feturizer/New_Systems/rnas/4k32

>  <Rbt.Executable>
rbdock ($Id: //depot/dev/client3/rdock/2013.1/src/exe/rbdock.cxx#4 $)

>  <Rbt.Library>
libRbt.so (2013.1, Build901 2013/11/27)

>  <Rbt.Parameter_File>
/export/apps/rDock/src/rDock_2013.1_src/data/scripts/dock_solv.prm

>  <Rbt.Receptor>
prm/blind_docking_80.prm

>  <SCORE>
7.90822

>  <SCORE.INTER>
-1.50847

>  <SCORE.INTER.CONST>
1

>  <SCORE.INTER.POLAR>
0

>  <SCORE.INTER.ROT>
6

>  <SCORE.INTER.SOLV>
20.8942

>  <SCORE.INTER.VDW>
-15.5704

>  <SCORE.INTER.norm>
-0.0443669

>  <SCORE.INTRA>
0.574477

>  <SCORE.INTRA.DIHEDRAL>
-5.46818

>  <SCORE.INTRA.DIHEDRAL.0>
18.0069

>  <SCORE.INTRA.POLAR>
0

>  <SCORE.INTRA.POLAR.0>
0

>  <SCORE.INTRA.REPUL>
0

>  <SCORE.INTRA.REPUL.0>
0

>  <SCORE.INTRA.SOLV>
2.00423

>  <SCORE.INTRA.SOLV.lig_0>
-70.7393

>  <SCORE.INTRA.VDW>
2.30645

>  <SCORE.INTRA.VDW.0>
-3.23471

>  <SCORE.INTRA.norm>
0.0168964

>  <SCORE.RESTR>
8.84222

>  <SCORE.RESTR.CAVITY>
8.84222

>  <SCORE.RESTR.norm>
0.260065

>  <SCORE.SYSTEM>
0

>  <SCORE.SYSTEM.CONST>
0

>  <SCORE.SYSTEM.DIHEDRAL>
0

>  <SCORE.SYSTEM.SOLV>
0

>  <SCORE.SYSTEM.norm>
0

>  <SCORE.heavy>
34

>  <SCORE.norm>
0.232595

>  <RMSD>
21.436

$$$$
lig.pdb
 OpenBabel11021811503D
libRbt.so/2013.1/901 2013/11/27
 34 36  0  0  0  0  0  0  0  0999 V2000
   10.1998   14.5977   19.1615 C   0  0  2  0  0  0  0  0  0  0  0  0
    9.5570   14.8334   17.9039 O   0  0  0  0  0  0  0  0  0  0  0  0
   11.6103   15.3269   19.1510 C   0  0  2  0  0  0  0  0  0  0  0  0
   11.4727   16.7896   18.9604 N   0  0  0  0  0  0  0  0  0  0  0  0
   12.4911   14.7284   18.0255 C   0  0  1  0  0  0  0  0  0  0  0  0
   13.7693   15.3682   18.0049 O   0  0  0  0  0  0  0  0  0  0  0  0
   12.6270   13.2138   18.2627 C   0  0  2  0  0  0  0  0  0  0  0  0
   13.4407   12.6494   17.2333 O   0  0  0  0  0  0  0  0  0  0  0  0
   11.1976   12.5482   18.2788 C   0  0  2  0  0  0  0  0  0  0  0  0
   10.3520   13.1491   19.3322 O   0  0  0  0  0  0  0  0  0  0  0  0
   11.2823   11.0224   18.5317 C   0  0  2  0  0  0  0  0  0  0  0  0
   12.0464   10.4016   17.4961 O   0  0  0  0  0  0  0  0  0  0  0  0
    9.8986   10.3920   18.5584 C   0  0  0  0  0  0  0  0  0  0  0  0
    7.0512   18.0493   19.2059 C   0  0  2  0  0  0  0  0  0  0  0  0
    6.0069   19.0766   19.2207 N   0  0  0  0  0  0  0  0  0  0  0  0
    7.8821   18.2558   17.9094 C   0  0  0  0  0  0  0  0  0  0  0  0
    9.0110   17.1899   17.8875 C   0  0  2  0  0  0  0  0  0  0  0  0
    9.8294   17.3517   16.6755 N   0  0  0  0  0  0  0  0  0  0  0  0
    8.4203   15.7546   17.9157 C   0  0  2  0  0  0  0  0  0  0  0  0
    7.5530   15.5860   19.2030 C   0  0  2  0  0  0  0  0  0  0  0  0
    6.9986   14.2636   19.2222 O   0  0  0  0  0  0  0  0  0  0  0  0
    6.3897   16.6072   19.2203 C   0  0  1  0  0  0  0  0  0  0  0  0
    5.6451   16.3927   20.4448 O   0  0  0  0  0  0  0  0  0  0  0  0
    4.7367   15.2664   20.4476 C   0  0  2  0  0  0  0  0  0  0  0  0
    3.5006   15.6987   19.5743 C   0  0  2  0  0  0  0  0  0  0  0  0
    3.9229   15.9876   18.2509 O   0  0  0  0  0  0  0  0  0  0  0  0
    2.8204   16.9563   20.2367 C   0  0  1  0  0  0  0  0  0  0  0  0
    1.6442   17.4092   19.4332 N   0  0  0  0  0  0  0  0  0  0  0  0
    2.0444   18.5724   18.6126 C   0  0  0  0  0  0  0  0  0  0  0  0
    2.3738   16.5738   21.6806 C   0  0  2  0  0  0  0  0  0  0  0  0
    1.4316   15.5055   21.6000 O   0  0  0  0  0  0  0  0  0  0  0  0
    1.7097   17.7464   22.3979 C   0  0  0  0  0  0  0  0  0  0  0  0
    3.6214   16.1022   22.4944 C   0  0  0  0  0  0  0  0  0  0  0  0
    4.2919   14.9684   21.8238 O   0  0  0  0  0  0  0  0  0  0  0  0
  1  3  1  0  0  0  0
  1  2  1  6  0  0  0
  3  5  1  0  0  0  0
  3  4  1  6  0  0  0
  5  6  1  1  0  0  0
  7  8  1  6  0  0  0
  7  5  1  0  0  0  0
  9 10  1  1  0  0  0
  9  7  1  0  0  0  0
 10  1  1  0  0  0  0
 11 13  1  6  0  0  0
 11  9  1  0  0  0  0
 12 11  1  0  0  0  0
 14 15  1  6  0  0  0
 16 14  1  0  0  0  0
 17 18  1  6  0  0  0
 17 16  1  0  0  0  0
 19  2  1  1  0  0  0
 19 20  1  0  0  0  0
 19 17  1  0  0  0  0
 20 21  1  6  0  0  0
 20 22  1  0  0  0  0
 22 23  1  1  0  0  0
 22 14  1  0  0  0  0
 24 23  1  1  0  0  0
 24 25  1  0  0  0  0
 25 27  1  0  0  0  0
 25 26  1  6  0  0  0
 27 28  1  6  0  0  0
 28 29  1  0  0  0  0
 30 31  1  6  0  0  0
 30 32  1  0  0  0  0
 30 27  1  0  0  0  0
 33 30  1  0  0  0  0
 34 33  1  0  0  0  0
 34 24  1  0  0  0  0
M  END
>  <CHROM.1>
-107.81121923,-60.29719567,81.27196938,165.51637439,-74.67081724,-100.59760526
7.55343937,15.38071003,19.18592400,-0.29213185,0.34176199,-0.22400745

>  <Name>
lig.pdb

>  <RI>
0

>  <Rbt.Current_Directory>
/home/itssahil/PROJECTS/Mol_Feturizer/New_Systems/rnas/4k32

>  <Rbt.Executable>
rbdock ($Id: //depot/dev/client3/rdock/2013.1/src/exe/rbdock.cxx#4 $)

>  <Rbt.Library>
libRbt.so (2013.1, Build901 2013/11/27)

>  <Rbt.Parameter_File>
/export/apps/rDock/src/rDock_2013.1_src/data/scripts/dock_solv.prm

>  <Rbt.Receptor>
prm/blind_docking_80.prm

>  <SCORE>
14.4154

>  <SCORE.INTER>
2.70175

>  <SCORE.INTER.CONST>
1

>  <SCORE.INTER.POLAR>
0

>  <SCORE.INTER.ROT>
6

>  <SCORE.INTER.SOLV>
20.4255

>  <SCORE.INTER.VDW>
-12.6073

>  <SCORE.INTER.norm>
0.0794634

>  <SCORE.INTRA>
0.580382

>  <SCORE.INTRA.DIHEDRAL>
-6.53961

>  <SCORE.INTRA.DIHEDRAL.0>
18.0069

>  <SCORE.INTRA.POLAR>
0

>  <SCORE.INTRA.POLAR.0>
0

>  <SCORE.INTRA.REPUL>
0

>  <SCORE.INTRA.REPUL.0>
0

>  <SCORE.INTRA.SOLV>
3.52965

>  <SCORE.INTRA.SOLV.lig_0>
-70.7393

>  <SCORE.INTRA.VDW>
2.08536

>  <SCORE.INTRA.VDW.0>
-3.23471

>  <SCORE.INTRA.norm>
0.0170701

>  <SCORE.RESTR>
11.1333

>  <SCORE.RESTR.CAVITY>
11.1333

>  <SCORE.RESTR.norm>
0.32745

>  <SCORE.SYSTEM>
0

>  <SCORE.SYSTEM.CONST>
0

>  <SCORE.SYSTEM.DIHEDRAL>
0

>  <SCORE.SYSTEM.SOLV>
0

>  <SCORE.SYSTEM.norm>
0

>  <SCORE.heavy>
34

>  <SCORE.norm>
0.423984

>  <RMSD>
21.475

$$$$
lig.pdb
 OpenBabel11021811503D
libRbt.so/2013.1/901 2013/11/27
 34 36  0  0  0  0  0  0  0  0999 V2000
    4.1258   17.3404   18.5219 C   0  0  2  0  0  0  0  0  0  0  0  0
    5.1885   17.1400   19.4604 O   0  0  0  0  0  0  0  0  0  0  0  0
    3.9953   18.8963   18.2330 C   0  0  2  0  0  0  0  0  0  0  0  0
    5.2410   19.4562   17.6589 N   0  0  0  0  0  0  0  0  0  0  0  0
    3.6406   19.6362   19.5474 C   0  0  1  0  0  0  0  0  0  0  0  0
    3.5119   21.0392   19.3056 O   0  0  0  0  0  0  0  0  0  0  0  0
    2.3357   19.0425   20.1071 C   0  0  2  0  0  0  0  0  0  0  0  0
    1.9948   19.7189   21.3182 O   0  0  0  0  0  0  0  0  0  0  0  0
    2.5201   17.4968   20.3585 C   0  0  2  0  0  0  0  0  0  0  0  0
    2.8927   16.8035   19.1069 O   0  0  0  0  0  0  0  0  0  0  0  0
    1.2243   16.8502   20.9079 C   0  0  2  0  0  0  0  0  0  0  0  0
    0.0842   17.4496   20.2894 O   0  0  0  0  0  0  0  0  0  0  0  0
    1.1133   17.0349   22.4133 C   0  0  0  0  0  0  0  0  0  0  0  0
    7.4984   13.8389   20.9040 C   0  0  2  0  0  0  0  0  0  0  0  0
    8.0511   12.4901   21.0498 N   0  0  0  0  0  0  0  0  0  0  0  0
    5.9505   13.7075   20.9287 C   0  0  0  0  0  0  0  0  0  0  0  0
    5.3454   15.1317   20.7997 C   0  0  2  0  0  0  0  0  0  0  0  0
    3.8762   15.0560   20.8241 N   0  0  0  0  0  0  0  0  0  0  0  0
    5.7989   15.8103   19.4792 C   0  0  2  0  0  0  0  0  0  0  0  0
    7.3580   15.8895   19.4566 C   0  0  2  0  0  0  0  0  0  0  0  0
    7.7762   16.5062   18.2313 O   0  0  0  0  0  0  0  0  0  0  0  0
    7.9820   14.4750   19.5332 C   0  0  1  0  0  0  0  0  0  0  0  0
    9.4220   14.6368   19.5184 O   0  0  0  0  0  0  0  0  0  0  0  0
    9.9958   15.1120   18.2780 C   0  0  2  0  0  0  0  0  0  0  0  0
    9.9942   13.8823   17.2956 C   0  0  2  0  0  0  0  0  0  0  0  0
    8.6640   13.4362   17.0839 O   0  0  0  0  0  0  0  0  0  0  0  0
   10.8830   12.7351   17.9096 C   0  0  1  0  0  0  0  0  0  0  0  0
   10.9023   11.5398   17.0123 N   0  0  0  0  0  0  0  0  0  0  0  0
   10.9284   10.3174   17.8441 C   0  0  0  0  0  0  0  0  0  0  0  0
   12.3285   13.2835   18.1107 C   0  0  2  0  0  0  0  0  0  0  0  0
   12.8524   13.6686   16.8408 O   0  0  0  0  0  0  0  0  0  0  0  0
   13.2555   12.2307   18.7130 C   0  0  0  0  0  0  0  0  0  0  0  0
   12.2766   14.5321   19.0485 C   0  0  0  0  0  0  0  0  0  0  0  0
   11.3823   15.5711   18.4959 O   0  0  0  0  0  0  0  0  0  0  0  0
  1  3  1  0  0  0  0
  1  2  1  1  0  0  0
  3  5  1  0  0  0  0
  3  4  1  1  0  0  0
  5  6  1  6  0  0  0
  7  8  1  1  0  0  0
  7  5  1  0  0  0  0
  9 10  1  6  0  0  0
  9  7  1  0  0  0  0
 10  1  1  0  0  0  0
 11 13  1  1  0  0  0
 11  9  1  0  0  0  0
 12 11  1  0  0  0  0
 14 15  1  6  0  0  0
 16 14  1  0  0  0  0
 17 18  1  6  0  0  0
 17 16  1  0  0  0  0
 19  2  1  1  0  0  0
 19 20  1  0  0  0  0
 19 17  1  0  0  0  0
 20 21  1  6  0  0  0
 20 22  1  0  0  0  0
 22 23  1  1  0  0  0
 22 14  1  0  0  0  0
 24 23  1  1  0  0  0
 24 25  1  0  0  0  0
 25 27  1  0  0  0  0
 25 26  1  1  0  0  0
 27 28  1  6  0  0  0
 28 29  1  0  0  0  0
 30 31  1  6  0  0  0
 30 32  1  0  0  0  0
 30 27  1  0  0  0  0
 33 30  1  0  0  0  0
 34 33  1  0  0  0  0
 34 24  1  0  0  0  0
M  END
>  <CHROM.1>
-157.72965561,37.04785008,-108.65030515,175.35066132,-76.31600600,-144.04450653
6.77241091,15.65865684,19.24435689,-2.74105225,-0.40451339,2.77179022

>  <Name>
lig.pdb

>  <RI>
0

>  <Rbt.Current_Directory>
/home/itssahil/PROJECTS/Mol_Feturizer/New_Systems/rnas/4k32

>  <Rbt.Executable>
rbdock ($Id: //depot/dev/client3/rdock/2013.1/src/exe/rbdock.cxx#4 $)

>  <Rbt.Library>
libRbt.so (2013.1, Build901 2013/11/27)

>  <Rbt.Parameter_File>
/export/apps/rDock/src/rDock_2013.1_src/data/scripts/dock_solv.prm

>  <Rbt.Receptor>
prm/blind_docking_80.prm

>  <SCORE>
7.98872

>  <SCORE.INTER>
-1.55802

>  <SCORE.INTER.CONST>
1

>  <SCORE.INTER.POLAR>
0

>  <SCORE.INTER.ROT>
6

>  <SCORE.INTER.SOLV>
20.4068

>  <SCORE.INTER.VDW>
-15.4409

>  <SCORE.INTER.norm>
-0.0458241

>  <SCORE.INTRA>
0.762577

>  <SCORE.INTRA.DIHEDRAL>
-5.36032

>  <SCORE.INTRA.DIHEDRAL.0>
18.0069

>  <SCORE.INTRA.POLAR>
0

>  <SCORE.INTRA.POLAR.0>
0

>  <SCORE.INTRA.REPUL>
0

>  <SCORE.INTRA.REPUL.0>
0

>  <SCORE.INTRA.SOLV>
1.74116

>  <SCORE.INTRA.SOLV.lig_0>
-70.7393

>  <SCORE.INTRA.VDW>
2.57216

>  <SCORE.INTRA.VDW.0>
-3.23471

>  <SCORE.INTRA.norm>
0.0224287

>  <SCORE.RESTR>
8.78416

>  <SCORE.RESTR.CAVITY>
8.78416

>  <SCORE.RESTR.norm>
0.258358

>  <SCORE.SYSTEM>
0

>  <SCORE.SYSTEM.CONST>
0

>  <SCORE.SYSTEM.DIHEDRAL>
0

>  <SCORE.SYSTEM.SOLV>
0

>  <SCORE.SYSTEM.norm>
0

>  <SCORE.heavy>
34

>  <SCORE.norm>
0.234962

>  <RMSD>
21.501

$$$$
lig.pdb
 OpenBabel11021811503D
libRbt.so/2013.1/901 2013/11/27
 34 36  0  0  0  0  0  0  0  0999 V2000
    9.3800   14.6496   17.4704 C   0  0  2  0  0  0  0  0  0  0  0  0
    8.6455   13.8616   18.4136 O   0  0  0  0  0  0  0  0  0  0  0  0
    9.7757   13.7254   16.2414 C   0  0  2  0  0  0  0  0  0  0  0  0
    8.5814   13.1714   15.5619 N   0  0  0  0  0  0  0  0  0  0  0  0
   10.6842   12.5717   16.7360 C   0  0  1  0  0  0  0  0  0  0  0  0
   11.0570   11.7319   15.6409 O   0  0  0  0  0  0  0  0  0  0  0  0
   11.9207   13.1810   17.4206 C   0  0  2  0  0  0  0  0  0  0  0  0
   12.7696   12.1273   17.8785 O   0  0  0  0  0  0  0  0  0  0  0  0
   11.4661   14.0987   18.6195 C   0  0  2  0  0  0  0  0  0  0  0  0
   10.5715   15.1758   18.1445 O   0  0  0  0  0  0  0  0  0  0  0  0
   12.6785   14.7491   19.3309 C   0  0  2  0  0  0  0  0  0  0  0  0
   13.4606   15.4798   18.3844 O   0  0  0  0  0  0  0  0  0  0  0  0
   13.5627   13.6971   19.9824 C   0  0  0  0  0  0  0  0  0  0  0  0
    5.7343   15.3752   21.1615 C   0  0  2  0  0  0  0  0  0  0  0  0
    5.1311   15.9647   22.3593 N   0  0  0  0  0  0  0  0  0  0  0  0
    6.6300   14.1952   21.6299 C   0  0  0  0  0  0  0  0  0  0  0  0
    7.2601   13.5411   20.3706 C   0  0  2  0  0  0  0  0  0  0  0  0
    8.1151   12.4113   20.7674 N   0  0  0  0  0  0  0  0  0  0  0  0
    8.1102   14.5693   19.5770 C   0  0  2  0  0  0  0  0  0  0  0  0
    7.2001   15.7664   19.1570 C   0  0  2  0  0  0  0  0  0  0  0  0
    7.9890   16.7211   18.4339 O   0  0  0  0  0  0  0  0  0  0  0  0
    6.6012   16.4654   20.4016 C   0  0  1  0  0  0  0  0  0  0  0  0
    5.7661   17.5506   19.9274 O   0  0  0  0  0  0  0  0  0  0  0  0
    4.9091   17.2482   18.8015 C   0  0  2  0  0  0  0  0  0  0  0  0
    4.1653   18.5887   18.4450 C   0  0  2  0  0  0  0  0  0  0  0  0
    5.1112   19.5851   18.0903 O   0  0  0  0  0  0  0  0  0  0  0  0
    3.3056   19.0428   19.6849 C   0  0  1  0  0  0  0  0  0  0  0  0
    2.5874   20.3211   19.3943 N   0  0  0  0  0  0  0  0  0  0  0  0
    2.9060   21.3008   20.4551 C   0  0  0  0  0  0  0  0  0  0  0  0
    2.2846   17.9130   20.0191 C   0  0  2  0  0  0  0  0  0  0  0  0
    1.4333   17.7174   18.8910 O   0  0  0  0  0  0  0  0  0  0  0  0
    1.4140   18.2727   21.2204 C   0  0  0  0  0  0  0  0  0  0  0  0
    3.0626   16.5907   20.3147 C   0  0  0  0  0  0  0  0  0  0  0  0
    3.9204   16.2154   19.1711 O   0  0  0  0  0  0  0  0  0  0  0  0
  1  3  1  0  0  0  0
  1  2  1  1  0  0  0
  3  5  1  0  0  0  0
  3  4  1  1  0  0  0
  5  6  1  6  0  0  0
  7  8  1  1  0  0  0
  7  5  1  0  0  0  0
  9 10  1  6  0  0  0
  9  7  1  0  0  0  0
 10  1  1  0  0  0  0
 11 13  1  6  0  0  0
 11  9  1  0  0  0  0
 12 11  1  0  0  0  0
 14 15  1  1  0  0  0
 16 14  1  0  0  0  0
 17 18  1  1  0  0  0
 17 16  1  0  0  0  0
 19  2  1  6  0  0  0
 19 20  1  0  0  0  0
 19 17  1  0  0  0  0
 20 21  1  1  0  0  0
 20 22  1  0  0  0  0
 22 23  1  6  0  0  0
 22 14  1  0  0  0  0
 24 23  1  1  0  0  0
 24 25  1  0  0  0  0
 25 27  1  0  0  0  0
 25 26  1  1  0  0  0
 27 28  1  6  0  0  0
 28 29  1  0  0  0  0
 30 31  1  6  0  0  0
 30 32  1  0  0  0  0
 30 27  1  0  0  0  0
 33 30  1  0  0  0  0
 34 33  1  0  0  0  0
 34 24  1  0  0  0  0
M  END
>  <CHROM.1>
-175.79276983,56.04929037,175.06625263,-72.58452146,-177.54924754,-126.24488896
7.32105410,15.70677307,19.04295599,-0.23250002,0.52611762,-0.75141380

>  <Name>
lig.pdb

>  <RI>
0

>  <Rbt.Current_Directory>
/home/itssahil/PROJECTS/Mol_Feturizer/New_Systems/rnas/4k32

>  <Rbt.Executable>
rbdock ($Id: //depot/dev/client3/rdock/2013.1/src/exe/rbdock.cxx#4 $)

>  <Rbt.Library>
libRbt.so (2013.1, Build901 2013/11/27)

>  <Rbt.Parameter_File>
/export/apps/rDock/src/rDock_2013.1_src/data/scripts/dock_solv.prm

>  <Rbt.Receptor>
prm/blind_docking_80.prm

>  <SCORE>
3.13185

>  <SCORE.INTER>
-3.5682

>  <SCORE.INTER.CONST>
1

>  <SCORE.INTER.POLAR>
0

>  <SCORE.INTER.ROT>
6

>  <SCORE.INTER.SOLV>
25.7616

>  <SCORE.INTER.VDW>
-18.566

>  <SCORE.INTER.norm>
-0.104947

>  <SCORE.INTRA>
-3.76403

>  <SCORE.INTRA.DIHEDRAL>
-15.7365

>  <SCORE.INTRA.DIHEDRAL.0>
18.0069

>  <SCORE.INTRA.POLAR>
0

>  <SCORE.INTRA.POLAR.0>
0

>  <SCORE.INTRA.REPUL>
0

>  <SCORE.INTRA.REPUL.0>
0

>  <SCORE.INTRA.SOLV>
-0.680494

>  <SCORE.INTRA.SOLV.lig_0>
-70.7393

>  <SCORE.INTRA.VDW>
4.44448

>  <SCORE.INTRA.VDW.0>
-3.23471

>  <SCORE.INTRA.norm>
-0.110707

>  <SCORE.RESTR>
10.4641

>  <SCORE.RESTR.CAVITY>
10.4641

>  <SCORE.RESTR.norm>
0.307767

>  <SCORE.SYSTEM>
0

>  <SCORE.SYSTEM.CONST>
0

>  <SCORE.SYSTEM.DIHEDRAL>
0

>  <SCORE.SYSTEM.SOLV>
0

>  <SCORE.SYSTEM.norm>
0

>  <SCORE.heavy>
34

>  <SCORE.norm>
0.0921132

>  <RMSD>
21.567

$$$$
lig.pdb
 OpenBabel11021811503D
libRbt.so/2013.1/901 2013/11/27
 34 36  0  0  0  0  0  0  0  0999 V2000
    9.4636   13.7339   17.7672 C   0  0  2  0  0  0  0  0  0  0  0  0
    9.5957   14.9919   17.0962 O   0  0  0  0  0  0  0  0  0  0  0  0
   10.7367   13.5197   18.6916 C   0  0  2  0  0  0  0  0  0  0  0  0
   10.8618   14.5861   19.7125 N   0  0  0  0  0  0  0  0  0  0  0  0
   12.0114   13.4794   17.8116 C   0  0  1  0  0  0  0  0  0  0  0  0
   13.1688   13.2800   18.6266 O   0  0  0  0  0  0  0  0  0  0  0  0
   11.8556   12.3525   16.7750 C   0  0  2  0  0  0  0  0  0  0  0  0
   13.0266   12.3017   15.9585 O   0  0  0  0  0  0  0  0  0  0  0  0
   10.5697   12.6100   15.8994 C   0  0  2  0  0  0  0  0  0  0  0  0
    9.3627   12.6821   16.7502 O   0  0  0  0  0  0  0  0  0  0  0  0
   10.3613   11.4901   14.8499 C   0  0  2  0  0  0  0  0  0  0  0  0
   11.6091   11.1652   14.2341 O   0  0  0  0  0  0  0  0  0  0  0  0
    9.3849   11.9253   13.7682 C   0  0  0  0  0  0  0  0  0  0  0  0
    7.5011   18.0242   19.2719 C   0  0  2  0  0  0  0  0  0  0  0  0
    6.5830   19.1207   19.5899 N   0  0  0  0  0  0  0  0  0  0  0  0
    8.3283   18.4613   18.0315 C   0  0  0  0  0  0  0  0  0  0  0  0
    9.3258   17.3205   17.6930 C   0  0  2  0  0  0  0  0  0  0  0  0
   10.1369   17.6945   16.5238 N   0  0  0  0  0  0  0  0  0  0  0  0
    8.5736   15.9970   17.3891 C   0  0  2  0  0  0  0  0  0  0  0  0
    7.7144   15.6026   18.6316 C   0  0  2  0  0  0  0  0  0  0  0  0
    7.0111   14.3860   18.3455 O   0  0  0  0  0  0  0  0  0  0  0  0
    6.6775   16.7053   18.9561 C   0  0  1  0  0  0  0  0  0  0  0  0
    5.9337   16.2695   20.1208 O   0  0  0  0  0  0  0  0  0  0  0  0
    4.9818   15.2015   19.9044 C   0  0  2  0  0  0  0  0  0  0  0  0
    3.6716   15.8858   19.3635 C   0  0  2  0  0  0  0  0  0  0  0  0
    3.9463   16.5555   18.1431 O   0  0  0  0  0  0  0  0  0  0  0  0
    3.1330   16.8916   20.4502 C   0  0  1  0  0  0  0  0  0  0  0  0
    1.8915   17.5742   19.9738 N   0  0  0  0  0  0  0  0  0  0  0  0
    2.2032   18.9917   19.6908 C   0  0  0  0  0  0  0  0  0  0  0  0
    2.8443   16.0967   21.7599 C   0  0  2  0  0  0  0  0  0  0  0  0
    1.8514   15.1093   21.4861 O   0  0  0  0  0  0  0  0  0  0  0  0
    2.3243   17.0048   22.8714 C   0  0  0  0  0  0  0  0  0  0  0  0
    4.1569   15.3926   22.2314 C   0  0  0  0  0  0  0  0  0  0  0  0
    4.6906   14.5074   21.1749 O   0  0  0  0  0  0  0  0  0  0  0  0
  1  3  1  0  0  0  0
  1  2  1  6  0  0  0
  3  5  1  0  0  0  0
  3  4  1  1  0  0  0
  5  6  1  1  0  0  0
  7  8  1  6  0  0  0
  7  5  1  0  0  0  0
  9 10  1  1  0  0  0
  9  7  1  0  0  0  0
 10  1  1  0  0  0  0
 11 13  1  6  0  0  0
 11  9  1  0  0  0  0
 12 11  1  0  0  0  0
 14 15  1  6  0  0  0
 16 14  1  0  0  0  0
 17 18  1  6  0  0  0
 17 16  1  0  0  0  0
 19  2  1  1  0  0  0
 19 20  1  0  0  0  0
 19 17  1  0  0  0  0
 20 21  1  6  0  0  0
 20 22  1  0  0  0  0
 22 23  1  1  0  0  0
 22 14  1  0  0  0  0
 24 23  1  1  0  0  0
 24 25  1  0  0  0  0
 25 27  1  0  0  0  0
 25 26  1  6  0  0  0
 27 28  1  6  0  0  0
 28 29  1  0  0  0  0
 30 31  1  6  0  0  0
 30 32  1  0  0  0  0
 30 27  1  0  0  0  0
 33 30  1  0  0  0  0
 34 33  1  0  0  0  0
 34 24  1  0  0  0  0
M  END
>  <CHROM.1>
-117.71458555,-43.49438420,132.03552363,170.66930749,-83.21028767,-109.33749538
7.51275721,15.16841063,18.50289784,0.50411801,-0.40534551,-2.92006562

>  <Name>
lig.pdb

>  <RI>
0

>  <Rbt.Current_Directory>
/home/itssahil/PROJECTS/Mol_Feturizer/New_Systems/rnas/4k32

>  <Rbt.Executable>
rbdock ($Id: //depot/dev/client3/rdock/2013.1/src/exe/rbdock.cxx#4 $)

>  <Rbt.Library>
libRbt.so (2013.1, Build901 2013/11/27)

>  <Rbt.Parameter_File>
/export/apps/rDock/src/rDock_2013.1_src/data/scripts/dock_solv.prm

>  <Rbt.Receptor>
prm/blind_docking_80.prm

>  <SCORE>
12.7495

>  <SCORE.INTER>
-1.01145

>  <SCORE.INTER.CONST>
1

>  <SCORE.INTER.POLAR>
0

>  <SCORE.INTER.ROT>
6

>  <SCORE.INTER.SOLV>
23.9307

>  <SCORE.INTER.VDW>
-16.2512

>  <SCORE.INTER.norm>
-0.0297486

>  <SCORE.INTRA>
3.99443

>  <SCORE.INTRA.DIHEDRAL>
0.569214

>  <SCORE.INTRA.DIHEDRAL.0>
18.0069

>  <SCORE.INTRA.POLAR>
0

>  <SCORE.INTRA.POLAR.0>
0

>  <SCORE.INTRA.REPUL>
0

>  <SCORE.INTRA.REPUL.0>
0

>  <SCORE.INTRA.SOLV>
-0.411537

>  <SCORE.INTRA.SOLV.lig_0>
-70.7393

>  <SCORE.INTRA.VDW>
3.9156

>  <SCORE.INTRA.VDW.0>
-3.23471

>  <SCORE.INTRA.norm>
0.117483

>  <SCORE.RESTR>
9.7665

>  <SCORE.RESTR.CAVITY>
9.7665

>  <SCORE.RESTR.norm>
0.28725

>  <SCORE.SYSTEM>
0

>  <SCORE.SYSTEM.CONST>
0

>  <SCORE.SYSTEM.DIHEDRAL>
0

>  <SCORE.SYSTEM.SOLV>
0

>  <SCORE.SYSTEM.norm>
0

>  <SCORE.heavy>
34

>  <SCORE.norm>
0.374985

>  <RMSD>
21.960

$$$$
lig.pdb
 OpenBabel11021811503D
libRbt.so/2013.1/901 2013/11/27
 34 36  0  0  0  0  0  0  0  0999 V2000
    5.0853   16.8355   20.8397 C   0  0  2  0  0  0  0  0  0  0  0  0
    5.5353   15.9415   19.8158 O   0  0  0  0  0  0  0  0  0  0  0  0
    3.9809   16.0938   21.7066 C   0  0  2  0  0  0  0  0  0  0  0  0
    4.5158   14.8719   22.3514 N   0  0  0  0  0  0  0  0  0  0  0  0
    2.7758   15.7296   20.8032 C   0  0  1  0  0  0  0  0  0  0  0  0
    1.7668   15.0665   21.5686 O   0  0  0  0  0  0  0  0  0  0  0  0
    2.2352   17.0208   20.1635 C   0  0  2  0  0  0  0  0  0  0  0  0
    1.1204   16.6997   19.3302 O   0  0  0  0  0  0  0  0  0  0  0  0
    3.3773   17.7198   19.3309 C   0  0  2  0  0  0  0  0  0  0  0  0
    4.5374   18.0322   20.1927 O   0  0  0  0  0  0  0  0  0  0  0  0
    2.8841   19.0359   18.6799 C   0  0  2  0  0  0  0  0  0  0  0  0
    2.2071   19.8335   19.6532 O   0  0  0  0  0  0  0  0  0  0  0  0
    1.9277   18.7561   17.5311 C   0  0  0  0  0  0  0  0  0  0  0  0
    8.7137   16.1676   16.9586 C   0  0  2  0  0  0  0  0  0  0  0  0
   10.0026   16.4846   16.3386 N   0  0  0  0  0  0  0  0  0  0  0  0
    8.1162   17.5010   17.4866 C   0  0  0  0  0  0  0  0  0  0  0  0
    6.7364   17.1890   18.1268 C   0  0  2  0  0  0  0  0  0  0  0  0
    6.1290   18.4281   18.6372 N   0  0  0  0  0  0  0  0  0  0  0  0
    6.8818   16.1748   19.2929 C   0  0  2  0  0  0  0  0  0  0  0  0
    7.5260   14.8610   18.7480 C   0  0  2  0  0  0  0  0  0  0  0  0
    7.6704   13.9291   19.8284 O   0  0  0  0  0  0  0  0  0  0  0  0
    8.9261   15.1415   18.1502 C   0  0  1  0  0  0  0  0  0  0  0  0
    9.4467   13.8812   17.6600 O   0  0  0  0  0  0  0  0  0  0  0  0
   10.7286   13.9397   16.9914 C   0  0  2  0  0  0  0  0  0  0  0  0
   10.8127   12.6504   16.0924 C   0  0  2  0  0  0  0  0  0  0  0  0
    9.7601   12.6569   15.1409 O   0  0  0  0  0  0  0  0  0  0  0  0
   10.7308   11.3762   17.0156 C   0  0  1  0  0  0  0  0  0  0  0  0
   10.7968   10.1246   16.2010 N   0  0  0  0  0  0  0  0  0  0  0  0
   11.9138   10.2383   15.2387 C   0  0  0  0  0  0  0  0  0  0  0  0
   11.9134   11.4238   18.0303 C   0  0  2  0  0  0  0  0  0  0  0  0
   13.1408   11.4113   17.3030 O   0  0  0  0  0  0  0  0  0  0  0  0
   11.9013   10.2223   18.9720 C   0  0  0  0  0  0  0  0  0  0  0  0
   11.8202   12.7420   18.8638 C   0  0  0  0  0  0  0  0  0  0  0  0
   11.8250   13.9271   17.9805 O   0  0  0  0  0  0  0  0  0  0  0  0
  1  3  1  0  0  0  0
  1  2  1  6  0  0  0
  3  5  1  0  0  0  0
  3  4  1  6  0  0  0
  5  6  1  1  0  0  0
  7  8  1  6  0  0  0
  7  5  1  0  0  0  0
  9 10  1  1  0  0  0
  9  7  1  0  0  0  0
 10  1  1  0  0  0  0
 11 13  1  6  0  0  0
 11  9  1  0  0  0  0
 12 11  1  0  0  0  0
 14 15  1  1  0  0  0
 16 14  1  0  0  0  0
 17 18  1  1  0  0  0
 17 16  1  0  0  0  0
 19  2  1  6  0  0  0
 19 20  1  0  0  0  0
 19 17  1  0  0  0  0
 20 21  1  1  0  0  0
 20 22  1  0  0  0  0
 22 23  1  6  0  0  0
 22 14  1  0  0  0  0
 24 23  1  1  0  0  0
 24 25  1  0  0  0  0
 25 27  1  0  0  0  0
 25 26  1  6  0  0  0
 27 28  1  6  0  0  0
 28 29  1  0  0  0  0
 30 31  1  6  0  0  0
 30 32  1  0  0  0  0
 30 27  1  0  0  0  0
 33 30  1  0  0  0  0
 34 33  1  0  0  0  0
 34 24  1  0  0  0  0
M  END
>  <CHROM.1>
-154.80207727,48.46291468,-88.15205084,60.66339889,-158.47017132,47.46700922
7.26475391,15.04891012,18.55889815,2.84255959,0.56730898,-0.57112556

>  <Name>
lig.pdb

>  <RI>
0

>  <Rbt.Current_Directory>
/home/itssahil/PROJECTS/Mol_Feturizer/New_Systems/rnas/4k32

>  <Rbt.Executable>
rbdock ($Id: //depot/dev/client3/rdock/2013.1/src/exe/rbdock.cxx#4 $)

>  <Rbt.Library>
libRbt.so (2013.1, Build901 2013/11/27)

>  <Rbt.Parameter_File>
/export/apps/rDock/src/rDock_2013.1_src/data/scripts/dock_solv.prm

>  <Rbt.Receptor>
prm/blind_docking_80.prm

>  <SCORE>
26.3054

>  <SCORE.INTER>
10.7211

>  <SCORE.INTER.CONST>
1

>  <SCORE.INTER.POLAR>
0

>  <SCORE.INTER.ROT>
6

>  <SCORE.INTER.SOLV>
23.7376

>  <SCORE.INTER.VDW>
-8.36512

>  <SCORE.INTER.norm>
0.315328

>  <SCORE.INTRA>
6.15545

>  <SCORE.INTRA.DIHEDRAL>
-9.34363

>  <SCORE.INTRA.DIHEDRAL.0>
18.0069

>  <SCORE.INTRA.POLAR>
0

>  <SCORE.INTRA.POLAR.0>
0

>  <SCORE.INTRA.REPUL>
0

>  <SCORE.INTRA.REPUL.0>
0

>  <SCORE.INTRA.SOLV>
2.68711

>  <SCORE.INTRA.SOLV.lig_0>
-70.7393

>  <SCORE.INTRA.VDW>
9.48371

>  <SCORE.INTRA.VDW.0>
-3.23471

>  <SCORE.INTRA.norm>
0.181043

>  <SCORE.RESTR>
9.42882

>  <SCORE.RESTR.CAVITY>
9.42882

>  <SCORE.RESTR.norm>
0.277318

>  <SCORE.SYSTEM>
0

>  <SCORE.SYSTEM.CONST>
0

>  <SCORE.SYSTEM.DIHEDRAL>
0

>  <SCORE.SYSTEM.SOLV>
0

>  <SCORE.SYSTEM.norm>
0

>  <SCORE.heavy>
34

>  <SCORE.norm>
0.773689

>  <RMSD>
22.302

$$$$
lig.pdb
 OpenBabel11021811503D
libRbt.so/2013.1/901 2013/11/27
 34 36  0  0  0  0  0  0  0  0999 V2000
    5.2238   16.1372   19.5754 C   0  0  2  0  0  0  0  0  0  0  0  0
    6.1559   17.0137   20.2182 O   0  0  0  0  0  0  0  0  0  0  0  0
    3.7716   16.4448   20.1390 C   0  0  2  0  0  0  0  0  0  0  0  0
    3.3622   17.8435   19.8723 N   0  0  0  0  0  0  0  0  0  0  0  0
    3.7412   16.1674   21.6631 C   0  0  1  0  0  0  0  0  0  0  0  0
    2.4382   16.4324   22.1880 O   0  0  0  0  0  0  0  0  0  0  0  0
    4.1547   14.7045   21.9032 C   0  0  2  0  0  0  0  0  0  0  0  0
    4.1272   14.4338   23.3055 O   0  0  0  0  0  0  0  0  0  0  0  0
    5.5941   14.4550   21.3099 C   0  0  2  0  0  0  0  0  0  0  0  0
    5.6233   14.7556   19.8626 O   0  0  0  0  0  0  0  0  0  0  0  0
    6.0480   12.9881   21.5133 C   0  0  2  0  0  0  0  0  0  0  0  0
    7.4747   12.9143   21.4855 O   0  0  0  0  0  0  0  0  0  0  0  0
    5.4938   12.0850   20.4224 C   0  0  0  0  0  0  0  0  0  0  0  0
    9.0643   17.0714   17.0790 C   0  0  2  0  0  0  0  0  0  0  0  0
   10.3098   17.3088   16.3452 N   0  0  0  0  0  0  0  0  0  0  0  0
    8.6163   18.4330   17.6785 C   0  0  0  0  0  0  0  0  0  0  0  0
    7.2827   18.2066   18.4410 C   0  0  2  0  0  0  0  0  0  0  0  0
    6.8165   19.4752   19.0226 N   0  0  0  0  0  0  0  0  0  0  0  0
    7.4616   17.1615   19.5746 C   0  0  2  0  0  0  0  0  0  0  0  0
    7.9557   15.8166   18.9542 C   0  0  2  0  0  0  0  0  0  0  0  0
    8.1316   14.8553   20.0037 O   0  0  0  0  0  0  0  0  0  0  0  0
    9.3111   16.0092   18.2316 C   0  0  1  0  0  0  0  0  0  0  0  0
    9.6915   14.7253   17.6779 O   0  0  0  0  0  0  0  0  0  0  0  0
    9.8956   13.6566   18.6318 C   0  0  2  0  0  0  0  0  0  0  0  0
   11.4539   13.5091   18.7972 C   0  0  2  0  0  0  0  0  0  0  0  0
   12.0031   14.7210   19.2902 O   0  0  0  0  0  0  0  0  0  0  0  0
   12.0833   13.1304   17.4033 C   0  0  1  0  0  0  0  0  0  0  0  0
   13.5675   12.9895   17.5109 N   0  0  0  0  0  0  0  0  0  0  0  0
   14.2038   14.2194   16.9922 C   0  0  0  0  0  0  0  0  0  0  0  0
   11.4468   11.7916   16.9206 C   0  0  2  0  0  0  0  0  0  0  0  0
   11.7453   10.7733   17.8743 O   0  0  0  0  0  0  0  0  0  0  0  0
   11.9996   11.3569   15.5657 C   0  0  0  0  0  0  0  0  0  0  0  0
    9.8976   11.9678   16.8208 C   0  0  0  0  0  0  0  0  0  0  0  0
    9.3296   12.3935   18.1173 O   0  0  0  0  0  0  0  0  0  0  0  0
  1  3  1  0  0  0  0
  1  2  1  1  0  0  0
  3  5  1  0  0  0  0
  3  4  1  1  0  0  0
  5  6  1  6  0  0  0
  7  8  1  1  0  0  0
  7  5  1  0  0  0  0
  9 10  1  6  0  0  0
  9  7  1  0  0  0  0
 10  1  1  0  0  0  0
 11 13  1  6  0  0  0
 11  9  1  0  0  0  0
 12 11  1  0  0  0  0
 14 15  1  1  0  0  0
 16 14  1  0  0  0  0
 17 18  1  1  0  0  0
 17 16  1  0  0  0  0
 19  2  1  6  0  0  0
 19 20  1  0  0  0  0
 19 17  1  0  0  0  0
 20 21  1  1  0  0  0
 20 22  1  0  0  0  0
 22 23  1  6  0  0  0
 22 14  1  0  0  0  0
 24 23  1  6  0  0  0
 24 25  1  0  0  0  0
 25 27  1  0  0  0  0
 25 26  1  6  0  0  0
 27 28  1  1  0  0  0
 28 29  1  0  0  0  0
 30 31  1  1  0  0  0
 30 32  1  0  0  0  0
 30 27  1  0  0  0  0
 33 30  1  0  0  0  0
 34 33  1  0  0  0  0
 34 24  1  0  0  0  0
M  END
>  <CHROM.1>
-162.85993191,-156.50529293,82.07737176,-177.75357793,-102.08003996,-100.90093339
8.10773389,14.84030007,19.15367693,-2.94402684,-0.53662767,2.85040737

>  <Name>
lig.pdb

>  <RI>
0

>  <Rbt.Current_Directory>
/home/itssahil/PROJECTS/Mol_Feturizer/New_Systems/rnas/4k32

>  <Rbt.Executable>
rbdock ($Id: //depot/dev/client3/rdock/2013.1/src/exe/rbdock.cxx#4 $)

>  <Rbt.Library>
libRbt.so (2013.1, Build901 2013/11/27)

>  <Rbt.Parameter_File>
/export/apps/rDock/src/rDock_2013.1_src/data/scripts/dock_solv.prm

>  <Rbt.Receptor>
prm/blind_docking_80.prm

>  <SCORE>
15.148

>  <SCORE.INTER>
3.7252

>  <SCORE.INTER.CONST>
1

>  <SCORE.INTER.POLAR>
0

>  <SCORE.INTER.ROT>
6

>  <SCORE.INTER.SOLV>
22.8564

>  <SCORE.INTER.VDW>
-12.7353

>  <SCORE.INTER.norm>
0.109565

>  <SCORE.INTRA>
1.05376

>  <SCORE.INTRA.DIHEDRAL>
-5.9498

>  <SCORE.INTRA.DIHEDRAL.0>
18.0069

>  <SCORE.INTRA.POLAR>
0

>  <SCORE.INTRA.POLAR.0>
0

>  <SCORE.INTRA.REPUL>
0.000666768

>  <SCORE.INTRA.REPUL.0>
0

>  <SCORE.INTRA.SOLV>
-1.14029

>  <SCORE.INTRA.SOLV.lig_0>
-70.7393

>  <SCORE.INTRA.VDW>
4.59547

>  <SCORE.INTRA.VDW.0>
-3.23471

>  <SCORE.INTRA.norm>
0.030993

>  <SCORE.RESTR>
10.3691

>  <SCORE.RESTR.CAVITY>
10.3691

>  <SCORE.RESTR.norm>
0.304972

>  <SCORE.SYSTEM>
0

>  <SCORE.SYSTEM.CONST>
0

>  <SCORE.SYSTEM.DIHEDRAL>
0

>  <SCORE.SYSTEM.SOLV>
0

>  <SCORE.SYSTEM.norm>
0

>  <SCORE.heavy>
34

>  <SCORE.norm>
0.44553

>  <RMSD>
22.309

$$$$
lig.pdb
 OpenBabel11021811503D
libRbt.so/2013.1/901 2013/11/27
 34 36  0  0  0  0  0  0  0  0999 V2000
    6.1435   17.7494   20.2146 C   0  0  2  0  0  0  0  0  0  0  0  0
    6.7153   17.0662   19.0936 O   0  0  0  0  0  0  0  0  0  0  0  0
    5.4862   16.6728   21.1791 C   0  0  2  0  0  0  0  0  0  0  0  0
    6.4848   15.7004   21.6810 N   0  0  0  0  0  0  0  0  0  0  0  0
    4.3562   15.9275   20.4251 C   0  0  1  0  0  0  0  0  0  0  0  0
    3.7470   14.9578   21.2807 O   0  0  0  0  0  0  0  0  0  0  0  0
    3.3297   16.9632   19.9327 C   0  0  2  0  0  0  0  0  0  0  0  0
    2.2794   16.2886   19.2384 O   0  0  0  0  0  0  0  0  0  0  0  0
    4.0414   18.0122   18.9949 C   0  0  2  0  0  0  0  0  0  0  0  0
    5.1408   18.6937   19.7109 O   0  0  0  0  0  0  0  0  0  0  0  0
    3.0491   19.0874   18.4864 C   0  0  2  0  0  0  0  0  0  0  0  0
    2.3800   19.6916   19.5949 O   0  0  0  0  0  0  0  0  0  0  0  0
    2.0057   18.4793   17.5622 C   0  0  0  0  0  0  0  0  0  0  0  0
   10.7861   16.1888   18.1061 C   0  0  2  0  0  0  0  0  0  0  0  0
   12.1965   15.8151   18.2374 N   0  0  0  0  0  0  0  0  0  0  0  0
   10.5161   17.3326   19.1223 C   0  0  0  0  0  0  0  0  0  0  0  0
    9.0300   17.7598   18.9811 C   0  0  2  0  0  0  0  0  0  0  0  0
    8.7298   18.8486   19.9240 N   0  0  0  0  0  0  0  0  0  0  0  0
    8.0796   16.5652   19.2627 C   0  0  2  0  0  0  0  0  0  0  0  0
    8.4002   15.4119   18.2603 C   0  0  2  0  0  0  0  0  0  0  0  0
    7.5294   14.3046   18.5289 O   0  0  0  0  0  0  0  0  0  0  0  0
    9.8645   14.9357   18.4196 C   0  0  1  0  0  0  0  0  0  0  0  0
   10.0827   13.8792   17.4521 O   0  0  0  0  0  0  0  0  0  0  0  0
   10.0813   12.5294   17.9733 C   0  0  2  0  0  0  0  0  0  0  0  0
   11.5039   12.3038   18.6079 C   0  0  2  0  0  0  0  0  0  0  0  0
   11.7175   13.2362   19.6559 O   0  0  0  0  0  0  0  0  0  0  0  0
   12.5967   12.4586   17.4835 C   0  0  1  0  0  0  0  0  0  0  0  0
   13.9682   12.2619   18.0445 N   0  0  0  0  0  0  0  0  0  0  0  0
   14.7202   13.5296   17.9257 C   0  0  0  0  0  0  0  0  0  0  0  0
   12.3123   11.4060   16.3692 C   0  0  2  0  0  0  0  0  0  0  0  0
   12.3938   10.1013   16.9410 O   0  0  0  0  0  0  0  0  0  0  0  0
   13.3269   11.4958   15.2321 C   0  0  0  0  0  0  0  0  0  0  0  0
   10.8733   11.6338   15.8048 C   0  0  0  0  0  0  0  0  0  0  0  0
    9.8649   11.5576   16.8827 O   0  0  0  0  0  0  0  0  0  0  0  0
  1  3  1  0  0  0  0
  1  2  1  6  0  0  0
  3  5  1  0  0  0  0
  3  4  1  6  0  0  0
  5  6  1  1  0  0  0
  7  8  1  6  0  0  0
  7  5  1  0  0  0  0
  9 10  1  1  0  0  0
  9  7  1  0  0  0  0
 10  1  1  0  0  0  0
 11 13  1  6  0  0  0
 11  9  1  0  0  0  0
 12 11  1  0  0  0  0
 14 15  1  1  0  0  0
 16 14  1  0  0  0  0
 17 18  1  1  0  0  0
 17 16  1  0  0  0  0
 19  2  1  6  0  0  0
 19 20  1  0  0  0  0
 19 17  1  0  0  0  0
 20 21  1  1  0  0  0
 20 22  1  0  0  0  0
 22 23  1  6  0  0  0
 22 14  1  0  0  0  0
 24 23  1  6  0  0  0
 24 25  1  0  0  0  0
 25 27  1  0  0  0  0
 25 26  1  1  0  0  0
 27 28  1  1  0  0  0
 28 29  1  0  0  0  0
 30 31  1  1  0  0  0
 30 32  1  0  0  0  0
 30 27  1  0  0  0  0
 33 30  1  0  0  0  0
 34 33  1  0  0  0  0
 34 24  1  0  0  0  0
M  END
>  <CHROM.1>
-86.10317012,53.84108212,-82.75971084,140.95056226,-79.93210602,-115.38986264
8.31235795,15.24129386,18.66002203,-2.54084711,-0.05527085,-2.81782297

>  <Name>
lig.pdb

>  <RI>
0

>  <Rbt.Current_Directory>
/home/itssahil/PROJECTS/Mol_Feturizer/New_Systems/rnas/4k32

>  <Rbt.Executable>
rbdock ($Id: //depot/dev/client3/rdock/2013.1/src/exe/rbdock.cxx#4 $)

>  <Rbt.Library>
libRbt.so (2013.1, Build901 2013/11/27)

>  <Rbt.Parameter_File>
/export/apps/rDock/src/rDock_2013.1_src/data/scripts/dock_solv.prm

>  <Rbt.Receptor>
prm/blind_docking_80.prm

>  <SCORE>
16.2619

>  <SCORE.INTER>
4.14658

>  <SCORE.INTER.CONST>
1

>  <SCORE.INTER.POLAR>
0

>  <SCORE.INTER.ROT>
6

>  <SCORE.INTER.SOLV>
21.51

>  <SCORE.INTER.VDW>
-12.0056

>  <SCORE.INTER.norm>
0.121958

>  <SCORE.INTRA>
0.473878

>  <SCORE.INTRA.DIHEDRAL>
-4.53183

>  <SCORE.INTRA.DIHEDRAL.0>
18.0069

>  <SCORE.INTRA.POLAR>
0

>  <SCORE.INTRA.POLAR.0>
0

>  <SCORE.INTRA.REPUL>
0

>  <SCORE.INTRA.REPUL.0>
0

>  <SCORE.INTRA.SOLV>
3.61609

>  <SCORE.INTRA.SOLV.lig_0>
-70.7393

>  <SCORE.INTRA.VDW>
0.931745

>  <SCORE.INTRA.VDW.0>
-3.23471

>  <SCORE.INTRA.norm>
0.0139376

>  <SCORE.RESTR>
11.6414

>  <SCORE.RESTR.CAVITY>
11.6414

>  <SCORE.RESTR.norm>
0.342395

>  <SCORE.SYSTEM>
0

>  <SCORE.SYSTEM.CONST>
0

>  <SCORE.SYSTEM.DIHEDRAL>
0

>  <SCORE.SYSTEM.SOLV>
0

>  <SCORE.SYSTEM.norm>
0

>  <SCORE.heavy>
34

>  <SCORE.norm>
0.478291

>  <RMSD>
22.667

$$$$
lig.pdb
 OpenBabel11021811503D
libRbt.so/2013.1/901 2013/11/27
 34 36  0  0  0  0  0  0  0  0999 V2000
   10.1113   13.3134   16.2429 C   0  0  2  0  0  0  0  0  0  0  0  0
    9.3372   12.5975   17.2117 O   0  0  0  0  0  0  0  0  0  0  0  0
    9.9636   12.5836   14.8406 C   0  0  2  0  0  0  0  0  0  0  0  0
    8.5547   12.5486   14.3835 N   0  0  0  0  0  0  0  0  0  0  0  0
   10.5192   11.1412   14.9496 C   0  0  1  0  0  0  0  0  0  0  0  0
   10.4010   10.4697   13.6931 O   0  0  0  0  0  0  0  0  0  0  0  0
   11.9861   11.2147   15.4094 C   0  0  2  0  0  0  0  0  0  0  0  0
   12.5123    9.8906   15.5105 O   0  0  0  0  0  0  0  0  0  0  0  0
   12.0716   11.9617   16.7954 C   0  0  2  0  0  0  0  0  0  0  0  0
   11.5075   13.3243   16.6916 O   0  0  0  0  0  0  0  0  0  0  0  0
   13.5343   12.0751   17.2924 C   0  0  2  0  0  0  0  0  0  0  0  0
   14.0774   10.7700   17.5010 O   0  0  0  0  0  0  0  0  0  0  0  0
   13.6122   12.8481   18.5997 C   0  0  0  0  0  0  0  0  0  0  0  0
    7.1381   13.7937   20.6829 C   0  0  2  0  0  0  0  0  0  0  0  0
    6.8131   14.3744   21.9880 N   0  0  0  0  0  0  0  0  0  0  0  0
    8.3641   12.8613   20.8861 C   0  0  0  0  0  0  0  0  0  0  0  0
    8.7095   12.2164   19.5165 C   0  0  2  0  0  0  0  0  0  0  0  0
    9.8653   11.3178   19.6629 N   0  0  0  0  0  0  0  0  0  0  0  0
    9.0396   13.3032   18.4584 C   0  0  2  0  0  0  0  0  0  0  0  0
    7.8112   14.2545   18.3050 C   0  0  2  0  0  0  0  0  0  0  0  0
    8.1215   15.2648   17.3357 O   0  0  0  0  0  0  0  0  0  0  0  0
    7.4808   14.9477   19.6492 C   0  0  1  0  0  0  0  0  0  0  0  0
    6.3296   15.7987   19.4247 O   0  0  0  0  0  0  0  0  0  0  0  0
    6.1417   16.8769   20.3712 C   0  0  2  0  0  0  0  0  0  0  0  0
    4.6431   16.7881   20.8441 C   0  0  2  0  0  0  0  0  0  0  0  0
    4.4087   15.5366   21.4703 O   0  0  0  0  0  0  0  0  0  0  0  0
    3.7001   16.9800   19.5965 C   0  0  1  0  0  0  0  0  0  0  0  0
    2.2629   16.8928   19.9981 N   0  0  0  0  0  0  0  0  0  0  0  0
    1.5417   16.0548   19.0161 C   0  0  0  0  0  0  0  0  0  0  0  0
    3.9999   18.3710   18.9593 C   0  0  2  0  0  0  0  0  0  0  0  0
    3.7289   19.3848   19.9259 O   0  0  0  0  0  0  0  0  0  0  0  0
    3.1293   18.6324   17.7329 C   0  0  0  0  0  0  0  0  0  0  0  0
    5.5073   18.4340   18.5532 C   0  0  0  0  0  0  0  0  0  0  0  0
    6.3797   18.1803   19.7191 O   0  0  0  0  0  0  0  0  0  0  0  0
  1  3  1  0  0  0  0
  1  2  1  1  0  0  0
  3  5  1  0  0  0  0
  3  4  1  1  0  0  0
  5  6  1  6  0  0  0
  7  8  1  1  0  0  0
  7  5  1  0  0  0  0
  9 10  1  6  0  0  0
  9  7  1  0  0  0  0
 10  1  1  0  0  0  0
 11 13  1  1  0  0  0
 11  9  1  0  0  0  0
 12 11  1  0  0  0  0
 14 15  1  1  0  0  0
 16 14  1  0  0  0  0
 17 18  1  1  0  0  0
 17 16  1  0  0  0  0
 19  2  1  6  0  0  0
 19 20  1  0  0  0  0
 19 17  1  0  0  0  0
 20 21  1  6  0  0  0
 20 22  1  0  0  0  0
 22 23  1  6  0  0  0
 22 14  1  0  0  0  0
 24 23  1  6  0  0  0
 24 25  1  0  0  0  0
 25 27  1  0  0  0  0
 25 26  1  6  0  0  0
 27 28  1  1  0  0  0
 28 29  1  0  0  0  0
 30 31  1  1  0  0  0
 30 32  1  0  0  0  0
 30 27  1  0  0  0  0
 33 30  1  0  0  0  0
 34 33  1  0  0  0  0
 34 24  1  0  0  0  0
M  END
>  <CHROM.1>
-163.46796025,-62.17254680,-158.58995698,85.29195242,-129.99038271,-135.76360255
8.04794778,14.26900216,18.25790540,0.39372549,0.61700982,-1.66028466

>  <Name>
lig.pdb

>  <RI>
0

>  <Rbt.Current_Directory>
/home/itssahil/PROJECTS/Mol_Feturizer/New_Systems/rnas/4k32

>  <Rbt.Executable>
rbdock ($Id: //depot/dev/client3/rdock/2013.1/src/exe/rbdock.cxx#4 $)

>  <Rbt.Library>
libRbt.so (2013.1, Build901 2013/11/27)

>  <Rbt.Parameter_File>
/export/apps/rDock/src/rDock_2013.1_src/data/scripts/dock_solv.prm

>  <Rbt.Receptor>
prm/blind_docking_80.prm

>  <SCORE>
14.7987

>  <SCORE.INTER>
3.36176

>  <SCORE.INTER.CONST>
1

>  <SCORE.INTER.POLAR>
0

>  <SCORE.INTER.ROT>
6

>  <SCORE.INTER.SOLV>
22.6508

>  <SCORE.INTER.VDW>
-12.9091

>  <SCORE.INTER.norm>
0.0988754

>  <SCORE.INTRA>
-1.83381

>  <SCORE.INTRA.DIHEDRAL>
-4.22292

>  <SCORE.INTRA.DIHEDRAL.0>
18.0069

>  <SCORE.INTRA.POLAR>
0

>  <SCORE.INTRA.POLAR.0>
0

>  <SCORE.INTRA.REPUL>
0

>  <SCORE.INTRA.REPUL.0>
0

>  <SCORE.INTRA.SOLV>
0.447907

>  <SCORE.INTRA.SOLV.lig_0>
-70.7393

>  <SCORE.INTRA.VDW>
0.0536978

>  <SCORE.INTRA.VDW.0>
-3.23471

>  <SCORE.INTRA.norm>
-0.0539356

>  <SCORE.RESTR>
13.2707

>  <SCORE.RESTR.CAVITY>
13.2707

>  <SCORE.RESTR.norm>
0.390316

>  <SCORE.SYSTEM>
0

>  <SCORE.SYSTEM.CONST>
0

>  <SCORE.SYSTEM.DIHEDRAL>
0

>  <SCORE.SYSTEM.SOLV>
0

>  <SCORE.SYSTEM.norm>
0

>  <SCORE.heavy>
34

>  <SCORE.norm>
0.435256

>  <RMSD>
22.734

$$$$
lig.pdb
 OpenBabel11021811503D
libRbt.so/2013.1/901 2013/11/27
 34 36  0  0  0  0  0  0  0  0999 V2000
   10.8809   11.5196   18.0856 C   0  0  2  0  0  0  0  0  0  0  0  0
   11.2459   12.6637   18.8653 O   0  0  0  0  0  0  0  0  0  0  0  0
   11.2279   10.2118   18.9165 C   0  0  2  0  0  0  0  0  0  0  0  0
   10.4881   10.1618   20.1991 N   0  0  0  0  0  0  0  0  0  0  0  0
   12.7532   10.1615   19.1846 C   0  0  1  0  0  0  0  0  0  0  0  0
   13.0863    8.9859   19.9266 O   0  0  0  0  0  0  0  0  0  0  0  0
   13.4896   10.1983   17.8336 C   0  0  2  0  0  0  0  0  0  0  0  0
   14.8981   10.1486   18.0662 O   0  0  0  0  0  0  0  0  0  0  0  0
   13.0946   11.5075   17.0487 C   0  0  2  0  0  0  0  0  0  0  0  0
   11.6338   11.5650   16.8278 O   0  0  0  0  0  0  0  0  0  0  0  0
   13.8000   11.5812   15.6717 C   0  0  2  0  0  0  0  0  0  0  0  0
   13.9800   12.9469   15.2922 O   0  0  0  0  0  0  0  0  0  0  0  0
   12.9820   10.8824   14.5969 C   0  0  0  0  0  0  0  0  0  0  0  0
    9.6686   16.6170   19.3122 C   0  0  2  0  0  0  0  0  0  0  0  0
    9.1627   17.9539   18.9913 N   0  0  0  0  0  0  0  0  0  0  0  0
   11.0383   16.4587   18.5960 C   0  0  0  0  0  0  0  0  0  0  0  0
   11.6030   15.0549   18.9442 C   0  0  2  0  0  0  0  0  0  0  0  0
   12.9066   14.8626   18.2895 N   0  0  0  0  0  0  0  0  0  0  0  0
   10.6313   13.9354   18.4834 C   0  0  2  0  0  0  0  0  0  0  0  0
    9.2494   14.1419   19.1801 C   0  0  2  0  0  0  0  0  0  0  0  0
    8.3492   13.1139   18.7449 O   0  0  0  0  0  0  0  0  0  0  0  0
    8.6442   15.5165   18.8054 C   0  0  1  0  0  0  0  0  0  0  0  0
    7.3764   15.6332   19.4974 O   0  0  0  0  0  0  0  0  0  0  0  0
    6.4057   14.5952   19.2257 C   0  0  2  0  0  0  0  0  0  0  0  0
    5.0707   15.3344   18.8400 C   0  0  2  0  0  0  0  0  0  0  0  0
    5.2773   16.1304   17.6837 O   0  0  0  0  0  0  0  0  0  0  0  0
    4.6047   16.2189   20.0579 C   0  0  1  0  0  0  0  0  0  0  0  0
    3.3420   16.9494   19.7320 N   0  0  0  0  0  0  0  0  0  0  0  0
    3.6843   18.3028   19.2444 C   0  0  0  0  0  0  0  0  0  0  0  0
    4.3885   15.2889   21.2904 C   0  0  2  0  0  0  0  0  0  0  0  0
    3.3741   14.3371   20.9728 O   0  0  0  0  0  0  0  0  0  0  0  0
    3.9418   16.0735   22.5213 C   0  0  0  0  0  0  0  0  0  0  0  0
    5.7217   14.5374   21.6050 C   0  0  0  0  0  0  0  0  0  0  0  0
    6.1854   13.7697   20.4302 O   0  0  0  0  0  0  0  0  0  0  0  0
  1  3  1  0  0  0  0
  1  2  1  1  0  0  0
  3  5  1  0  0  0  0
  3  4  1  1  0  0  0
  5  6  1  6  0  0  0
  7  8  1  1  0  0  0
  7  5  1  0  0  0  0
  9 10  1  6  0  0  0
  9  7  1  0  0  0  0
 10  1  1  0  0  0  0
 11 13  1  6  0  0  0
 11  9  1  0  0  0  0
 12 11  1  0  0  0  0
 14 15  1  6  0  0  0
 16 14  1  0  0  0  0
 17 18  1  6  0  0  0
 17 16  1  0  0  0  0
 19  2  1  1  0  0  0
 19 20  1  0  0  0  0
 19 17  1  0  0  0  0
 20 21  1  6  0  0  0
 20 22  1  0  0  0  0
 22 23  1  1  0  0  0
 22 14  1  0  0  0  0
 24 23  1  1  0  0  0
 24 25  1  0  0  0  0
 25 27  1  0  0  0  0
 25 26  1  6  0  0  0
 27 28  1  6  0  0  0
 28 29  1  0  0  0  0
 30 31  1  6  0  0  0
 30 32  1  0  0  0  0
 30 27  1  0  0  0  0
 33 30  1  0  0  0  0
 34 33  1  0  0  0  0
 34 24  1  0  0  0  0
M  END
>  <CHROM.1>
-161.01908268,-151.60992317,-153.82564506,-173.63955897,-128.79705331,-94.89099262
9.23395361,13.72649489,18.84121369,0.36035452,-0.47828555,2.75415692

>  <Name>
lig.pdb

>  <RI>
0

>  <Rbt.Current_Directory>
/home/itssahil/PROJECTS/Mol_Feturizer/New_Systems/rnas/4k32

>  <Rbt.Executable>
rbdock ($Id: //depot/dev/client3/rdock/2013.1/src/exe/rbdock.cxx#4 $)

>  <Rbt.Library>
libRbt.so (2013.1, Build901 2013/11/27)

>  <Rbt.Parameter_File>
/export/apps/rDock/src/rDock_2013.1_src/data/scripts/dock_solv.prm

>  <Rbt.Receptor>
prm/blind_docking_80.prm

>  <SCORE>
19.6778

>  <SCORE.INTER>
6.92384

>  <SCORE.INTER.CONST>
1

>  <SCORE.INTER.POLAR>
0

>  <SCORE.INTER.ROT>
6

>  <SCORE.INTER.SOLV>
26.072

>  <SCORE.INTER.VDW>
-11.6748

>  <SCORE.INTER.norm>
0.203642

>  <SCORE.INTRA>
1.41274

>  <SCORE.INTRA.DIHEDRAL>
-3.16806

>  <SCORE.INTRA.DIHEDRAL.0>
18.0069

>  <SCORE.INTRA.POLAR>
0

>  <SCORE.INTRA.POLAR.0>
0

>  <SCORE.INTRA.REPUL>
0

>  <SCORE.INTRA.REPUL.0>
0

>  <SCORE.INTRA.SOLV>
-1.62916

>  <SCORE.INTRA.SOLV.lig_0>
-70.7393

>  <SCORE.INTRA.VDW>
3.81135

>  <SCORE.INTRA.VDW.0>
-3.23471

>  <SCORE.INTRA.norm>
0.0415511

>  <SCORE.RESTR>
11.3413

>  <SCORE.RESTR.CAVITY>
11.3413

>  <SCORE.RESTR.norm>
0.333566

>  <SCORE.SYSTEM>
0

>  <SCORE.SYSTEM.CONST>
0

>  <SCORE.SYSTEM.DIHEDRAL>
0

>  <SCORE.SYSTEM.SOLV>
0

>  <SCORE.SYSTEM.norm>
0

>  <SCORE.heavy>
34

>  <SCORE.norm>
0.57876

>  <RMSD>
22.802

$$$$
lig.pdb
 OpenBabel11021811503D
libRbt.so/2013.1/901 2013/11/27
 34 36  0  0  0  0  0  0  0  0999 V2000
    5.6099   15.3304   18.4442 C   0  0  2  0  0  0  0  0  0  0  0  0
    6.6612   16.3020   18.4111 O   0  0  0  0  0  0  0  0  0  0  0  0
    4.2389   16.0806   18.7244 C   0  0  2  0  0  0  0  0  0  0  0  0
    3.9284   17.0731   17.6692 N   0  0  0  0  0  0  0  0  0  0  0  0
    4.3081   16.7817   20.1045 C   0  0  1  0  0  0  0  0  0  0  0  0
    3.0785   17.4576   20.3778 O   0  0  0  0  0  0  0  0  0  0  0  0
    4.6149   15.7219   21.1775 C   0  0  2  0  0  0  0  0  0  0  0  0
    4.6778   16.3547   22.4566 O   0  0  0  0  0  0  0  0  0  0  0  0
    5.9759   15.0012   20.8386 C   0  0  2  0  0  0  0  0  0  0  0  0
    5.9136   14.3649   19.5055 O   0  0  0  0  0  0  0  0  0  0  0  0
    6.3196   13.9115   21.8844 C   0  0  2  0  0  0  0  0  0  0  0  0
    7.6287   13.3964   21.6346 O   0  0  0  0  0  0  0  0  0  0  0  0
    5.3261   12.7616   21.8268 C   0  0  0  0  0  0  0  0  0  0  0  0
   10.8463   15.5062   18.0013 C   0  0  2  0  0  0  0  0  0  0  0  0
   12.2318   15.1602   18.3283 N   0  0  0  0  0  0  0  0  0  0  0  0
   10.4150   16.6431   18.9685 C   0  0  0  0  0  0  0  0  0  0  0  0
    8.9549   17.0411   18.6211 C   0  0  2  0  0  0  0  0  0  0  0  0
    8.5049   18.1225   19.5116 N   0  0  0  0  0  0  0  0  0  0  0  0
    7.9982   15.8277   18.7693 C   0  0  2  0  0  0  0  0  0  0  0  0
    8.4780   14.6823   17.8229 C   0  0  2  0  0  0  0  0  0  0  0  0
    7.6002   13.5577   17.9691 O   0  0  0  0  0  0  0  0  0  0  0  0
    9.9149   14.2348   18.1851 C   0  0  1  0  0  0  0  0  0  0  0  0
   10.2864   13.1841   17.2589 O   0  0  0  0  0  0  0  0  0  0  0  0
   11.6916   13.0988   16.9245 C   0  0  2  0  0  0  0  0  0  0  0  0
   11.8484   11.8242   16.0144 C   0  0  2  0  0  0  0  0  0  0  0  0
   11.0702   11.9737   14.8374 O   0  0  0  0  0  0  0  0  0  0  0  0
   11.3985   10.5537   16.8306 C   0  0  1  0  0  0  0  0  0  0  0  0
   11.5214    9.3172   15.9997 N   0  0  0  0  0  0  0  0  0  0  0  0
   10.3072    9.1774   15.1673 C   0  0  0  0  0  0  0  0  0  0  0  0
   12.2925   10.4411   18.1028 C   0  0  2  0  0  0  0  0  0  0  0  0
   13.6516   10.2928   17.6951 O   0  0  0  0  0  0  0  0  0  0  0  0
   11.9134    9.2341   18.9572 C   0  0  0  0  0  0  0  0  0  0  0  0
   12.1463   11.7466   18.9486 C   0  0  0  0  0  0  0  0  0  0  0  0
   12.5021   12.9372   18.1483 O   0  0  0  0  0  0  0  0  0  0  0  0
  1  3  1  0  0  0  0
  1  2  1  1  0  0  0
  3  5  1  0  0  0  0
  3  4  1  6  0  0  0
  5  6  1  1  0  0  0
  7  8  1  1  0  0  0
  7  5  1  0  0  0  0
  9 10  1  6  0  0  0
  9  7  1  0  0  0  0
 10  1  1  0  0  0  0
 11 13  1  6  0  0  0
 11  9  1  0  0  0  0
 12 11  1  0  0  0  0
 14 15  1  1  0  0  0
 16 14  1  0  0  0  0
 17 18  1  1  0  0  0
 17 16  1  0  0  0  0
 19  2  1  6  0  0  0
 19 20  1  0  0  0  0
 19 17  1  0  0  0  0
 20 21  1  1  0  0  0
 20 22  1  0  0  0  0
 22 23  1  6  0  0  0
 22 14  1  0  0  0  0
 24 23  1  1  0  0  0
 24 25  1  0  0  0  0
 25 27  1  0  0  0  0
 25 26  1  6  0  0  0
 27 28  1  6  0  0  0
 28 29  1  0  0  0  0
 30 31  1  6  0  0  0
 30 32  1  0  0  0  0
 30 27  1  0  0  0  0
 33 30  1  0  0  0  0
 34 33  1  0  0  0  0
 34 24  1  0  0  0  0
M  END
>  <CHROM.1>
153.16786027,-173.07180545,178.48453354,32.70823769,175.39543554,-83.77391062
8.63554511,13.94508812,18.65764333,2.62406742,0.51614375,-0.15700438

>  <Name>
lig.pdb

>  <RI>
0

>  <Rbt.Current_Directory>
/home/itssahil/PROJECTS/Mol_Feturizer/New_Systems/rnas/4k32

>  <Rbt.Executable>
rbdock ($Id: //depot/dev/client3/rdock/2013.1/src/exe/rbdock.cxx#4 $)

>  <Rbt.Library>
libRbt.so (2013.1, Build901 2013/11/27)

>  <Rbt.Parameter_File>
/export/apps/rDock/src/rDock_2013.1_src/data/scripts/dock_solv.prm

>  <Rbt.Receptor>
prm/blind_docking_80.prm

>  <SCORE>
19.5817

>  <SCORE.INTER>
8.07913

>  <SCORE.INTER.CONST>
1

>  <SCORE.INTER.POLAR>
0

>  <SCORE.INTER.ROT>
6

>  <SCORE.INTER.SOLV>
21.0345

>  <SCORE.INTER.VDW>
-9.22541

>  <SCORE.INTER.norm>
0.237621

>  <SCORE.INTRA>
4.0673

>  <SCORE.INTRA.DIHEDRAL>
-11.1756

>  <SCORE.INTRA.DIHEDRAL.0>
18.0069

>  <SCORE.INTRA.POLAR>
0

>  <SCORE.INTRA.POLAR.0>
0

>  <SCORE.INTRA.REPUL>
0

>  <SCORE.INTRA.REPUL.0>
0

>  <SCORE.INTRA.SOLV>
0.407607

>  <SCORE.INTRA.SOLV.lig_0>
-70.7393

>  <SCORE.INTRA.VDW>
9.4513

>  <SCORE.INTRA.VDW.0>
-3.23471

>  <SCORE.INTRA.norm>
0.119626

>  <SCORE.RESTR>
7.43527

>  <SCORE.RESTR.CAVITY>
7.43527

>  <SCORE.RESTR.norm>
0.218684

>  <SCORE.SYSTEM>
0

>  <SCORE.SYSTEM.CONST>
0

>  <SCORE.SYSTEM.DIHEDRAL>
0

>  <SCORE.SYSTEM.SOLV>
0

>  <SCORE.SYSTEM.norm>
0

>  <SCORE.heavy>
34

>  <SCORE.norm>
0.575932

>  <RMSD>
22.941

$$$$
lig.pdb
 OpenBabel11021811503D
libRbt.so/2013.1/901 2013/11/27
 34 36  0  0  0  0  0  0  0  0999 V2000
   10.6405   12.7275   17.6592 C   0  0  2  0  0  0  0  0  0  0  0  0
   11.3448   13.9166   17.2848 O   0  0  0  0  0  0  0  0  0  0  0  0
   11.7000   11.6382   18.1198 C   0  0  2  0  0  0  0  0  0  0  0  0
   12.4944   12.0995   19.2822 N   0  0  0  0  0  0  0  0  0  0  0  0
   12.6420   11.3031   16.9361 C   0  0  1  0  0  0  0  0  0  0  0  0
   13.5997   10.3177   17.3301 O   0  0  0  0  0  0  0  0  0  0  0  0
   11.7876   10.8124   15.7538 C   0  0  2  0  0  0  0  0  0  0  0  0
   12.6448   10.4961   14.6557 O   0  0  0  0  0  0  0  0  0  0  0  0
   10.7464   11.9263   15.3522 C   0  0  2  0  0  0  0  0  0  0  0  0
    9.8745   12.2653   16.4971 O   0  0  0  0  0  0  0  0  0  0  0  0
    9.8502   11.4706   14.1739 C   0  0  2  0  0  0  0  0  0  0  0  0
   10.6645   10.9729   13.1105 O   0  0  0  0  0  0  0  0  0  0  0  0
    9.0107   12.6227   13.6442 C   0  0  0  0  0  0  0  0  0  0  0  0
    9.2336   16.8850   19.5316 C   0  0  2  0  0  0  0  0  0  0  0  0
    8.6507   18.1678   19.9329 N   0  0  0  0  0  0  0  0  0  0  0  0
   10.7366   17.1366   19.2290 C   0  0  0  0  0  0  0  0  0  0  0  0
   11.3785   15.7818   18.8248 C   0  0  2  0  0  0  0  0  0  0  0  0
   12.8082   15.9718   18.5335 N   0  0  0  0  0  0  0  0  0  0  0  0
   10.6783   15.1868   17.5737 C   0  0  2  0  0  0  0  0  0  0  0  0
    9.1618   14.9859   17.8861 C   0  0  2  0  0  0  0  0  0  0  0  0
    8.5137   14.4469   16.7259 O   0  0  0  0  0  0  0  0  0  0  0  0
    8.4901   16.3342   18.2426 C   0  0  1  0  0  0  0  0  0  0  0  0
    7.0961   16.0601   18.5280 O   0  0  0  0  0  0  0  0  0  0  0  0
    6.2723   17.2090   18.8364 C   0  0  2  0  0  0  0  0  0  0  0  0
    5.7601   16.9976   20.3096 C   0  0  2  0  0  0  0  0  0  0  0  0
    6.8639   16.9302   21.1986 O   0  0  0  0  0  0  0  0  0  0  0  0
    4.9055   15.6752   20.3700 C   0  0  1  0  0  0  0  0  0  0  0  0
    4.4054   15.4284   21.7568 N   0  0  0  0  0  0  0  0  0  0  0  0
    5.3844   14.5849   22.4755 C   0  0  0  0  0  0  0  0  0  0  0  0
    3.7088   15.8142   19.3805 C   0  0  2  0  0  0  0  0  0  0  0  0
    2.9068   16.9226   19.7855 O   0  0  0  0  0  0  0  0  0  0  0  0
    2.8317   14.5648   19.3724 C   0  0  0  0  0  0  0  0  0  0  0  0
    4.2611   16.0743   17.9423 C   0  0  0  0  0  0  0  0  0  0  0  0
    5.1199   17.2770   17.9155 O   0  0  0  0  0  0  0  0  0  0  0  0
  1  3  1  0  0  0  0
  1  2  1  6  0  0  0
  3  5  1  0  0  0  0
  3  4  1  1  0  0  0
  5  6  1  1  0  0  0
  7  8  1  6  0  0  0
  7  5  1  0  0  0  0
  9 10  1  1  0  0  0
  9  7  1  0  0  0  0
 10  1  1  0  0  0  0
 11 13  1  6  0  0  0
 11  9  1  0  0  0  0
 12 11  1  0  0  0  0
 14 15  1  6  0  0  0
 16 14  1  0  0  0  0
 17 18  1  6  0  0  0
 17 16  1  0  0  0  0
 19  2  1  1  0  0  0
 19 20  1  0  0  0  0
 19 17  1  0  0  0  0
 20 21  1  6  0  0  0
 20 22  1  0  0  0  0
 22 23  1  1  0  0  0
 22 14  1  0  0  0  0
 24 23  1  6  0  0  0
 24 25  1  0  0  0  0
 25 27  1  0  0  0  0
 25 26  1  1  0  0  0
 27 28  1  1  0  0  0
 28 29  1  0  0  0  0
 30 31  1  1  0  0  0
 30 32  1  0  0  0  0
 30 27  1  0  0  0  0
 33 30  1  0  0  0  0
 34 33  1  0  0  0  0
 34 24  1  0  0  0  0
M  END
>  <CHROM.1>
-145.63138096,-50.40560903,103.61691126,66.20423357,-117.66069483,-91.50379522
8.69560804,14.41931498,18.03608044,-0.73162951,-0.10965286,0.82580389

>  <Name>
lig.pdb

>  <RI>
0

>  <Rbt.Current_Directory>
/home/itssahil/PROJECTS/Mol_Feturizer/New_Systems/rnas/4k32

>  <Rbt.Executable>
rbdock ($Id: //depot/dev/client3/rdock/2013.1/src/exe/rbdock.cxx#4 $)

>  <Rbt.Library>
libRbt.so (2013.1, Build901 2013/11/27)

>  <Rbt.Parameter_File>
/export/apps/rDock/src/rDock_2013.1_src/data/scripts/dock_solv.prm

>  <Rbt.Receptor>
prm/blind_docking_80.prm

>  <SCORE>
20.0646

>  <SCORE.INTER>
7.77161

>  <SCORE.INTER.CONST>
1

>  <SCORE.INTER.POLAR>
0

>  <SCORE.INTER.ROT>
6

>  <SCORE.INTER.SOLV>
24.7837

>  <SCORE.INTER.VDW>
-10.6802

>  <SCORE.INTER.norm>
0.228577

>  <SCORE.INTRA>
4.32346

>  <SCORE.INTRA.DIHEDRAL>
0.768418

>  <SCORE.INTRA.DIHEDRAL.0>
18.0069

>  <SCORE.INTRA.POLAR>
0

>  <SCORE.INTRA.POLAR.0>
0

>  <SCORE.INTRA.REPUL>
0

>  <SCORE.INTRA.REPUL.0>
0

>  <SCORE.INTRA.SOLV>
1.28953

>  <SCORE.INTRA.SOLV.lig_0>
-70.7393

>  <SCORE.INTRA.VDW>
3.29449

>  <SCORE.INTRA.VDW.0>
-3.23471

>  <SCORE.INTRA.norm>
0.127161

>  <SCORE.RESTR>
7.96949

>  <SCORE.RESTR.CAVITY>
7.96949

>  <SCORE.RESTR.norm>
0.234397

>  <SCORE.SYSTEM>
0

>  <SCORE.SYSTEM.CONST>
0

>  <SCORE.SYSTEM.DIHEDRAL>
0

>  <SCORE.SYSTEM.SOLV>
0

>  <SCORE.SYSTEM.norm>
0

>  <SCORE.heavy>
34

>  <SCORE.norm>
0.590134

>  <RMSD>
23.000

$$$$
lig.pdb
 OpenBabel11021811503D
libRbt.so/2013.1/901 2013/11/27
 34 36  0  0  0  0  0  0  0  0999 V2000
   10.8349   11.1610   18.1786 C   0  0  2  0  0  0  0  0  0  0  0  0
   11.4267   12.4161   18.5316 O   0  0  0  0  0  0  0  0  0  0  0  0
   11.9423   10.0296   18.3003 C   0  0  2  0  0  0  0  0  0  0  0  0
   12.4753    9.9267   19.6788 N   0  0  0  0  0  0  0  0  0  0  0  0
   13.0954   10.3289   17.3094 C   0  0  1  0  0  0  0  0  0  0  0  0
   14.1001    9.3159   17.3997 O   0  0  0  0  0  0  0  0  0  0  0  0
   12.5108   10.4126   15.8882 C   0  0  2  0  0  0  0  0  0  0  0  0
   13.5648   10.6846   14.9633 O   0  0  0  0  0  0  0  0  0  0  0  0
   11.4086   11.5389   15.8326 C   0  0  2  0  0  0  0  0  0  0  0  0
   10.3298   11.2643   16.8055 O   0  0  0  0  0  0  0  0  0  0  0  0
   10.7779   11.6498   14.4223 C   0  0  2  0  0  0  0  0  0  0  0  0
    9.8578   12.7425   14.3879 O   0  0  0  0  0  0  0  0  0  0  0  0
   10.0336   10.3765   14.0513 C   0  0  0  0  0  0  0  0  0  0  0  0
    9.5714   16.2559   18.8931 C   0  0  2  0  0  0  0  0  0  0  0  0
    8.9457   17.5334   18.5430 N   0  0  0  0  0  0  0  0  0  0  0  0
   10.9083   16.1669   18.1064 C   0  0  0  0  0  0  0  0  0  0  0  0
   11.5993   14.8285   18.4833 C   0  0  2  0  0  0  0  0  0  0  0  0
   12.8764   14.7037   17.7634 N   0  0  0  0  0  0  0  0  0  0  0  0
   10.6946   13.6176   18.1298 C   0  0  2  0  0  0  0  0  0  0  0  0
    9.3407   13.7526   18.8956 C   0  0  2  0  0  0  0  0  0  0  0  0
    8.5014   12.6395   18.5594 O   0  0  0  0  0  0  0  0  0  0  0  0
    8.6102   15.0576   18.4959 C   0  0  1  0  0  0  0  0  0  0  0  0
    7.3767   15.1117   19.2544 O   0  0  0  0  0  0  0  0  0  0  0  0
    7.0639   16.3834   19.8697 C   0  0  2  0  0  0  0  0  0  0  0  0
    6.0714   16.0665   21.0495 C   0  0  2  0  0  0  0  0  0  0  0  0
    6.6975   15.2060   21.9881 O   0  0  0  0  0  0  0  0  0  0  0  0
    4.7687   15.4051   20.4593 C   0  0  1  0  0  0  0  0  0  0  0  0
    3.7990   15.0769   21.5484 N   0  0  0  0  0  0  0  0  0  0  0  0
    3.6592   13.6075   21.6378 C   0  0  0  0  0  0  0  0  0  0  0  0
    4.1259   16.3988   19.4444 C   0  0  2  0  0  0  0  0  0  0  0  0
    3.7837   17.5998   20.1345 O   0  0  0  0  0  0  0  0  0  0  0  0
    2.8566   15.8273   18.8177 C   0  0  0  0  0  0  0  0  0  0  0  0
    5.1618   16.7255   18.3214 C   0  0  0  0  0  0  0  0  0  0  0  0
    6.4069   17.2777   18.8955 O   0  0  0  0  0  0  0  0  0  0  0  0
  1  3  1  0  0  0  0
  1  2  1  6  0  0  0
  3  5  1  0  0  0  0
  3  4  1  1  0  0  0
  5  6  1  6  0  0  0
  7  8  1  6  0  0  0
  7  5  1  0  0  0  0
  9 10  1  1  0  0  0
  9  7  1  0  0  0  0
 10  1  1  0  0  0  0
 11 13  1  1  0  0  0
 11  9  1  0  0  0  0
 12 11  1  0  0  0  0
 14 15  1  6  0  0  0
 16 14  1  0  0  0  0
 17 18  1  6  0  0  0
 17 16  1  0  0  0  0
 19  2  1  1  0  0  0
 19 20  1  0  0  0  0
 19 17  1  0  0  0  0
 20 21  1  6  0  0  0
 20 22  1  0  0  0  0
 22 23  1  1  0  0  0
 22 14  1  0  0  0  0
 24 23  1  6  0  0  0
 24 25  1  0  0  0  0
 25 27  1  0  0  0  0
 25 26  1  1  0  0  0
 27 28  1  1  0  0  0
 28 29  1  0  0  0  0
 30 31  1  1  0  0  0
 30 32  1  0  0  0  0
 30 27  1  0  0  0  0
 33 30  1  0  0  0  0
 34 33  1  0  0  0  0
 34 24  1  0  0  0  0
M  END
>  <CHROM.1>
163.41358153,-175.78288896,-174.05942237,18.51068987,-157.89350897,-113.84564234
8.95730310,13.72324840,18.31427152,0.56613032,-0.45723745,3.13644146

>  <Name>
lig.pdb

>  <RI>
0

>  <Rbt.Current_Directory>
/home/itssahil/PROJECTS/Mol_Feturizer/New_Systems/rnas/4k32

>  <Rbt.Executable>
rbdock ($Id: //depot/dev/client3/rdock/2013.1/src/exe/rbdock.cxx#4 $)

>  <Rbt.Library>
libRbt.so (2013.1, Build901 2013/11/27)

>  <Rbt.Parameter_File>
/export/apps/rDock/src/rDock_2013.1_src/data/scripts/dock_solv.prm

>  <Rbt.Receptor>
prm/blind_docking_80.prm

>  <SCORE>
18.5267

>  <SCORE.INTER>
7.16366

>  <SCORE.INTER.CONST>
1

>  <SCORE.INTER.POLAR>
0

>  <SCORE.INTER.ROT>
6

>  <SCORE.INTER.SOLV>
21.7531

>  <SCORE.INTER.VDW>
-10.0752

>  <SCORE.INTER.norm>
0.210696

>  <SCORE.INTRA>
0.732436

>  <SCORE.INTRA.DIHEDRAL>
-7.53889

>  <SCORE.INTRA.DIHEDRAL.0>
18.0069

>  <SCORE.INTRA.POLAR>
0

>  <SCORE.INTRA.POLAR.0>
0

>  <SCORE.INTRA.REPUL>
0

>  <SCORE.INTRA.REPUL.0>
0

>  <SCORE.INTRA.SOLV>
-0.406769

>  <SCORE.INTRA.SOLV.lig_0>
-70.7393

>  <SCORE.INTRA.VDW>
4.70526

>  <SCORE.INTRA.VDW.0>
-3.23471

>  <SCORE.INTRA.norm>
0.0215422

>  <SCORE.RESTR>
10.6306

>  <SCORE.RESTR.CAVITY>
10.6306

>  <SCORE.RESTR.norm>
0.312664

>  <SCORE.SYSTEM>
0

>  <SCORE.SYSTEM.CONST>
0

>  <SCORE.SYSTEM.DIHEDRAL>
0

>  <SCORE.SYSTEM.SOLV>
0

>  <SCORE.SYSTEM.norm>
0

>  <SCORE.heavy>
34

>  <SCORE.norm>
0.544903

>  <RMSD>
23.044

$$$$
lig.pdb
 OpenBabel11021811503D
libRbt.so/2013.1/901 2013/11/27
 34 36  0  0  0  0  0  0  0  0999 V2000
    5.4259   15.0893   18.3391 C   0  0  2  0  0  0  0  0  0  0  0  0
    6.4940   16.0076   18.0819 O   0  0  0  0  0  0  0  0  0  0  0  0
    4.1110   15.9214   18.6553 C   0  0  2  0  0  0  0  0  0  0  0  0
    3.7216   16.7888   17.5190 N   0  0  0  0  0  0  0  0  0  0  0  0
    4.3389   16.7828   19.9230 C   0  0  1  0  0  0  0  0  0  0  0  0
    3.1620   17.5348   20.2278 O   0  0  0  0  0  0  0  0  0  0  0  0
    4.7248   15.8510   21.0855 C   0  0  2  0  0  0  0  0  0  0  0  0
    4.9343   16.6325   22.2627 O   0  0  0  0  0  0  0  0  0  0  0  0
    6.0244   15.0414   20.7087 C   0  0  2  0  0  0  0  0  0  0  0  0
    5.8099   14.2497   19.4786 O   0  0  0  0  0  0  0  0  0  0  0  0
    6.4433   14.0752   21.8446 C   0  0  2  0  0  0  0  0  0  0  0  0
    6.8980   14.8235   22.9737 O   0  0  0  0  0  0  0  0  0  0  0  0
    7.5619   13.1489   21.3936 C   0  0  0  0  0  0  0  0  0  0  0  0
   10.7290   15.5049   18.4403 C   0  0  2  0  0  0  0  0  0  0  0  0
   12.0609   15.3257   19.0235 N   0  0  0  0  0  0  0  0  0  0  0  0
   10.0823   16.7335   19.1377 C   0  0  0  0  0  0  0  0  0  0  0  0
    8.6772   16.9548   18.5151 C   0  0  2  0  0  0  0  0  0  0  0  0
    8.0278   18.1158   19.1437 N   0  0  0  0  0  0  0  0  0  0  0  0
    7.7805   15.7026   18.7086 C   0  0  2  0  0  0  0  0  0  0  0  0
    8.4720   14.4727   18.0401 C   0  0  2  0  0  0  0  0  0  0  0  0
    7.6482   13.3142   18.2294 O   0  0  0  0  0  0  0  0  0  0  0  0
    9.8547   14.2029   18.6816 C   0  0  1  0  0  0  0  0  0  0  0  0
   10.4309   13.0605   18.0014 O   0  0  0  0  0  0  0  0  0  0  0  0
   11.4083   13.3571   16.9765 C   0  0  2  0  0  0  0  0  0  0  0  0
   11.4235   12.1127   16.0128 C   0  0  2  0  0  0  0  0  0  0  0  0
   10.1404   11.9361   15.4334 O   0  0  0  0  0  0  0  0  0  0  0  0
   11.8536   10.8366   16.8310 C   0  0  1  0  0  0  0  0  0  0  0  0
   11.8721    9.6253   15.9554 N   0  0  0  0  0  0  0  0  0  0  0  0
   12.5603    9.9598   14.6901 C   0  0  0  0  0  0  0  0  0  0  0  0
   13.2689   11.0896   17.4338 C   0  0  2  0  0  0  0  0  0  0  0  0
   14.1890   11.3070   16.3653 O   0  0  0  0  0  0  0  0  0  0  0  0
   13.7576    9.8976   18.2529 C   0  0  0  0  0  0  0  0  0  0  0  0
   13.2196   12.3614   18.3401 C   0  0  0  0  0  0  0  0  0  0  0  0
   12.7452   13.5354   17.5776 O   0  0  0  0  0  0  0  0  0  0  0  0
  1  3  1  0  0  0  0
  1  2  1  1  0  0  0
  3  5  1  0  0  0  0
  3  4  1  6  0  0  0
  5  6  1  1  0  0  0
  7  8  1  1  0  0  0
  7  5  1  0  0  0  0
  9 10  1  6  0  0  0
  9  7  1  0  0  0  0
 10  1  1  0  0  0  0
 11 13  1  6  0  0  0
 11  9  1  0  0  0  0
 12 11  1  0  0  0  0
 14 15  1  1  0  0  0
 16 14  1  0  0  0  0
 17 18  1  1  0  0  0
 17 16  1  0  0  0  0
 19  2  1  6  0  0  0
 19 20  1  0  0  0  0
 19 17  1  0  0  0  0
 20 21  1  1  0  0  0
 20 22  1  0  0  0  0
 22 23  1  6  0  0  0
 22 14  1  0  0  0  0
 24 23  1  1  0  0  0
 24 25  1  0  0  0  0
 25 27  1  0  0  0  0
 25 26  1  1  0  0  0
 27 28  1  6  0  0  0
 28 29  1  0  0  0  0
 30 31  1  6  0  0  0
 30 32  1  0  0  0  0
 30 27  1  0  0  0  0
 33 30  1  0  0  0  0
 34 33  1  0  0  0  0
 34 24  1  0  0  0  0
M  END
>  <CHROM.1>
135.99365821,-68.53733432,-169.35669926,-16.49038704,-156.68024113,45.88756788
8.81809413,14.13768409,18.60438164,2.56423122,-0.34877748,1.09947664

>  <Name>
lig.pdb

>  <RI>
0

>  <Rbt.Current_Directory>
/home/itssahil/PROJECTS/Mol_Feturizer/New_Systems/rnas/4k32

>  <Rbt.Executable>
rbdock ($Id: //depot/dev/client3/rdock/2013.1/src/exe/rbdock.cxx#4 $)

>  <Rbt.Library>
libRbt.so (2013.1, Build901 2013/11/27)

>  <Rbt.Parameter_File>
/export/apps/rDock/src/rDock_2013.1_src/data/scripts/dock_solv.prm

>  <Rbt.Receptor>
prm/blind_docking_80.prm

>  <SCORE>
20.7218

>  <SCORE.INTER>
3.71667

>  <SCORE.INTER.CONST>
1

>  <SCORE.INTER.POLAR>
0

>  <SCORE.INTER.ROT>
6

>  <SCORE.INTER.SOLV>
21.4489

>  <SCORE.INTER.VDW>
-12.2718

>  <SCORE.INTER.norm>
0.109314

>  <SCORE.INTRA>
11.3846

>  <SCORE.INTRA.DIHEDRAL>
-2.7559

>  <SCORE.INTRA.DIHEDRAL.0>
18.0069

>  <SCORE.INTRA.POLAR>
0

>  <SCORE.INTRA.POLAR.0>
0

>  <SCORE.INTRA.REPUL>
0

>  <SCORE.INTRA.REPUL.0>
0

>  <SCORE.INTRA.SOLV>
1.2264

>  <SCORE.INTRA.SOLV.lig_0>
-70.7393

>  <SCORE.INTRA.VDW>
12.1493

>  <SCORE.INTRA.VDW.0>
-3.23471

>  <SCORE.INTRA.norm>
0.334841

>  <SCORE.RESTR>
5.62058

>  <SCORE.RESTR.CAVITY>
5.62058

>  <SCORE.RESTR.norm>
0.165311

>  <SCORE.SYSTEM>
0

>  <SCORE.SYSTEM.CONST>
0

>  <SCORE.SYSTEM.DIHEDRAL>
0

>  <SCORE.SYSTEM.SOLV>
0

>  <SCORE.SYSTEM.norm>
0

>  <SCORE.heavy>
34

>  <SCORE.norm>
0.609465

>  <RMSD>
23.097

$$$$
lig.pdb
 OpenBabel11021811503D
libRbt.so/2013.1/901 2013/11/27
 34 36  0  0  0  0  0  0  0  0999 V2000
    5.8065   15.1617   18.0884 C   0  0  2  0  0  0  0  0  0  0  0  0
    6.8315   16.1467   17.9177 O   0  0  0  0  0  0  0  0  0  0  0  0
    4.4492   15.9035   18.4471 C   0  0  2  0  0  0  0  0  0  0  0  0
    4.0310   16.8358   17.3743 N   0  0  0  0  0  0  0  0  0  0  0  0
    4.6206   16.6751   19.7798 C   0  0  1  0  0  0  0  0  0  0  0  0
    3.4052   17.3447   20.1232 O   0  0  0  0  0  0  0  0  0  0  0  0
    5.0381   15.6765   20.8739 C   0  0  2  0  0  0  0  0  0  0  0  0
    5.1961   16.3747   22.1100 O   0  0  0  0  0  0  0  0  0  0  0  0
    6.3798   14.9609   20.4562 C   0  0  2  0  0  0  0  0  0  0  0  0
    6.2180   14.2565   19.1665 O   0  0  0  0  0  0  0  0  0  0  0  0
    6.8323   13.9317   21.5216 C   0  0  2  0  0  0  0  0  0  0  0  0
    8.0777   13.3487   21.1333 O   0  0  0  0  0  0  0  0  0  0  0  0
    5.8060   12.8212   21.6837 C   0  0  0  0  0  0  0  0  0  0  0  0
   11.0685   16.0830   18.5180 C   0  0  2  0  0  0  0  0  0  0  0  0
   12.3769   15.9517   19.1637 N   0  0  0  0  0  0  0  0  0  0  0  0
   10.2288   17.0699   19.3751 C   0  0  0  0  0  0  0  0  0  0  0  0
    8.8447   17.2413   18.6926 C   0  0  2  0  0  0  0  0  0  0  0  0
    8.0150   18.1753   19.4698 N   0  0  0  0  0  0  0  0  0  0  0  0
    8.1089   15.8792   18.5792 C   0  0  2  0  0  0  0  0  0  0  0  0
    8.9915   14.8907   17.7537 C   0  0  2  0  0  0  0  0  0  0  0  0
    8.3160   13.6292   17.6594 O   0  0  0  0  0  0  0  0  0  0  0  0
   10.3587   14.6658   18.4440 C   0  0  1  0  0  0  0  0  0  0  0  0
   11.1165   13.7513   17.6138 O   0  0  0  0  0  0  0  0  0  0  0  0
   12.3119   13.1941   18.2088 C   0  0  2  0  0  0  0  0  0  0  0  0
   13.1679   12.6223   17.0181 C   0  0  2  0  0  0  0  0  0  0  0  0
   13.5058   13.6688   16.1214 O   0  0  0  0  0  0  0  0  0  0  0  0
   12.3413   11.4977   16.2869 C   0  0  1  0  0  0  0  0  0  0  0  0
   13.1137   10.9315   15.1393 N   0  0  0  0  0  0  0  0  0  0  0  0
   12.2206   10.8298   13.9651 C   0  0  0  0  0  0  0  0  0  0  0  0
   12.0085   10.3781   17.3195 C   0  0  2  0  0  0  0  0  0  0  0  0
   13.2311    9.8316   17.8115 O   0  0  0  0  0  0  0  0  0  0  0  0
   11.1973    9.2487   16.6895 C   0  0  0  0  0  0  0  0  0  0  0  0
   11.2052   10.9991   18.5070 C   0  0  0  0  0  0  0  0  0  0  0  0
   11.9619   12.1009   19.1379 O   0  0  0  0  0  0  0  0  0  0  0  0
  1  3  1  0  0  0  0
  1  2  1  1  0  0  0
  3  5  1  0  0  0  0
  3  4  1  6  0  0  0
  5  6  1  1  0  0  0
  7  8  1  1  0  0  0
  7  5  1  0  0  0  0
  9 10  1  6  0  0  0
  9  7  1  0  0  0  0
 10  1  1  0  0  0  0
 11 13  1  6  0  0  0
 11  9  1  0  0  0  0
 12 11  1  0  0  0  0
 14 15  1  1  0  0  0
 16 14  1  0  0  0  0
 17 18  1  1  0  0  0
 17 16  1  0  0  0  0
 19  2  1  6  0  0  0
 19 20  1  0  0  0  0
 19 17  1  0  0  0  0
 20 21  1  1  0  0  0
 20 22  1  0  0  0  0
 22 23  1  6  0  0  0
 22 14  1  0  0  0  0
 24 23  1  6  0  0  0
 24 25  1  0  0  0  0
 25 27  1  0  0  0  0
 25 26  1  6  0  0  0
 27 28  1  6  0  0  0
 28 29  1  0  0  0  0
 30 31  1  1  0  0  0
 30 32  1  0  0  0  0
 30 27  1  0  0  0  0
 33 30  1  0  0  0  0
 34 33  1  0  0  0  0
 34 24  1  0  0  0  0
M  END
>  <CHROM.1>
133.84780213,-177.54043621,-160.12474975,76.11133581,-162.93791774,-134.45173306
9.01041548,14.14825312,18.53964949,2.62086347,0.43016018,-0.03391951

>  <Name>
lig.pdb

>  <RI>
0

>  <Rbt.Current_Directory>
/home/itssahil/PROJECTS/Mol_Feturizer/New_Systems/rnas/4k32

>  <Rbt.Executable>
rbdock ($Id: //depot/dev/client3/rdock/2013.1/src/exe/rbdock.cxx#4 $)

>  <Rbt.Library>
libRbt.so (2013.1, Build901 2013/11/27)

>  <Rbt.Parameter_File>
/export/apps/rDock/src/rDock_2013.1_src/data/scripts/dock_solv.prm

>  <Rbt.Receptor>
prm/blind_docking_80.prm

>  <SCORE>
10.326

>  <SCORE.INTER>
4.29801

>  <SCORE.INTER.CONST>
1

>  <SCORE.INTER.POLAR>
0

>  <SCORE.INTER.ROT>
6

>  <SCORE.INTER.SOLV>
25.4072

>  <SCORE.INTER.VDW>
-13.2037

>  <SCORE.INTER.norm>
0.126412

>  <SCORE.INTRA>
0.0332295

>  <SCORE.INTRA.DIHEDRAL>
-6.27281

>  <SCORE.INTRA.DIHEDRAL.0>
18.0069

>  <SCORE.INTRA.POLAR>
0

>  <SCORE.INTRA.POLAR.0>
0

>  <SCORE.INTRA.REPUL>
0

>  <SCORE.INTRA.REPUL.0>
0

>  <SCORE.INTRA.SOLV>
0.199794

>  <SCORE.INTRA.SOLV.lig_0>
-70.7393

>  <SCORE.INTRA.VDW>
3.06974

>  <SCORE.INTRA.VDW.0>
-3.23471

>  <SCORE.INTRA.norm>
0.000977338

>  <SCORE.RESTR>
5.99476

>  <SCORE.RESTR.CAVITY>
5.99476

>  <SCORE.RESTR.norm>
0.176316

>  <SCORE.SYSTEM>
0

>  <SCORE.SYSTEM.CONST>
0

>  <SCORE.SYSTEM.DIHEDRAL>
0

>  <SCORE.SYSTEM.SOLV>
0

>  <SCORE.SYSTEM.norm>
0

>  <SCORE.heavy>
34

>  <SCORE.norm>
0.303706

>  <RMSD>
23.228

$$$$
lig.pdb
 OpenBabel11021811503D
libRbt.so/2013.1/901 2013/11/27
 34 36  0  0  0  0  0  0  0  0999 V2000
    5.3663   15.5927   18.1516 C   0  0  2  0  0  0  0  0  0  0  0  0
    6.4987   16.4650   18.2361 O   0  0  0  0  0  0  0  0  0  0  0  0
    4.0565   16.4359   18.4591 C   0  0  2  0  0  0  0  0  0  0  0  0
    3.8722   17.5405   17.4890 N   0  0  0  0  0  0  0  0  0  0  0  0
    4.1362   17.0050   19.8981 C   0  0  1  0  0  0  0  0  0  0  0  0
    2.9610   17.7624   20.1960 O   0  0  0  0  0  0  0  0  0  0  0  0
    4.3105   15.8324   20.8796 C   0  0  2  0  0  0  0  0  0  0  0  0
    4.3817   16.3431   22.2118 O   0  0  0  0  0  0  0  0  0  0  0  0
    5.6149   15.0245   20.5161 C   0  0  2  0  0  0  0  0  0  0  0  0
    5.5460   14.5150   19.1299 O   0  0  0  0  0  0  0  0  0  0  0  0
    5.8242   13.8214   21.4689 C   0  0  2  0  0  0  0  0  0  0  0  0
    5.7182   14.2547   22.8264 O   0  0  0  0  0  0  0  0  0  0  0  0
    7.1933   13.1912   21.2659 C   0  0  0  0  0  0  0  0  0  0  0  0
   10.6533   15.4996   17.8852 C   0  0  2  0  0  0  0  0  0  0  0  0
   11.9939   15.0008   18.2021 N   0  0  0  0  0  0  0  0  0  0  0  0
   10.2205   16.4301   19.0517 C   0  0  0  0  0  0  0  0  0  0  0  0
    8.8097   16.9888   18.7222 C   0  0  2  0  0  0  0  0  0  0  0  0
    8.3603   17.8829   19.8009 N   0  0  0  0  0  0  0  0  0  0  0  0
    7.7820   15.8378   18.5530 C   0  0  2  0  0  0  0  0  0  0  0  0
    8.2614   14.8914   17.4075 C   0  0  2  0  0  0  0  0  0  0  0  0
    7.3172   13.8221   17.2597 O   0  0  0  0  0  0  0  0  0  0  0  0
    9.6455   14.2828   17.7395 C   0  0  1  0  0  0  0  0  0  0  0  0
   10.0207   13.4316   16.6284 O   0  0  0  0  0  0  0  0  0  0  0  0
    9.8738   12.0078   16.8403 C   0  0  2  0  0  0  0  0  0  0  0  0
   11.3306   11.4389   17.0173 C   0  0  2  0  0  0  0  0  0  0  0  0
   11.9504   12.0428   18.1418 O   0  0  0  0  0  0  0  0  0  0  0  0
   12.1527   11.7179   15.7024 C   0  0  1  0  0  0  0  0  0  0  0  0
   13.5499   11.2021   15.8295 N   0  0  0  0  0  0  0  0  0  0  0  0
   14.3766   12.2222   16.5097 C   0  0  0  0  0  0  0  0  0  0  0  0
   11.4271   11.0250   14.5091 C   0  0  2  0  0  0  0  0  0  0  0  0
   11.3794    9.6206   14.7561 O   0  0  0  0  0  0  0  0  0  0  0  0
   12.1590   11.2555   13.1894 C   0  0  0  0  0  0  0  0  0  0  0  0
    9.9707   11.5807   14.4030 C   0  0  0  0  0  0  0  0  0  0  0  0
    9.2340   11.3772   15.6681 O   0  0  0  0  0  0  0  0  0  0  0  0
  1  3  1  0  0  0  0
  1  2  1  1  0  0  0
  3  5  1  0  0  0  0
  3  4  1  6  0  0  0
  5  6  1  1  0  0  0
  7  8  1  1  0  0  0
  7  5  1  0  0  0  0
  9 10  1  6  0  0  0
  9  7  1  0  0  0  0
 10  1  1  0  0  0  0
 11 13  1  1  0  0  0
 11  9  1  0  0  0  0
 12 11  1  0  0  0  0
 14 15  1  1  0  0  0
 16 14  1  0  0  0  0
 17 18  1  1  0  0  0
 17 16  1  0  0  0  0
 19  2  1  6  0  0  0
 19 20  1  0  0  0  0
 19 17  1  0  0  0  0
 20 21  1  1  0  0  0
 20 22  1  0  0  0  0
 22 23  1  6  0  0  0
 22 14  1  0  0  0  0
 24 23  1  6  0  0  0
 24 25  1  0  0  0  0
 25 27  1  0  0  0  0
 25 26  1  1  0  0  0
 27 28  1  1  0  0  0
 28 29  1  0  0  0  0
 30 31  1  1  0  0  0
 30 32  1  0  0  0  0
 30 27  1  0  0  0  0
 33 30  1  0  0  0  0
 34 33  1  0  0  0  0
 34 24  1  0  0  0  0
M  END
>  <CHROM.1>
154.74242800,-50.16237607,-174.66619761,140.65246453,-106.39180256,-84.47952318
8.39879746,14.19095454,18.08764686,2.41114252,-0.18557867,0.98401272

>  <Name>
lig.pdb

>  <RI>
0

>  <Rbt.Current_Directory>
/home/itssahil/PROJECTS/Mol_Feturizer/New_Systems/rnas/4k32

>  <Rbt.Executable>
rbdock ($Id: //depot/dev/client3/rdock/2013.1/src/exe/rbdock.cxx#4 $)

>  <Rbt.Library>
libRbt.so (2013.1, Build901 2013/11/27)

>  <Rbt.Parameter_File>
/export/apps/rDock/src/rDock_2013.1_src/data/scripts/dock_solv.prm

>  <Rbt.Receptor>
prm/blind_docking_80.prm

>  <SCORE>
11.8485

>  <SCORE.INTER>
5.57235

>  <SCORE.INTER.CONST>
1

>  <SCORE.INTER.POLAR>
0

>  <SCORE.INTER.ROT>
6

>  <SCORE.INTER.SOLV>
23.6376

>  <SCORE.INTER.VDW>
-11.7643

>  <SCORE.INTER.norm>
0.163893

>  <SCORE.INTRA>
-0.43639

>  <SCORE.INTRA.DIHEDRAL>
-2.75761

>  <SCORE.INTRA.DIHEDRAL.0>
18.0069

>  <SCORE.INTRA.POLAR>
0

>  <SCORE.INTRA.POLAR.0>
0

>  <SCORE.INTRA.REPUL>
0

>  <SCORE.INTRA.REPUL.0>
0

>  <SCORE.INTRA.SOLV>
-0.179476

>  <SCORE.INTRA.SOLV.lig_0>
-70.7393

>  <SCORE.INTRA.VDW>
1.03215

>  <SCORE.INTRA.VDW.0>
-3.23471

>  <SCORE.INTRA.norm>
-0.012835

>  <SCORE.RESTR>
6.71255

>  <SCORE.RESTR.CAVITY>
6.71255

>  <SCORE.RESTR.norm>
0.197428

>  <SCORE.SYSTEM>
0

>  <SCORE.SYSTEM.CONST>
0

>  <SCORE.SYSTEM.DIHEDRAL>
0

>  <SCORE.SYSTEM.SOLV>
0

>  <SCORE.SYSTEM.norm>
0

>  <SCORE.heavy>
34

>  <SCORE.norm>
0.348486

>  <RMSD>
23.297

$$$$
lig.pdb
 OpenBabel11021811503D
libRbt.so/2013.1/901 2013/11/27
 34 36  0  0  0  0  0  0  0  0999 V2000
   10.9955   11.8064   17.7844 C   0  0  2  0  0  0  0  0  0  0  0  0
   11.8093   12.9846   17.7825 O   0  0  0  0  0  0  0  0  0  0  0  0
   11.9311   10.5480   18.0340 C   0  0  2  0  0  0  0  0  0  0  0  0
   12.6354   10.6347   19.3345 N   0  0  0  0  0  0  0  0  0  0  0  0
   12.9615   10.4357   16.8822 C   0  0  1  0  0  0  0  0  0  0  0  0
   13.8093    9.3030   17.0860 O   0  0  0  0  0  0  0  0  0  0  0  0
   12.1977   10.3309   15.5501 C   0  0  2  0  0  0  0  0  0  0  0  0
   13.1365   10.2229   14.4789 O   0  0  0  0  0  0  0  0  0  0  0  0
   11.2759   11.5968   15.3651 C   0  0  2  0  0  0  0  0  0  0  0  0
   10.3194   11.7164   16.4861 O   0  0  0  0  0  0  0  0  0  0  0  0
   10.4725   11.5284   14.0426 C   0  0  2  0  0  0  0  0  0  0  0  0
    9.6123   10.3876   14.0571 O   0  0  0  0  0  0  0  0  0  0  0  0
   11.3991   11.4225   12.8414 C   0  0  0  0  0  0  0  0  0  0  0  0
   10.0352   16.4890   19.4820 C   0  0  2  0  0  0  0  0  0  0  0  0
    9.4363   17.8201   19.6070 N   0  0  0  0  0  0  0  0  0  0  0  0
   11.3696   16.6555   18.7039 C   0  0  0  0  0  0  0  0  0  0  0  0
   12.0324   15.2567   18.5820 C   0  0  2  0  0  0  0  0  0  0  0  0
   13.3064   15.3675   17.8543 N   0  0  0  0  0  0  0  0  0  0  0  0
   11.1024   14.2647   17.8333 C   0  0  2  0  0  0  0  0  0  0  0  0
    9.7519   14.1489   18.6082 C   0  0  2  0  0  0  0  0  0  0  0  0
    8.8893   13.2411   17.9095 O   0  0  0  0  0  0  0  0  0  0  0  0
    9.0488   15.5252   18.6972 C   0  0  1  0  0  0  0  0  0  0  0  0
    7.8170   15.3339   19.4360 O   0  0  0  0  0  0  0  0  0  0  0  0
    7.1462   16.5379   19.8765 C   0  0  2  0  0  0  0  0  0  0  0  0
    6.0385   16.0745   20.8941 C   0  0  2  0  0  0  0  0  0  0  0  0
    6.6419   15.4155   21.9964 O   0  0  0  0  0  0  0  0  0  0  0  0
    5.0273   15.1212   20.1515 C   0  0  1  0  0  0  0  0  0  0  0  0
    3.9605   14.6471   21.0849 N   0  0  0  0  0  0  0  0  0  0  0  0
    4.5132   13.5724   21.9371 C   0  0  0  0  0  0  0  0  0  0  0  0
    4.3949   15.9028   18.9600 C   0  0  2  0  0  0  0  0  0  0  0  0
    3.6965   17.0352   19.4751 O   0  0  0  0  0  0  0  0  0  0  0  0
    3.4045   15.0424   18.1794 C   0  0  0  0  0  0  0  0  0  0  0  0
    5.5321   16.3878   18.0046 C   0  0  0  0  0  0  0  0  0  0  0  0
    6.5128   17.2216   18.7311 O   0  0  0  0  0  0  0  0  0  0  0  0
  1  3  1  0  0  0  0
  1  2  1  6  0  0  0
  3  5  1  0  0  0  0
  3  4  1  1  0  0  0
  5  6  1  1  0  0  0
  7  8  1  6  0  0  0
  7  5  1  0  0  0  0
  9 10  1  1  0  0  0
  9  7  1  0  0  0  0
 10  1  1  0  0  0  0
 11 13  1  6  0  0  0
 11  9  1  0  0  0  0
 12 11  1  0  0  0  0
 14 15  1  6  0  0  0
 16 14  1  0  0  0  0
 17 18  1  6  0  0  0
 17 16  1  0  0  0  0
 19  2  1  1  0  0  0
 19 20  1  0  0  0  0
 19 17  1  0  0  0  0
 20 21  1  6  0  0  0
 20 22  1  0  0  0  0
 22 23  1  1  0  0  0
 22 14  1  0  0  0  0
 24 23  1  6  0  0  0
 24 25  1  0  0  0  0
 25 27  1  0  0  0  0
 25 26  1  1  0  0  0
 27 28  1  1  0  0  0
 28 29  1  0  0  0  0
 30 31  1  1  0  0  0
 30 32  1  0  0  0  0
 30 27  1  0  0  0  0
 33 30  1  0  0  0  0
 34 33  1  0  0  0  0
 34 24  1  0  0  0  0
M  END
>  <CHROM.1>
-168.22600165,61.68861865,149.36807169,51.32394514,-168.18766471,-77.80190478
9.16324249,13.79726203,18.09176746,-0.75407140,-0.00682539,0.69446758

>  <Name>
lig.pdb

>  <RI>
0

>  <Rbt.Current_Directory>
/home/itssahil/PROJECTS/Mol_Feturizer/New_Systems/rnas/4k32

>  <Rbt.Executable>
rbdock ($Id: //depot/dev/client3/rdock/2013.1/src/exe/rbdock.cxx#4 $)

>  <Rbt.Library>
libRbt.so (2013.1, Build901 2013/11/27)

>  <Rbt.Parameter_File>
/export/apps/rDock/src/rDock_2013.1_src/data/scripts/dock_solv.prm

>  <Rbt.Receptor>
prm/blind_docking_80.prm

>  <SCORE>
18.8742

>  <SCORE.INTER>
7.70059

>  <SCORE.INTER.CONST>
1

>  <SCORE.INTER.POLAR>
0

>  <SCORE.INTER.ROT>
6

>  <SCORE.INTER.SOLV>
22.2129

>  <SCORE.INTER.VDW>
-9.87057

>  <SCORE.INTER.norm>
0.226488

>  <SCORE.INTRA>
1.48876

>  <SCORE.INTRA.DIHEDRAL>
-12.2761

>  <SCORE.INTRA.DIHEDRAL.0>
18.0069

>  <SCORE.INTRA.POLAR>
0

>  <SCORE.INTRA.POLAR.0>
0

>  <SCORE.INTRA.REPUL>
0

>  <SCORE.INTRA.REPUL.0>
0

>  <SCORE.INTRA.SOLV>
-1.14008

>  <SCORE.INTRA.SOLV.lig_0>
-70.7393

>  <SCORE.INTRA.VDW>
8.19684

>  <SCORE.INTRA.VDW.0>
-3.23471

>  <SCORE.INTRA.norm>
0.0437871

>  <SCORE.RESTR>
9.68482

>  <SCORE.RESTR.CAVITY>
9.68482

>  <SCORE.RESTR.norm>
0.284848

>  <SCORE.SYSTEM>
0

>  <SCORE.SYSTEM.CONST>
0

>  <SCORE.SYSTEM.DIHEDRAL>
0

>  <SCORE.SYSTEM.SOLV>
0

>  <SCORE.SYSTEM.norm>
0

>  <SCORE.heavy>
34

>  <SCORE.norm>
0.555123

>  <RMSD>
23.298

$$$$
lig.pdb
 OpenBabel11021811503D
libRbt.so/2013.1/901 2013/11/27
 34 36  0  0  0  0  0  0  0  0999 V2000
   10.7438   11.5201   16.2644 C   0  0  2  0  0  0  0  0  0  0  0  0
   11.0626   12.9136   16.3455 O   0  0  0  0  0  0  0  0  0  0  0  0
   12.0886   10.7080   16.0336 C   0  0  2  0  0  0  0  0  0  0  0  0
   13.0493   10.9065   17.1439 N   0  0  0  0  0  0  0  0  0  0  0  0
   12.7319   11.1470   14.6941 C   0  0  1  0  0  0  0  0  0  0  0  0
   13.9418   10.4207   14.4653 O   0  0  0  0  0  0  0  0  0  0  0  0
   11.7156   10.9125   13.5624 C   0  0  2  0  0  0  0  0  0  0  0  0
   12.2978   11.3099   12.3200 O   0  0  0  0  0  0  0  0  0  0  0  0
   10.3985   11.7291   13.8535 C   0  0  2  0  0  0  0  0  0  0  0  0
    9.8101   11.3293   15.1496 O   0  0  0  0  0  0  0  0  0  0  0  0
    9.3366   11.5111   12.7471 C   0  0  2  0  0  0  0  0  0  0  0  0
    8.1429   12.2250   13.0743 O   0  0  0  0  0  0  0  0  0  0  0  0
    8.9948   10.0370   12.5961 C   0  0  0  0  0  0  0  0  0  0  0  0
    8.1914   14.0174   19.3211 C   0  0  2  0  0  0  0  0  0  0  0  0
    7.5860   14.6321   20.5051 N   0  0  0  0  0  0  0  0  0  0  0  0
    9.4766   13.2814   19.7904 C   0  0  0  0  0  0  0  0  0  0  0  0
   10.1206   12.6019   18.5516 C   0  0  2  0  0  0  0  0  0  0  0  0
   11.3422   11.8858   18.9512 N   0  0  0  0  0  0  0  0  0  0  0  0
   10.4776   13.6517   17.4652 C   0  0  2  0  0  0  0  0  0  0  0  0
    9.1794   14.4094   17.0430 C   0  0  2  0  0  0  0  0  0  0  0  0
    9.5124   15.3868   16.0477 O   0  0  0  0  0  0  0  0  0  0  0  0
    8.5481   15.1370   18.2547 C   0  0  1  0  0  0  0  0  0  0  0  0
    7.3499   15.8016   17.7831 O   0  0  0  0  0  0  0  0  0  0  0  0
    7.3081   17.2372   17.9586 C   0  0  2  0  0  0  0  0  0  0  0  0
    7.4664   17.4942   19.5034 C   0  0  2  0  0  0  0  0  0  0  0  0
    8.7098   16.9790   19.9528 O   0  0  0  0  0  0  0  0  0  0  0  0
    6.2657   16.8116   20.2618 C   0  0  1  0  0  0  0  0  0  0  0  0
    6.3805   17.0219   21.7372 N   0  0  0  0  0  0  0  0  0  0  0  0
    5.8738   15.8194   22.4328 C   0  0  0  0  0  0  0  0  0  0  0  0
    4.9336   17.4231   19.7306 C   0  0  2  0  0  0  0  0  0  0  0  0
    4.9352   18.8246   19.9979 O   0  0  0  0  0  0  0  0  0  0  0  0
    3.7149   16.8061   20.4122 C   0  0  0  0  0  0  0  0  0  0  0  0
    4.8430   17.1914   18.1882 C   0  0  0  0  0  0  0  0  0  0  0  0
    6.0123   17.7739   17.4967 O   0  0  0  0  0  0  0  0  0  0  0  0
  1  3  1  0  0  0  0
  1  2  1  6  0  0  0
  3  5  1  0  0  0  0
  3  4  1  1  0  0  0
  5  6  1  6  0  0  0
  7  8  1  6  0  0  0
  7  5  1  0  0  0  0
  9 10  1  1  0  0  0
  9  7  1  0  0  0  0
 10  1  1  0  0  0  0
 11 13  1  1  0  0  0
 11  9  1  0  0  0  0
 12 11  1  0  0  0  0
 14 15  1  1  0  0  0
 16 14  1  0  0  0  0
 17 18  1  1  0  0  0
 17 16  1  0  0  0  0
 19  2  1  6  0  0  0
 19 20  1  0  0  0  0
 19 17  1  0  0  0  0
 20 21  1  6  0  0  0
 20 22  1  0  0  0  0
 22 23  1  6  0  0  0
 22 14  1  0  0  0  0
 24 23  1  1  0  0  0
 24 25  1  0  0  0  0
 25 27  1  0  0  0  0
 25 26  1  1  0  0  0
 27 28  1  1  0  0  0
 28 29  1  0  0  0  0
 30 31  1  1  0  0  0
 30 32  1  0  0  0  0
 30 27  1  0  0  0  0
 33 30  1  0  0  0  0
 34 33  1  0  0  0  0
 34 24  1  0  0  0  0
M  END
>  <CHROM.1>
-131.85033340,177.75752443,21.66390254,122.86278158,-58.56994197,-145.03571431
8.88833993,14.03895992,17.31013142,-0.79655362,-0.64924652,1.29299764

>  <Name>
lig.pdb

>  <RI>
0

>  <Rbt.Current_Directory>
/home/itssahil/PROJECTS/Mol_Feturizer/New_Systems/rnas/4k32

>  <Rbt.Executable>
rbdock ($Id: //depot/dev/client3/rdock/2013.1/src/exe/rbdock.cxx#4 $)

>  <Rbt.Library>
libRbt.so (2013.1, Build901 2013/11/27)

>  <Rbt.Parameter_File>
/export/apps/rDock/src/rDock_2013.1_src/data/scripts/dock_solv.prm

>  <Rbt.Receptor>
prm/blind_docking_80.prm

>  <SCORE>
34.7398

>  <SCORE.INTER>
13.1356

>  <SCORE.INTER.CONST>
1

>  <SCORE.INTER.POLAR>
0

>  <SCORE.INTER.ROT>
6

>  <SCORE.INTER.SOLV>
31.1844

>  <SCORE.INTER.VDW>
-9.23774

>  <SCORE.INTER.norm>
0.38634

>  <SCORE.INTRA>
14.1654

>  <SCORE.INTRA.DIHEDRAL>
1.5476

>  <SCORE.INTRA.DIHEDRAL.0>
18.0069

>  <SCORE.INTRA.POLAR>
0

>  <SCORE.INTRA.POLAR.0>
0

>  <SCORE.INTRA.REPUL>
0

>  <SCORE.INTRA.REPUL.0>
0

>  <SCORE.INTRA.SOLV>
7.17925

>  <SCORE.INTRA.SOLV.lig_0>
-70.7393

>  <SCORE.INTRA.VDW>
9.80198

>  <SCORE.INTRA.VDW.0>
-3.23471

>  <SCORE.INTRA.norm>
0.416629

>  <SCORE.RESTR>
7.4388

>  <SCORE.RESTR.CAVITY>
7.4388

>  <SCORE.RESTR.norm>
0.218788

>  <SCORE.SYSTEM>
0

>  <SCORE.SYSTEM.CONST>
0

>  <SCORE.SYSTEM.DIHEDRAL>
0

>  <SCORE.SYSTEM.SOLV>
0

>  <SCORE.SYSTEM.norm>
0

>  <SCORE.heavy>
34

>  <SCORE.norm>
1.02176

>  <RMSD>
23.876

$$$$
lig.pdb
 OpenBabel11021811503D
libRbt.so/2013.1/901 2013/11/27
 34 36  0  0  0  0  0  0  0  0999 V2000
    8.2932   15.3328   18.1819 C   0  0  2  0  0  0  0  0  0  0  0  0
    9.3973   15.8737   18.9158 O   0  0  0  0  0  0  0  0  0  0  0  0
    7.5724   16.5181   17.4094 C   0  0  2  0  0  0  0  0  0  0  0  0
    8.4860   17.1903   16.4563 N   0  0  0  0  0  0  0  0  0  0  0  0
    7.0293   17.5457   18.4341 C   0  0  1  0  0  0  0  0  0  0  0  0
    6.3701   18.6181   17.7568 O   0  0  0  0  0  0  0  0  0  0  0  0
    6.0729   16.8193   19.3965 C   0  0  2  0  0  0  0  0  0  0  0  0
    5.5615   17.7567   20.3452 O   0  0  0  0  0  0  0  0  0  0  0  0
    6.8379   15.6460   20.1209 C   0  0  2  0  0  0  0  0  0  0  0  0
    7.3831   14.6888   19.1347 O   0  0  0  0  0  0  0  0  0  0  0  0
    5.9094   14.8731   21.0902 C   0  0  2  0  0  0  0  0  0  0  0  0
    4.6310   14.6768   20.4828 O   0  0  0  0  0  0  0  0  0  0  0  0
    5.7166   15.6355   22.3918 C   0  0  0  0  0  0  0  0  0  0  0  0
   13.0295   13.9355   17.7467 C   0  0  2  0  0  0  0  0  0  0  0  0
   14.2931   13.1974   17.8155 N   0  0  0  0  0  0  0  0  0  0  0  0
   13.1271   15.1110   18.7579 C   0  0  0  0  0  0  0  0  0  0  0  0
   11.8045   15.9209   18.6821 C   0  0  2  0  0  0  0  0  0  0  0  0
   11.8546   17.0515   19.6225 N   0  0  0  0  0  0  0  0  0  0  0  0
   10.5843   15.0253   19.0264 C   0  0  2  0  0  0  0  0  0  0  0  0
   10.5336   13.8272   18.0266 C   0  0  2  0  0  0  0  0  0  0  0  0
    9.4127   12.9943   18.3528 O   0  0  0  0  0  0  0  0  0  0  0  0
   11.8230   12.9759   18.1222 C   0  0  1  0  0  0  0  0  0  0  0  0
   11.7014   11.8985   17.1608 O   0  0  0  0  0  0  0  0  0  0  0  0
   12.8516   11.0305   17.0297 C   0  0  2  0  0  0  0  0  0  0  0  0
   13.4321   11.2875   15.5894 C   0  0  2  0  0  0  0  0  0  0  0  0
   13.8230   12.6456   15.4626 O   0  0  0  0  0  0  0  0  0  0  0  0
   12.3357   10.9139   14.5212 C   0  0  1  0  0  0  0  0  0  0  0  0
   12.8412   11.1525   13.1349 N   0  0  0  0  0  0  0  0  0  0  0  0
   11.7169   11.6027   12.2864 C   0  0  0  0  0  0  0  0  0  0  0  0
   11.9552    9.4135   14.7070 C   0  0  2  0  0  0  0  0  0  0  0  0
   13.1202    8.6169   14.4975 O   0  0  0  0  0  0  0  0  0  0  0  0
   10.8864    8.9719   13.7104 C   0  0  0  0  0  0  0  0  0  0  0  0
   11.4342    9.1940   16.1636 C   0  0  0  0  0  0  0  0  0  0  0  0
   12.4452    9.6164   17.1556 O   0  0  0  0  0  0  0  0  0  0  0  0
  1  3  1  0  0  0  0
  1  2  1  1  0  0  0
  3  5  1  0  0  0  0
  3  4  1  6  0  0  0
  5  6  1  6  0  0  0
  7  8  1  1  0  0  0
  7  5  1  0  0  0  0
  9 10  1  6  0  0  0
  9  7  1  0  0  0  0
 10  1  1  0  0  0  0
 11 13  1  1  0  0  0
 11  9  1  0  0  0  0
 12 11  1  0  0  0  0
 14 15  1  1  0  0  0
 16 14  1  0  0  0  0
 17 18  1  1  0  0  0
 17 16  1  0  0  0  0
 19  2  1  6  0  0  0
 19 20  1  0  0  0  0
 19 17  1  0  0  0  0
 20 21  1  1  0  0  0
 20 22  1  0  0  0  0
 22 23  1  6  0  0  0
 22 14  1  0  0  0  0
 24 23  1  6  0  0  0
 24 25  1  0  0  0  0
 25 27  1  0  0  0  0
 25 26  1  1  0  0  0
 27 28  1  6  0  0  0
 28 29  1  0  0  0  0
 30 31  1  6  0  0  0
 30 32  1  0  0  0  0
 30 27  1  0  0  0  0
 33 30  1  0  0  0  0
 34 33  1  0  0  0  0
 34 24  1  0  0  0  0
M  END
>  <CHROM.1>
-145.11644235,41.83378238,132.80015774,59.99439554,-112.66908674,-145.72498355
10.09064313,13.73955732,17.58112713,2.25440676,0.15951503,0.52937906

>  <Name>
lig.pdb

>  <RI>
0

>  <Rbt.Current_Directory>
/home/itssahil/PROJECTS/Mol_Feturizer/New_Systems/rnas/4k32

>  <Rbt.Executable>
rbdock ($Id: //depot/dev/client3/rdock/2013.1/src/exe/rbdock.cxx#4 $)

>  <Rbt.Library>
libRbt.so (2013.1, Build901 2013/11/27)

>  <Rbt.Parameter_File>
/export/apps/rDock/src/rDock_2013.1_src/data/scripts/dock_solv.prm

>  <Rbt.Receptor>
prm/blind_docking_80.prm

>  <SCORE>
20.9298

>  <SCORE.INTER>
2.21129

>  <SCORE.INTER.CONST>
1

>  <SCORE.INTER.POLAR>
0

>  <SCORE.INTER.ROT>
6

>  <SCORE.INTER.SOLV>
27.276

>  <SCORE.INTER.VDW>
-15.2178

>  <SCORE.INTER.norm>
0.0650379

>  <SCORE.INTRA>
7.81891

>  <SCORE.INTRA.DIHEDRAL>
1.75486

>  <SCORE.INTRA.DIHEDRAL.0>
18.0069

>  <SCORE.INTRA.POLAR>
0

>  <SCORE.INTRA.POLAR.0>
0

>  <SCORE.INTRA.REPUL>
0

>  <SCORE.INTRA.REPUL.0>
0

>  <SCORE.INTRA.SOLV>
0.674912

>  <SCORE.INTRA.SOLV.lig_0>
-70.7393

>  <SCORE.INTRA.VDW>
6.60403

>  <SCORE.INTRA.VDW.0>
-3.23471

>  <SCORE.INTRA.norm>
0.229968

>  <SCORE.RESTR>
10.8996

>  <SCORE.RESTR.CAVITY>
10.8996

>  <SCORE.RESTR.norm>
0.320577

>  <SCORE.SYSTEM>
0

>  <SCORE.SYSTEM.CONST>
0

>  <SCORE.SYSTEM.DIHEDRAL>
0

>  <SCORE.SYSTEM.SOLV>
0

>  <SCORE.SYSTEM.norm>
0

>  <SCORE.heavy>
34

>  <SCORE.norm>
0.615583

>  <RMSD>
24.559

$$$$
lig.pdb
 OpenBabel11021811503D
libRbt.so/2013.1/901 2013/11/27
 34 36  0  0  0  0  0  0  0  0999 V2000
    8.5030   15.5157   17.6012 C   0  0  2  0  0  0  0  0  0  0  0  0
    9.7602   15.4857   18.2858 O   0  0  0  0  0  0  0  0  0  0  0  0
    8.1617   17.0238   17.2400 C   0  0  2  0  0  0  0  0  0  0  0  0
    9.1905   17.6257   16.3600 N   0  0  0  0  0  0  0  0  0  0  0  0
    8.0342   17.8497   18.5447 C   0  0  1  0  0  0  0  0  0  0  0  0
    7.7199   19.2105   18.2397 O   0  0  0  0  0  0  0  0  0  0  0  0
    6.9481   17.2083   19.4265 C   0  0  2  0  0  0  0  0  0  0  0  0
    6.8174   17.9628   20.6323 O   0  0  0  0  0  0  0  0  0  0  0  0
    7.3324   15.7111   19.7382 C   0  0  2  0  0  0  0  0  0  0  0  0
    7.4866   14.9387   18.4871 O   0  0  0  0  0  0  0  0  0  0  0  0
    6.2580   15.0169   20.6116 C   0  0  2  0  0  0  0  0  0  0  0  0
    6.6677   13.6817   20.9132 O   0  0  0  0  0  0  0  0  0  0  0  0
    4.9177   14.9634   19.8951 C   0  0  0  0  0  0  0  0  0  0  0  0
   12.8323   12.6024   17.5337 C   0  0  2  0  0  0  0  0  0  0  0  0
   13.6407   11.3832   17.6122 N   0  0  0  0  0  0  0  0  0  0  0  0
   12.6977   13.1596   18.9777 C   0  0  0  0  0  0  0  0  0  0  0  0
   11.8631   14.4674   18.9122 C   0  0  2  0  0  0  0  0  0  0  0  0
   11.7143   15.0351   20.2614 N   0  0  0  0  0  0  0  0  0  0  0  0
   10.4559   14.1988   18.3143 C   0  0  2  0  0  0  0  0  0  0  0  0
   10.6172   13.5971   16.8826 C   0  0  2  0  0  0  0  0  0  0  0  0
    9.3169   13.3387   16.3358 O   0  0  0  0  0  0  0  0  0  0  0  0
   11.4038   12.2647   16.9312 C   0  0  1  0  0  0  0  0  0  0  0  0
   11.5185   11.7811   15.5700 O   0  0  0  0  0  0  0  0  0  0  0  0
   10.4680   10.8938   15.1197 C   0  0  2  0  0  0  0  0  0  0  0  0
   11.1826    9.5729   14.6488 C   0  0  2  0  0  0  0  0  0  0  0  0
   11.8860    8.9918   15.7354 O   0  0  0  0  0  0  0  0  0  0  0  0
   12.1607    9.9149   13.4618 C   0  0  1  0  0  0  0  0  0  0  0  0
   12.8709    8.6880   12.9879 N   0  0  0  0  0  0  0  0  0  0  0  0
   14.1174    8.5256   13.7666 C   0  0  0  0  0  0  0  0  0  0  0  0
   11.3296   10.5409   12.3009 C   0  0  2  0  0  0  0  0  0  0  0  0
   10.3618    9.5874   11.8653 O   0  0  0  0  0  0  0  0  0  0  0  0
   12.2091   10.9106   11.1091 C   0  0  0  0  0  0  0  0  0  0  0  0
   10.5973   11.8174   12.8258 C   0  0  0  0  0  0  0  0  0  0  0  0
    9.7388   11.4950   13.9850 O   0  0  0  0  0  0  0  0  0  0  0  0
  1  3  1  0  0  0  0
  1  2  1  1  0  0  0
  3  5  1  0  0  0  0
  3  4  1  6  0  0  0
  5  6  1  6  0  0  0
  7  8  1  1  0  0  0
  7  5  1  0  0  0  0
  9 10  1  6  0  0  0
  9  7  1  0  0  0  0
 10  1  1  0  0  0  0
 11 13  1  6  0  0  0
 11  9  1  0  0  0  0
 12 11  1  0  0  0  0
 14 15  1  1  0  0  0
 16 14  1  0  0  0  0
 17 18  1  1  0  0  0
 17 16  1  0  0  0  0
 19  2  1  6  0  0  0
 19 20  1  0  0  0  0
 19 17  1  0  0  0  0
 20 21  1  1  0  0  0
 20 22  1  0  0  0  0
 22 23  1  6  0  0  0
 22 14  1  0  0  0  0
 24 23  1  6  0  0  0
 24 25  1  0  0  0  0
 25 27  1  0  0  0  0
 25 26  1  1  0  0  0
 27 28  1  6  0  0  0
 28 29  1  0  0  0  0
 30 31  1  6  0  0  0
 30 32  1  0  0  0  0
 30 27  1  0  0  0  0
 33 30  1  0  0  0  0
 34 33  1  0  0  0  0
 34 24  1  0  0  0  0
M  END
>  <CHROM.1>
-160.54434667,-177.80214036,171.71395765,152.68368286,-123.38949719,-89.19879883
9.99163822,13.37422158,16.79249946,2.18505704,-0.64698185,1.12374787

>  <Name>
lig.pdb

>  <RI>
0

>  <Rbt.Current_Directory>
/home/itssahil/PROJECTS/Mol_Feturizer/New_Systems/rnas/4k32

>  <Rbt.Executable>
rbdock ($Id: //depot/dev/client3/rdock/2013.1/src/exe/rbdock.cxx#4 $)

>  <Rbt.Library>
libRbt.so (2013.1, Build901 2013/11/27)

>  <Rbt.Parameter_File>
/export/apps/rDock/src/rDock_2013.1_src/data/scripts/dock_solv.prm

>  <Rbt.Receptor>
prm/blind_docking_80.prm

>  <SCORE>
11.1166

>  <SCORE.INTER>
2.81

>  <SCORE.INTER.CONST>
1

>  <SCORE.INTER.POLAR>
0

>  <SCORE.INTER.ROT>
6

>  <SCORE.INTER.SOLV>
25.328

>  <SCORE.INTER.VDW>
-14.1693

>  <SCORE.INTER.norm>
0.082647

>  <SCORE.INTRA>
-1.91164

>  <SCORE.INTRA.DIHEDRAL>
-5.11008

>  <SCORE.INTRA.DIHEDRAL.0>
18.0069

>  <SCORE.INTRA.POLAR>
0

>  <SCORE.INTRA.POLAR.0>
0

>  <SCORE.INTRA.REPUL>
0

>  <SCORE.INTRA.REPUL.0>
0

>  <SCORE.INTRA.SOLV>
-2.41295

>  <SCORE.INTRA.SOLV.lig_0>
-70.7393

>  <SCORE.INTRA.VDW>
1.84988

>  <SCORE.INTRA.VDW.0>
-3.23471

>  <SCORE.INTRA.norm>
-0.0562247

>  <SCORE.RESTR>
10.2182

>  <SCORE.RESTR.CAVITY>
10.2182

>  <SCORE.RESTR.norm>
0.300536

>  <SCORE.SYSTEM>
0

>  <SCORE.SYSTEM.CONST>
0

>  <SCORE.SYSTEM.DIHEDRAL>
0

>  <SCORE.SYSTEM.SOLV>
0

>  <SCORE.SYSTEM.norm>
0

>  <SCORE.heavy>
34

>  <SCORE.norm>
0.326958

>  <RMSD>
25.080

$$$$
lig.pdb
 OpenBabel11021811503D
libRbt.so/2013.1/901 2013/11/27
 34 36  0  0  0  0  0  0  0  0999 V2000
    1.4406    4.3949    8.1053 C   0  0  2  0  0  0  0  0  0  0  0  0
    0.7653    5.4070    8.8601 O   0  0  0  0  0  0  0  0  0  0  0  0
    2.8136    4.9922    7.5768 C   0  0  2  0  0  0  0  0  0  0  0  0
    3.6951    5.4149    8.6899 N   0  0  0  0  0  0  0  0  0  0  0  0
    2.5266    6.1960    6.6443 C   0  0  1  0  0  0  0  0  0  0  0  0
    3.7521    6.7434    6.1524 O   0  0  0  0  0  0  0  0  0  0  0  0
    1.6241    5.7192    5.4924 C   0  0  2  0  0  0  0  0  0  0  0  0
    1.3545    6.8194    4.6222 O   0  0  0  0  0  0  0  0  0  0  0  0
    0.2865    5.1232    6.0772 C   0  0  2  0  0  0  0  0  0  0  0  0
    0.5709    3.9980    6.9930 O   0  0  0  0  0  0  0  0  0  0  0  0
   -0.6496    4.6137    4.9533 C   0  0  2  0  0  0  0  0  0  0  0  0
    0.0996    3.8442    4.0108 O   0  0  0  0  0  0  0  0  0  0  0  0
   -1.3090    5.7714    4.2201 C   0  0  0  0  0  0  0  0  0  0  0  0
   -2.5693    5.1331   11.5288 C   0  0  2  0  0  0  0  0  0  0  0  0
   -3.9317    4.9427   12.0327 N   0  0  0  0  0  0  0  0  0  0  0  0
   -2.6456    6.1722   10.3762 C   0  0  0  0  0  0  0  0  0  0  0  0
   -1.2057    6.4061    9.8443 C   0  0  2  0  0  0  0  0  0  0  0  0
   -1.2290    7.3908    8.7513 N   0  0  0  0  0  0  0  0  0  0  0  0
   -0.5838    5.0822    9.3243 C   0  0  2  0  0  0  0  0  0  0  0  0
   -0.5599    4.0398   10.4864 C   0  0  2  0  0  0  0  0  0  0  0  0
    0.0042    2.8136   10.0019 O   0  0  0  0  0  0  0  0  0  0  0  0
   -1.9925    3.7535   10.9983 C   0  0  1  0  0  0  0  0  0  0  0  0
   -1.8817    2.7913   12.0761 O   0  0  0  0  0  0  0  0  0  0  0  0
   -1.4236    3.3099   13.3469 C   0  0  2  0  0  0  0  0  0  0  0  0
   -0.7663    2.0964   14.1037 C   0  0  2  0  0  0  0  0  0  0  0  0
    0.3284    1.5958   13.3525 O   0  0  0  0  0  0  0  0  0  0  0  0
   -1.8560    0.9801   14.3252 C   0  0  1  0  0  0  0  0  0  0  0  0
   -1.2721   -0.1995   15.0337 N   0  0  0  0  0  0  0  0  0  0  0  0
   -0.5263   -1.0229   14.0578 C   0  0  0  0  0  0  0  0  0  0  0  0
   -3.0243    1.5880   15.1596 C   0  0  2  0  0  0  0  0  0  0  0  0
   -2.5117    2.0150   16.4207 O   0  0  0  0  0  0  0  0  0  0  0  0
   -4.1314    0.5678   15.4122 C   0  0  0  0  0  0  0  0  0  0  0  0
   -3.6117    2.8187   14.3971 C   0  0  0  0  0  0  0  0  0  0  0  0
   -2.5629    3.8259   14.1321 O   0  0  0  0  0  0  0  0  0  0  0  0
  1  3  1  0  0  0  0
  1  2  1  6  0  0  0
  3  5  1  0  0  0  0
  3  4  1  1  0  0  0
  5  6  1  6  0  0  0
  7  8  1  6  0  0  0
  7  5  1  0  0  0  0
  9 10  1  1  0  0  0
  9  7  1  0  0  0  0
 10  1  1  0  0  0  0
 11 13  1  6  0  0  0
 11  9  1  0  0  0  0
 12 11  1  0  0  0  0
 14 15  1  6  0  0  0
 16 14  1  0  0  0  0
 17 18  1  6  0  0  0
 17 16  1  0  0  0  0
 19  2  1  1  0  0  0
 19 20  1  0  0  0  0
 19 17  1  0  0  0  0
 20 21  1  6  0  0  0
 20 22  1  0  0  0  0
 22 23  1  1  0  0  0
 22 14  1  0  0  0  0
 24 23  1  6  0  0  0
 24 25  1  0  0  0  0
 25 27  1  0  0  0  0
 25 26  1  6  0  0  0
 27 28  1  1  0  0  0
 28 29  1  0  0  0  0
 30 31  1  1  0  0  0
 30 32  1  0  0  0  0
 30 27  1  0  0  0  0
 33 30  1  0  0  0  0
 34 33  1  0  0  0  0
 34 24  1  0  0  0  0
M  END
>  <CHROM.1>
174.37466632,45.73541023,-168.55064832,-39.57897915,-154.57875377,-79.43570220
-0.60274456,3.95827387,10.20653416,-1.17921791,-0.46531686,2.18690705

>  <Name>
lig.pdb

>  <RI>
0

>  <Rbt.Current_Directory>
/home/itssahil/PROJECTS/Mol_Feturizer/New_Systems/rnas/4k32

>  <Rbt.Executable>
rbdock ($Id: //depot/dev/client3/rdock/2013.1/src/exe/rbdock.cxx#4 $)

>  <Rbt.Library>
libRbt.so (2013.1, Build901 2013/11/27)

>  <Rbt.Parameter_File>
/export/apps/rDock/src/rDock_2013.1_src/data/scripts/dock_solv.prm

>  <Rbt.Receptor>
prm/blind_docking_60.prm

>  <SCORE>
6.22009

>  <SCORE.INTER>
0.847546

>  <SCORE.INTER.CONST>
1

>  <SCORE.INTER.POLAR>
0

>  <SCORE.INTER.ROT>
6

>  <SCORE.INTER.SOLV>
18.8471

>  <SCORE.INTER.VDW>
-13.3173

>  <SCORE.INTER.norm>
0.0249278

>  <SCORE.INTRA>
-3.08909

>  <SCORE.INTRA.DIHEDRAL>
-11.5868

>  <SCORE.INTRA.DIHEDRAL.0>
18.0069

>  <SCORE.INTRA.POLAR>
0

>  <SCORE.INTRA.POLAR.0>
0

>  <SCORE.INTRA.REPUL>
0

>  <SCORE.INTRA.REPUL.0>
0

>  <SCORE.INTRA.SOLV>
0.0328369

>  <SCORE.INTRA.SOLV.lig_0>
-70.7393

>  <SCORE.INTRA.VDW>
2.68789

>  <SCORE.INTRA.VDW.0>
-3.23471

>  <SCORE.INTRA.norm>
-0.0908555

>  <SCORE.RESTR>
8.46163

>  <SCORE.RESTR.CAVITY>
8.46163

>  <SCORE.RESTR.norm>
0.248872

>  <SCORE.SYSTEM>
0

>  <SCORE.SYSTEM.CONST>
0

>  <SCORE.SYSTEM.DIHEDRAL>
0

>  <SCORE.SYSTEM.SOLV>
0

>  <SCORE.SYSTEM.norm>
0

>  <SCORE.heavy>
34

>  <SCORE.norm>
0.182944

>  <RMSD>
29.417

$$$$
lig.pdb
 OpenBabel11021811503D
libRbt.so/2013.1/901 2013/11/27
 34 36  0  0  0  0  0  0  0  0999 V2000
   12.9429   11.3961   16.0613 C   0  0  2  0  0  0  0  0  0  0  0  0
   11.9133   10.6243   15.4334 O   0  0  0  0  0  0  0  0  0  0  0  0
   13.3719   10.6661   17.4046 C   0  0  2  0  0  0  0  0  0  0  0  0
   13.8958    9.3042   17.1481 N   0  0  0  0  0  0  0  0  0  0  0  0
   12.1557   10.5923   18.3617 C   0  0  1  0  0  0  0  0  0  0  0  0
   12.5247    9.9436   19.5809 O   0  0  0  0  0  0  0  0  0  0  0  0
   11.6477   12.0220   18.6197 C   0  0  2  0  0  0  0  0  0  0  0  0
   10.5276   11.9688   19.5045 O   0  0  0  0  0  0  0  0  0  0  0  0
   11.2528   12.7004   17.2521 C   0  0  2  0  0  0  0  0  0  0  0  0
   12.4093   12.7352   16.3317 O   0  0  0  0  0  0  0  0  0  0  0  0
   10.7500   14.1507   17.4596 C   0  0  2  0  0  0  0  0  0  0  0  0
   11.6134   14.8373   18.3678 O   0  0  0  0  0  0  0  0  0  0  0  0
    9.3384   14.1673   18.0252 C   0  0  0  0  0  0  0  0  0  0  0  0
   10.9231    9.4217   11.4472 C   0  0  2  0  0  0  0  0  0  0  0  0
   10.7421    9.4495    9.9937 N   0  0  0  0  0  0  0  0  0  0  0  0
   10.2134   10.6778   12.0238 C   0  0  0  0  0  0  0  0  0  0  0  0
   10.3735   10.6536   13.5681 C   0  0  2  0  0  0  0  0  0  0  0  0
    9.7095   11.8260   14.1592 N   0  0  0  0  0  0  0  0  0  0  0  0
   11.8725   10.6597   13.9712 C   0  0  2  0  0  0  0  0  0  0  0  0
   12.5740    9.4143   13.3430 C   0  0  2  0  0  0  0  0  0  0  0  0
   13.9612    9.4272   13.7066 O   0  0  0  0  0  0  0  0  0  0  0  0
   12.4702    9.4450   11.7988 C   0  0  1  0  0  0  0  0  0  0  0  0
   13.1316    8.2570   11.2978 O   0  0  0  0  0  0  0  0  0  0  0  0
   14.4286    8.4601   10.6894 C   0  0  2  0  0  0  0  0  0  0  0  0
   14.1718    9.2926    9.3786 C   0  0  2  0  0  0  0  0  0  0  0  0
   13.5814   10.5401    9.7079 O   0  0  0  0  0  0  0  0  0  0  0  0
   13.2375    8.4621    8.4193 C   0  0  1  0  0  0  0  0  0  0  0  0
   12.9578    9.2207    7.1620 N   0  0  0  0  0  0  0  0  0  0  0  0
   11.5648    9.7154    7.2015 C   0  0  0  0  0  0  0  0  0  0  0  0
   13.9425    7.1112    8.0900 C   0  0  2  0  0  0  0  0  0  0  0  0
   15.1788    7.3884    7.4340 O   0  0  0  0  0  0  0  0  0  0  0  0
   13.0947    6.2393    7.1672 C   0  0  0  0  0  0  0  0  0  0  0  0
   14.2248    6.3431    9.4210 C   0  0  0  0  0  0  0  0  0  0  0  0
   15.0415    7.1625   10.3409 O   0  0  0  0  0  0  0  0  0  0  0  0
  1  3  1  0  0  0  0
  1  2  1  1  0  0  0
  3  5  1  0  0  0  0
  3  4  1  6  0  0  0
  5  6  1  1  0  0  0
  7  8  1  1  0  0  0
  7  5  1  0  0  0  0
  9 10  1  6  0  0  0
  9  7  1  0  0  0  0
 10  1  1  0  0  0  0
 11 13  1  1  0  0  0
 11  9  1  0  0  0  0
 12 11  1  0  0  0  0
 14 15  1  6  0  0  0
 16 14  1  0  0  0  0
 17 18  1  1  0  0  0
 17 16  1  0  0  0  0
 19  2  1  1  0  0  0
 19 20  1  0  0  0  0
 19 17  1  0  0  0  0
 20 21  1  6  0  0  0
 20 22  1  0  0  0  0
 22 23  1  6  0  0  0
 22 14  1  0  0  0  0
 24 23  1  6  0  0  0
 24 25  1  0  0  0  0
 25 27  1  0  0  0  0
 25 26  1  1  0  0  0
 27 28  1  6  0  0  0
 28 29  1  0  0  0  0
 30 31  1  6  0  0  0
 30 32  1  0  0  0  0
 30 27  1  0  0  0  0
 33 30  1  0  0  0  0
 34 33  1  0  0  0  0
 34 24  1  0  0  0  0
M  END
>  <CHROM.1>
-148.33831466,44.82442505,-142.75252049,138.26133059,-66.61523843,-106.47891370
12.41799752,10.13283404,13.25011867,-1.84753571,0.78619939,-1.79614219

>  <Name>
lig.pdb

>  <RI>
0

>  <Rbt.Current_Directory>
/home/itssahil/PROJECTS/Mol_Feturizer/New_Systems/rnas/4k32

>  <Rbt.Executable>
rbdock ($Id: //depot/dev/client3/rdock/2013.1/src/exe/rbdock.cxx#4 $)

>  <Rbt.Library>
libRbt.so (2013.1, Build901 2013/11/27)

>  <Rbt.Parameter_File>
/export/apps/rDock/src/rDock_2013.1_src/data/scripts/dock_solv.prm

>  <Rbt.Receptor>
prm/blind_docking_80.prm

>  <SCORE>
14.7629

>  <SCORE.INTER>
4.88054

>  <SCORE.INTER.CONST>
1

>  <SCORE.INTER.POLAR>
0

>  <SCORE.INTER.ROT>
6

>  <SCORE.INTER.SOLV>
23.3343

>  <SCORE.INTER.VDW>
-12.1244

>  <SCORE.INTER.norm>
0.143545

>  <SCORE.INTRA>
2.03588

>  <SCORE.INTRA.DIHEDRAL>
-1.44278

>  <SCORE.INTRA.DIHEDRAL.0>
18.0069

>  <SCORE.INTRA.POLAR>
0

>  <SCORE.INTRA.POLAR.0>
0

>  <SCORE.INTRA.REPUL>
0

>  <SCORE.INTRA.REPUL.0>
0

>  <SCORE.INTRA.SOLV>
3.85408

>  <SCORE.INTRA.SOLV.lig_0>
-70.7393

>  <SCORE.INTRA.VDW>
0.830228

>  <SCORE.INTRA.VDW.0>
-3.23471

>  <SCORE.INTRA.norm>
0.0598787

>  <SCORE.RESTR>
7.84648

>  <SCORE.RESTR.CAVITY>
7.84648

>  <SCORE.RESTR.norm>
0.230779

>  <SCORE.SYSTEM>
0

>  <SCORE.SYSTEM.CONST>
0

>  <SCORE.SYSTEM.DIHEDRAL>
0

>  <SCORE.SYSTEM.SOLV>
0

>  <SCORE.SYSTEM.norm>
0

>  <SCORE.heavy>
34

>  <SCORE.norm>
0.434203

>  <RMSD>
29.715

$$$$
lig.pdb
 OpenBabel11021811503D
libRbt.so/2013.1/901 2013/11/27
 34 36  0  0  0  0  0  0  0  0999 V2000
   12.9501   11.4083   16.0462 C   0  0  2  0  0  0  0  0  0  0  0  0
   11.9233   10.6286   15.4232 O   0  0  0  0  0  0  0  0  0  0  0  0
   13.3844   10.6864   17.3921 C   0  0  2  0  0  0  0  0  0  0  0  0
   13.9146    9.3259   17.1410 N   0  0  0  0  0  0  0  0  0  0  0  0
   12.1699   10.6110   18.3513 C   0  0  1  0  0  0  0  0  0  0  0  0
   12.5438    9.9696   19.5729 O   0  0  0  0  0  0  0  0  0  0  0  0
   11.6554   12.0394   18.6035 C   0  0  2  0  0  0  0  0  0  0  0  0
   10.5368   11.9848   19.4902 O   0  0  0  0  0  0  0  0  0  0  0  0
   11.2553   12.7098   17.2335 C   0  0  2  0  0  0  0  0  0  0  0  0
   12.4104   12.7460   16.3113 O   0  0  0  0  0  0  0  0  0  0  0  0
   10.7457   14.1585   17.4352 C   0  0  2  0  0  0  0  0  0  0  0  0
   11.5860   14.8420   18.3671 O   0  0  0  0  0  0  0  0  0  0  0  0
    9.3208   14.1710   17.9664 C   0  0  0  0  0  0  0  0  0  0  0  0
   10.9325    9.4018   11.4445 C   0  0  2  0  0  0  0  0  0  0  0  0
   10.7506    9.4210    9.9910 N   0  0  0  0  0  0  0  0  0  0  0  0
   10.2212   10.6600   12.0144 C   0  0  0  0  0  0  0  0  0  0  0  0
   10.3823   10.6448   13.5587 C   0  0  2  0  0  0  0  0  0  0  0  0
    9.7167   11.8195   14.1435 N   0  0  0  0  0  0  0  0  0  0  0  0
   11.8815   10.6557   13.9609 C   0  0  2  0  0  0  0  0  0  0  0  0
   12.5846    9.4079   13.3393 C   0  0  2  0  0  0  0  0  0  0  0  0
   13.9720    9.4251   13.7019 O   0  0  0  0  0  0  0  0  0  0  0  0
   12.4798    9.4296   11.7950 C   0  0  1  0  0  0  0  0  0  0  0  0
   13.1429    8.2398   11.3004 O   0  0  0  0  0  0  0  0  0  0  0  0
   14.4347    8.4427   10.6810 C   0  0  2  0  0  0  0  0  0  0  0  0
   14.1695    9.2955    9.3849 C   0  0  2  0  0  0  0  0  0  0  0  0
   13.5914   10.5422    9.7382 O   0  0  0  0  0  0  0  0  0  0  0  0
   13.2194    8.4851    8.4241 C   0  0  1  0  0  0  0  0  0  0  0  0
   12.9314    9.2634    7.1808 N   0  0  0  0  0  0  0  0  0  0  0  0
   11.5166    9.6930    7.2021 C   0  0  0  0  0  0  0  0  0  0  0  0
   13.9115    7.1343    8.0681 C   0  0  2  0  0  0  0  0  0  0  0  0
   15.1425    7.4125    7.4028 O   0  0  0  0  0  0  0  0  0  0  0  0
   13.0478    6.2813    7.1423 C   0  0  0  0  0  0  0  0  0  0  0  0
   14.2027    6.3455    9.3850 C   0  0  0  0  0  0  0  0  0  0  0  0
   15.0348    7.1462   10.3075 O   0  0  0  0  0  0  0  0  0  0  0  0
  1  3  1  0  0  0  0
  1  2  1  1  0  0  0
  3  5  1  0  0  0  0
  3  4  1  6  0  0  0
  5  6  1  1  0  0  0
  7  8  1  1  0  0  0
  7  5  1  0  0  0  0
  9 10  1  6  0  0  0
  9  7  1  0  0  0  0
 10  1  1  0  0  0  0
 11 13  1  1  0  0  0
 11  9  1  0  0  0  0
 12 11  1  0  0  0  0
 14 15  1  6  0  0  0
 16 14  1  0  0  0  0
 17 18  1  1  0  0  0
 17 16  1  0  0  0  0
 19  2  1  1  0  0  0
 19 20  1  0  0  0  0
 19 17  1  0  0  0  0
 20 21  1  6  0  0  0
 20 22  1  0  0  0  0
 22 23  1  6  0  0  0
 22 14  1  0  0  0  0
 24 23  1  6  0  0  0
 24 25  1  0  0  0  0
 25 27  1  0  0  0  0
 25 26  1  1  0  0  0
 27 28  1  6  0  0  0
 28 29  1  0  0  0  0
 30 31  1  6  0  0  0
 30 32  1  0  0  0  0
 30 27  1  0  0  0  0
 33 30  1  0  0  0  0
 34 33  1  0  0  0  0
 34 24  1  0  0  0  0
M  END
>  <CHROM.1>
-148.24927373,43.25202472,-142.60665678,137.81093001,-65.11150550,-110.07947205
12.41554447,10.13734568,13.23914884,-1.84283850,0.78122943,-1.80132717

>  <Name>
lig.pdb

>  <RI>
0

>  <Rbt.Current_Directory>
/home/itssahil/PROJECTS/Mol_Feturizer/New_Systems/rnas/4k32

>  <Rbt.Executable>
rbdock ($Id: //depot/dev/client3/rdock/2013.1/src/exe/rbdock.cxx#4 $)

>  <Rbt.Library>
libRbt.so (2013.1, Build901 2013/11/27)

>  <Rbt.Parameter_File>
/export/apps/rDock/src/rDock_2013.1_src/data/scripts/dock_solv.prm

>  <Rbt.Receptor>
prm/blind_docking_80.prm

>  <SCORE>
14.7126

>  <SCORE.INTER>
4.48116

>  <SCORE.INTER.CONST>
1

>  <SCORE.INTER.POLAR>
0

>  <SCORE.INTER.ROT>
6

>  <SCORE.INTER.SOLV>
23.3002

>  <SCORE.INTER.VDW>
-12.3793

>  <SCORE.INTER.norm>
0.131799

>  <SCORE.INTRA>
2.37018

>  <SCORE.INTRA.DIHEDRAL>
-1.19054

>  <SCORE.INTRA.DIHEDRAL.0>
18.0069

>  <SCORE.INTRA.POLAR>
0

>  <SCORE.INTRA.POLAR.0>
0

>  <SCORE.INTRA.REPUL>
0

>  <SCORE.INTRA.REPUL.0>
0

>  <SCORE.INTRA.SOLV>
3.99343

>  <SCORE.INTRA.SOLV.lig_0>
-70.7393

>  <SCORE.INTRA.VDW>
0.968733

>  <SCORE.INTRA.VDW.0>
-3.23471

>  <SCORE.INTRA.norm>
0.0697111

>  <SCORE.RESTR>
7.86127

>  <SCORE.RESTR.CAVITY>
7.86127

>  <SCORE.RESTR.norm>
0.231214

>  <SCORE.SYSTEM>
0

>  <SCORE.SYSTEM.CONST>
0

>  <SCORE.SYSTEM.DIHEDRAL>
0

>  <SCORE.SYSTEM.SOLV>
0

>  <SCORE.SYSTEM.norm>
0

>  <SCORE.heavy>
34

>  <SCORE.norm>
0.432724

>  <RMSD>
29.720

$$$$
lig.pdb
 OpenBabel11021811503D
libRbt.so/2013.1/901 2013/11/27
 34 36  0  0  0  0  0  0  0  0999 V2000
   12.9877   11.3866   16.0442 C   0  0  2  0  0  0  0  0  0  0  0  0
   11.9599   10.6049   15.4256 O   0  0  0  0  0  0  0  0  0  0  0  0
   13.4321   10.6634   17.3862 C   0  0  2  0  0  0  0  0  0  0  0  0
   13.9650    9.3051   17.1294 N   0  0  0  0  0  0  0  0  0  0  0  0
   12.2233   10.5824   18.3522 C   0  0  1  0  0  0  0  0  0  0  0  0
   12.6061    9.9398   19.5703 O   0  0  0  0  0  0  0  0  0  0  0  0
   11.7058   12.0087   18.6101 C   0  0  2  0  0  0  0  0  0  0  0  0
   10.5925   11.9489   19.5031 O   0  0  0  0  0  0  0  0  0  0  0  0
   11.2958   12.6805   17.2437 C   0  0  2  0  0  0  0  0  0  0  0  0
   12.4454   12.7220   16.3150 O   0  0  0  0  0  0  0  0  0  0  0  0
   10.7829   14.1272   17.4512 C   0  0  2  0  0  0  0  0  0  0  0  0
   11.6173   14.8066   18.3912 O   0  0  0  0  0  0  0  0  0  0  0  0
    9.3553   14.1344   17.9752 C   0  0  0  0  0  0  0  0  0  0  0  0
   10.9133    9.4204   11.4484 C   0  0  2  0  0  0  0  0  0  0  0  0
   10.7149    9.4536    9.9972 N   0  0  0  0  0  0  0  0  0  0  0  0
   10.2193   10.6797   12.0369 C   0  0  0  0  0  0  0  0  0  0  0  0
   10.3978   10.6500   13.5791 C   0  0  2  0  0  0  0  0  0  0  0  0
    9.7491   11.8253   14.1814 N   0  0  0  0  0  0  0  0  0  0  0  0
   11.9016   10.6448   13.9641 C   0  0  2  0  0  0  0  0  0  0  0  0
   12.5869    9.3964   13.3240 C   0  0  2  0  0  0  0  0  0  0  0  0
   13.9784    9.3988   13.6708 O   0  0  0  0  0  0  0  0  0  0  0  0
   12.4646    9.4322   11.7812 C   0  0  1  0  0  0  0  0  0  0  0  0
   13.1118    8.2411   11.2691 O   0  0  0  0  0  0  0  0  0  0  0  0
   14.4096    8.4348   10.6592 C   0  0  2  0  0  0  0  0  0  0  0  0
   14.1588    9.2800    9.3554 C   0  0  2  0  0  0  0  0  0  0  0  0
   13.5827   10.5313    9.6955 O   0  0  0  0  0  0  0  0  0  0  0  0
   13.2135    8.4670    8.3919 C   0  0  1  0  0  0  0  0  0  0  0  0
   12.9391    9.2381    7.1412 N   0  0  0  0  0  0  0  0  0  0  0  0
   11.5377    9.7091    7.1671 C   0  0  0  0  0  0  0  0  0  0  0  0
   13.9032    7.1111    8.0507 C   0  0  2  0  0  0  0  0  0  0  0  0
   15.1409    7.3800    7.3940 O   0  0  0  0  0  0  0  0  0  0  0  0
   13.0440    6.2554    7.1234 C   0  0  0  0  0  0  0  0  0  0  0  0
   14.1801    6.3299    9.3752 C   0  0  0  0  0  0  0  0  0  0  0  0
   15.0077    7.1335   10.2994 O   0  0  0  0  0  0  0  0  0  0  0  0
  1  3  1  0  0  0  0
  1  2  1  1  0  0  0
  3  5  1  0  0  0  0
  3  4  1  6  0  0  0
  5  6  1  1  0  0  0
  7  8  1  1  0  0  0
  7  5  1  0  0  0  0
  9 10  1  6  0  0  0
  9  7  1  0  0  0  0
 10  1  1  0  0  0  0
 11 13  1  1  0  0  0
 11  9  1  0  0  0  0
 12 11  1  0  0  0  0
 14 15  1  6  0  0  0
 16 14  1  0  0  0  0
 17 18  1  1  0  0  0
 17 16  1  0  0  0  0
 19  2  1  1  0  0  0
 19 20  1  0  0  0  0
 19 17  1  0  0  0  0
 20 21  1  6  0  0  0
 20 22  1  0  0  0  0
 22 23  1  6  0  0  0
 22 14  1  0  0  0  0
 24 23  1  6  0  0  0
 24 25  1  0  0  0  0
 25 27  1  0  0  0  0
 25 26  1  1  0  0  0
 27 28  1  6  0  0  0
 28 29  1  0  0  0  0
 30 31  1  6  0  0  0
 30 32  1  0  0  0  0
 30 27  1  0  0  0  0
 33 30  1  0  0  0  0
 34 33  1  0  0  0  0
 34 24  1  0  0  0  0
M  END
>  <CHROM.1>
-148.81309768,42.59101299,-141.69626320,138.94164676,-66.64901401,-108.34875738
12.42923730,10.12217279,13.23318693,-1.83562902,0.78280030,-1.80336300

>  <Name>
lig.pdb

>  <RI>
0

>  <Rbt.Current_Directory>
/home/itssahil/PROJECTS/Mol_Feturizer/New_Systems/rnas/4k32

>  <Rbt.Executable>
rbdock ($Id: //depot/dev/client3/rdock/2013.1/src/exe/rbdock.cxx#4 $)

>  <Rbt.Library>
libRbt.so (2013.1, Build901 2013/11/27)

>  <Rbt.Parameter_File>
/export/apps/rDock/src/rDock_2013.1_src/data/scripts/dock_solv.prm

>  <Rbt.Receptor>
prm/blind_docking_80.prm

>  <SCORE>
14.6346

>  <SCORE.INTER>
4.83121

>  <SCORE.INTER.CONST>
1

>  <SCORE.INTER.POLAR>
0

>  <SCORE.INTER.ROT>
6

>  <SCORE.INTER.SOLV>
23.2695

>  <SCORE.INTER.VDW>
-12.1357

>  <SCORE.INTER.norm>
0.142094

>  <SCORE.INTRA>
1.92833

>  <SCORE.INTRA.DIHEDRAL>
-1.18112

>  <SCORE.INTRA.DIHEDRAL.0>
18.0069

>  <SCORE.INTRA.POLAR>
0

>  <SCORE.INTRA.POLAR.0>
0

>  <SCORE.INTRA.REPUL>
0

>  <SCORE.INTRA.REPUL.0>
0

>  <SCORE.INTRA.SOLV>
3.85965

>  <SCORE.INTRA.SOLV.lig_0>
-70.7393

>  <SCORE.INTRA.VDW>
0.58907

>  <SCORE.INTRA.VDW.0>
-3.23471

>  <SCORE.INTRA.norm>
0.0567156

>  <SCORE.RESTR>
7.87511

>  <SCORE.RESTR.CAVITY>
7.87511

>  <SCORE.RESTR.norm>
0.231621

>  <SCORE.SYSTEM>
0

>  <SCORE.SYSTEM.CONST>
0

>  <SCORE.SYSTEM.DIHEDRAL>
0

>  <SCORE.SYSTEM.SOLV>
0

>  <SCORE.SYSTEM.norm>
0

>  <SCORE.heavy>
34

>  <SCORE.norm>
0.430431

>  <RMSD>
29.734

$$$$
lig.pdb
 OpenBabel11021811503D
libRbt.so/2013.1/901 2013/11/27
 34 36  0  0  0  0  0  0  0  0999 V2000
   13.1734   11.3752   16.0485 C   0  0  2  0  0  0  0  0  0  0  0  0
   12.1924   10.5461   15.4159 O   0  0  0  0  0  0  0  0  0  0  0  0
   13.6050   10.6921   17.4154 C   0  0  2  0  0  0  0  0  0  0  0  0
   14.1935    9.3499   17.1985 N   0  0  0  0  0  0  0  0  0  0  0  0
   12.3728   10.5837   18.3486 C   0  0  1  0  0  0  0  0  0  0  0  0
   12.7436    9.9767   19.5885 O   0  0  0  0  0  0  0  0  0  0  0  0
   11.7972   11.9945   18.5659 C   0  0  2  0  0  0  0  0  0  0  0  0
   10.6617   11.9096   19.4284 O   0  0  0  0  0  0  0  0  0  0  0  0
   11.4025   12.6271   17.1765 C   0  0  2  0  0  0  0  0  0  0  0  0
   12.5759   12.6945   16.2796 O   0  0  0  0  0  0  0  0  0  0  0  0
   10.8322   14.0575   17.3430 C   0  0  2  0  0  0  0  0  0  0  0  0
   11.6041   14.7775   18.3061 O   0  0  0  0  0  0  0  0  0  0  0  0
    9.3851   14.0215   17.8095 C   0  0  0  0  0  0  0  0  0  0  0  0
   11.0394    9.4985   11.4297 C   0  0  2  0  0  0  0  0  0  0  0  0
   10.8336    9.5679    9.9809 N   0  0  0  0  0  0  0  0  0  0  0  0
   10.4372   10.7928   12.0430 C   0  0  0  0  0  0  0  0  0  0  0  0
   10.6241   10.7266   13.5830 C   0  0  2  0  0  0  0  0  0  0  0  0
   10.0614   11.9338   14.2084 N   0  0  0  0  0  0  0  0  0  0  0  0
   12.1267   10.6128   13.9557 C   0  0  2  0  0  0  0  0  0  0  0  0
   12.7206    9.3309   13.2911 C   0  0  2  0  0  0  0  0  0  0  0  0
   14.1114    9.2329   13.6267 O   0  0  0  0  0  0  0  0  0  0  0  0
   12.5902    9.3992   11.7501 C   0  0  1  0  0  0  0  0  0  0  0  0
   13.1509    8.1750   11.2147 O   0  0  0  0  0  0  0  0  0  0  0  0
   14.4644    8.2849   10.6178 C   0  0  2  0  0  0  0  0  0  0  0  0
   14.2982    9.2207    9.3632 C   0  0  2  0  0  0  0  0  0  0  0  0
   13.8347   10.4977    9.7724 O   0  0  0  0  0  0  0  0  0  0  0  0
   13.2896    8.5509    8.3548 C   0  0  1  0  0  0  0  0  0  0  0  0
   13.0930    9.4121    7.1490 N   0  0  0  0  0  0  0  0  0  0  0  0
   11.6629    9.7743    7.0476 C   0  0  0  0  0  0  0  0  0  0  0  0
   13.8569    7.1596    7.9387 C   0  0  2  0  0  0  0  0  0  0  0  0
   15.1176    7.3524    7.2993 O   0  0  0  0  0  0  0  0  0  0  0  0
   12.9298    6.4378    6.9641 C   0  0  0  0  0  0  0  0  0  0  0  0
   14.0547    6.2841    9.2176 C   0  0  0  0  0  0  0  0  0  0  0  0
   14.9455    6.9572   10.1861 O   0  0  0  0  0  0  0  0  0  0  0  0
  1  3  1  0  0  0  0
  1  2  1  1  0  0  0
  3  5  1  0  0  0  0
  3  4  1  6  0  0  0
  5  6  1  1  0  0  0
  7  8  1  1  0  0  0
  7  5  1  0  0  0  0
  9 10  1  6  0  0  0
  9  7  1  0  0  0  0
 10  1  1  0  0  0  0
 11 13  1  1  0  0  0
 11  9  1  0  0  0  0
 12 11  1  0  0  0  0
 14 15  1  6  0  0  0
 16 14  1  0  0  0  0
 17 18  1  1  0  0  0
 17 16  1  0  0  0  0
 19  2  1  1  0  0  0
 19 20  1  0  0  0  0
 19 17  1  0  0  0  0
 20 21  1  6  0  0  0
 20 22  1  0  0  0  0
 22 23  1  6  0  0  0
 22 14  1  0  0  0  0
 24 23  1  6  0  0  0
 24 25  1  0  0  0  0
 25 27  1  0  0  0  0
 25 26  1  1  0  0  0
 27 28  1  6  0  0  0
 28 29  1  0  0  0  0
 30 31  1  6  0  0  0
 30 32  1  0  0  0  0
 30 27  1  0  0  0  0
 33 30  1  0  0  0  0
 34 33  1  0  0  0  0
 34 24  1  0  0  0  0
M  END
>  <CHROM.1>
-151.97857385,41.85118610,-134.31261286,139.96227276,-64.54999805,-120.11973596
12.53537674,10.11695007,13.19156690,-1.83011992,0.80510412,-1.79725003

>  <Name>
lig.pdb

>  <RI>
0

>  <Rbt.Current_Directory>
/home/itssahil/PROJECTS/Mol_Feturizer/New_Systems/rnas/4k32

>  <Rbt.Executable>
rbdock ($Id: //depot/dev/client3/rdock/2013.1/src/exe/rbdock.cxx#4 $)

>  <Rbt.Library>
libRbt.so (2013.1, Build901 2013/11/27)

>  <Rbt.Parameter_File>
/export/apps/rDock/src/rDock_2013.1_src/data/scripts/dock_solv.prm

>  <Rbt.Receptor>
prm/blind_docking_80.prm

>  <SCORE>
14.3033

>  <SCORE.INTER>
4.0514

>  <SCORE.INTER.CONST>
1

>  <SCORE.INTER.POLAR>
0

>  <SCORE.INTER.ROT>
6

>  <SCORE.INTER.SOLV>
24.6554

>  <SCORE.INTER.VDW>
-13.1175

>  <SCORE.INTER.norm>
0.119159

>  <SCORE.INTRA>
2.30324

>  <SCORE.INTRA.DIHEDRAL>
-0.742882

>  <SCORE.INTRA.DIHEDRAL.0>
18.0069

>  <SCORE.INTRA.POLAR>
0

>  <SCORE.INTRA.POLAR.0>
0

>  <SCORE.INTRA.REPUL>
0

>  <SCORE.INTRA.REPUL.0>
0

>  <SCORE.INTRA.SOLV>
4.19568

>  <SCORE.INTRA.SOLV.lig_0>
-70.7393

>  <SCORE.INTRA.VDW>
0.576839

>  <SCORE.INTRA.VDW.0>
-3.23471

>  <SCORE.INTRA.norm>
0.0677424

>  <SCORE.RESTR>
7.94867

>  <SCORE.RESTR.CAVITY>
7.94867

>  <SCORE.RESTR.norm>
0.233784

>  <SCORE.SYSTEM>
0

>  <SCORE.SYSTEM.CONST>
0

>  <SCORE.SYSTEM.DIHEDRAL>
0

>  <SCORE.SYSTEM.SOLV>
0

>  <SCORE.SYSTEM.norm>
0

>  <SCORE.heavy>
34

>  <SCORE.norm>
0.420686

>  <RMSD>
29.822

$$$$
lig.pdb
 OpenBabel11021811503D
libRbt.so/2013.1/901 2013/11/27
 34 36  0  0  0  0  0  0  0  0999 V2000
   -0.3142   10.3869    7.7144 C   0  0  2  0  0  0  0  0  0  0  0  0
   -0.2485    9.6394    6.4950 O   0  0  0  0  0  0  0  0  0  0  0  0
   -1.8393   10.5463    8.1263 C   0  0  2  0  0  0  0  0  0  0  0  0
   -2.4911    9.2337    8.3440 N   0  0  0  0  0  0  0  0  0  0  0  0
   -2.5914   11.3325    7.0231 C   0  0  1  0  0  0  0  0  0  0  0  0
   -3.9664   11.4923    7.3799 O   0  0  0  0  0  0  0  0  0  0  0  0
   -1.8999   12.6945    6.8344 C   0  0  2  0  0  0  0  0  0  0  0  0
   -2.5861   13.4320    5.8216 O   0  0  0  0  0  0  0  0  0  0  0  0
   -0.3885   12.4735    6.4431 C   0  0  2  0  0  0  0  0  0  0  0  0
    0.3130   11.6924    7.4842 O   0  0  0  0  0  0  0  0  0  0  0  0
    0.3551   13.8196    6.2583 C   0  0  2  0  0  0  0  0  0  0  0  0
    1.7088   13.5758    5.8715 O   0  0  0  0  0  0  0  0  0  0  0  0
    0.3562   14.6283    7.5461 C   0  0  0  0  0  0  0  0  0  0  0  0
   -0.8316    5.3995    6.5181 C   0  0  2  0  0  0  0  0  0  0  0  0
   -0.5562    3.9607    6.5145 N   0  0  0  0  0  0  0  0  0  0  0  0
   -0.0590    6.0194    5.3211 C   0  0  0  0  0  0  0  0  0  0  0  0
   -0.3582    7.5428    5.2934 C   0  0  2  0  0  0  0  0  0  0  0  0
    0.3510    8.1723    4.1683 N   0  0  0  0  0  0  0  0  0  0  0  0
    0.0849    8.2200    6.6180 C   0  0  2  0  0  0  0  0  0  0  0  0
   -0.6697    7.5502    7.8096 C   0  0  2  0  0  0  0  0  0  0  0  0
   -0.2511    8.1688    9.0338 O   0  0  0  0  0  0  0  0  0  0  0  0
   -0.3451    6.0386    7.8865 C   0  0  1  0  0  0  0  0  0  0  0  0
   -1.0887    5.4935    9.0044 O   0  0  0  0  0  0  0  0  0  0  0  0
   -0.4297    5.5437   10.2915 C   0  0  2  0  0  0  0  0  0  0  0  0
    0.6524    4.4009   10.2741 C   0  0  2  0  0  0  0  0  0  0  0  0
    1.5868    4.6377    9.2329 O   0  0  0  0  0  0  0  0  0  0  0  0
   -0.0701    3.0143   10.0792 C   0  0  1  0  0  0  0  0  0  0  0  0
    0.9229    1.8975   10.0464 N   0  0  0  0  0  0  0  0  0  0  0  0
    1.3857    1.7094    8.6546 C   0  0  0  0  0  0  0  0  0  0  0  0
   -1.0743    2.8105   11.2542 C   0  0  2  0  0  0  0  0  0  0  0  0
   -0.3469    2.8040   12.4816 O   0  0  0  0  0  0  0  0  0  0  0  0
   -1.8256    1.4870   11.1348 C   0  0  0  0  0  0  0  0  0  0  0  0
   -2.0961    3.9924   11.2654 C   0  0  0  0  0  0  0  0  0  0  0  0
   -1.4000    5.2916   11.3758 O   0  0  0  0  0  0  0  0  0  0  0  0
  1  3  1  0  0  0  0
  1  2  1  6  0  0  0
  3  5  1  0  0  0  0
  3  4  1  6  0  0  0
  5  6  1  1  0  0  0
  7  8  1  6  0  0  0
  7  5  1  0  0  0  0
  9 10  1  1  0  0  0
  9  7  1  0  0  0  0
 10  1  1  0  0  0  0
 11 13  1  1  0  0  0
 11  9  1  0  0  0  0
 12 11  1  0  0  0  0
 14 15  1  1  0  0  0
 16 14  1  0  0  0  0
 17 18  1  6  0  0  0
 17 16  1  0  0  0  0
 19  2  1  6  0  0  0
 19 20  1  0  0  0  0
 19 17  1  0  0  0  0
 20 21  1  1  0  0  0
 20 22  1  0  0  0  0
 22 23  1  1  0  0  0
 22 14  1  0  0  0  0
 24 23  1  6  0  0  0
 24 25  1  0  0  0  0
 25 27  1  0  0  0  0
 25 26  1  6  0  0  0
 27 28  1  1  0  0  0
 28 29  1  0  0  0  0
 30 31  1  1  0  0  0
 30 32  1  0  0  0  0
 30 27  1  0  0  0  0
 33 30  1  0  0  0  0
 34 33  1  0  0  0  0
 34 24  1  0  0  0  0
M  END
>  <CHROM.1>
-100.38456020,-178.51156298,161.57619338,155.58137183,-75.87926373,-88.04014341
-0.58380637,7.64580503,8.12508599,1.66295098,1.03821503,-0.44872644

>  <Name>
lig.pdb

>  <RI>
0

>  <Rbt.Current_Directory>
/home/itssahil/PROJECTS/Mol_Feturizer/New_Systems/rnas/4k32

>  <Rbt.Executable>
rbdock ($Id: //depot/dev/client3/rdock/2013.1/src/exe/rbdock.cxx#4 $)

>  <Rbt.Library>
libRbt.so (2013.1, Build901 2013/11/27)

>  <Rbt.Parameter_File>
/export/apps/rDock/src/rDock_2013.1_src/data/scripts/dock_solv.prm

>  <Rbt.Receptor>
prm/blind_docking_60.prm

>  <SCORE>
9.30952

>  <SCORE.INTER>
2.3575

>  <SCORE.INTER.CONST>
1

>  <SCORE.INTER.POLAR>
0

>  <SCORE.INTER.ROT>
6

>  <SCORE.INTER.SOLV>
19.0371

>  <SCORE.INTER.VDW>
-12.374

>  <SCORE.INTER.norm>
0.0693382

>  <SCORE.INTRA>
3.13594

>  <SCORE.INTRA.DIHEDRAL>
-6.67968

>  <SCORE.INTRA.DIHEDRAL.0>
18.0069

>  <SCORE.INTRA.POLAR>
0

>  <SCORE.INTRA.POLAR.0>
0

>  <SCORE.INTRA.REPUL>
0

>  <SCORE.INTRA.REPUL.0>
0

>  <SCORE.INTRA.SOLV>
2.58534

>  <SCORE.INTRA.SOLV.lig_0>
-70.7393

>  <SCORE.INTRA.VDW>
5.18311

>  <SCORE.INTRA.VDW.0>
-3.23471

>  <SCORE.INTRA.norm>
0.0922336

>  <SCORE.RESTR>
3.81608

>  <SCORE.RESTR.CAVITY>
3.81608

>  <SCORE.RESTR.norm>
0.112238

>  <SCORE.SYSTEM>
0

>  <SCORE.SYSTEM.CONST>
0

>  <SCORE.SYSTEM.DIHEDRAL>
0

>  <SCORE.SYSTEM.SOLV>
0

>  <SCORE.SYSTEM.norm>
0

>  <SCORE.heavy>
34

>  <SCORE.norm>
0.273809

>  <RMSD>
30.275

$$$$
lig.pdb
 OpenBabel11021811503D
libRbt.so/2013.1/901 2013/11/27
 34 36  0  0  0  0  0  0  0  0999 V2000
   -0.3869   10.1425    7.7400 C   0  0  2  0  0  0  0  0  0  0  0  0
    0.2763    9.5025    6.6443 O   0  0  0  0  0  0  0  0  0  0  0  0
   -1.8946   10.4182    7.3250 C   0  0  2  0  0  0  0  0  0  0  0  0
   -2.6163    9.1641    7.0066 N   0  0  0  0  0  0  0  0  0  0  0  0
   -1.9266   11.3705    6.1032 C   0  0  1  0  0  0  0  0  0  0  0  0
   -3.2775   11.6363    5.7188 O   0  0  0  0  0  0  0  0  0  0  0  0
   -1.1842   12.6670    6.4729 C   0  0  2  0  0  0  0  0  0  0  0  0
   -1.2094   13.5563    5.3554 O   0  0  0  0  0  0  0  0  0  0  0  0
    0.2984   12.3297    6.8905 C   0  0  2  0  0  0  0  0  0  0  0  0
    0.3202   11.3932    8.0343 O   0  0  0  0  0  0  0  0  0  0  0  0
    1.0826   13.6049    7.2883 C   0  0  2  0  0  0  0  0  0  0  0  0
    0.2654   14.4384    8.1124 O   0  0  0  0  0  0  0  0  0  0  0  0
    1.5019   14.3978    6.0603 C   0  0  0  0  0  0  0  0  0  0  0  0
   -0.9794    5.4126    6.5315 C   0  0  2  0  0  0  0  0  0  0  0  0
   -0.9387    3.9495    6.4689 N   0  0  0  0  0  0  0  0  0  0  0  0
   -0.1429    5.9482    5.3369 C   0  0  0  0  0  0  0  0  0  0  0  0
   -0.1940    7.4997    5.3718 C   0  0  2  0  0  0  0  0  0  0  0  0
    0.5830    8.0521    4.2511 N   0  0  0  0  0  0  0  0  0  0  0  0
    0.3799    8.0443    6.7073 C   0  0  2  0  0  0  0  0  0  0  0  0
   -0.4469    7.4568    7.8943 C   0  0  2  0  0  0  0  0  0  0  0  0
    0.0914    7.9516    9.1280 O   0  0  0  0  0  0  0  0  0  0  0  0
   -0.3677    5.9109    7.9081 C   0  0  1  0  0  0  0  0  0  0  0  0
   -1.1654    5.4477    9.0257 O   0  0  0  0  0  0  0  0  0  0  0  0
   -0.5244    5.4830   10.3224 C   0  0  2  0  0  0  0  0  0  0  0  0
    0.6126    4.3955   10.2784 C   0  0  2  0  0  0  0  0  0  0  0  0
    1.5461    4.7151    9.2587 O   0  0  0  0  0  0  0  0  0  0  0  0
   -0.0388    2.9834   10.0245 C   0  0  1  0  0  0  0  0  0  0  0  0
    1.0081    1.9181    9.9648 N   0  0  0  0  0  0  0  0  0  0  0  0
    1.4044    1.7150    8.5548 C   0  0  0  0  0  0  0  0  0  0  0  0
   -1.0451    2.6884   11.1781 C   0  0  2  0  0  0  0  0  0  0  0  0
   -0.3324    2.6727   12.4140 O   0  0  0  0  0  0  0  0  0  0  0  0
   -1.7293    1.3352   11.0015 C   0  0  0  0  0  0  0  0  0  0  0  0
   -2.1237    3.8181   11.2181 C   0  0  0  0  0  0  0  0  0  0  0  0
   -1.4935    5.1447   11.3840 O   0  0  0  0  0  0  0  0  0  0  0  0
  1  3  1  0  0  0  0
  1  2  1  6  0  0  0
  3  5  1  0  0  0  0
  3  4  1  6  0  0  0
  5  6  1  1  0  0  0
  7  8  1  6  0  0  0
  7  5  1  0  0  0  0
  9 10  1  1  0  0  0
  9  7  1  0  0  0  0
 10  1  1  0  0  0  0
 11 13  1  6  0  0  0
 11  9  1  0  0  0  0
 12 11  1  0  0  0  0
 14 15  1  1  0  0  0
 16 14  1  0  0  0  0
 17 18  1  6  0  0  0
 17 16  1  0  0  0  0
 19  2  1  6  0  0  0
 19 20  1  0  0  0  0
 19 17  1  0  0  0  0
 20 21  1  1  0  0  0
 20 22  1  0  0  0  0
 22 23  1  1  0  0  0
 22 14  1  0  0  0  0
 24 23  1  6  0  0  0
 24 25  1  0  0  0  0
 25 27  1  0  0  0  0
 25 26  1  6  0  0  0
 27 28  1  1  0  0  0
 28 29  1  0  0  0  0
 30 31  1  1  0  0  0
 30 32  1  0  0  0  0
 30 27  1  0  0  0  0
 33 30  1  0  0  0  0
 34 33  1  0  0  0  0
 34 24  1  0  0  0  0
M  END
>  <CHROM.1>
-97.46011011,43.50985602,127.01227084,162.25787209,-68.19103254,-93.29949669
-0.42678002,7.59283561,8.05001841,1.67227362,1.50944389,-0.47242315

>  <Name>
lig.pdb

>  <RI>
0

>  <Rbt.Current_Directory>
/home/itssahil/PROJECTS/Mol_Feturizer/New_Systems/rnas/4k32

>  <Rbt.Executable>
rbdock ($Id: //depot/dev/client3/rdock/2013.1/src/exe/rbdock.cxx#4 $)

>  <Rbt.Library>
libRbt.so (2013.1, Build901 2013/11/27)

>  <Rbt.Parameter_File>
/export/apps/rDock/src/rDock_2013.1_src/data/scripts/dock_solv.prm

>  <Rbt.Receptor>
prm/blind_docking_60.prm

>  <SCORE>
5.07159

>  <SCORE.INTER>
-1.22449

>  <SCORE.INTER.CONST>
1

>  <SCORE.INTER.POLAR>
0

>  <SCORE.INTER.ROT>
6

>  <SCORE.INTER.SOLV>
18.2786

>  <SCORE.INTER.VDW>
-14.5092

>  <SCORE.INTER.norm>
-0.0360143

>  <SCORE.INTRA>
4.18517

>  <SCORE.INTRA.DIHEDRAL>
-2.63854

>  <SCORE.INTRA.DIHEDRAL.0>
18.0069

>  <SCORE.INTRA.POLAR>
0

>  <SCORE.INTRA.POLAR.0>
0

>  <SCORE.INTRA.REPUL>
0

>  <SCORE.INTRA.REPUL.0>
0

>  <SCORE.INTRA.SOLV>
2.49437

>  <SCORE.INTRA.SOLV.lig_0>
-70.7393

>  <SCORE.INTRA.VDW>
4.25726

>  <SCORE.INTRA.VDW.0>
-3.23471

>  <SCORE.INTRA.norm>
0.123093

>  <SCORE.RESTR>
2.1109

>  <SCORE.RESTR.CAVITY>
2.1109

>  <SCORE.RESTR.norm>
0.0620854

>  <SCORE.SYSTEM>
0

>  <SCORE.SYSTEM.CONST>
0

>  <SCORE.SYSTEM.DIHEDRAL>
0

>  <SCORE.SYSTEM.SOLV>
0

>  <SCORE.SYSTEM.norm>
0

>  <SCORE.heavy>
34

>  <SCORE.norm>
0.149164

>  <RMSD>
30.360

$$$$
lig.pdb
 OpenBabel11021811503D
libRbt.so/2013.1/901 2013/11/27
 34 36  0  0  0  0  0  0  0  0999 V2000
   -0.8125    5.7183    8.5538 C   0  0  2  0  0  0  0  0  0  0  0  0
   -0.9804    6.8598    9.4017 O   0  0  0  0  0  0  0  0  0  0  0  0
    0.1222    4.6717    9.2968 C   0  0  2  0  0  0  0  0  0  0  0  0
   -0.4662    4.2215   10.5798 N   0  0  0  0  0  0  0  0  0  0  0  0
    1.5117    5.3097    9.5483 C   0  0  1  0  0  0  0  0  0  0  0  0
    2.3705    4.3787   10.2110 O   0  0  0  0  0  0  0  0  0  0  0  0
    2.1005    5.7501    8.1962 C   0  0  2  0  0  0  0  0  0  0  0  0
    3.3845    6.3372    8.4133 O   0  0  0  0  0  0  0  0  0  0  0  0
    1.1241    6.7737    7.4996 C   0  0  2  0  0  0  0  0  0  0  0  0
   -0.2095    6.1691    7.2952 O   0  0  0  0  0  0  0  0  0  0  0  0
    1.6677    7.2341    6.1242 C   0  0  2  0  0  0  0  0  0  0  0  0
    0.7853    8.2028    5.5544 O   0  0  0  0  0  0  0  0  0  0  0  0
    1.7901    6.0632    5.1616 C   0  0  0  0  0  0  0  0  0  0  0  0
   -1.9083    9.7143    6.3509 C   0  0  2  0  0  0  0  0  0  0  0  0
   -2.5461   10.8208    5.6333 N   0  0  0  0  0  0  0  0  0  0  0  0
   -3.0381    8.7534    6.8137 C   0  0  0  0  0  0  0  0  0  0  0  0
   -2.3792    7.5596    7.5565 C   0  0  2  0  0  0  0  0  0  0  0  0
   -3.4150    6.6179    8.0093 N   0  0  0  0  0  0  0  0  0  0  0  0
   -1.5649    8.0502    8.7836 C   0  0  2  0  0  0  0  0  0  0  0  0
   -0.4664    9.0488    8.2997 C   0  0  2  0  0  0  0  0  0  0  0  0
    0.2778    9.5101    9.4355 O   0  0  0  0  0  0  0  0  0  0  0  0
   -1.1054   10.2730    7.6002 C   0  0  1  0  0  0  0  0  0  0  0  0
   -0.0249   11.1395    7.1742 O   0  0  0  0  0  0  0  0  0  0  0  0
    0.4532   12.0893    8.1556 C   0  0  2  0  0  0  0  0  0  0  0  0
   -0.7430   13.0750    8.4297 C   0  0  2  0  0  0  0  0  0  0  0  0
   -1.8533   12.3548    8.9414 O   0  0  0  0  0  0  0  0  0  0  0  0
   -1.1178   13.8112    7.0880 C   0  0  1  0  0  0  0  0  0  0  0  0
   -2.2593   14.7528    7.2993 N   0  0  0  0  0  0  0  0  0  0  0  0
   -3.4736   14.1793    6.6802 C   0  0  0  0  0  0  0  0  0  0  0  0
    0.1365   14.5870    6.5826 C   0  0  2  0  0  0  0  0  0  0  0  0
    0.5082   15.5480    7.5694 O   0  0  0  0  0  0  0  0  0  0  0  0
   -0.1417   15.3246    5.2753 C   0  0  0  0  0  0  0  0  0  0  0  0
    1.3122   13.5793    6.3741 C   0  0  0  0  0  0  0  0  0  0  0  0
    1.6052   12.8436    7.6221 O   0  0  0  0  0  0  0  0  0  0  0  0
  1  3  1  0  0  0  0
  1  2  1  1  0  0  0
  3  5  1  0  0  0  0
  3  4  1  1  0  0  0
  5  6  1  6  0  0  0
  7  8  1  1  0  0  0
  7  5  1  0  0  0  0
  9 10  1  6  0  0  0
  9  7  1  0  0  0  0
 10  1  1  0  0  0  0
 11 13  1  6  0  0  0
 11  9  1  0  0  0  0
 12 11  1  0  0  0  0
 14 15  1  1  0  0  0
 16 14  1  0  0  0  0
 17 18  1  1  0  0  0
 17 16  1  0  0  0  0
 19  2  1  6  0  0  0
 19 20  1  0  0  0  0
 19 17  1  0  0  0  0
 20 21  1  1  0  0  0
 20 22  1  0  0  0  0
 22 23  1  6  0  0  0
 22 14  1  0  0  0  0
 24 23  1  6  0  0  0
 24 25  1  0  0  0  0
 25 27  1  0  0  0  0
 25 26  1  6  0  0  0
 27 28  1  1  0  0  0
 28 29  1  0  0  0  0
 30 31  1  1  0  0  0
 30 32  1  0  0  0  0
 30 27  1  0  0  0  0
 33 30  1  0  0  0  0
 34 33  1  0  0  0  0
 34 24  1  0  0  0  0
M  END
>  <CHROM.1>
167.14285165,-177.46301605,23.60639273,157.55436826,-64.92859452,-106.79708933
-0.24503232,9.46717865,7.69492463,1.40473577,-0.04960810,2.94096217

>  <Name>
lig.pdb

>  <RI>
0

>  <Rbt.Current_Directory>
/home/itssahil/PROJECTS/Mol_Feturizer/New_Systems/rnas/4k32

>  <Rbt.Executable>
rbdock ($Id: //depot/dev/client3/rdock/2013.1/src/exe/rbdock.cxx#4 $)

>  <Rbt.Library>
libRbt.so (2013.1, Build901 2013/11/27)

>  <Rbt.Parameter_File>
/export/apps/rDock/src/rDock_2013.1_src/data/scripts/dock_solv.prm

>  <Rbt.Receptor>
prm/blind_docking_60.prm

>  <SCORE>
9.84363

>  <SCORE.INTER>
0.452237

>  <SCORE.INTER.CONST>
1

>  <SCORE.INTER.POLAR>
0

>  <SCORE.INTER.ROT>
6

>  <SCORE.INTER.SOLV>
15.4465

>  <SCORE.INTER.VDW>
-12.4473

>  <SCORE.INTER.norm>
0.0133011

>  <SCORE.INTRA>
2.2642

>  <SCORE.INTRA.DIHEDRAL>
-8.98104

>  <SCORE.INTRA.DIHEDRAL.0>
18.0069

>  <SCORE.INTRA.POLAR>
0

>  <SCORE.INTRA.POLAR.0>
0

>  <SCORE.INTRA.REPUL>
0.0122016

>  <SCORE.INTRA.REPUL.0>
0

>  <SCORE.INTRA.SOLV>
2.02828

>  <SCORE.INTRA.SOLV.lig_0>
-70.7393

>  <SCORE.INTRA.VDW>
5.67957

>  <SCORE.INTRA.VDW.0>
-3.23471

>  <SCORE.INTRA.norm>
0.0665942

>  <SCORE.RESTR>
7.12719

>  <SCORE.RESTR.CAVITY>
7.12719

>  <SCORE.RESTR.norm>
0.209623

>  <SCORE.SYSTEM>
0

>  <SCORE.SYSTEM.CONST>
0

>  <SCORE.SYSTEM.DIHEDRAL>
0

>  <SCORE.SYSTEM.SOLV>
0

>  <SCORE.SYSTEM.norm>
0

>  <SCORE.heavy>
34

>  <SCORE.norm>
0.289519

>  <RMSD>
30.811

$$$$
lig.pdb
 OpenBabel11021811503D
libRbt.so/2013.1/901 2013/11/27
 34 36  0  0  0  0  0  0  0  0999 V2000
    1.5794    6.0509    9.2320 C   0  0  2  0  0  0  0  0  0  0  0  0
    0.8930    5.9418    7.9801 O   0  0  0  0  0  0  0  0  0  0  0  0
    2.8643    5.1193    9.1851 C   0  0  2  0  0  0  0  0  0  0  0  0
    3.7944    5.5178    8.1030 N   0  0  0  0  0  0  0  0  0  0  0  0
    2.4256    3.6463    8.9883 C   0  0  1  0  0  0  0  0  0  0  0  0
    3.5700    2.7904    8.9506 O   0  0  0  0  0  0  0  0  0  0  0  0
    1.4755    3.2605   10.1360 C   0  0  2  0  0  0  0  0  0  0  0  0
    1.0659    1.9024    9.9688 O   0  0  0  0  0  0  0  0  0  0  0  0
    0.2299    4.2273   10.1423 C   0  0  2  0  0  0  0  0  0  0  0  0
    0.6594    5.6338   10.2952 O   0  0  0  0  0  0  0  0  0  0  0  0
   -0.7493    3.8878   11.2935 C   0  0  2  0  0  0  0  0  0  0  0  0
   -0.9144    2.4716   11.3868 O   0  0  0  0  0  0  0  0  0  0  0  0
   -2.1121    4.5212   11.0607 C   0  0  0  0  0  0  0  0  0  0  0  0
   -1.8752    8.7695    6.3499 C   0  0  2  0  0  0  0  0  0  0  0  0
   -3.1163    9.4998    6.0805 N   0  0  0  0  0  0  0  0  0  0  0  0
   -2.1762    7.2590    6.1462 C   0  0  0  0  0  0  0  0  0  0  0  0
   -0.8646    6.4688    6.4039 C   0  0  2  0  0  0  0  0  0  0  0  0
   -1.1019    5.0289    6.2162 N   0  0  0  0  0  0  0  0  0  0  0  0
   -0.3414    6.7156    7.8444 C   0  0  2  0  0  0  0  0  0  0  0  0
   -0.0900    8.2440    8.0401 C   0  0  2  0  0  0  0  0  0  0  0  0
    0.3823    8.4721    9.3748 O   0  0  0  0  0  0  0  0  0  0  0  0
   -1.3978    9.0471    7.8374 C   0  0  1  0  0  0  0  0  0  0  0  0
   -1.0777   10.4480    8.0242 O   0  0  0  0  0  0  0  0  0  0  0  0
    0.0607   10.9445    7.2819 C   0  0  2  0  0  0  0  0  0  0  0  0
    0.3391   12.3951    7.8259 C   0  0  2  0  0  0  0  0  0  0  0  0
    0.6403   12.3406    9.2114 O   0  0  0  0  0  0  0  0  0  0  0  0
   -0.9270   13.2940    7.5587 C   0  0  1  0  0  0  0  0  0  0  0  0
   -0.7108   14.6820    8.0696 N   0  0  0  0  0  0  0  0  0  0  0  0
   -1.6773   14.9477    9.1567 C   0  0  0  0  0  0  0  0  0  0  0  0
   -1.2005   13.3194    6.0240 C   0  0  2  0  0  0  0  0  0  0  0  0
   -0.0659   13.8812    5.3664 O   0  0  0  0  0  0  0  0  0  0  0  0
   -2.4229   14.1667    5.6799 C   0  0  0  0  0  0  0  0  0  0  0  0
   -1.4191   11.8572    5.5186 C   0  0  0  0  0  0  0  0  0  0  0  0
   -0.2535   11.0072    5.8404 O   0  0  0  0  0  0  0  0  0  0  0  0
  1  3  1  0  0  0  0
  1  2  1  6  0  0  0
  3  5  1  0  0  0  0
  3  4  1  6  0  0  0
  5  6  1  1  0  0  0
  7  8  1  6  0  0  0
  7  5  1  0  0  0  0
  9 10  1  1  0  0  0
  9  7  1  0  0  0  0
 10  1  1  0  0  0  0
 11 13  1  6  0  0  0
 11  9  1  0  0  0  0
 12 11  1  0  0  0  0
 14 15  1  1  0  0  0
 16 14  1  0  0  0  0
 17 18  1  1  0  0  0
 17 16  1  0  0  0  0
 19  2  1  6  0  0  0
 19 20  1  0  0  0  0
 19 17  1  0  0  0  0
 20 21  1  1  0  0  0
 20 22  1  0  0  0  0
 22 23  1  6  0  0  0
 22 14  1  0  0  0  0
 24 23  1  1  0  0  0
 24 25  1  0  0  0  0
 25 27  1  0  0  0  0
 25 26  1  1  0  0  0
 27 28  1  6  0  0  0
 28 29  1  0  0  0  0
 30 31  1  6  0  0  0
 30 32  1  0  0  0  0
 30 27  1  0  0  0  0
 33 30  1  0  0  0  0
 34 33  1  0  0  0  0
 34 24  1  0  0  0  0
M  END
>  <CHROM.1>
178.82030128,-42.90076652,178.22908932,-66.03611696,-171.04646699,-116.02287252
-0.12455036,8.16474724,8.15838587,-1.33650976,-0.48863167,-0.17889373

>  <Name>
lig.pdb

>  <RI>
0

>  <Rbt.Current_Directory>
/home/itssahil/PROJECTS/Mol_Feturizer/New_Systems/rnas/4k32

>  <Rbt.Executable>
rbdock ($Id: //depot/dev/client3/rdock/2013.1/src/exe/rbdock.cxx#4 $)

>  <Rbt.Library>
libRbt.so (2013.1, Build901 2013/11/27)

>  <Rbt.Parameter_File>
/export/apps/rDock/src/rDock_2013.1_src/data/scripts/dock_solv.prm

>  <Rbt.Receptor>
prm/blind_docking_60.prm

>  <SCORE>
-3.99538

>  <SCORE.INTER>
-1.82544

>  <SCORE.INTER.CONST>
1

>  <SCORE.INTER.POLAR>
0

>  <SCORE.INTER.ROT>
6

>  <SCORE.INTER.SOLV>
14.7944

>  <SCORE.INTER.VDW>
-13.7484

>  <SCORE.INTER.norm>
-0.0536894

>  <SCORE.INTRA>
-5.57867

>  <SCORE.INTRA.DIHEDRAL>
-15.1341

>  <SCORE.INTRA.DIHEDRAL.0>
18.0069

>  <SCORE.INTRA.POLAR>
0

>  <SCORE.INTRA.POLAR.0>
0

>  <SCORE.INTRA.REPUL>
0

>  <SCORE.INTRA.REPUL.0>
0

>  <SCORE.INTRA.SOLV>
-0.733332

>  <SCORE.INTRA.SOLV.lig_0>
-70.7393

>  <SCORE.INTRA.VDW>
2.35504

>  <SCORE.INTRA.VDW.0>
-3.23471

>  <SCORE.INTRA.norm>
-0.164079

>  <SCORE.RESTR>
3.40873

>  <SCORE.RESTR.CAVITY>
3.40873

>  <SCORE.RESTR.norm>
0.100257

>  <SCORE.SYSTEM>
0

>  <SCORE.SYSTEM.CONST>
0

>  <SCORE.SYSTEM.DIHEDRAL>
0

>  <SCORE.SYSTEM.SOLV>
0

>  <SCORE.SYSTEM.norm>
0

>  <SCORE.heavy>
34

>  <SCORE.norm>
-0.117511

>  <RMSD>
30.886

$$$$
lig.pdb
 OpenBabel11021811503D
libRbt.so/2013.1/901 2013/11/27
 34 36  0  0  0  0  0  0  0  0999 V2000
   -0.1552   11.3360    7.5534 C   0  0  2  0  0  0  0  0  0  0  0  0
   -0.9079   11.0709    6.3646 O   0  0  0  0  0  0  0  0  0  0  0  0
   -1.1075   12.0505    8.6040 C   0  0  2  0  0  0  0  0  0  0  0  0
   -2.2677   11.2017    8.9620 N   0  0  0  0  0  0  0  0  0  0  0  0
   -1.5998   13.3984    8.0195 C   0  0  1  0  0  0  0  0  0  0  0  0
   -2.4540   14.0605    8.9551 O   0  0  0  0  0  0  0  0  0  0  0  0
   -0.3724   14.2605    7.6746 C   0  0  2  0  0  0  0  0  0  0  0  0
   -0.8124   15.5088    7.1377 O   0  0  0  0  0  0  0  0  0  0  0  0
    0.5417   13.4948    6.6428 C   0  0  2  0  0  0  0  0  0  0  0  0
    0.9784   12.1945    7.1943 O   0  0  0  0  0  0  0  0  0  0  0  0
    1.8016   14.3182    6.2771 C   0  0  2  0  0  0  0  0  0  0  0  0
    2.3933   14.8508    7.4637 O   0  0  0  0  0  0  0  0  0  0  0  0
    1.4543   15.4711    5.3482 C   0  0  0  0  0  0  0  0  0  0  0  0
   -1.3850    7.2782    4.4398 C   0  0  2  0  0  0  0  0  0  0  0  0
   -1.1249    6.1037    3.6037 N   0  0  0  0  0  0  0  0  0  0  0  0
   -1.2105    8.5323    3.5393 C   0  0  0  0  0  0  0  0  0  0  0  0
   -1.5063    9.7885    4.4027 C   0  0  2  0  0  0  0  0  0  0  0  0
   -1.3581   11.0037    3.5865 N   0  0  0  0  0  0  0  0  0  0  0  0
   -0.5411    9.8685    5.6158 C   0  0  2  0  0  0  0  0  0  0  0  0
   -0.7012    8.5780    6.4800 C   0  0  2  0  0  0  0  0  0  0  0  0
    0.1992    8.6478    7.5940 O   0  0  0  0  0  0  0  0  0  0  0  0
   -0.3613    7.3153    5.6515 C   0  0  1  0  0  0  0  0  0  0  0  0
   -0.5446    6.1682    6.5178 O   0  0  0  0  0  0  0  0  0  0  0  0
    0.3845    5.0749    6.3302 C   0  0  2  0  0  0  0  0  0  0  0  0
    0.2921    4.1939    7.6313 C   0  0  2  0  0  0  0  0  0  0  0  0
   -1.0283    3.6975    7.7844 O   0  0  0  0  0  0  0  0  0  0  0  0
    0.7138    5.0679    8.8726 C   0  0  1  0  0  0  0  0  0  0  0  0
    0.6311    4.2724   10.1354 N   0  0  0  0  0  0  0  0  0  0  0  0
   -0.6861    4.5088   10.7645 C   0  0  0  0  0  0  0  0  0  0  0  0
    2.1706    5.5756    8.6479 C   0  0  2  0  0  0  0  0  0  0  0  0
    3.0367    4.4470    8.5395 O   0  0  0  0  0  0  0  0  0  0  0  0
    2.6544    6.4420    9.8081 C   0  0  0  0  0  0  0  0  0  0  0  0
    2.2269    6.3995    7.3216 C   0  0  0  0  0  0  0  0  0  0  0  0
    1.7599    5.5900    6.1765 O   0  0  0  0  0  0  0  0  0  0  0  0
  1  3  1  0  0  0  0
  1  2  1  6  0  0  0
  3  5  1  0  0  0  0
  3  4  1  6  0  0  0
  5  6  1  1  0  0  0
  7  8  1  6  0  0  0
  7  5  1  0  0  0  0
  9 10  1  1  0  0  0
  9  7  1  0  0  0  0
 10  1  1  0  0  0  0
 11 13  1  6  0  0  0
 11  9  1  0  0  0  0
 12 11  1  0  0  0  0
 14 15  1  6  0  0  0
 16 14  1  0  0  0  0
 17 18  1  6  0  0  0
 17 16  1  0  0  0  0
 19  2  1  1  0  0  0
 19 20  1  0  0  0  0
 19 17  1  0  0  0  0
 20 21  1  1  0  0  0
 20 22  1  0  0  0  0
 22 23  1  1  0  0  0
 22 14  1  0  0  0  0
 24 23  1  1  0  0  0
 24 25  1  0  0  0  0
 25 27  1  0  0  0  0
 25 26  1  1  0  0  0
 27 28  1  1  0  0  0
 28 29  1  0  0  0  0
 30 31  1  6  0  0  0
 30 32  1  0  0  0  0
 30 27  1  0  0  0  0
 33 30  1  0  0  0  0
 34 33  1  0  0  0  0
 34 24  1  0  0  0  0
M  END
>  <CHROM.1>
-147.66419951,45.87695824,178.92968498,99.66757817,162.39801150,-94.56299525
0.04960991,9.18518643,7.07419497,-1.80505900,1.19358527,-3.02538003

>  <Name>
lig.pdb

>  <RI>
0

>  <Rbt.Current_Directory>
/home/itssahil/PROJECTS/Mol_Feturizer/New_Systems/rnas/4k32

>  <Rbt.Executable>
rbdock ($Id: //depot/dev/client3/rdock/2013.1/src/exe/rbdock.cxx#4 $)

>  <Rbt.Library>
libRbt.so (2013.1, Build901 2013/11/27)

>  <Rbt.Parameter_File>
/export/apps/rDock/src/rDock_2013.1_src/data/scripts/dock_solv.prm

>  <Rbt.Receptor>
prm/blind_docking_60.prm

>  <SCORE>
-2.83898

>  <SCORE.INTER>
-5.16674

>  <SCORE.INTER.CONST>
1

>  <SCORE.INTER.POLAR>
0

>  <SCORE.INTER.ROT>
6

>  <SCORE.INTER.SOLV>
23.3255

>  <SCORE.INTER.VDW>
-18.8197

>  <SCORE.INTER.norm>
-0.151963

>  <SCORE.INTRA>
-2.29118

>  <SCORE.INTRA.DIHEDRAL>
-5.77377

>  <SCORE.INTRA.DIHEDRAL.0>
18.0069

>  <SCORE.INTRA.POLAR>
0

>  <SCORE.INTRA.POLAR.0>
0

>  <SCORE.INTRA.REPUL>
0

>  <SCORE.INTRA.REPUL.0>
0

>  <SCORE.INTRA.SOLV>
-1.26141

>  <SCORE.INTRA.SOLV.lig_0>
-70.7393

>  <SCORE.INTRA.VDW>
1.22641

>  <SCORE.INTRA.VDW.0>
-3.23471

>  <SCORE.INTRA.norm>
-0.0673877

>  <SCORE.RESTR>
4.61894

>  <SCORE.RESTR.CAVITY>
4.61894

>  <SCORE.RESTR.norm>
0.135851

>  <SCORE.SYSTEM>
0

>  <SCORE.SYSTEM.CONST>
0

>  <SCORE.SYSTEM.DIHEDRAL>
0

>  <SCORE.SYSTEM.SOLV>
0

>  <SCORE.SYSTEM.norm>
0

>  <SCORE.heavy>
34

>  <SCORE.norm>
-0.0834995

>  <RMSD>
30.973

$$$$
lig.pdb
 OpenBabel11021811503D
libRbt.so/2013.1/901 2013/11/27
 34 36  0  0  0  0  0  0  0  0999 V2000
    0.5216    6.0261    9.3283 C   0  0  2  0  0  0  0  0  0  0  0  0
   -0.2778    5.7631    8.1699 O   0  0  0  0  0  0  0  0  0  0  0  0
    1.9853    5.4685    9.0678 C   0  0  2  0  0  0  0  0  0  0  0  0
    2.6227    6.1192    7.8993 N   0  0  0  0  0  0  0  0  0  0  0  0
    1.9212    3.9359    8.8486 C   0  0  1  0  0  0  0  0  0  0  0  0
    3.2321    3.4141    8.6191 O   0  0  0  0  0  0  0  0  0  0  0  0
    1.2704    3.2910   10.0852 C   0  0  2  0  0  0  0  0  0  0  0  0
    1.2084    1.8763    9.8980 O   0  0  0  0  0  0  0  0  0  0  0  0
   -0.1705    3.8937   10.3025 C   0  0  2  0  0  0  0  0  0  0  0  0
   -0.1039    5.3605   10.4757 O   0  0  0  0  0  0  0  0  0  0  0  0
   -0.8606    3.2855   11.5488 C   0  0  2  0  0  0  0  0  0  0  0  0
   -1.0189    1.8761   11.3751 O   0  0  0  0  0  0  0  0  0  0  0  0
   -2.2315    3.9039   11.7745 C   0  0  0  0  0  0  0  0  0  0  0  0
   -0.5568    9.0947    5.4980 C   0  0  2  0  0  0  0  0  0  0  0  0
   -1.1096   10.1972    4.7073 N   0  0  0  0  0  0  0  0  0  0  0  0
   -1.3909    7.8266    5.1663 C   0  0  0  0  0  0  0  0  0  0  0  0
   -0.8040    6.6398    5.9777 C   0  0  2  0  0  0  0  0  0  0  0  0
   -1.5621    5.4122    5.6895 N   0  0  0  0  0  0  0  0  0  0  0  0
   -0.8600    6.9275    7.5020 C   0  0  2  0  0  0  0  0  0  0  0  0
   -0.0543    8.2302    7.8044 C   0  0  2  0  0  0  0  0  0  0  0  0
   -0.1163    8.5013    9.2113 O   0  0  0  0  0  0  0  0  0  0  0  0
   -0.6547    9.4376    7.0441 C   0  0  1  0  0  0  0  0  0  0  0  0
    0.1524   10.5967    7.3682 O   0  0  0  0  0  0  0  0  0  0  0  0
   -0.3694   11.4664    8.4002 C   0  0  2  0  0  0  0  0  0  0  0  0
   -1.5117   12.3119    7.7239 C   0  0  2  0  0  0  0  0  0  0  0  0
   -2.5312   11.4489    7.2453 O   0  0  0  0  0  0  0  0  0  0  0  0
   -0.8935   13.1608    6.5492 C   0  0  1  0  0  0  0  0  0  0  0  0
   -1.9474   13.9744    5.8696 N   0  0  0  0  0  0  0  0  0  0  0  0
   -2.0952   13.4991    4.4772 C   0  0  0  0  0  0  0  0  0  0  0  0
    0.2107   14.0902    7.1386 C   0  0  2  0  0  0  0  0  0  0  0  0
   -0.3882   14.9616    8.0965 O   0  0  0  0  0  0  0  0  0  0  0  0
    0.8688   14.9446    6.0581 C   0  0  0  0  0  0  0  0  0  0  0  0
    1.2948   13.2137    7.8441 C   0  0  0  0  0  0  0  0  0  0  0  0
    0.6893   12.3691    8.8951 O   0  0  0  0  0  0  0  0  0  0  0  0
  1  3  1  0  0  0  0
  1  2  1  6  0  0  0
  3  5  1  0  0  0  0
  3  4  1  6  0  0  0
  5  6  1  1  0  0  0
  7  8  1  6  0  0  0
  7  5  1  0  0  0  0
  9 10  1  1  0  0  0
  9  7  1  0  0  0  0
 10  1  1  0  0  0  0
 11 13  1  6  0  0  0
 11  9  1  0  0  0  0
 12 11  1  0  0  0  0
 14 15  1  6  0  0  0
 16 14  1  0  0  0  0
 17 18  1  1  0  0  0
 17 16  1  0  0  0  0
 19  2  1  1  0  0  0
 19 20  1  0  0  0  0
 19 17  1  0  0  0  0
 20 21  1  1  0  0  0
 20 22  1  0  0  0  0
 22 23  1  6  0  0  0
 22 14  1  0  0  0  0
 24 23  1  6  0  0  0
 24 25  1  0  0  0  0
 25 27  1  0  0  0  0
 25 26  1  6  0  0  0
 27 28  1  1  0  0  0
 28 29  1  0  0  0  0
 30 31  1  1  0  0  0
 30 32  1  0  0  0  0
 30 27  1  0  0  0  0
 33 30  1  0  0  0  0
 34 33  1  0  0  0  0
 34 24  1  0  0  0  0
M  END
>  <CHROM.1>
-120.42854615,-61.52049892,142.52454972,145.35868128,-77.08631721,-115.06077090
-0.16285943,8.29980388,8.02101585,-1.30474418,-1.17651655,-0.07646403

>  <Name>
lig.pdb

>  <RI>
0

>  <Rbt.Current_Directory>
/home/itssahil/PROJECTS/Mol_Feturizer/New_Systems/rnas/4k32

>  <Rbt.Executable>
rbdock ($Id: //depot/dev/client3/rdock/2013.1/src/exe/rbdock.cxx#4 $)

>  <Rbt.Library>
libRbt.so (2013.1, Build901 2013/11/27)

>  <Rbt.Parameter_File>
/export/apps/rDock/src/rDock_2013.1_src/data/scripts/dock_solv.prm

>  <Rbt.Receptor>
prm/blind_docking_60.prm

>  <SCORE>
-0.0463944

>  <SCORE.INTER>
-6.54912

>  <SCORE.INTER.CONST>
1

>  <SCORE.INTER.POLAR>
0

>  <SCORE.INTER.ROT>
6

>  <SCORE.INTER.SOLV>
15.3505

>  <SCORE.INTER.VDW>
-17.0829

>  <SCORE.INTER.norm>
-0.192621

>  <SCORE.INTRA>
4.18286

>  <SCORE.INTRA.DIHEDRAL>
1.16481

>  <SCORE.INTRA.DIHEDRAL.0>
18.0069

>  <SCORE.INTRA.POLAR>
0

>  <SCORE.INTRA.POLAR.0>
0

>  <SCORE.INTRA.REPUL>
0

>  <SCORE.INTRA.REPUL.0>
0

>  <SCORE.INTRA.SOLV>
1.6367

>  <SCORE.INTRA.SOLV.lig_0>
-70.7393

>  <SCORE.INTRA.VDW>
2.78211

>  <SCORE.INTRA.VDW.0>
-3.23471

>  <SCORE.INTRA.norm>
0.123025

>  <SCORE.RESTR>
2.31986

>  <SCORE.RESTR.CAVITY>
2.31986

>  <SCORE.RESTR.norm>
0.0682311

>  <SCORE.SYSTEM>
0

>  <SCORE.SYSTEM.CONST>
0

>  <SCORE.SYSTEM.DIHEDRAL>
0

>  <SCORE.SYSTEM.SOLV>
0

>  <SCORE.SYSTEM.norm>
0

>  <SCORE.heavy>
34

>  <SCORE.norm>
-0.00136454

>  <RMSD>
31.081

$$$$
lig.pdb
 OpenBabel11021811503D
libRbt.so/2013.1/901 2013/11/27
 34 36  0  0  0  0  0  0  0  0999 V2000
    1.1616    5.8525    9.1000 C   0  0  2  0  0  0  0  0  0  0  0  0
    0.4340    5.5916    7.8947 O   0  0  0  0  0  0  0  0  0  0  0  0
    2.4479    4.9218    9.1237 C   0  0  2  0  0  0  0  0  0  0  0  0
    3.3395    5.1852    7.9702 N   0  0  0  0  0  0  0  0  0  0  0  0
    2.0086    3.4359    9.1229 C   0  0  1  0  0  0  0  0  0  0  0  0
    3.1544    2.5817    9.1512 O   0  0  0  0  0  0  0  0  0  0  0  0
    1.0991    3.1933   10.3405 C   0  0  2  0  0  0  0  0  0  0  0  0
    0.6895    1.8249   10.3541 O   0  0  0  0  0  0  0  0  0  0  0  0
   -0.1495    4.1538   10.2710 C   0  0  2  0  0  0  0  0  0  0  0  0
    0.2794    5.5683   10.2366 O   0  0  0  0  0  0  0  0  0  0  0  0
   -1.0881    3.9574   11.4873 C   0  0  2  0  0  0  0  0  0  0  0  0
   -1.6557    2.6465   11.4542 O   0  0  0  0  0  0  0  0  0  0  0  0
   -2.2174    4.9758   11.4802 C   0  0  0  0  0  0  0  0  0  0  0  0
   -0.7038    8.9327    5.4741 C   0  0  2  0  0  0  0  0  0  0  0  0
   -1.5161    9.9714    4.8357 N   0  0  0  0  0  0  0  0  0  0  0  0
   -1.4044    7.5717    5.2081 C   0  0  0  0  0  0  0  0  0  0  0  0
   -0.5443    6.4537    5.8572 C   0  0  2  0  0  0  0  0  0  0  0  0
   -1.1692    5.1421    5.6247 N   0  0  0  0  0  0  0  0  0  0  0  0
   -0.3958    6.6838    7.3852 C   0  0  2  0  0  0  0  0  0  0  0  0
    0.2679    8.0759    7.6285 C   0  0  2  0  0  0  0  0  0  0  0  0
    0.3942    8.2923    9.0405 O   0  0  0  0  0  0  0  0  0  0  0  0
   -0.6000    9.2109    7.0328 C   0  0  1  0  0  0  0  0  0  0  0  0
    0.0874   10.4604    7.2898 O   0  0  0  0  0  0  0  0  0  0  0  0
   -0.4727   11.2913    8.3335 C   0  0  2  0  0  0  0  0  0  0  0  0
   -1.5728   12.1800    7.6425 C   0  0  2  0  0  0  0  0  0  0  0  0
   -2.5780   11.3516    7.0798 O   0  0  0  0  0  0  0  0  0  0  0  0
   -0.8910   13.0707    6.5360 C   0  0  1  0  0  0  0  0  0  0  0  0
   -1.9029   13.9264    5.8445 N   0  0  0  0  0  0  0  0  0  0  0  0
   -2.0832   13.4323    4.4625 C   0  0  0  0  0  0  0  0  0  0  0  0
    0.1943   13.9595    7.2161 C   0  0  2  0  0  0  0  0  0  0  0  0
   -0.4394   14.7964    8.1824 O   0  0  0  0  0  0  0  0  0  0  0  0
    0.9116   14.8513    6.2057 C   0  0  0  0  0  0  0  0  0  0  0  0
    1.2345   13.0395    7.9322 C   0  0  0  0  0  0  0  0  0  0  0  0
    0.5713   12.1581    8.9160 O   0  0  0  0  0  0  0  0  0  0  0  0
  1  3  1  0  0  0  0
  1  2  1  6  0  0  0
  3  5  1  0  0  0  0
  3  4  1  6  0  0  0
  5  6  1  1  0  0  0
  7  8  1  6  0  0  0
  7  5  1  0  0  0  0
  9 10  1  1  0  0  0
  9  7  1  0  0  0  0
 10  1  1  0  0  0  0
 11 13  1  6  0  0  0
 11  9  1  0  0  0  0
 12 11  1  0  0  0  0
 14 15  1  6  0  0  0
 16 14  1  0  0  0  0
 17 18  1  1  0  0  0
 17 16  1  0  0  0  0
 19  2  1  6  0  0  0
 19 20  1  0  0  0  0
 19 17  1  0  0  0  0
 20 21  1  1  0  0  0
 20 22  1  0  0  0  0
 22 23  1  6  0  0  0
 22 14  1  0  0  0  0
 24 23  1  6  0  0  0
 24 25  1  0  0  0  0
 25 27  1  0  0  0  0
 25 26  1  6  0  0  0
 27 28  1  1  0  0  0
 28 29  1  0  0  0  0
 30 31  1  1  0  0  0
 30 32  1  0  0  0  0
 30 27  1  0  0  0  0
 33 30  1  0  0  0  0
 34 33  1  0  0  0  0
 34 24  1  0  0  0  0
M  END
>  <CHROM.1>
-153.63237084,-65.12701386,154.87101580,138.37165647,-87.02134425,-109.80603729
-0.09538838,8.19270873,8.02365686,-1.17932597,-1.22365446,0.04952255

>  <Name>
lig.pdb

>  <RI>
0

>  <Rbt.Current_Directory>
/home/itssahil/PROJECTS/Mol_Feturizer/New_Systems/rnas/4k32

>  <Rbt.Executable>
rbdock ($Id: //depot/dev/client3/rdock/2013.1/src/exe/rbdock.cxx#4 $)

>  <Rbt.Library>
libRbt.so (2013.1, Build901 2013/11/27)

>  <Rbt.Parameter_File>
/export/apps/rDock/src/rDock_2013.1_src/data/scripts/dock_solv.prm

>  <Rbt.Receptor>
prm/blind_docking_60.prm

>  <SCORE>
-1.4129

>  <SCORE.INTER>
-4.63984

>  <SCORE.INTER.CONST>
1

>  <SCORE.INTER.POLAR>
0

>  <SCORE.INTER.ROT>
6

>  <SCORE.INTER.SOLV>
14.7522

>  <SCORE.INTER.VDW>
-15.6106

>  <SCORE.INTER.norm>
-0.136466

>  <SCORE.INTRA>
0.986217

>  <SCORE.INTRA.DIHEDRAL>
-2.50571

>  <SCORE.INTRA.DIHEDRAL.0>
18.0069

>  <SCORE.INTRA.POLAR>
0

>  <SCORE.INTRA.POLAR.0>
0

>  <SCORE.INTRA.REPUL>
0

>  <SCORE.INTRA.REPUL.0>
0

>  <SCORE.INTRA.SOLV>
0.292638

>  <SCORE.INTRA.SOLV.lig_0>
-70.7393

>  <SCORE.INTRA.VDW>
2.09275

>  <SCORE.INTRA.VDW.0>
-3.23471

>  <SCORE.INTRA.norm>
0.0290064

>  <SCORE.RESTR>
2.24072

>  <SCORE.RESTR.CAVITY>
2.24072

>  <SCORE.RESTR.norm>
0.0659035

>  <SCORE.SYSTEM>
0

>  <SCORE.SYSTEM.CONST>
0

>  <SCORE.SYSTEM.DIHEDRAL>
0

>  <SCORE.SYSTEM.SOLV>
0

>  <SCORE.SYSTEM.norm>
0

>  <SCORE.heavy>
34

>  <SCORE.norm>
-0.0415559

>  <RMSD>
31.095

$$$$
lig.pdb
 OpenBabel11021811503D
libRbt.so/2013.1/901 2013/11/27
 34 36  0  0  0  0  0  0  0  0999 V2000
    1.2101    5.7211    8.7737 C   0  0  2  0  0  0  0  0  0  0  0  0
    0.3066    5.4387    7.6994 O   0  0  0  0  0  0  0  0  0  0  0  0
    2.3833    4.6517    8.7399 C   0  0  2  0  0  0  0  0  0  0  0  0
    3.1378    4.7019    7.4659 N   0  0  0  0  0  0  0  0  0  0  0  0
    1.7940    3.2339    8.9489 C   0  0  1  0  0  0  0  0  0  0  0  0
    2.8374    2.2570    8.9286 O   0  0  0  0  0  0  0  0  0  0  0  0
    1.0326    3.2121   10.2862 C   0  0  2  0  0  0  0  0  0  0  0  0
    0.4868    1.9084   10.4934 O   0  0  0  0  0  0  0  0  0  0  0  0
   -0.1063    4.3025   10.2670 C   0  0  2  0  0  0  0  0  0  0  0  0
    0.4605    5.6476   10.0321 O   0  0  0  0  0  0  0  0  0  0  0  0
   -0.8918    4.3297   11.6017 C   0  0  2  0  0  0  0  0  0  0  0  0
   -1.4119    3.0291   11.8841 O   0  0  0  0  0  0  0  0  0  0  0  0
   -2.0505    5.3125   11.5377 C   0  0  0  0  0  0  0  0  0  0  0  0
   -0.4976    8.9107    5.3298 C   0  0  2  0  0  0  0  0  0  0  0  0
   -1.2152    9.9991    4.6615 N   0  0  0  0  0  0  0  0  0  0  0  0
   -1.2033    7.5837    4.9358 C   0  0  0  0  0  0  0  0  0  0  0  0
   -0.4413    6.4142    5.6160 C   0  0  2  0  0  0  0  0  0  0  0  0
   -1.0736    5.1328    5.2650 N   0  0  0  0  0  0  0  0  0  0  0  0
   -0.4397    6.5757    7.1599 C   0  0  2  0  0  0  0  0  0  0  0  0
    0.2323    7.9358    7.5290 C   0  0  2  0  0  0  0  0  0  0  0  0
    0.2229    8.0892    8.9548 O   0  0  0  0  0  0  0  0  0  0  0  0
   -0.5424    9.1204    6.9019 C   0  0  1  0  0  0  0  0  0  0  0  0
    0.1482   10.3367    7.2806 O   0  0  0  0  0  0  0  0  0  0  0  0
   -0.4334   11.0838    8.3748 C   0  0  2  0  0  0  0  0  0  0  0  0
   -1.6005   11.9362    7.7514 C   0  0  2  0  0  0  0  0  0  0  0  0
   -2.5693   11.0762    7.1724 O   0  0  0  0  0  0  0  0  0  0  0  0
   -0.9999   12.9161    6.6737 C   0  0  1  0  0  0  0  0  0  0  0  0
   -2.0770   13.7409    6.0462 N   0  0  0  0  0  0  0  0  0  0  0  0
   -2.2910   13.2739    4.6596 C   0  0  0  0  0  0  0  0  0  0  0  0
    0.0483   13.8357    7.3710 C   0  0  2  0  0  0  0  0  0  0  0  0
   -0.6091   14.5878    8.3898 O   0  0  0  0  0  0  0  0  0  0  0  0
    0.6867   14.8143    6.3885 C   0  0  0  0  0  0  0  0  0  0  0  0
    1.1580   12.9473    8.0193 C   0  0  0  0  0  0  0  0  0  0  0  0
    0.5723   11.9835    8.9746 O   0  0  0  0  0  0  0  0  0  0  0  0
  1  3  1  0  0  0  0
  1  2  1  6  0  0  0
  3  5  1  0  0  0  0
  3  4  1  6  0  0  0
  5  6  1  1  0  0  0
  7  8  1  6  0  0  0
  7  5  1  0  0  0  0
  9 10  1  1  0  0  0
  9  7  1  0  0  0  0
 10  1  1  0  0  0  0
 11 13  1  6  0  0  0
 11  9  1  0  0  0  0
 12 11  1  0  0  0  0
 14 15  1  6  0  0  0
 16 14  1  0  0  0  0
 17 18  1  1  0  0  0
 17 16  1  0  0  0  0
 19  2  1  1  0  0  0
 19 20  1  0  0  0  0
 19 17  1  0  0  0  0
 20 21  1  1  0  0  0
 20 22  1  0  0  0  0
 22 23  1  6  0  0  0
 22 14  1  0  0  0  0
 24 23  1  6  0  0  0
 24 25  1  0  0  0  0
 25 27  1  0  0  0  0
 25 26  1  6  0  0  0
 27 28  1  1  0  0  0
 28 29  1  0  0  0  0
 30 31  1  1  0  0  0
 30 32  1  0  0  0  0
 30 27  1  0  0  0  0
 33 30  1  0  0  0  0
 34 33  1  0  0  0  0
 34 24  1  0  0  0  0
M  END
>  <CHROM.1>
-152.19946728,-55.65079193,138.23600222,143.22091093,-81.70412802,-108.10073506
-0.11580866,8.11369361,7.98128138,-0.27335960,1.42022817,-1.59891541

>  <Name>
lig.pdb

>  <RI>
0

>  <Rbt.Current_Directory>
/home/itssahil/PROJECTS/Mol_Feturizer/New_Systems/rnas/4k32

>  <Rbt.Executable>
rbdock ($Id: //depot/dev/client3/rdock/2013.1/src/exe/rbdock.cxx#4 $)

>  <Rbt.Library>
libRbt.so (2013.1, Build901 2013/11/27)

>  <Rbt.Parameter_File>
/export/apps/rDock/src/rDock_2013.1_src/data/scripts/dock_solv.prm

>  <Rbt.Receptor>
prm/blind_docking_60.prm

>  <SCORE>
-0.622323

>  <SCORE.INTER>
-5.38048

>  <SCORE.INTER.CONST>
1

>  <SCORE.INTER.POLAR>
0

>  <SCORE.INTER.ROT>
6

>  <SCORE.INTER.SOLV>
17.5409

>  <SCORE.INTER.VDW>
-17.0339

>  <SCORE.INTER.norm>
-0.158249

>  <SCORE.INTRA>
2.54228

>  <SCORE.INTRA.DIHEDRAL>
-1.04726

>  <SCORE.INTRA.DIHEDRAL.0>
18.0069

>  <SCORE.INTRA.POLAR>
0

>  <SCORE.INTRA.POLAR.0>
0

>  <SCORE.INTRA.REPUL>
0

>  <SCORE.INTRA.REPUL.0>
0

>  <SCORE.INTRA.SOLV>
0.476439

>  <SCORE.INTRA.SOLV.lig_0>
-70.7393

>  <SCORE.INTRA.VDW>
2.82769

>  <SCORE.INTRA.VDW.0>
-3.23471

>  <SCORE.INTRA.norm>
0.0747729

>  <SCORE.RESTR>
2.21588

>  <SCORE.RESTR.CAVITY>
2.21588

>  <SCORE.RESTR.norm>
0.0651729

>  <SCORE.SYSTEM>
0

>  <SCORE.SYSTEM.CONST>
0

>  <SCORE.SYSTEM.DIHEDRAL>
0

>  <SCORE.SYSTEM.SOLV>
0

>  <SCORE.SYSTEM.norm>
0

>  <SCORE.heavy>
34

>  <SCORE.norm>
-0.0183036

>  <RMSD>
31.138

$$$$
lig.pdb
 OpenBabel11021811503D
libRbt.so/2013.1/901 2013/11/27
 34 36  0  0  0  0  0  0  0  0999 V2000
    1.1338    5.7271    9.2075 C   0  0  2  0  0  0  0  0  0  0  0  0
    0.4725    5.5141    7.9555 O   0  0  0  0  0  0  0  0  0  0  0  0
    2.4216    4.7998    9.2615 C   0  0  2  0  0  0  0  0  0  0  0  0
    3.3719    5.1130    8.1689 N   0  0  0  0  0  0  0  0  0  0  0  0
    1.9904    3.3140    9.1763 C   0  0  1  0  0  0  0  0  0  0  0  0
    3.1374    2.4625    9.2305 O   0  0  0  0  0  0  0  0  0  0  0  0
    1.0188    3.0188   10.3328 C   0  0  2  0  0  0  0  0  0  0  0  0
    0.6158    1.6499   10.2685 O   0  0  0  0  0  0  0  0  0  0  0  0
   -0.2291    3.9779   10.2364 C   0  0  2  0  0  0  0  0  0  0  0  0
    0.1939    5.3938   10.2829 O   0  0  0  0  0  0  0  0  0  0  0  0
   -1.2299    3.7289   11.3920 C   0  0  2  0  0  0  0  0  0  0  0  0
   -1.5641    2.3410   11.4525 O   0  0  0  0  0  0  0  0  0  0  0  0
   -2.5085    4.5280   11.1935 C   0  0  0  0  0  0  0  0  0  0  0  0
   -0.6880    8.8635    5.5573 C   0  0  2  0  0  0  0  0  0  0  0  0
   -1.5048    9.9084    4.9352 N   0  0  0  0  0  0  0  0  0  0  0  0
   -1.4046    7.5080    5.3062 C   0  0  0  0  0  0  0  0  0  0  0  0
   -0.5403    6.3834    5.9381 C   0  0  2  0  0  0  0  0  0  0  0  0
   -1.1801    5.0767    5.7189 N   0  0  0  0  0  0  0  0  0  0  0  0
   -0.3588    6.6127    7.4626 C   0  0  2  0  0  0  0  0  0  0  0  0
    0.3207    7.9996    7.6917 C   0  0  2  0  0  0  0  0  0  0  0  0
    0.4775    8.2153    9.1008 O   0  0  0  0  0  0  0  0  0  0  0  0
   -0.5502    9.1412    7.1134 C   0  0  1  0  0  0  0  0  0  0  0  0
    0.1522   10.3853    7.3558 O   0  0  0  0  0  0  0  0  0  0  0  0
   -0.4498   11.2774    8.3229 C   0  0  2  0  0  0  0  0  0  0  0  0
   -1.5566   12.0828    7.5459 C   0  0  2  0  0  0  0  0  0  0  0  0
   -2.5292   11.1887    7.0284 O   0  0  0  0  0  0  0  0  0  0  0  0
   -0.8738   12.9054    6.3884 C   0  0  1  0  0  0  0  0  0  0  0  0
   -1.8916   13.6802    5.6151 N   0  0  0  0  0  0  0  0  0  0  0  0
   -2.3971   12.8370    4.5105 C   0  0  0  0  0  0  0  0  0  0  0  0
    0.1751   13.8707    7.0199 C   0  0  2  0  0  0  0  0  0  0  0  0
   -0.4991   14.7609    7.9080 O   0  0  0  0  0  0  0  0  0  0  0  0
    0.8913   14.7024    5.9589 C   0  0  0  0  0  0  0  0  0  0  0  0
    1.2222   13.0343    7.8232 C   0  0  0  0  0  0  0  0  0  0  0  0
    0.5603   12.2123    8.8580 O   0  0  0  0  0  0  0  0  0  0  0  0
  1  3  1  0  0  0  0
  1  2  1  6  0  0  0
  3  5  1  0  0  0  0
  3  4  1  6  0  0  0
  5  6  1  1  0  0  0
  7  8  1  6  0  0  0
  7  5  1  0  0  0  0
  9 10  1  1  0  0  0
  9  7  1  0  0  0  0
 10  1  1  0  0  0  0
 11 13  1  6  0  0  0
 11  9  1  0  0  0  0
 12 11  1  0  0  0  0
 14 15  1  6  0  0  0
 16 14  1  0  0  0  0
 17 18  1  1  0  0  0
 17 16  1  0  0  0  0
 19  2  1  6  0  0  0
 19 20  1  0  0  0  0
 19 17  1  0  0  0  0
 20 21  1  1  0  0  0
 20 22  1  0  0  0  0
 22 23  1  6  0  0  0
 22 14  1  0  0  0  0
 24 23  1  6  0  0  0
 24 25  1  0  0  0  0
 25 27  1  0  0  0  0
 25 26  1  6  0  0  0
 27 28  1  1  0  0  0
 28 29  1  0  0  0  0
 30 31  1  1  0  0  0
 30 32  1  0  0  0  0
 30 27  1  0  0  0  0
 33 30  1  0  0  0  0
 34 33  1  0  0  0  0
 34 24  1  0  0  0  0
M  END
>  <CHROM.1>
-154.97402607,-52.46169133,160.20653532,132.84044208,-82.92085141,-89.21162260
-0.11600296,8.05792653,8.01070548,-1.38846992,-0.82346462,-0.19627612

>  <Name>
lig.pdb

>  <RI>
0

>  <Rbt.Current_Directory>
/home/itssahil/PROJECTS/Mol_Feturizer/New_Systems/rnas/4k32

>  <Rbt.Executable>
rbdock ($Id: //depot/dev/client3/rdock/2013.1/src/exe/rbdock.cxx#4 $)

>  <Rbt.Library>
libRbt.so (2013.1, Build901 2013/11/27)

>  <Rbt.Parameter_File>
/export/apps/rDock/src/rDock_2013.1_src/data/scripts/dock_solv.prm

>  <Rbt.Receptor>
prm/blind_docking_60.prm

>  <SCORE>
-0.400511

>  <SCORE.INTER>
-3.7946

>  <SCORE.INTER.CONST>
1

>  <SCORE.INTER.POLAR>
0

>  <SCORE.INTER.ROT>
6

>  <SCORE.INTER.SOLV>
14.1714

>  <SCORE.INTER.VDW>
-14.8535

>  <SCORE.INTER.norm>
-0.111606

>  <SCORE.INTRA>
0.923386

>  <SCORE.INTRA.DIHEDRAL>
-4.08669

>  <SCORE.INTRA.DIHEDRAL.0>
18.0069

>  <SCORE.INTRA.POLAR>
0

>  <SCORE.INTRA.POLAR.0>
0

>  <SCORE.INTRA.REPUL>
0

>  <SCORE.INTRA.REPUL.0>
0

>  <SCORE.INTRA.SOLV>
1.18369

>  <SCORE.INTRA.SOLV.lig_0>
-70.7393

>  <SCORE.INTRA.VDW>
2.37488

>  <SCORE.INTRA.VDW.0>
-3.23471

>  <SCORE.INTRA.norm>
0.0271584

>  <SCORE.RESTR>
2.47071

>  <SCORE.RESTR.CAVITY>
2.47071

>  <SCORE.RESTR.norm>
0.0726678

>  <SCORE.SYSTEM>
0

>  <SCORE.SYSTEM.CONST>
0

>  <SCORE.SYSTEM.DIHEDRAL>
0

>  <SCORE.SYSTEM.SOLV>
0

>  <SCORE.SYSTEM.norm>
0

>  <SCORE.heavy>
34

>  <SCORE.norm>
-0.0117797

>  <RMSD>
31.142

$$$$
lig.pdb
 OpenBabel11021811503D
libRbt.so/2013.1/901 2013/11/27
 34 36  0  0  0  0  0  0  0  0999 V2000
    1.1307    5.7495    9.1976 C   0  0  2  0  0  0  0  0  0  0  0  0
    0.5011    5.5435    7.9282 O   0  0  0  0  0  0  0  0  0  0  0  0
    2.4269    4.8354    9.2715 C   0  0  2  0  0  0  0  0  0  0  0  0
    3.3989    5.1707    8.2049 N   0  0  0  0  0  0  0  0  0  0  0  0
    2.0139    3.3461    9.1601 C   0  0  1  0  0  0  0  0  0  0  0  0
    3.1684    2.5062    9.2318 O   0  0  0  0  0  0  0  0  0  0  0  0
    1.0188    3.0278   10.2903 C   0  0  2  0  0  0  0  0  0  0  0  0
    0.6323    1.6555   10.2016 O   0  0  0  0  0  0  0  0  0  0  0  0
   -0.2367    3.9747   10.1751 C   0  0  2  0  0  0  0  0  0  0  0  0
    0.1697    5.3944   10.2470 O   0  0  0  0  0  0  0  0  0  0  0  0
   -1.2615    3.7023   11.3042 C   0  0  2  0  0  0  0  0  0  0  0  0
   -1.5112    2.2989   11.4032 O   0  0  0  0  0  0  0  0  0  0  0  0
   -2.5790    4.4120   11.0337 C   0  0  0  0  0  0  0  0  0  0  0  0
   -0.6681    8.8962    5.5389 C   0  0  2  0  0  0  0  0  0  0  0  0
   -1.4894    9.9356    4.9132 N   0  0  0  0  0  0  0  0  0  0  0  0
   -1.3640    7.5339    5.2677 C   0  0  0  0  0  0  0  0  0  0  0  0
   -0.4945    6.4154    5.9033 C   0  0  2  0  0  0  0  0  0  0  0  0
   -1.1146    5.1025    5.6655 N   0  0  0  0  0  0  0  0  0  0  0  0
   -0.3371    6.6353    7.4319 C   0  0  2  0  0  0  0  0  0  0  0  0
    0.3216    8.0288    7.6807 C   0  0  2  0  0  0  0  0  0  0  0  0
    0.4561    8.2358    9.0934 O   0  0  0  0  0  0  0  0  0  0  0  0
   -0.5555    9.1639    7.0988 C   0  0  1  0  0  0  0  0  0  0  0  0
    0.1277   10.4148    7.3602 O   0  0  0  0  0  0  0  0  0  0  0  0
   -0.4885   11.2833    8.3398 C   0  0  2  0  0  0  0  0  0  0  0  0
   -1.5799   12.1118    7.5653 C   0  0  2  0  0  0  0  0  0  0  0  0
   -2.5457   11.2343    7.0082 O   0  0  0  0  0  0  0  0  0  0  0  0
   -0.8754   12.9621    6.4414 C   0  0  1  0  0  0  0  0  0  0  0  0
   -1.8779   13.7597    5.6713 N   0  0  0  0  0  0  0  0  0  0  0  0
   -2.1853   13.0521    4.4097 C   0  0  0  0  0  0  0  0  0  0  0  0
    0.1649   13.9076    7.1155 C   0  0  2  0  0  0  0  0  0  0  0  0
   -0.5221   14.7765    8.0148 O   0  0  0  0  0  0  0  0  0  0  0  0
    0.9012   14.7644    6.0888 C   0  0  0  0  0  0  0  0  0  0  0  0
    1.1961   13.0476    7.9144 C   0  0  0  0  0  0  0  0  0  0  0  0
    0.5146   12.2010    8.9161 O   0  0  0  0  0  0  0  0  0  0  0  0
  1  3  1  0  0  0  0
  1  2  1  6  0  0  0
  3  5  1  0  0  0  0
  3  4  1  6  0  0  0
  5  6  1  1  0  0  0
  7  8  1  6  0  0  0
  7  5  1  0  0  0  0
  9 10  1  1  0  0  0
  9  7  1  0  0  0  0
 10  1  1  0  0  0  0
 11 13  1  6  0  0  0
 11  9  1  0  0  0  0
 12 11  1  0  0  0  0
 14 15  1  6  0  0  0
 16 14  1  0  0  0  0
 17 18  1  1  0  0  0
 17 16  1  0  0  0  0
 19  2  1  6  0  0  0
 19 20  1  0  0  0  0
 19 17  1  0  0  0  0
 20 21  1  1  0  0  0
 20 22  1  0  0  0  0
 22 23  1  6  0  0  0
 22 14  1  0  0  0  0
 24 23  1  6  0  0  0
 24 25  1  0  0  0  0
 25 27  1  0  0  0  0
 25 26  1  6  0  0  0
 27 28  1  1  0  0  0
 28 29  1  0  0  0  0
 30 31  1  1  0  0  0
 30 32  1  0  0  0  0
 30 27  1  0  0  0  0
 33 30  1  0  0  0  0
 34 33  1  0  0  0  0
 34 24  1  0  0  0  0
M  END
>  <CHROM.1>
-155.34456112,-48.43862452,160.85274476,133.71134853,-84.44561132,-99.25936512
-0.10832532,8.08311494,8.00369534,-1.38097617,-0.86247790,-0.17648905

>  <Name>
lig.pdb

>  <RI>
0

>  <Rbt.Current_Directory>
/home/itssahil/PROJECTS/Mol_Feturizer/New_Systems/rnas/4k32

>  <Rbt.Executable>
rbdock ($Id: //depot/dev/client3/rdock/2013.1/src/exe/rbdock.cxx#4 $)

>  <Rbt.Library>
libRbt.so (2013.1, Build901 2013/11/27)

>  <Rbt.Parameter_File>
/export/apps/rDock/src/rDock_2013.1_src/data/scripts/dock_solv.prm

>  <Rbt.Receptor>
prm/blind_docking_60.prm

>  <SCORE>
-0.76876

>  <SCORE.INTER>
-3.97854

>  <SCORE.INTER.CONST>
1

>  <SCORE.INTER.POLAR>
0

>  <SCORE.INTER.ROT>
6

>  <SCORE.INTER.SOLV>
14.0198

>  <SCORE.INTER.VDW>
-14.9256

>  <SCORE.INTER.norm>
-0.117016

>  <SCORE.INTRA>
0.671576

>  <SCORE.INTRA.DIHEDRAL>
-3.50956

>  <SCORE.INTRA.DIHEDRAL.0>
18.0069

>  <SCORE.INTRA.POLAR>
0

>  <SCORE.INTRA.POLAR.0>
0

>  <SCORE.INTRA.REPUL>
0

>  <SCORE.INTRA.REPUL.0>
0

>  <SCORE.INTRA.SOLV>
0.963168

>  <SCORE.INTRA.SOLV.lig_0>
-70.7393

>  <SCORE.INTRA.VDW>
1.94477

>  <SCORE.INTRA.VDW.0>
-3.23471

>  <SCORE.INTRA.norm>
0.0197522

>  <SCORE.RESTR>
2.5382

>  <SCORE.RESTR.CAVITY>
2.5382

>  <SCORE.RESTR.norm>
0.0746529

>  <SCORE.SYSTEM>
0

>  <SCORE.SYSTEM.CONST>
0

>  <SCORE.SYSTEM.DIHEDRAL>
0

>  <SCORE.SYSTEM.SOLV>
0

>  <SCORE.SYSTEM.norm>
0

>  <SCORE.heavy>
34

>  <SCORE.norm>
-0.0226106

>  <RMSD>
31.145

$$$$
lig.pdb
 OpenBabel11021811503D
libRbt.so/2013.1/901 2013/11/27
 34 36  0  0  0  0  0  0  0  0999 V2000
    1.0886    5.7671    8.9717 C   0  0  2  0  0  0  0  0  0  0  0  0
    0.2735    5.5016    7.8249 O   0  0  0  0  0  0  0  0  0  0  0  0
    2.3478    4.8008    8.9296 C   0  0  2  0  0  0  0  0  0  0  0  0
    3.1653    5.0141    7.7126 N   0  0  0  0  0  0  0  0  0  0  0  0
    1.8695    3.3283    8.9929 C   0  0  1  0  0  0  0  0  0  0  0  0
    2.9910    2.4425    8.9631 O   0  0  0  0  0  0  0  0  0  0  0  0
    1.0392    3.1376   10.2746 C   0  0  2  0  0  0  0  0  0  0  0  0
    0.5946    1.7821   10.3475 O   0  0  0  0  0  0  0  0  0  0  0  0
   -0.1847    4.1317   10.2678 C   0  0  2  0  0  0  0  0  0  0  0  0
    0.2789    5.5324   10.1718 O   0  0  0  0  0  0  0  0  0  0  0  0
   -1.0429    3.9880   11.5492 C   0  0  2  0  0  0  0  0  0  0  0  0
   -1.6586    2.6989   11.5776 O   0  0  0  0  0  0  0  0  0  0  0  0
   -2.1324    5.0477   11.6028 C   0  0  0  0  0  0  0  0  0  0  0  0
   -0.5248    8.9402    5.4050 C   0  0  2  0  0  0  0  0  0  0  0  0
   -1.2394   10.0247    4.7272 N   0  0  0  0  0  0  0  0  0  0  0  0
   -1.2504    7.6146    5.0443 C   0  0  0  0  0  0  0  0  0  0  0  0
   -0.4921    6.4487    5.7348 C   0  0  2  0  0  0  0  0  0  0  0  0
   -1.1433    5.1685    5.4151 N   0  0  0  0  0  0  0  0  0  0  0  0
   -0.4676    6.6373    7.2754 C   0  0  2  0  0  0  0  0  0  0  0  0
    0.2243    7.9961    7.6112 C   0  0  2  0  0  0  0  0  0  0  0  0
    0.2361    8.1746    9.0340 O   0  0  0  0  0  0  0  0  0  0  0  0
   -0.5457    9.1780    6.9737 C   0  0  1  0  0  0  0  0  0  0  0  0
    0.1633   10.3930    7.3214 O   0  0  0  0  0  0  0  0  0  0  0  0
   -0.4532   11.2209    8.3354 C   0  0  2  0  0  0  0  0  0  0  0  0
   -1.5728   12.0497    7.6027 C   0  0  2  0  0  0  0  0  0  0  0  0
   -2.5308   11.1698    7.0360 O   0  0  0  0  0  0  0  0  0  0  0  0
   -0.9033   12.9455    6.4927 C   0  0  1  0  0  0  0  0  0  0  0  0
   -1.9335   13.7450    5.7620 N   0  0  0  0  0  0  0  0  0  0  0  0
   -2.0178   13.2576    4.3685 C   0  0  0  0  0  0  0  0  0  0  0  0
    0.1297   13.8914    7.1771 C   0  0  2  0  0  0  0  0  0  0  0  0
   -0.5588   14.7207    8.1120 O   0  0  0  0  0  0  0  0  0  0  0  0
    0.8325   14.7915    6.1640 C   0  0  0  0  0  0  0  0  0  0  0  0
    1.1902   13.0293    7.9343 C   0  0  0  0  0  0  0  0  0  0  0  0
    0.5417   12.1413    8.9219 O   0  0  0  0  0  0  0  0  0  0  0  0
  1  3  1  0  0  0  0
  1  2  1  6  0  0  0
  3  5  1  0  0  0  0
  3  4  1  6  0  0  0
  5  6  1  1  0  0  0
  7  8  1  6  0  0  0
  7  5  1  0  0  0  0
  9 10  1  1  0  0  0
  9  7  1  0  0  0  0
 10  1  1  0  0  0  0
 11 13  1  6  0  0  0
 11  9  1  0  0  0  0
 12 11  1  0  0  0  0
 14 15  1  6  0  0  0
 16 14  1  0  0  0  0
 17 18  1  1  0  0  0
 17 16  1  0  0  0  0
 19  2  1  1  0  0  0
 19 20  1  0  0  0  0
 19 17  1  0  0  0  0
 20 21  1  1  0  0  0
 20 22  1  0  0  0  0
 22 23  1  6  0  0  0
 22 14  1  0  0  0  0
 24 23  1  6  0  0  0
 24 25  1  0  0  0  0
 25 27  1  0  0  0  0
 25 26  1  6  0  0  0
 27 28  1  1  0  0  0
 28 29  1  0  0  0  0
 30 31  1  1  0  0  0
 30 32  1  0  0  0  0
 30 27  1  0  0  0  0
 33 30  1  0  0  0  0
 34 33  1  0  0  0  0
 34 24  1  0  0  0  0
M  END
>  <CHROM.1>
-148.34042957,-65.76194836,144.55684676,138.39470624,-80.63052971,-112.41838027
-0.11379993,8.13261968,7.96421317,-0.08639083,-1.44595985,1.16099176

>  <Name>
lig.pdb

>  <RI>
0

>  <Rbt.Current_Directory>
/home/itssahil/PROJECTS/Mol_Feturizer/New_Systems/rnas/4k32

>  <Rbt.Executable>
rbdock ($Id: //depot/dev/client3/rdock/2013.1/src/exe/rbdock.cxx#4 $)

>  <Rbt.Library>
libRbt.so (2013.1, Build901 2013/11/27)

>  <Rbt.Parameter_File>
/export/apps/rDock/src/rDock_2013.1_src/data/scripts/dock_solv.prm

>  <Rbt.Receptor>
prm/blind_docking_60.prm

>  <SCORE>
-2.05612

>  <SCORE.INTER>
-6.84878

>  <SCORE.INTER.CONST>
1

>  <SCORE.INTER.POLAR>
0

>  <SCORE.INTER.ROT>
6

>  <SCORE.INTER.SOLV>
15.9477

>  <SCORE.INTER.VDW>
-17.4817

>  <SCORE.INTER.norm>
-0.201435

>  <SCORE.INTRA>
2.79849

>  <SCORE.INTRA.DIHEDRAL>
-0.672039

>  <SCORE.INTRA.DIHEDRAL.0>
18.0069

>  <SCORE.INTRA.POLAR>
0

>  <SCORE.INTRA.POLAR.0>
0

>  <SCORE.INTRA.REPUL>
0

>  <SCORE.INTRA.REPUL.0>
0

>  <SCORE.INTRA.SOLV>
0.87546

>  <SCORE.INTRA.SOLV.lig_0>
-70.7393

>  <SCORE.INTRA.VDW>
2.69678

>  <SCORE.INTRA.VDW.0>
-3.23471

>  <SCORE.INTRA.norm>
0.0823084

>  <SCORE.RESTR>
1.99418

>  <SCORE.RESTR.CAVITY>
1.99418

>  <SCORE.RESTR.norm>
0.0586524

>  <SCORE.SYSTEM>
0

>  <SCORE.SYSTEM.CONST>
0

>  <SCORE.SYSTEM.DIHEDRAL>
0

>  <SCORE.SYSTEM.SOLV>
0

>  <SCORE.SYSTEM.norm>
0

>  <SCORE.heavy>
34

>  <SCORE.norm>
-0.0604741

>  <RMSD>
31.164

$$$$
lig.pdb
 OpenBabel11021811503D
libRbt.so/2013.1/901 2013/11/27
 34 36  0  0  0  0  0  0  0  0999 V2000
    1.2263    5.6982    8.7849 C   0  0  2  0  0  0  0  0  0  0  0  0
    0.3074    5.4285    7.7205 O   0  0  0  0  0  0  0  0  0  0  0  0
    2.3919    4.6213    8.7295 C   0  0  2  0  0  0  0  0  0  0  0  0
    3.1305    4.6747    7.4463 N   0  0  0  0  0  0  0  0  0  0  0  0
    1.7959    3.2062    8.9372 C   0  0  1  0  0  0  0  0  0  0  0  0
    2.8325    2.2226    8.8974 O   0  0  0  0  0  0  0  0  0  0  0  0
    1.0514    3.1809   10.2839 C   0  0  2  0  0  0  0  0  0  0  0  0
    0.4997    1.8795   10.4900 O   0  0  0  0  0  0  0  0  0  0  0  0
   -0.0804    4.2788   10.2861 C   0  0  2  0  0  0  0  0  0  0  0  0
    0.4923    5.6217   10.0523 O   0  0  0  0  0  0  0  0  0  0  0  0
   -0.8486    4.3028   11.6308 C   0  0  2  0  0  0  0  0  0  0  0  0
   -1.3227    2.9911   11.9411 O   0  0  0  0  0  0  0  0  0  0  0  0
   -2.0392    5.2468   11.5670 C   0  0  0  0  0  0  0  0  0  0  0  0
   -0.5475    8.9137    5.3882 C   0  0  2  0  0  0  0  0  0  0  0  0
   -1.2786   10.0082    4.7451 N   0  0  0  0  0  0  0  0  0  0  0  0
   -1.2711    7.5918    5.0100 C   0  0  0  0  0  0  0  0  0  0  0  0
   -0.4957    6.4158    5.6634 C   0  0  2  0  0  0  0  0  0  0  0  0
   -1.1444    5.1390    5.3261 N   0  0  0  0  0  0  0  0  0  0  0  0
   -0.4485    6.5713    7.2071 C   0  0  2  0  0  0  0  0  0  0  0  0
    0.2409    7.9266    7.5616 C   0  0  2  0  0  0  0  0  0  0  0  0
    0.2736    8.0745    8.9877 O   0  0  0  0  0  0  0  0  0  0  0  0
   -0.5456    9.1174    6.9618 C   0  0  1  0  0  0  0  0  0  0  0  0
    0.1618   10.3289    7.3248 O   0  0  0  0  0  0  0  0  0  0  0  0
   -0.4657   11.1532    8.3350 C   0  0  2  0  0  0  0  0  0  0  0  0
   -1.5940   11.9661    7.5978 C   0  0  2  0  0  0  0  0  0  0  0  0
   -2.5408   11.0729    7.0330 O   0  0  0  0  0  0  0  0  0  0  0  0
   -0.9335   12.8656    6.4854 C   0  0  1  0  0  0  0  0  0  0  0  0
   -1.9720   13.6502    5.7504 N   0  0  0  0  0  0  0  0  0  0  0  0
   -1.9314   13.2762    4.3204 C   0  0  0  0  0  0  0  0  0  0  0  0
    0.0874   13.8261    7.1677 C   0  0  2  0  0  0  0  0  0  0  0  0
   -0.6120   14.6506    8.0986 O   0  0  0  0  0  0  0  0  0  0  0  0
    0.7809   14.7307    6.1522 C   0  0  0  0  0  0  0  0  0  0  0  0
    1.1569   12.9793    7.9294 C   0  0  0  0  0  0  0  0  0  0  0  0
    0.5175   12.0873    8.9194 O   0  0  0  0  0  0  0  0  0  0  0  0
  1  3  1  0  0  0  0
  1  2  1  6  0  0  0
  3  5  1  0  0  0  0
  3  4  1  6  0  0  0
  5  6  1  1  0  0  0
  7  8  1  6  0  0  0
  7  5  1  0  0  0  0
  9 10  1  1  0  0  0
  9  7  1  0  0  0  0
 10  1  1  0  0  0  0
 11 13  1  6  0  0  0
 11  9  1  0  0  0  0
 12 11  1  0  0  0  0
 14 15  1  6  0  0  0
 16 14  1  0  0  0  0
 17 18  1  1  0  0  0
 17 16  1  0  0  0  0
 19  2  1  1  0  0  0
 19 20  1  0  0  0  0
 19 17  1  0  0  0  0
 20 21  1  1  0  0  0
 20 22  1  0  0  0  0
 22 23  1  6  0  0  0
 22 14  1  0  0  0  0
 24 23  1  6  0  0  0
 24 25  1  0  0  0  0
 25 27  1  0  0  0  0
 25 26  1  6  0  0  0
 27 28  1  1  0  0  0
 28 29  1  0  0  0  0
 30 31  1  1  0  0  0
 30 32  1  0  0  0  0
 30 27  1  0  0  0  0
 33 30  1  0  0  0  0
 34 33  1  0  0  0  0
 34 24  1  0  0  0  0
M  END
>  <CHROM.1>
-152.82137471,-53.08259791,139.27923752,136.45469629,-79.46483433,-119.44903868
-0.09669277,8.10378331,7.93969521,-0.25629309,1.42803598,-1.63616295

>  <Name>
lig.pdb

>  <RI>
0

>  <Rbt.Current_Directory>
/home/itssahil/PROJECTS/Mol_Feturizer/New_Systems/rnas/4k32

>  <Rbt.Executable>
rbdock ($Id: //depot/dev/client3/rdock/2013.1/src/exe/rbdock.cxx#4 $)

>  <Rbt.Library>
libRbt.so (2013.1, Build901 2013/11/27)

>  <Rbt.Parameter_File>
/export/apps/rDock/src/rDock_2013.1_src/data/scripts/dock_solv.prm

>  <Rbt.Receptor>
prm/blind_docking_60.prm

>  <SCORE>
-0.706025

>  <SCORE.INTER>
-5.93269

>  <SCORE.INTER.CONST>
1

>  <SCORE.INTER.POLAR>
0

>  <SCORE.INTER.ROT>
6

>  <SCORE.INTER.SOLV>
17.3435

>  <SCORE.INTER.VDW>
-17.3363

>  <SCORE.INTER.norm>
-0.174491

>  <SCORE.INTRA>
3.21732

>  <SCORE.INTRA.DIHEDRAL>
-0.398718

>  <SCORE.INTRA.DIHEDRAL.0>
18.0069

>  <SCORE.INTRA.POLAR>
0

>  <SCORE.INTRA.POLAR.0>
0

>  <SCORE.INTRA.REPUL>
0

>  <SCORE.INTRA.REPUL.0>
0

>  <SCORE.INTRA.SOLV>
1.05648

>  <SCORE.INTRA.SOLV.lig_0>
-70.7393

>  <SCORE.INTRA.VDW>
2.88844

>  <SCORE.INTRA.VDW.0>
-3.23471

>  <SCORE.INTRA.norm>
0.094627

>  <SCORE.RESTR>
2.00935

>  <SCORE.RESTR.CAVITY>
2.00935

>  <SCORE.RESTR.norm>
0.0590985

>  <SCORE.SYSTEM>
0

>  <SCORE.SYSTEM.CONST>
0

>  <SCORE.SYSTEM.DIHEDRAL>
0

>  <SCORE.SYSTEM.SOLV>
0

>  <SCORE.SYSTEM.norm>
0

>  <SCORE.heavy>
34

>  <SCORE.norm>
-0.0207654

>  <RMSD>
31.187

$$$$
lig.pdb
 OpenBabel11021811503D
libRbt.so/2013.1/901 2013/11/27
 34 36  0  0  0  0  0  0  0  0999 V2000
    0.2788    5.6779    8.7826 C   0  0  2  0  0  0  0  0  0  0  0  0
   -0.4453    5.0589    7.7136 O   0  0  0  0  0  0  0  0  0  0  0  0
    1.5283    4.7655    9.1397 C   0  0  2  0  0  0  0  0  0  0  0  0
    2.4416    4.6055    7.9842 N   0  0  0  0  0  0  0  0  0  0  0  0
    1.0326    3.3772    9.6169 C   0  0  1  0  0  0  0  0  0  0  0  0
    2.1446    2.5429    9.9501 O   0  0  0  0  0  0  0  0  0  0  0  0
    0.1015    3.5784   10.8258 C   0  0  2  0  0  0  0  0  0  0  0  0
   -0.3602    2.3048   11.2787 O   0  0  0  0  0  0  0  0  0  0  0  0
   -1.1086    4.5027   10.4165 C   0  0  2  0  0  0  0  0  0  0  0  0
   -0.6257    5.8124    9.9292 O   0  0  0  0  0  0  0  0  0  0  0  0
   -2.0669    4.7481   11.6083 C   0  0  2  0  0  0  0  0  0  0  0  0
   -1.3137    5.0966   12.7715 O   0  0  0  0  0  0  0  0  0  0  0  0
   -2.8898    3.5069   11.9166 C   0  0  0  0  0  0  0  0  0  0  0  0
   -0.4377    8.0010    4.6055 C   0  0  2  0  0  0  0  0  0  0  0  0
   -0.8753    8.8378    3.4856 N   0  0  0  0  0  0  0  0  0  0  0  0
   -0.6974    6.5226    4.2048 C   0  0  0  0  0  0  0  0  0  0  0  0
   -0.2168    5.6172    5.3711 C   0  0  2  0  0  0  0  0  0  0  0  0
   -0.4390    4.2028    5.0319 N   0  0  0  0  0  0  0  0  0  0  0  0
   -0.9758    5.9519    6.6831 C   0  0  2  0  0  0  0  0  0  0  0  0
   -0.7375    7.4530    7.0406 C   0  0  2  0  0  0  0  0  0  0  0  0
   -1.4485    7.7641    8.2465 O   0  0  0  0  0  0  0  0  0  0  0  0
   -1.2565    8.3765    5.9118 C   0  0  1  0  0  0  0  0  0  0  0  0
   -0.9889    9.7426    6.3142 O   0  0  0  0  0  0  0  0  0  0  0  0
   -1.8291   10.2716    7.3667 C   0  0  2  0  0  0  0  0  0  0  0  0
   -2.3640   11.6570    6.8453 C   0  0  2  0  0  0  0  0  0  0  0  0
   -3.1205   11.4663    5.6601 O   0  0  0  0  0  0  0  0  0  0  0  0
   -1.1394   12.6137    6.5851 C   0  0  1  0  0  0  0  0  0  0  0  0
   -1.6009   13.9418    6.0776 N   0  0  0  0  0  0  0  0  0  0  0  0
   -0.6124   14.4515    5.1031 C   0  0  0  0  0  0  0  0  0  0  0  0
   -0.3556   12.7883    7.9215 C   0  0  2  0  0  0  0  0  0  0  0  0
   -1.2255   13.3746    8.8886 O   0  0  0  0  0  0  0  0  0  0  0  0
    0.8575   13.6994    7.7524 C   0  0  0  0  0  0  0  0  0  0  0  0
    0.1105   11.3860    8.4287 C   0  0  0  0  0  0  0  0  0  0  0  0
   -1.0416   10.4759    8.5991 O   0  0  0  0  0  0  0  0  0  0  0  0
  1  3  1  0  0  0  0
  1  2  1  6  0  0  0
  3  5  1  0  0  0  0
  3  4  1  6  0  0  0
  5  6  1  1  0  0  0
  7  8  1  6  0  0  0
  7  5  1  0  0  0  0
  9 10  1  1  0  0  0
  9  7  1  0  0  0  0
 10  1  1  0  0  0  0
 11 13  1  1  0  0  0
 11  9  1  0  0  0  0
 12 11  1  0  0  0  0
 14 15  1  6  0  0  0
 16 14  1  0  0  0  0
 17 18  1  6  0  0  0
 17 16  1  0  0  0  0
 19  2  1  1  0  0  0
 19 20  1  0  0  0  0
 19 17  1  0  0  0  0
 20 21  1  1  0  0  0
 20 22  1  0  0  0  0
 22 23  1  1  0  0  0
 22 14  1  0  0  0  0
 24 23  1  6  0  0  0
 24 25  1  0  0  0  0
 25 27  1  0  0  0  0
 25 26  1  6  0  0  0
 27 28  1  1  0  0  0
 28 29  1  0  0  0  0
 30 31  1  1  0  0  0
 30 32  1  0  0  0  0
 30 27  1  0  0  0  0
 33 30  1  0  0  0  0
 34 33  1  0  0  0  0
 34 24  1  0  0  0  0
M  END
>  <CHROM.1>
-140.27845676,46.91288280,114.03552426,170.75691923,-129.84525014,-144.79377483
-0.64815653,7.77510995,7.92859302,-0.97012734,1.39125471,-0.98581695

>  <Name>
lig.pdb

>  <RI>
0

>  <Rbt.Current_Directory>
/home/itssahil/PROJECTS/Mol_Feturizer/New_Systems/rnas/4k32

>  <Rbt.Executable>
rbdock ($Id: //depot/dev/client3/rdock/2013.1/src/exe/rbdock.cxx#4 $)

>  <Rbt.Library>
libRbt.so (2013.1, Build901 2013/11/27)

>  <Rbt.Parameter_File>
/export/apps/rDock/src/rDock_2013.1_src/data/scripts/dock_solv.prm

>  <Rbt.Receptor>
prm/blind_docking_60.prm

>  <SCORE>
5.67902

>  <SCORE.INTER>
-1.4544

>  <SCORE.INTER.CONST>
1

>  <SCORE.INTER.POLAR>
0

>  <SCORE.INTER.ROT>
6

>  <SCORE.INTER.SOLV>
18.0523

>  <SCORE.INTER.VDW>
-14.587

>  <SCORE.INTER.norm>
-0.0427765

>  <SCORE.INTRA>
5.49935

>  <SCORE.INTRA.DIHEDRAL>
2.91727

>  <SCORE.INTRA.DIHEDRAL.0>
18.0069

>  <SCORE.INTRA.POLAR>
0

>  <SCORE.INTRA.POLAR.0>
0

>  <SCORE.INTRA.REPUL>
0

>  <SCORE.INTRA.REPUL.0>
0

>  <SCORE.INTRA.SOLV>
-1.77564

>  <SCORE.INTRA.SOLV.lig_0>
-70.7393

>  <SCORE.INTRA.VDW>
4.92854

>  <SCORE.INTRA.VDW.0>
-3.23471

>  <SCORE.INTRA.norm>
0.161746

>  <SCORE.RESTR>
1.63407

>  <SCORE.RESTR.CAVITY>
1.63407

>  <SCORE.RESTR.norm>
0.0480607

>  <SCORE.SYSTEM>
0

>  <SCORE.SYSTEM.CONST>
0

>  <SCORE.SYSTEM.DIHEDRAL>
0

>  <SCORE.SYSTEM.SOLV>
0

>  <SCORE.SYSTEM.norm>
0

>  <SCORE.heavy>
34

>  <SCORE.norm>
0.16703

>  <RMSD>
31.227

$$$$
lig.pdb
 OpenBabel11021811503D
libRbt.so/2013.1/901 2013/11/27
 34 36  0  0  0  0  0  0  0  0999 V2000
    0.4313    5.2660    9.1082 C   0  0  2  0  0  0  0  0  0  0  0  0
   -0.4832    4.8485    8.0886 O   0  0  0  0  0  0  0  0  0  0  0  0
    1.6651    4.2665    9.1186 C   0  0  2  0  0  0  0  0  0  0  0  0
    2.3794    4.2599    7.8206 N   0  0  0  0  0  0  0  0  0  0  0  0
    1.1679    2.8380    9.4548 C   0  0  1  0  0  0  0  0  0  0  0  0
    2.2670    1.9242    9.4756 O   0  0  0  0  0  0  0  0  0  0  0  0
    0.4467    2.8775   10.8138 C   0  0  2  0  0  0  0  0  0  0  0  0
   -0.0139    1.5648   11.1381 O   0  0  0  0  0  0  0  0  0  0  0  0
   -0.7556    3.8955   10.7480 C   0  0  2  0  0  0  0  0  0  0  0  0
   -0.2772    5.2485   10.3922 O   0  0  0  0  0  0  0  0  0  0  0  0
   -1.5038    3.9822   12.1014 C   0  0  2  0  0  0  0  0  0  0  0  0
   -2.0193    2.6968   12.4529 O   0  0  0  0  0  0  0  0  0  0  0  0
   -2.6612    4.9659   12.0276 C   0  0  0  0  0  0  0  0  0  0  0  0
   -0.1446    7.8300    5.0369 C   0  0  2  0  0  0  0  0  0  0  0  0
   -0.4991    8.7827    3.9821 N   0  0  0  0  0  0  0  0  0  0  0  0
   -0.7646    6.4597    4.6472 C   0  0  0  0  0  0  0  0  0  0  0  0
   -0.3788    5.4290    5.7426 C   0  0  2  0  0  0  0  0  0  0  0  0
   -0.9420    4.1108    5.4109 N   0  0  0  0  0  0  0  0  0  0  0  0
   -0.9061    5.8730    7.1335 C   0  0  2  0  0  0  0  0  0  0  0  0
   -0.3064    7.2716    7.4827 C   0  0  2  0  0  0  0  0  0  0  0  0
   -0.8032    7.6860    8.7626 O   0  0  0  0  0  0  0  0  0  0  0  0
   -0.7215    8.3270    6.4290 C   0  0  1  0  0  0  0  0  0  0  0  0
   -0.1186    9.5859    6.8181 O   0  0  0  0  0  0  0  0  0  0  0  0
   -0.7074   10.2460    7.9632 C   0  0  2  0  0  0  0  0  0  0  0  0
   -1.9281   11.0728    7.4121 C   0  0  2  0  0  0  0  0  0  0  0  0
   -2.8695   10.1987    6.8095 O   0  0  0  0  0  0  0  0  0  0  0  0
   -1.4006   12.1354    6.3751 C   0  0  1  0  0  0  0  0  0  0  0  0
   -2.5303   12.9392    5.8166 N   0  0  0  0  0  0  0  0  0  0  0  0
   -2.9374   12.3561    4.5201 C   0  0  0  0  0  0  0  0  0  0  0  0
   -0.3798   13.0666    7.0972 C   0  0  2  0  0  0  0  0  0  0  0  0
   -1.0464   13.7319    8.1690 O   0  0  0  0  0  0  0  0  0  0  0  0
    0.1878   14.1247    6.1546 C   0  0  0  0  0  0  0  0  0  0  0  0
    0.7859   12.1998    7.6726 C   0  0  0  0  0  0  0  0  0  0  0  0
    0.2696   11.1604    8.5878 O   0  0  0  0  0  0  0  0  0  0  0  0
  1  3  1  0  0  0  0
  1  2  1  6  0  0  0
  3  5  1  0  0  0  0
  3  4  1  6  0  0  0
  5  6  1  1  0  0  0
  7  8  1  6  0  0  0
  7  5  1  0  0  0  0
  9 10  1  1  0  0  0
  9  7  1  0  0  0  0
 10  1  1  0  0  0  0
 11 13  1  6  0  0  0
 11  9  1  0  0  0  0
 12 11  1  0  0  0  0
 14 15  1  6  0  0  0
 16 14  1  0  0  0  0
 17 18  1  6  0  0  0
 17 16  1  0  0  0  0
 19  2  1  1  0  0  0
 19 20  1  0  0  0  0
 19 17  1  0  0  0  0
 20 21  1  1  0  0  0
 20 22  1  0  0  0  0
 22 23  1  1  0  0  0
 22 14  1  0  0  0  0
 24 23  1  6  0  0  0
 24 25  1  0  0  0  0
 25 27  1  0  0  0  0
 25 26  1  6  0  0  0
 27 28  1  1  0  0  0
 28 29  1  0  0  0  0
 30 31  1  1  0  0  0
 30 32  1  0  0  0  0
 30 27  1  0  0  0  0
 33 30  1  0  0  0  0
 34 33  1  0  0  0  0
 34 24  1  0  0  0  0
M  END
>  <CHROM.1>
-128.47359764,-59.75150027,116.06509973,170.82116860,-84.51011749,-96.74198045
-0.52758645,7.44644945,8.00311345,-1.12437898,1.30734146,-0.83461779

>  <Name>
lig.pdb

>  <RI>
0

>  <Rbt.Current_Directory>
/home/itssahil/PROJECTS/Mol_Feturizer/New_Systems/rnas/4k32

>  <Rbt.Executable>
rbdock ($Id: //depot/dev/client3/rdock/2013.1/src/exe/rbdock.cxx#4 $)

>  <Rbt.Library>
libRbt.so (2013.1, Build901 2013/11/27)

>  <Rbt.Parameter_File>
/export/apps/rDock/src/rDock_2013.1_src/data/scripts/dock_solv.prm

>  <Rbt.Receptor>
prm/blind_docking_60.prm

>  <SCORE>
5.59436

>  <SCORE.INTER>
-0.701882

>  <SCORE.INTER.CONST>
1

>  <SCORE.INTER.POLAR>
0

>  <SCORE.INTER.ROT>
6

>  <SCORE.INTER.SOLV>
16.9868

>  <SCORE.INTER.VDW>
-13.7302

>  <SCORE.INTER.norm>
-0.0206436

>  <SCORE.INTRA>
3.01901

>  <SCORE.INTRA.DIHEDRAL>
-0.184147

>  <SCORE.INTRA.DIHEDRAL.0>
18.0069

>  <SCORE.INTRA.POLAR>
0

>  <SCORE.INTRA.POLAR.0>
0

>  <SCORE.INTRA.REPUL>
0

>  <SCORE.INTRA.REPUL.0>
0

>  <SCORE.INTRA.SOLV>
-0.524082

>  <SCORE.INTRA.SOLV.lig_0>
-70.7393

>  <SCORE.INTRA.VDW>
3.37313

>  <SCORE.INTRA.VDW.0>
-3.23471

>  <SCORE.INTRA.norm>
0.0887945

>  <SCORE.RESTR>
3.27723

>  <SCORE.RESTR.CAVITY>
3.27723

>  <SCORE.RESTR.norm>
0.0963892

>  <SCORE.SYSTEM>
0

>  <SCORE.SYSTEM.CONST>
0

>  <SCORE.SYSTEM.DIHEDRAL>
0

>  <SCORE.SYSTEM.SOLV>
0

>  <SCORE.SYSTEM.norm>
0

>  <SCORE.heavy>
34

>  <SCORE.norm>
0.16454

>  <RMSD>
31.269

$$$$
lig.pdb
 OpenBabel11021811503D
libRbt.so/2013.1/901 2013/11/27
 34 36  0  0  0  0  0  0  0  0999 V2000
   -0.6386   14.2651    6.9856 C   0  0  2  0  0  0  0  0  0  0  0  0
   -0.2534   12.9444    6.5887 O   0  0  0  0  0  0  0  0  0  0  0  0
   -1.3900   14.9576    5.7702 C   0  0  2  0  0  0  0  0  0  0  0  0
   -2.6080   14.2107    5.3782 N   0  0  0  0  0  0  0  0  0  0  0  0
   -0.4254   15.0655    4.5625 C   0  0  1  0  0  0  0  0  0  0  0  0
   -1.0828   15.6936    3.4593 O   0  0  0  0  0  0  0  0  0  0  0  0
    0.8188   15.8595    4.9986 C   0  0  2  0  0  0  0  0  0  0  0  0
    1.7158   15.9700    3.8924 O   0  0  0  0  0  0  0  0  0  0  0  0
    1.5122   15.1346    6.2152 C   0  0  2  0  0  0  0  0  0  0  0  0
    0.5744   15.0042    7.3507 O   0  0  0  0  0  0  0  0  0  0  0  0
    2.7634   15.9076    6.7014 C   0  0  2  0  0  0  0  0  0  0  0  0
    3.0914   15.5090    8.0337 O   0  0  0  0  0  0  0  0  0  0  0  0
    2.5209   17.4089    6.6895 C   0  0  0  0  0  0  0  0  0  0  0  0
   -1.8110    9.2046    7.9688 C   0  0  2  0  0  0  0  0  0  0  0  0
   -2.7527    8.1470    8.3440 N   0  0  0  0  0  0  0  0  0  0  0  0
   -2.2399   10.4926    8.7244 C   0  0  0  0  0  0  0  0  0  0  0  0
   -1.2377   11.6207    8.3580 C   0  0  2  0  0  0  0  0  0  0  0  0
   -1.6031   12.8623    9.0578 N   0  0  0  0  0  0  0  0  0  0  0  0
   -1.2301   11.8814    6.8278 C   0  0  2  0  0  0  0  0  0  0  0  0
   -0.8415   10.5624    6.0883 C   0  0  2  0  0  0  0  0  0  0  0  0
   -0.8460   10.8014    4.6743 O   0  0  0  0  0  0  0  0  0  0  0  0
   -1.8578    9.4370    6.3999 C   0  0  1  0  0  0  0  0  0  0  0  0
   -1.4215    8.2521    5.6890 O   0  0  0  0  0  0  0  0  0  0  0  0
    0.0082    8.0374    5.6283 C   0  0  2  0  0  0  0  0  0  0  0  0
    0.2153    6.6884    4.8442 C   0  0  2  0  0  0  0  0  0  0  0  0
   -0.3213    6.8042    3.5358 O   0  0  0  0  0  0  0  0  0  0  0  0
   -0.4835    5.5213    5.6394 C   0  0  1  0  0  0  0  0  0  0  0  0
   -0.3205    4.2189    4.9242 N   0  0  0  0  0  0  0  0  0  0  0  0
   -1.5785    3.9019    4.2147 C   0  0  0  0  0  0  0  0  0  0  0  0
    0.1526    5.4410    7.0605 C   0  0  2  0  0  0  0  0  0  0  0  0
    1.5450    5.1615    6.9232 O   0  0  0  0  0  0  0  0  0  0  0  0
   -0.4781    4.3348    7.9024 C   0  0  0  0  0  0  0  0  0  0  0  0
   -0.0298    6.8150    7.7815 C   0  0  0  0  0  0  0  0  0  0  0  0
    0.5670    7.9109    6.9893 O   0  0  0  0  0  0  0  0  0  0  0  0
  1  3  1  0  0  0  0
  1  2  1  6  0  0  0
  3  5  1  0  0  0  0
  3  4  1  6  0  0  0
  5  6  1  6  0  0  0
  7  8  1  6  0  0  0
  7  5  1  0  0  0  0
  9 10  1  1  0  0  0
  9  7  1  0  0  0  0
 10  1  1  0  0  0  0
 11 13  1  1  0  0  0
 11  9  1  0  0  0  0
 12 11  1  0  0  0  0
 14 15  1  6  0  0  0
 16 14  1  0  0  0  0
 17 18  1  1  0  0  0
 17 16  1  0  0  0  0
 19  2  1  1  0  0  0
 19 20  1  0  0  0  0
 19 17  1  0  0  0  0
 20 21  1  6  0  0  0
 20 22  1  0  0  0  0
 22 23  1  6  0  0  0
 22 14  1  0  0  0  0
 24 23  1  1  0  0  0
 24 25  1  0  0  0  0
 25 27  1  0  0  0  0
 25 26  1  6  0  0  0
 27 28  1  6  0  0  0
 28 29  1  0  0  0  0
 30 31  1  6  0  0  0
 30 32  1  0  0  0  0
 30 27  1  0  0  0  0
 33 30  1  0  0  0  0
 34 33  1  0  0  0  0
 34 24  1  0  0  0  0
M  END
>  <CHROM.1>
-88.96655628,160.36054062,-73.25826514,-78.58680034,178.71499195,-101.67179747
-0.26437054,10.77210682,6.27519051,0.99082565,1.34552582,0.55787648

>  <Name>
lig.pdb

>  <RI>
0

>  <Rbt.Current_Directory>
/home/itssahil/PROJECTS/Mol_Feturizer/New_Systems/rnas/4k32

>  <Rbt.Executable>
rbdock ($Id: //depot/dev/client3/rdock/2013.1/src/exe/rbdock.cxx#4 $)

>  <Rbt.Library>
libRbt.so (2013.1, Build901 2013/11/27)

>  <Rbt.Parameter_File>
/export/apps/rDock/src/rDock_2013.1_src/data/scripts/dock_solv.prm

>  <Rbt.Receptor>
prm/blind_docking_60.prm

>  <SCORE>
9.08151

>  <SCORE.INTER>
0.734884

>  <SCORE.INTER.CONST>
1

>  <SCORE.INTER.POLAR>
0

>  <SCORE.INTER.ROT>
6

>  <SCORE.INTER.SOLV>
16.345

>  <SCORE.INTER.VDW>
-12.5584

>  <SCORE.INTER.norm>
0.0216142

>  <SCORE.INTRA>
1.25923

>  <SCORE.INTRA.DIHEDRAL>
-9.91689

>  <SCORE.INTRA.DIHEDRAL.0>
18.0069

>  <SCORE.INTRA.POLAR>
0

>  <SCORE.INTRA.POLAR.0>
0

>  <SCORE.INTRA.REPUL>
0

>  <SCORE.INTRA.REPUL.0>
0

>  <SCORE.INTRA.SOLV>
2.25068

>  <SCORE.INTRA.SOLV.lig_0>
-70.7393

>  <SCORE.INTRA.VDW>
5.09234

>  <SCORE.INTRA.VDW.0>
-3.23471

>  <SCORE.INTRA.norm>
0.0370363

>  <SCORE.RESTR>
7.0874

>  <SCORE.RESTR.CAVITY>
7.0874

>  <SCORE.RESTR.norm>
0.208453

>  <SCORE.SYSTEM>
0

>  <SCORE.SYSTEM.CONST>
0

>  <SCORE.SYSTEM.DIHEDRAL>
0

>  <SCORE.SYSTEM.SOLV>
0

>  <SCORE.SYSTEM.norm>
0

>  <SCORE.heavy>
34

>  <SCORE.norm>
0.267103

>  <RMSD>
31.285

$$$$
lig.pdb
 OpenBabel11021811503D
libRbt.so/2013.1/901 2013/11/27
 34 36  0  0  0  0  0  0  0  0999 V2000
    0.4197    5.6420    8.9529 C   0  0  2  0  0  0  0  0  0  0  0  0
   -0.3066    5.1250    7.8325 O   0  0  0  0  0  0  0  0  0  0  0  0
    1.6013    4.6378    9.2944 C   0  0  2  0  0  0  0  0  0  0  0  0
    2.5387    4.4834    8.1576 N   0  0  0  0  0  0  0  0  0  0  0  0
    1.0098    3.2591    9.6820 C   0  0  1  0  0  0  0  0  0  0  0  0
    2.0596    2.3425   10.0000 O   0  0  0  0  0  0  0  0  0  0  0  0
    0.0555    3.4529   10.8738 C   0  0  2  0  0  0  0  0  0  0  0  0
   -0.4945    2.1878   11.2442 O   0  0  0  0  0  0  0  0  0  0  0  0
   -1.0845    4.4693   10.4819 C   0  0  2  0  0  0  0  0  0  0  0  0
   -0.5101    5.7709   10.0798 O   0  0  0  0  0  0  0  0  0  0  0  0
   -2.0629    4.7097   11.6584 C   0  0  2  0  0  0  0  0  0  0  0  0
   -1.3270    4.9923   12.8501 O   0  0  0  0  0  0  0  0  0  0  0  0
   -2.9364    3.4895   11.9050 C   0  0  0  0  0  0  0  0  0  0  0  0
   -0.3249    8.0743    4.7313 C   0  0  2  0  0  0  0  0  0  0  0  0
   -0.7967    8.9901    3.6897 N   0  0  0  0  0  0  0  0  0  0  0  0
   -0.8903    6.6663    4.3971 C   0  0  0  0  0  0  0  0  0  0  0  0
   -0.3804    5.6749    5.4780 C   0  0  2  0  0  0  0  0  0  0  0  0
   -0.8884    4.3229    5.1975 N   0  0  0  0  0  0  0  0  0  0  0  0
   -0.8444    6.1102    6.8939 C   0  0  2  0  0  0  0  0  0  0  0  0
   -0.3033    7.5448    7.1887 C   0  0  2  0  0  0  0  0  0  0  0  0
   -0.7422    7.9504    8.4923 O   0  0  0  0  0  0  0  0  0  0  0  0
   -0.8412    8.5597    6.1509 C   0  0  1  0  0  0  0  0  0  0  0  0
   -0.2867    9.8557    6.4868 O   0  0  0  0  0  0  0  0  0  0  0  0
   -0.9554   10.5780    7.5472 C   0  0  2  0  0  0  0  0  0  0  0  0
   -1.8673   11.6485    6.8403 C   0  0  2  0  0  0  0  0  0  0  0  0
   -2.8181   10.9994    6.0108 O   0  0  0  0  0  0  0  0  0  0  0  0
   -0.9570   12.6221    6.0000 C   0  0  1  0  0  0  0  0  0  0  0  0
   -1.7841   13.6524    5.3009 N   0  0  0  0  0  0  0  0  0  0  0  0
   -2.0104   13.2183    3.9056 C   0  0  0  0  0  0  0  0  0  0  0  0
    0.0574   13.3073    6.9654 C   0  0  2  0  0  0  0  0  0  0  0  0
   -0.6707   14.0528    7.9399 O   0  0  0  0  0  0  0  0  0  0  0  0
    0.9870   14.2651    6.2246 C   0  0  0  0  0  0  0  0  0  0  0  0
    0.9042   12.2076    7.6830 C   0  0  0  0  0  0  0  0  0  0  0  0
    0.0328   11.2589    8.4078 O   0  0  0  0  0  0  0  0  0  0  0  0
  1  3  1  0  0  0  0
  1  2  1  6  0  0  0
  3  5  1  0  0  0  0
  3  4  1  6  0  0  0
  5  6  1  1  0  0  0
  7  8  1  6  0  0  0
  7  5  1  0  0  0  0
  9 10  1  1  0  0  0
  9  7  1  0  0  0  0
 10  1  1  0  0  0  0
 11 13  1  1  0  0  0
 11  9  1  0  0  0  0
 12 11  1  0  0  0  0
 14 15  1  6  0  0  0
 16 14  1  0  0  0  0
 17 18  1  6  0  0  0
 17 16  1  0  0  0  0
 19  2  1  1  0  0  0
 19 20  1  0  0  0  0
 19 17  1  0  0  0  0
 20 21  1  1  0  0  0
 20 22  1  0  0  0  0
 22 23  1  1  0  0  0
 22 14  1  0  0  0  0
 24 23  1  6  0  0  0
 24 25  1  0  0  0  0
 25 27  1  0  0  0  0
 25 26  1  6  0  0  0
 27 28  1  1  0  0  0
 28 29  1  0  0  0  0
 30 31  1  1  0  0  0
 30 32  1  0  0  0  0
 30 27  1  0  0  0  0
 33 30  1  0  0  0  0
 34 33  1  0  0  0  0
 34 24  1  0  0  0  0
M  END
>  <CHROM.1>
-145.05808569,48.74327242,128.65549068,162.91657920,-100.70025881,-97.68810287
-0.49182583,7.83089648,7.82290631,-0.98364850,1.45151085,-1.03226873

>  <Name>
lig.pdb

>  <RI>
0

>  <Rbt.Current_Directory>
/home/itssahil/PROJECTS/Mol_Feturizer/New_Systems/rnas/4k32

>  <Rbt.Executable>
rbdock ($Id: //depot/dev/client3/rdock/2013.1/src/exe/rbdock.cxx#4 $)

>  <Rbt.Library>
libRbt.so (2013.1, Build901 2013/11/27)

>  <Rbt.Parameter_File>
/export/apps/rDock/src/rDock_2013.1_src/data/scripts/dock_solv.prm

>  <Rbt.Receptor>
prm/blind_docking_60.prm

>  <SCORE>
2.7951

>  <SCORE.INTER>
-3.90696

>  <SCORE.INTER.CONST>
1

>  <SCORE.INTER.POLAR>
0

>  <SCORE.INTER.ROT>
6

>  <SCORE.INTER.SOLV>
17.3088

>  <SCORE.INTER.VDW>
-15.9742

>  <SCORE.INTER.norm>
-0.114911

>  <SCORE.INTRA>
3.98059

>  <SCORE.INTRA.DIHEDRAL>
1.52076

>  <SCORE.INTRA.DIHEDRAL.0>
18.0069

>  <SCORE.INTRA.POLAR>
0

>  <SCORE.INTRA.POLAR.0>
0

>  <SCORE.INTRA.REPUL>
0

>  <SCORE.INTRA.REPUL.0>
0

>  <SCORE.INTRA.SOLV>
-1.3092

>  <SCORE.INTRA.SOLV.lig_0>
-70.7393

>  <SCORE.INTRA.VDW>
3.87481

>  <SCORE.INTRA.VDW.0>
-3.23471

>  <SCORE.INTRA.norm>
0.117076

>  <SCORE.RESTR>
2.72148

>  <SCORE.RESTR.CAVITY>
2.72148

>  <SCORE.RESTR.norm>
0.0800434

>  <SCORE.SYSTEM>
0

>  <SCORE.SYSTEM.CONST>
0

>  <SCORE.SYSTEM.DIHEDRAL>
0

>  <SCORE.SYSTEM.SOLV>
0

>  <SCORE.SYSTEM.norm>
0

>  <SCORE.heavy>
34

>  <SCORE.norm>
0.0822088

>  <RMSD>
31.365

$$$$
lig.pdb
 OpenBabel11021811503D
libRbt.so/2013.1/901 2013/11/27
 34 36  0  0  0  0  0  0  0  0999 V2000
    1.5123    6.1250    8.8487 C   0  0  2  0  0  0  0  0  0  0  0  0
    1.3625    5.8606    7.4495 O   0  0  0  0  0  0  0  0  0  0  0  0
    2.8367    5.4118    9.3573 C   0  0  2  0  0  0  0  0  0  0  0  0
    4.0387    5.9153    8.6526 N   0  0  0  0  0  0  0  0  0  0  0  0
    2.7081    3.8811    9.1542 C   0  0  1  0  0  0  0  0  0  0  0  0
    3.8896    3.2204    9.6133 O   0  0  0  0  0  0  0  0  0  0  0  0
    1.4615    3.3895    9.9113 C   0  0  2  0  0  0  0  0  0  0  0  0
    1.3330    1.9778    9.7354 O   0  0  0  0  0  0  0  0  0  0  0  0
    0.1835    4.1421    9.3760 C   0  0  2  0  0  0  0  0  0  0  0  0
    0.3291    5.6041    9.5413 O   0  0  0  0  0  0  0  0  0  0  0  0
   -1.0972    3.6914   10.1214 C   0  0  2  0  0  0  0  0  0  0  0  0
   -2.2191    4.4433    9.6547 O   0  0  0  0  0  0  0  0  0  0  0  0
   -0.9625    3.9010   11.6216 C   0  0  0  0  0  0  0  0  0  0  0  0
   -0.9818    8.0597    4.6237 C   0  0  2  0  0  0  0  0  0  0  0  0
   -2.1290    8.5560    3.8597 N   0  0  0  0  0  0  0  0  0  0  0  0
   -1.0063    6.5087    4.5363 C   0  0  0  0  0  0  0  0  0  0  0  0
    0.2178    5.9639    5.3210 C   0  0  2  0  0  0  0  0  0  0  0  0
    0.2381    4.4939    5.2602 N   0  0  0  0  0  0  0  0  0  0  0  0
    0.1694    6.4119    6.8065 C   0  0  2  0  0  0  0  0  0  0  0  0
    0.1484    7.9719    6.8675 C   0  0  2  0  0  0  0  0  0  0  0  0
    0.0921    8.3845    8.2398 O   0  0  0  0  0  0  0  0  0  0  0  0
   -1.0930    8.5347    6.1336 C   0  0  1  0  0  0  0  0  0  0  0  0
   -1.0314    9.9794    6.2265 O   0  0  0  0  0  0  0  0  0  0  0  0
   -1.8298   10.5841    7.2708 C   0  0  2  0  0  0  0  0  0  0  0  0
   -2.2185   12.0177    6.7500 C   0  0  2  0  0  0  0  0  0  0  0  0
   -2.9737   11.9076    5.5539 O   0  0  0  0  0  0  0  0  0  0  0  0
   -0.9021   12.8503    6.5115 C   0  0  1  0  0  0  0  0  0  0  0  0
   -1.2236   14.2195    6.0054 N   0  0  0  0  0  0  0  0  0  0  0  0
   -1.2112   14.1983    4.5268 C   0  0  0  0  0  0  0  0  0  0  0  0
   -0.1234   12.9411    7.8591 C   0  0  2  0  0  0  0  0  0  0  0  0
   -0.9445   13.6060    8.8178 O   0  0  0  0  0  0  0  0  0  0  0  0
    1.1758   13.7289    7.7112 C   0  0  0  0  0  0  0  0  0  0  0  0
    0.1954   11.4975    8.3645 C   0  0  0  0  0  0  0  0  0  0  0  0
   -1.0429   10.7046    8.5145 O   0  0  0  0  0  0  0  0  0  0  0  0
  1  3  1  0  0  0  0
  1  2  1  6  0  0  0
  3  5  1  0  0  0  0
  3  4  1  6  0  0  0
  5  6  1  1  0  0  0
  7  8  1  6  0  0  0
  7  5  1  0  0  0  0
  9 10  1  1  0  0  0
  9  7  1  0  0  0  0
 10  1  1  0  0  0  0
 11 13  1  1  0  0  0
 11  9  1  0  0  0  0
 12 11  1  0  0  0  0
 14 15  1  6  0  0  0
 16 14  1  0  0  0  0
 17 18  1  1  0  0  0
 17 16  1  0  0  0  0
 19  2  1  1  0  0  0
 19 20  1  0  0  0  0
 19 17  1  0  0  0  0
 20 21  1  1  0  0  0
 20 22  1  0  0  0  0
 22 23  1  6  0  0  0
 22 14  1  0  0  0  0
 24 23  1  6  0  0  0
 24 25  1  0  0  0  0
 25 27  1  0  0  0  0
 25 26  1  6  0  0  0
 27 28  1  1  0  0  0
 28 29  1  0  0  0  0
 30 31  1  1  0  0  0
 30 32  1  0  0  0  0
 30 27  1  0  0  0  0
 33 30  1  0  0  0  0
 34 33  1  0  0  0  0
 34 24  1  0  0  0  0
M  END
>  <CHROM.1>
178.42956337,177.10022143,-178.60532907,145.76847353,-150.93859968,-92.31854184
-0.04070303,7.96691512,7.64156162,-1.04590941,-1.04704740,0.15399566

>  <Name>
lig.pdb

>  <RI>
0

>  <Rbt.Current_Directory>
/home/itssahil/PROJECTS/Mol_Feturizer/New_Systems/rnas/4k32

>  <Rbt.Executable>
rbdock ($Id: //depot/dev/client3/rdock/2013.1/src/exe/rbdock.cxx#4 $)

>  <Rbt.Library>
libRbt.so (2013.1, Build901 2013/11/27)

>  <Rbt.Parameter_File>
/export/apps/rDock/src/rDock_2013.1_src/data/scripts/dock_solv.prm

>  <Rbt.Receptor>
prm/blind_docking_60.prm

>  <SCORE>
-6.37534

>  <SCORE.INTER>
-5.74422

>  <SCORE.INTER.CONST>
1

>  <SCORE.INTER.POLAR>
0

>  <SCORE.INTER.ROT>
6

>  <SCORE.INTER.SOLV>
14.3599

>  <SCORE.INTER.VDW>
-16.2161

>  <SCORE.INTER.norm>
-0.168948

>  <SCORE.INTRA>
-4.55551

>  <SCORE.INTRA.DIHEDRAL>
-9.46608

>  <SCORE.INTRA.DIHEDRAL.0>
18.0069

>  <SCORE.INTRA.POLAR>
0

>  <SCORE.INTRA.POLAR.0>
0

>  <SCORE.INTRA.REPUL>
0

>  <SCORE.INTRA.REPUL.0>
0

>  <SCORE.INTRA.SOLV>
-2.58505

>  <SCORE.INTRA.SOLV.lig_0>
-70.7393

>  <SCORE.INTRA.VDW>
1.47005

>  <SCORE.INTRA.VDW.0>
-3.23471

>  <SCORE.INTRA.norm>
-0.133986

>  <SCORE.RESTR>
3.9244

>  <SCORE.RESTR.CAVITY>
3.9244

>  <SCORE.RESTR.norm>
0.115423

>  <SCORE.SYSTEM>
0

>  <SCORE.SYSTEM.CONST>
0

>  <SCORE.SYSTEM.DIHEDRAL>
0

>  <SCORE.SYSTEM.SOLV>
0

>  <SCORE.SYSTEM.norm>
0

>  <SCORE.heavy>
34

>  <SCORE.norm>
-0.18751

>  <RMSD>
31.422

$$$$
lig.pdb
 OpenBabel11021811503D
libRbt.so/2013.1/901 2013/11/27
 34 36  0  0  0  0  0  0  0  0999 V2000
    1.6186    6.2863    8.5723 C   0  0  2  0  0  0  0  0  0  0  0  0
    1.3549    5.8483    7.2348 O   0  0  0  0  0  0  0  0  0  0  0  0
    2.9195    5.5435    9.0986 C   0  0  2  0  0  0  0  0  0  0  0  0
    4.1039    5.8479    8.2624 N   0  0  0  0  0  0  0  0  0  0  0  0
    2.6668    4.0149    9.1195 C   0  0  1  0  0  0  0  0  0  0  0  0
    3.8260    3.3286    9.5979 O   0  0  0  0  0  0  0  0  0  0  0  0
    1.4425    3.7328   10.0085 C   0  0  2  0  0  0  0  0  0  0  0  0
    1.2004    2.3253   10.0396 O   0  0  0  0  0  0  0  0  0  0  0  0
    0.1888    4.5073    9.4476 C   0  0  2  0  0  0  0  0  0  0  0  0
    0.4508    5.9615    9.3979 O   0  0  0  0  0  0  0  0  0  0  0  0
   -1.0674    4.2668   10.3212 C   0  0  2  0  0  0  0  0  0  0  0  0
   -0.7824    4.6000   11.6812 O   0  0  0  0  0  0  0  0  0  0  0  0
   -1.5095    2.8131   10.2599 C   0  0  0  0  0  0  0  0  0  0  0  0
   -0.9656    8.1331    4.4579 C   0  0  2  0  0  0  0  0  0  0  0  0
   -2.1041    8.6428    3.6897 N   0  0  0  0  0  0  0  0  0  0  0  0
   -0.9564    6.5878    4.2973 C   0  0  0  0  0  0  0  0  0  0  0  0
    0.2595    6.0301    5.0858 C   0  0  2  0  0  0  0  0  0  0  0  0
    0.3112    4.5654    4.9568 N   0  0  0  0  0  0  0  0  0  0  0  0
    0.1665    6.4064    6.5889 C   0  0  2  0  0  0  0  0  0  0  0  0
    0.1123    7.9610    6.7224 C   0  0  2  0  0  0  0  0  0  0  0  0
    0.0149    8.3071    8.1107 O   0  0  0  0  0  0  0  0  0  0  0  0
   -1.1224    8.5339    5.9851 C   0  0  1  0  0  0  0  0  0  0  0  0
   -1.0925    9.9736    6.1470 O   0  0  0  0  0  0  0  0  0  0  0  0
   -1.8724   10.5065    7.2430 C   0  0  2  0  0  0  0  0  0  0  0  0
   -2.3449   11.9376    6.7889 C   0  0  2  0  0  0  0  0  0  0  0  0
   -3.1438   11.8332    5.6210 O   0  0  0  0  0  0  0  0  0  0  0  0
   -1.0774   12.8362    6.5270 C   0  0  1  0  0  0  0  0  0  0  0  0
   -1.4794   14.2056    6.0825 N   0  0  0  0  0  0  0  0  0  0  0  0
   -0.5845   14.6348    4.9864 C   0  0  0  0  0  0  0  0  0  0  0  0
   -0.2479   12.9174    7.8445 C   0  0  2  0  0  0  0  0  0  0  0  0
   -1.0566   13.5123    8.8582 O   0  0  0  0  0  0  0  0  0  0  0  0
    1.0082   13.7676    7.6723 C   0  0  0  0  0  0  0  0  0  0  0  0
    0.1547   11.4737    8.2859 C   0  0  0  0  0  0  0  0  0  0  0  0
   -1.0404   10.6211    8.4577 O   0  0  0  0  0  0  0  0  0  0  0  0
  1  3  1  0  0  0  0
  1  2  1  6  0  0  0
  3  5  1  0  0  0  0
  3  4  1  6  0  0  0
  5  6  1  1  0  0  0
  7  8  1  6  0  0  0
  7  5  1  0  0  0  0
  9 10  1  1  0  0  0
  9  7  1  0  0  0  0
 10  1  1  0  0  0  0
 11 13  1  1  0  0  0
 11  9  1  0  0  0  0
 12 11  1  0  0  0  0
 14 15  1  6  0  0  0
 16 14  1  0  0  0  0
 17 18  1  1  0  0  0
 17 16  1  0  0  0  0
 19  2  1  1  0  0  0
 19 20  1  0  0  0  0
 19 17  1  0  0  0  0
 20 21  1  1  0  0  0
 20 22  1  0  0  0  0
 22 23  1  6  0  0  0
 22 14  1  0  0  0  0
 24 23  1  6  0  0  0
 24 25  1  0  0  0  0
 25 27  1  0  0  0  0
 25 26  1  6  0  0  0
 27 28  1  1  0  0  0
 28 29  1  0  0  0  0
 30 31  1  1  0  0  0
 30 32  1  0  0  0  0
 30 27  1  0  0  0  0
 33 30  1  0  0  0  0
 34 33  1  0  0  0  0
 34 24  1  0  0  0  0
M  END
>  <CHROM.1>
178.64689848,54.55371615,168.30957025,148.91871924,-149.40003003,-138.32515028
-0.02309041,8.01644351,7.61020930,-0.81816552,-1.18822287,0.40078204

>  <Name>
lig.pdb

>  <RI>
0

>  <Rbt.Current_Directory>
/home/itssahil/PROJECTS/Mol_Feturizer/New_Systems/rnas/4k32

>  <Rbt.Executable>
rbdock ($Id: //depot/dev/client3/rdock/2013.1/src/exe/rbdock.cxx#4 $)

>  <Rbt.Library>
libRbt.so (2013.1, Build901 2013/11/27)

>  <Rbt.Parameter_File>
/export/apps/rDock/src/rDock_2013.1_src/data/scripts/dock_solv.prm

>  <Rbt.Receptor>
prm/blind_docking_60.prm

>  <SCORE>
-5.21308

>  <SCORE.INTER>
-6.27304

>  <SCORE.INTER.CONST>
1

>  <SCORE.INTER.POLAR>
0

>  <SCORE.INTER.ROT>
6

>  <SCORE.INTER.SOLV>
16.0021

>  <SCORE.INTER.VDW>
-17.1161

>  <SCORE.INTER.norm>
-0.184501

>  <SCORE.INTRA>
-2.16288

>  <SCORE.INTRA.DIHEDRAL>
-8.76962

>  <SCORE.INTRA.DIHEDRAL.0>
18.0069

>  <SCORE.INTRA.POLAR>
0

>  <SCORE.INTRA.POLAR.0>
0

>  <SCORE.INTRA.REPUL>
0

>  <SCORE.INTRA.REPUL.0>
0

>  <SCORE.INTRA.SOLV>
-2.55651

>  <SCORE.INTRA.SOLV.lig_0>
-70.7393

>  <SCORE.INTRA.VDW>
3.50018

>  <SCORE.INTRA.VDW.0>
-3.23471

>  <SCORE.INTRA.norm>
-0.0636142

>  <SCORE.RESTR>
3.22285

>  <SCORE.RESTR.CAVITY>
3.22285

>  <SCORE.RESTR.norm>
0.0947897

>  <SCORE.SYSTEM>
0

>  <SCORE.SYSTEM.CONST>
0

>  <SCORE.SYSTEM.DIHEDRAL>
0

>  <SCORE.SYSTEM.SOLV>
0

>  <SCORE.SYSTEM.norm>
0

>  <SCORE.heavy>
34

>  <SCORE.norm>
-0.153326

>  <RMSD>
31.439

$$$$
lig.pdb
 OpenBabel11021811503D
libRbt.so/2013.1/901 2013/11/27
 34 36  0  0  0  0  0  0  0  0999 V2000
    2.0240    6.4274    8.2307 C   0  0  2  0  0  0  0  0  0  0  0  0
    1.5539    5.8579    7.0040 O   0  0  0  0  0  0  0  0  0  0  0  0
    3.3874    5.7164    8.6266 C   0  0  2  0  0  0  0  0  0  0  0  0
    4.4290    5.9070    7.5905 N   0  0  0  0  0  0  0  0  0  0  0  0
    3.1340    4.2039    8.8485 C   0  0  1  0  0  0  0  0  0  0  0  0
    4.3503    3.5472    9.2130 O   0  0  0  0  0  0  0  0  0  0  0  0
    2.0613    4.0418    9.9401 C   0  0  2  0  0  0  0  0  0  0  0  0
    1.8205    2.6507   10.1575 O   0  0  0  0  0  0  0  0  0  0  0  0
    0.7392    4.7797    9.4996 C   0  0  2  0  0  0  0  0  0  0  0  0
    0.9969    6.2150    9.2559 O   0  0  0  0  0  0  0  0  0  0  0  0
   -0.3673    4.6581   10.5767 C   0  0  2  0  0  0  0  0  0  0  0  0
   -0.7195    3.2850   10.7562 O   0  0  0  0  0  0  0  0  0  0  0  0
   -1.6138    5.4305   10.1738 C   0  0  0  0  0  0  0  0  0  0  0  0
   -1.1818    7.9964    4.5020 C   0  0  2  0  0  0  0  0  0  0  0  0
   -2.4260    8.4470    3.8736 N   0  0  0  0  0  0  0  0  0  0  0  0
   -1.1308    6.4496    4.3657 C   0  0  0  0  0  0  0  0  0  0  0  0
    0.1945    5.9543    5.0054 C   0  0  2  0  0  0  0  0  0  0  0  0
    0.2884    4.4902    4.8938 N   0  0  0  0  0  0  0  0  0  0  0  0
    0.2734    6.3575    6.5024 C   0  0  2  0  0  0  0  0  0  0  0  0
    0.1741    7.9114    6.6172 C   0  0  2  0  0  0  0  0  0  0  0  0
    0.2354    8.2819    8.0013 O   0  0  0  0  0  0  0  0  0  0  0  0
   -1.1643    8.4221    6.0305 C   0  0  1  0  0  0  0  0  0  0  0  0
   -1.1721    9.8649    6.1649 O   0  0  0  0  0  0  0  0  0  0  0  0
   -1.9469   10.3969    7.2651 C   0  0  2  0  0  0  0  0  0  0  0  0
   -2.3926   11.8418    6.8283 C   0  0  2  0  0  0  0  0  0  0  0  0
   -3.1888   11.7668    5.6561 O   0  0  0  0  0  0  0  0  0  0  0  0
   -1.1087   12.7216    6.5829 C   0  0  1  0  0  0  0  0  0  0  0  0
   -1.4851   14.1035    6.1551 N   0  0  0  0  0  0  0  0  0  0  0  0
   -0.5958   14.5213    5.0501 C   0  0  0  0  0  0  0  0  0  0  0  0
   -0.2830   12.7709    7.9044 C   0  0  2  0  0  0  0  0  0  0  0  0
   -1.0852   13.3664    8.9230 O   0  0  0  0  0  0  0  0  0  0  0  0
    0.9883   13.6013    7.7480 C   0  0  0  0  0  0  0  0  0  0  0  0
    0.0927   11.3147    8.3280 C   0  0  0  0  0  0  0  0  0  0  0  0
   -1.1177   10.4809    8.4841 O   0  0  0  0  0  0  0  0  0  0  0  0
  1  3  1  0  0  0  0
  1  2  1  6  0  0  0
  3  5  1  0  0  0  0
  3  4  1  6  0  0  0
  5  6  1  1  0  0  0
  7  8  1  6  0  0  0
  7  5  1  0  0  0  0
  9 10  1  1  0  0  0
  9  7  1  0  0  0  0
 10  1  1  0  0  0  0
 11 13  1  6  0  0  0
 11  9  1  0  0  0  0
 12 11  1  0  0  0  0
 14 15  1  1  0  0  0
 16 14  1  0  0  0  0
 17 18  1  1  0  0  0
 17 16  1  0  0  0  0
 19  2  1  6  0  0  0
 19 20  1  0  0  0  0
 19 17  1  0  0  0  0
 20 21  1  1  0  0  0
 20 22  1  0  0  0  0
 22 23  1  6  0  0  0
 22 14  1  0  0  0  0
 24 23  1  6  0  0  0
 24 25  1  0  0  0  0
 25 27  1  0  0  0  0
 25 26  1  6  0  0  0
 27 28  1  1  0  0  0
 28 29  1  0  0  0  0
 30 31  1  1  0  0  0
 30 32  1  0  0  0  0
 30 27  1  0  0  0  0
 33 30  1  0  0  0  0
 34 33  1  0  0  0  0
 34 24  1  0  0  0  0
M  END
>  <CHROM.1>
177.85007563,-62.58723542,162.60554083,142.80418014,-152.82972205,-137.22538771
0.10665867,8.05461378,7.52754499,-0.85343340,-1.04250879,0.35715371

>  <Name>
lig.pdb

>  <RI>
0

>  <Rbt.Current_Directory>
/home/itssahil/PROJECTS/Mol_Feturizer/New_Systems/rnas/4k32

>  <Rbt.Executable>
rbdock ($Id: //depot/dev/client3/rdock/2013.1/src/exe/rbdock.cxx#4 $)

>  <Rbt.Library>
libRbt.so (2013.1, Build901 2013/11/27)

>  <Rbt.Parameter_File>
/export/apps/rDock/src/rDock_2013.1_src/data/scripts/dock_solv.prm

>  <Rbt.Receptor>
prm/blind_docking_60.prm

>  <SCORE>
-4.48143

>  <SCORE.INTER>
-5.43015

>  <SCORE.INTER.CONST>
1

>  <SCORE.INTER.POLAR>
0

>  <SCORE.INTER.ROT>
6

>  <SCORE.INTER.SOLV>
16.8397

>  <SCORE.INTER.VDW>
-16.8333

>  <SCORE.INTER.norm>
-0.15971

>  <SCORE.INTRA>
-2.34079

>  <SCORE.INTRA.DIHEDRAL>
-7.60799

>  <SCORE.INTRA.DIHEDRAL.0>
18.0069

>  <SCORE.INTRA.POLAR>
0

>  <SCORE.INTRA.POLAR.0>
0

>  <SCORE.INTRA.REPUL>
0

>  <SCORE.INTRA.REPUL.0>
0

>  <SCORE.INTRA.SOLV>
-2.60703

>  <SCORE.INTRA.SOLV.lig_0>
-70.7393

>  <SCORE.INTRA.VDW>
2.76672

>  <SCORE.INTRA.VDW.0>
-3.23471

>  <SCORE.INTRA.norm>
-0.0688467

>  <SCORE.RESTR>
3.28951

>  <SCORE.RESTR.CAVITY>
3.28951

>  <SCORE.RESTR.norm>
0.0967503

>  <SCORE.SYSTEM>
0

>  <SCORE.SYSTEM.CONST>
0

>  <SCORE.SYSTEM.DIHEDRAL>
0

>  <SCORE.SYSTEM.SOLV>
0

>  <SCORE.SYSTEM.norm>
0

>  <SCORE.heavy>
34

>  <SCORE.norm>
-0.131807

>  <RMSD>
31.460

$$$$
lig.pdb
 OpenBabel11021811503D
libRbt.so/2013.1/901 2013/11/27
 34 36  0  0  0  0  0  0  0  0999 V2000
    0.3122    5.5084    6.8846 C   0  0  2  0  0  0  0  0  0  0  0  0
   -0.9627    6.0009    7.3116 O   0  0  0  0  0  0  0  0  0  0  0  0
    0.2768    3.9213    6.9196 C   0  0  2  0  0  0  0  0  0  0  0  0
   -0.7642    3.3736    6.0190 N   0  0  0  0  0  0  0  0  0  0  0  0
    0.0232    3.4438    8.3717 C   0  0  1  0  0  0  0  0  0  0  0  0
   -0.0050    2.0155    8.4245 O   0  0  0  0  0  0  0  0  0  0  0  0
    1.1296    4.0157    9.2759 C   0  0  2  0  0  0  0  0  0  0  0  0
    0.9098    3.5796   10.6182 O   0  0  0  0  0  0  0  0  0  0  0  0
    1.1266    5.5901    9.1879 C   0  0  2  0  0  0  0  0  0  0  0  0
    1.3341    6.0371    7.7940 O   0  0  0  0  0  0  0  0  0  0  0  0
    2.2369    6.2123   10.0708 C   0  0  2  0  0  0  0  0  0  0  0  0
    2.1536    7.6378   10.0205 O   0  0  0  0  0  0  0  0  0  0  0  0
    3.6183    5.7896    9.5957 C   0  0  0  0  0  0  0  0  0  0  0  0
   -0.6844    9.6772    5.1382 C   0  0  2  0  0  0  0  0  0  0  0  0
   -1.0524   10.9435    4.5001 N   0  0  0  0  0  0  0  0  0  0  0  0
   -1.6626    8.5929    4.6080 C   0  0  0  0  0  0  0  0  0  0  0  0
   -1.2728    7.2364    5.2552 C   0  0  2  0  0  0  0  0  0  0  0  0
   -2.1725    6.1755    4.7758 N   0  0  0  0  0  0  0  0  0  0  0  0
   -1.3570    7.3150    6.8032 C   0  0  2  0  0  0  0  0  0  0  0  0
   -0.4010    8.4411    7.3087 C   0  0  2  0  0  0  0  0  0  0  0  0
   -0.4882    8.5206    8.7380 O   0  0  0  0  0  0  0  0  0  0  0  0
   -0.8037    9.8127    6.7146 C   0  0  1  0  0  0  0  0  0  0  0  0
    0.1338   10.7947    7.2210 O   0  0  0  0  0  0  0  0  0  0  0  0
   -0.3475   11.6401    8.2921 C   0  0  2  0  0  0  0  0  0  0  0  0
   -1.4419   12.5744    7.6543 C   0  0  2  0  0  0  0  0  0  0  0  0
   -2.5020   11.7885    7.1328 O   0  0  0  0  0  0  0  0  0  0  0  0
   -0.7756   13.4451    6.5226 C   0  0  1  0  0  0  0  0  0  0  0  0
   -1.7833   14.3431    5.8802 N   0  0  0  0  0  0  0  0  0  0  0  0
   -2.2462   13.7198    4.6217 C   0  0  0  0  0  0  0  0  0  0  0  0
    0.3720   14.2876    7.1580 C   0  0  2  0  0  0  0  0  0  0  0  0
   -0.1860   15.1422    8.1550 O   0  0  0  0  0  0  0  0  0  0  0  0
    1.0780   15.1574    6.1209 C   0  0  0  0  0  0  0  0  0  0  0  0
    1.4064   13.3242    7.8235 C   0  0  0  0  0  0  0  0  0  0  0  0
    0.7537   12.4628    8.8318 O   0  0  0  0  0  0  0  0  0  0  0  0
  1  3  1  0  0  0  0
  1  2  1  1  0  0  0
  3  5  1  0  0  0  0
  3  4  1  6  0  0  0
  5  6  1  6  0  0  0
  7  8  1  1  0  0  0
  7  5  1  0  0  0  0
  9 10  1  6  0  0  0
  9  7  1  0  0  0  0
 10  1  1  0  0  0  0
 11 13  1  6  0  0  0
 11  9  1  0  0  0  0
 12 11  1  0  0  0  0
 14 15  1  6  0  0  0
 16 14  1  0  0  0  0
 17 18  1  6  0  0  0
 17 16  1  0  0  0  0
 19  2  1  1  0  0  0
 19 20  1  0  0  0  0
 19 17  1  0  0  0  0
 20 21  1  1  0  0  0
 20 22  1  0  0  0  0
 22 23  1  1  0  0  0
 22 14  1  0  0  0  0
 24 23  1  6  0  0  0
 24 25  1  0  0  0  0
 25 27  1  0  0  0  0
 25 26  1  6  0  0  0
 27 28  1  1  0  0  0
 28 29  1  0  0  0  0
 30 31  1  1  0  0  0
 30 32  1  0  0  0  0
 30 27  1  0  0  0  0
 33 30  1  0  0  0  0
 34 33  1  0  0  0  0
 34 24  1  0  0  0  0
M  END
>  <CHROM.1>
-153.21930985,-176.84962045,55.11152961,141.15944657,-68.84166596,-98.50979533
-0.10475570,8.78820801,7.38394080,1.37464755,0.89530528,3.11980932

>  <Name>
lig.pdb

>  <RI>
0

>  <Rbt.Current_Directory>
/home/itssahil/PROJECTS/Mol_Feturizer/New_Systems/rnas/4k32

>  <Rbt.Executable>
rbdock ($Id: //depot/dev/client3/rdock/2013.1/src/exe/rbdock.cxx#4 $)

>  <Rbt.Library>
libRbt.so (2013.1, Build901 2013/11/27)

>  <Rbt.Parameter_File>
/export/apps/rDock/src/rDock_2013.1_src/data/scripts/dock_solv.prm

>  <Rbt.Receptor>
prm/blind_docking_60.prm

>  <SCORE>
-0.740609

>  <SCORE.INTER>
-3.76057

>  <SCORE.INTER.CONST>
1

>  <SCORE.INTER.POLAR>
0

>  <SCORE.INTER.ROT>
6

>  <SCORE.INTER.SOLV>
16.5517

>  <SCORE.INTER.VDW>
-15.6243

>  <SCORE.INTER.norm>
-0.110605

>  <SCORE.INTRA>
-1.10567

>  <SCORE.INTRA.DIHEDRAL>
-8.41079

>  <SCORE.INTRA.DIHEDRAL.0>
18.0069

>  <SCORE.INTRA.POLAR>
0

>  <SCORE.INTRA.POLAR.0>
0

>  <SCORE.INTRA.REPUL>
0

>  <SCORE.INTRA.REPUL.0>
0

>  <SCORE.INTRA.SOLV>
3.70488

>  <SCORE.INTRA.SOLV.lig_0>
-70.7393

>  <SCORE.INTRA.VDW>
1.24729

>  <SCORE.INTRA.VDW.0>
-3.23471

>  <SCORE.INTRA.norm>
-0.0325197

>  <SCORE.RESTR>
4.12563

>  <SCORE.RESTR.CAVITY>
4.12563

>  <SCORE.RESTR.norm>
0.121342

>  <SCORE.SYSTEM>
0

>  <SCORE.SYSTEM.CONST>
0

>  <SCORE.SYSTEM.DIHEDRAL>
0

>  <SCORE.SYSTEM.SOLV>
0

>  <SCORE.SYSTEM.norm>
0

>  <SCORE.heavy>
34

>  <SCORE.norm>
-0.0217826

>  <RMSD>
31.466

$$$$
lig.pdb
 OpenBabel11021811503D
libRbt.so/2013.1/901 2013/11/27
 34 36  0  0  0  0  0  0  0  0999 V2000
    0.2959    5.5167    6.8583 C   0  0  2  0  0  0  0  0  0  0  0  0
   -0.9798    6.0029    7.2899 O   0  0  0  0  0  0  0  0  0  0  0  0
    0.2690    3.9295    6.8947 C   0  0  2  0  0  0  0  0  0  0  0  0
   -0.7727    3.3756    5.9985 N   0  0  0  0  0  0  0  0  0  0  0  0
    0.0234    3.4517    8.3481 C   0  0  1  0  0  0  0  0  0  0  0  0
    0.0028    2.0233    8.4021 O   0  0  0  0  0  0  0  0  0  0  0  0
    1.1302    4.0301    9.2476 C   0  0  2  0  0  0  0  0  0  0  0  0
    0.9179    3.5939   10.5911 O   0  0  0  0  0  0  0  0  0  0  0  0
    1.1187    5.6044    9.1585 C   0  0  2  0  0  0  0  0  0  0  0  0
    1.3185    6.0514    7.7634 O   0  0  0  0  0  0  0  0  0  0  0  0
    2.2291    6.2330   10.0366 C   0  0  2  0  0  0  0  0  0  0  0  0
    2.1246    7.6576   10.0031 O   0  0  0  0  0  0  0  0  0  0  0  0
    3.6114    5.8359    9.5424 C   0  0  0  0  0  0  0  0  0  0  0  0
   -0.7056    9.7022    5.1553 C   0  0  2  0  0  0  0  0  0  0  0  0
   -1.0742   10.9768    4.5343 N   0  0  0  0  0  0  0  0  0  0  0  0
   -1.6919    8.6273    4.6209 C   0  0  0  0  0  0  0  0  0  0  0  0
   -1.3018    7.2623    5.2498 C   0  0  2  0  0  0  0  0  0  0  0  0
   -2.2090    6.2099    4.7658 N   0  0  0  0  0  0  0  0  0  0  0  0
   -1.3735    7.3239    6.7993 C   0  0  2  0  0  0  0  0  0  0  0  0
   -0.4095    8.4410    7.3097 C   0  0  2  0  0  0  0  0  0  0  0  0
   -0.4851    8.5048    8.7403 O   0  0  0  0  0  0  0  0  0  0  0  0
   -0.8120    9.8205    6.7340 C   0  0  1  0  0  0  0  0  0  0  0  0
    0.1330   10.7936    7.2439 O   0  0  0  0  0  0  0  0  0  0  0  0
   -0.3443   11.6439    8.3128 C   0  0  2  0  0  0  0  0  0  0  0  0
   -1.4431   12.5733    7.6754 C   0  0  2  0  0  0  0  0  0  0  0  0
   -2.5046   11.7832    7.1633 O   0  0  0  0  0  0  0  0  0  0  0  0
   -0.7836   13.4390    6.5360 C   0  0  1  0  0  0  0  0  0  0  0  0
   -1.7956   14.3321    5.8938 N   0  0  0  0  0  0  0  0  0  0  0  0
   -2.0009   13.8954    4.4960 C   0  0  0  0  0  0  0  0  0  0  0  0
    0.3659   14.2864    7.1614 C   0  0  2  0  0  0  0  0  0  0  0  0
   -0.1885   15.1454    8.1565 O   0  0  0  0  0  0  0  0  0  0  0  0
    1.0656   15.1517    6.1163 C   0  0  0  0  0  0  0  0  0  0  0  0
    1.4049   13.3279    7.8268 C   0  0  0  0  0  0  0  0  0  0  0  0
    0.7583   12.4710    8.8428 O   0  0  0  0  0  0  0  0  0  0  0  0
  1  3  1  0  0  0  0
  1  2  1  1  0  0  0
  3  5  1  0  0  0  0
  3  4  1  6  0  0  0
  5  6  1  6  0  0  0
  7  8  1  1  0  0  0
  7  5  1  0  0  0  0
  9 10  1  6  0  0  0
  9  7  1  0  0  0  0
 10  1  1  0  0  0  0
 11 13  1  6  0  0  0
 11  9  1  0  0  0  0
 12 11  1  0  0  0  0
 14 15  1  6  0  0  0
 16 14  1  0  0  0  0
 17 18  1  6  0  0  0
 17 16  1  0  0  0  0
 19  2  1  1  0  0  0
 19 20  1  0  0  0  0
 19 17  1  0  0  0  0
 20 21  1  1  0  0  0
 20 22  1  0  0  0  0
 22 23  1  1  0  0  0
 22 14  1  0  0  0  0
 24 23  1  6  0  0  0
 24 25  1  0  0  0  0
 25 27  1  0  0  0  0
 25 26  1  6  0  0  0
 27 28  1  1  0  0  0
 28 29  1  0  0  0  0
 30 31  1  1  0  0  0
 30 32  1  0  0  0  0
 30 27  1  0  0  0  0
 33 30  1  0  0  0  0
 34 33  1  0  0  0  0
 34 24  1  0  0  0  0
M  END
>  <CHROM.1>
-154.17368066,-175.90243515,55.73548118,140.15149176,-67.98197962,-113.17986861
-0.10598082,8.80297658,7.37535166,1.37906988,0.89838443,3.11910085

>  <Name>
lig.pdb

>  <RI>
0

>  <Rbt.Current_Directory>
/home/itssahil/PROJECTS/Mol_Feturizer/New_Systems/rnas/4k32

>  <Rbt.Executable>
rbdock ($Id: //depot/dev/client3/rdock/2013.1/src/exe/rbdock.cxx#4 $)

>  <Rbt.Library>
libRbt.so (2013.1, Build901 2013/11/27)

>  <Rbt.Parameter_File>
/export/apps/rDock/src/rDock_2013.1_src/data/scripts/dock_solv.prm

>  <Rbt.Receptor>
prm/blind_docking_60.prm

>  <SCORE>
-0.969872

>  <SCORE.INTER>
-3.98069

>  <SCORE.INTER.CONST>
1

>  <SCORE.INTER.POLAR>
0

>  <SCORE.INTER.ROT>
6

>  <SCORE.INTER.SOLV>
16.4257

>  <SCORE.INTER.VDW>
-15.729

>  <SCORE.INTER.norm>
-0.117079

>  <SCORE.INTRA>
-1.10024

>  <SCORE.INTRA.DIHEDRAL>
-8.1887

>  <SCORE.INTRA.DIHEDRAL.0>
18.0069

>  <SCORE.INTRA.POLAR>
0

>  <SCORE.INTRA.POLAR.0>
0

>  <SCORE.INTRA.REPUL>
0

>  <SCORE.INTRA.REPUL.0>
0

>  <SCORE.INTRA.SOLV>
3.70655

>  <SCORE.INTRA.SOLV.lig_0>
-70.7393

>  <SCORE.INTRA.VDW>
1.14084

>  <SCORE.INTRA.VDW.0>
-3.23471

>  <SCORE.INTRA.norm>
-0.03236

>  <SCORE.RESTR>
4.11105

>  <SCORE.RESTR.CAVITY>
4.11105

>  <SCORE.RESTR.norm>
0.120913

>  <SCORE.SYSTEM>
0

>  <SCORE.SYSTEM.CONST>
0

>  <SCORE.SYSTEM.DIHEDRAL>
0

>  <SCORE.SYSTEM.SOLV>
0

>  <SCORE.SYSTEM.norm>
0

>  <SCORE.heavy>
34

>  <SCORE.norm>
-0.0285256

>  <RMSD>
31.470

$$$$
lig.pdb
 OpenBabel11021811503D
libRbt.so/2013.1/901 2013/11/27
 34 36  0  0  0  0  0  0  0  0999 V2000
    1.7166    6.3159    8.4368 C   0  0  2  0  0  0  0  0  0  0  0  0
    1.2776    5.7840    7.1820 O   0  0  0  0  0  0  0  0  0  0  0  0
    3.0870    5.6163    8.8290 C   0  0  2  0  0  0  0  0  0  0  0  0
    4.1414    5.8652    7.8184 N   0  0  0  0  0  0  0  0  0  0  0  0
    2.8596    4.0921    8.9902 C   0  0  1  0  0  0  0  0  0  0  0  0
    4.0823    3.4452    9.3505 O   0  0  0  0  0  0  0  0  0  0  0  0
    1.7727    3.8690   10.0568 C   0  0  2  0  0  0  0  0  0  0  0  0
    1.5555    2.4665   10.2183 O   0  0  0  0  0  0  0  0  0  0  0  0
    0.4438    4.5979    9.6217 C   0  0  2  0  0  0  0  0  0  0  0  0
    0.6775    6.0459    9.4359 O   0  0  0  0  0  0  0  0  0  0  0  0
   -0.6774    4.4152   10.6747 C   0  0  2  0  0  0  0  0  0  0  0  0
   -0.8983    3.0233   10.9103 O   0  0  0  0  0  0  0  0  0  0  0  0
   -1.9810    5.0407   10.2037 C   0  0  0  0  0  0  0  0  0  0  0  0
   -1.2482    7.9904    4.5233 C   0  0  2  0  0  0  0  0  0  0  0  0
   -2.4445    8.4985    3.8474 N   0  0  0  0  0  0  0  0  0  0  0  0
   -1.3078    6.4392    4.4608 C   0  0  0  0  0  0  0  0  0  0  0  0
   -0.0340    5.8813    5.1518 C   0  0  2  0  0  0  0  0  0  0  0  0
   -0.0452    4.4106    5.1111 N   0  0  0  0  0  0  0  0  0  0  0  0
    0.0464    6.3496    6.6296 C   0  0  2  0  0  0  0  0  0  0  0  0
    0.0586    7.9104    6.6694 C   0  0  2  0  0  0  0  0  0  0  0  0
    0.1213    8.3419    8.0355 O   0  0  0  0  0  0  0  0  0  0  0  0
   -1.2279    8.4872    6.0301 C   0  0  1  0  0  0  0  0  0  0  0  0
   -1.1329    9.9316    6.0966 O   0  0  0  0  0  0  0  0  0  0  0  0
   -1.9418   10.5762    7.1085 C   0  0  2  0  0  0  0  0  0  0  0  0
   -2.1878   12.0458    6.6017 C   0  0  2  0  0  0  0  0  0  0  0  0
   -2.8783   12.0191    5.3624 O   0  0  0  0  0  0  0  0  0  0  0  0
   -0.7995   12.7772    6.4582 C   0  0  1  0  0  0  0  0  0  0  0  0
   -0.9844   14.1772    5.9682 N   0  0  0  0  0  0  0  0  0  0  0  0
   -1.1939   14.1482    4.5047 C   0  0  0  0  0  0  0  0  0  0  0  0
   -0.0959   12.7799    7.8495 C   0  0  2  0  0  0  0  0  0  0  0  0
   -0.9177   13.4880    8.7762 O   0  0  0  0  0  0  0  0  0  0  0  0
    1.2665   13.4663    7.7945 C   0  0  0  0  0  0  0  0  0  0  0  0
    0.0806   11.3060    8.3368 C   0  0  0  0  0  0  0  0  0  0  0  0
   -1.2218   10.6099    8.3973 O   0  0  0  0  0  0  0  0  0  0  0  0
  1  3  1  0  0  0  0
  1  2  1  6  0  0  0
  3  5  1  0  0  0  0
  3  4  1  6  0  0  0
  5  6  1  1  0  0  0
  7  8  1  6  0  0  0
  7  5  1  0  0  0  0
  9 10  1  1  0  0  0
  9  7  1  0  0  0  0
 10  1  1  0  0  0  0
 11 13  1  6  0  0  0
 11  9  1  0  0  0  0
 12 11  1  0  0  0  0
 14 15  1  1  0  0  0
 16 14  1  0  0  0  0
 17 18  1  1  0  0  0
 17 16  1  0  0  0  0
 19  2  1  6  0  0  0
 19 20  1  0  0  0  0
 19 17  1  0  0  0  0
 20 21  1  1  0  0  0
 20 22  1  0  0  0  0
 22 23  1  6  0  0  0
 22 14  1  0  0  0  0
 24 23  1  6  0  0  0
 24 25  1  0  0  0  0
 25 27  1  0  0  0  0
 25 26  1  6  0  0  0
 27 28  1  1  0  0  0
 28 29  1  0  0  0  0
 30 31  1  1  0  0  0
 30 32  1  0  0  0  0
 30 27  1  0  0  0  0
 33 30  1  0  0  0  0
 34 33  1  0  0  0  0
 34 24  1  0  0  0  0
M  END
>  <CHROM.1>
-177.77063308,-55.92379164,166.65523236,139.66640717,-155.24463875,-79.64840481
-0.00568538,8.00753511,7.54581557,-1.00141561,-1.02914902,0.17494311

>  <Name>
lig.pdb

>  <RI>
0

>  <Rbt.Current_Directory>
/home/itssahil/PROJECTS/Mol_Feturizer/New_Systems/rnas/4k32

>  <Rbt.Executable>
rbdock ($Id: //depot/dev/client3/rdock/2013.1/src/exe/rbdock.cxx#4 $)

>  <Rbt.Library>
libRbt.so (2013.1, Build901 2013/11/27)

>  <Rbt.Parameter_File>
/export/apps/rDock/src/rDock_2013.1_src/data/scripts/dock_solv.prm

>  <Rbt.Receptor>
prm/blind_docking_60.prm

>  <SCORE>
-4.47693

>  <SCORE.INTER>
-5.14405

>  <SCORE.INTER.CONST>
1

>  <SCORE.INTER.POLAR>
0

>  <SCORE.INTER.ROT>
6

>  <SCORE.INTER.SOLV>
15.2343

>  <SCORE.INTER.VDW>
-16.1075

>  <SCORE.INTER.norm>
-0.151296

>  <SCORE.INTRA>
-2.98797

>  <SCORE.INTRA.DIHEDRAL>
-8.71257

>  <SCORE.INTRA.DIHEDRAL.0>
18.0069

>  <SCORE.INTRA.POLAR>
0

>  <SCORE.INTRA.POLAR.0>
0

>  <SCORE.INTRA.REPUL>
0

>  <SCORE.INTRA.REPUL.0>
0

>  <SCORE.INTRA.SOLV>
-2.47893

>  <SCORE.INTRA.SOLV.lig_0>
-70.7393

>  <SCORE.INTRA.VDW>
2.60778

>  <SCORE.INTRA.VDW.0>
-3.23471

>  <SCORE.INTRA.norm>
-0.0878816

>  <SCORE.RESTR>
3.6551

>  <SCORE.RESTR.CAVITY>
3.6551

>  <SCORE.RESTR.norm>
0.107503

>  <SCORE.SYSTEM>
0

>  <SCORE.SYSTEM.CONST>
0

>  <SCORE.SYSTEM.DIHEDRAL>
0

>  <SCORE.SYSTEM.SOLV>
0

>  <SCORE.SYSTEM.norm>
0

>  <SCORE.heavy>
34

>  <SCORE.norm>
-0.131674

>  <RMSD>
31.475

$$$$
lig.pdb
 OpenBabel11021811503D
libRbt.so/2013.1/901 2013/11/27
 34 36  0  0  0  0  0  0  0  0999 V2000
    1.6218    6.2883    8.5727 C   0  0  2  0  0  0  0  0  0  0  0  0
    1.3475    5.8468    7.2384 O   0  0  0  0  0  0  0  0  0  0  0  0
    2.9259    5.5456    9.0912 C   0  0  2  0  0  0  0  0  0  0  0  0
    4.1043    5.8466    8.2451 N   0  0  0  0  0  0  0  0  0  0  0  0
    2.6720    4.0173    9.1182 C   0  0  1  0  0  0  0  0  0  0  0  0
    3.8341    3.3313    9.5897 O   0  0  0  0  0  0  0  0  0  0  0  0
    1.4542    3.7389   10.0172 C   0  0  2  0  0  0  0  0  0  0  0  0
    1.2110    2.3318   10.0541 O   0  0  0  0  0  0  0  0  0  0  0  0
    0.1970    4.5130    9.4637 C   0  0  2  0  0  0  0  0  0  0  0  0
    0.4600    5.9669    9.4080 O   0  0  0  0  0  0  0  0  0  0  0  0
   -1.0528    4.2763   10.3475 C   0  0  2  0  0  0  0  0  0  0  0  0
   -0.7554    4.6075   11.7053 O   0  0  0  0  0  0  0  0  0  0  0  0
   -1.5003    2.8240   10.2889 C   0  0  0  0  0  0  0  0  0  0  0  0
   -1.0117    8.0606    4.4367 C   0  0  2  0  0  0  0  0  0  0  0  0
   -2.1625    8.5587    3.6793 N   0  0  0  0  0  0  0  0  0  0  0  0
   -1.0300    6.5103    4.3358 C   0  0  0  0  0  0  0  0  0  0  0  0
    0.1980    5.9638    5.1133 C   0  0  2  0  0  0  0  0  0  0  0  0
    0.2243    4.4946    5.0397 N   0  0  0  0  0  0  0  0  0  0  0  0
    0.1508    6.3987    6.6027 C   0  0  2  0  0  0  0  0  0  0  0  0
    0.1235    7.9580    6.6773 C   0  0  2  0  0  0  0  0  0  0  0  0
    0.0684    8.3585    8.0532 O   0  0  0  0  0  0  0  0  0  0  0  0
   -1.1217    8.5220    5.9509 C   0  0  1  0  0  0  0  0  0  0  0  0
   -1.0659    9.9661    6.0561 O   0  0  0  0  0  0  0  0  0  0  0  0
   -1.8866   10.5606    7.0890 C   0  0  2  0  0  0  0  0  0  0  0  0
   -2.2029   12.0255    6.6078 C   0  0  2  0  0  0  0  0  0  0  0  0
   -2.9100   11.9867    5.3782 O   0  0  0  0  0  0  0  0  0  0  0  0
   -0.8496   12.8180    6.4557 C   0  0  1  0  0  0  0  0  0  0  0  0
   -1.1016   14.2156    5.9894 N   0  0  0  0  0  0  0  0  0  0  0  0
   -1.1760   14.2213    4.5125 C   0  0  0  0  0  0  0  0  0  0  0  0
   -0.1262   12.8310    7.8367 C   0  0  2  0  0  0  0  0  0  0  0  0
   -0.9638   13.4896    8.7855 O   0  0  0  0  0  0  0  0  0  0  0  0
    1.2046   13.5762    7.7727 C   0  0  0  0  0  0  0  0  0  0  0  0
    0.1207   11.3593    8.2993 C   0  0  0  0  0  0  0  0  0  0  0  0
   -1.1496   10.6068    8.3678 O   0  0  0  0  0  0  0  0  0  0  0  0
  1  3  1  0  0  0  0
  1  2  1  6  0  0  0
  3  5  1  0  0  0  0
  3  4  1  6  0  0  0
  5  6  1  1  0  0  0
  7  8  1  6  0  0  0
  7  5  1  0  0  0  0
  9 10  1  1  0  0  0
  9  7  1  0  0  0  0
 10  1  1  0  0  0  0
 11 13  1  1  0  0  0
 11  9  1  0  0  0  0
 12 11  1  0  0  0  0
 14 15  1  6  0  0  0
 16 14  1  0  0  0  0
 17 18  1  1  0  0  0
 17 16  1  0  0  0  0
 19  2  1  1  0  0  0
 19 20  1  0  0  0  0
 19 17  1  0  0  0  0
 20 21  1  1  0  0  0
 20 22  1  0  0  0  0
 22 23  1  6  0  0  0
 22 14  1  0  0  0  0
 24 23  1  6  0  0  0
 24 25  1  0  0  0  0
 25 27  1  0  0  0  0
 25 26  1  6  0  0  0
 27 28  1  1  0  0  0
 28 29  1  0  0  0  0
 30 31  1  1  0  0  0
 30 32  1  0  0  0  0
 30 27  1  0  0  0  0
 33 30  1  0  0  0  0
 34 33  1  0  0  0  0
 34 24  1  0  0  0  0
M  END
>  <CHROM.1>
178.32816379,54.31002509,170.89251183,144.50491108,-153.97906616,-86.11481368
-0.00912448,7.99175552,7.57145860,-0.87092492,-1.16488430,0.32212003

>  <Name>
lig.pdb

>  <RI>
0

>  <Rbt.Current_Directory>
/home/itssahil/PROJECTS/Mol_Feturizer/New_Systems/rnas/4k32

>  <Rbt.Executable>
rbdock ($Id: //depot/dev/client3/rdock/2013.1/src/exe/rbdock.cxx#4 $)

>  <Rbt.Library>
libRbt.so (2013.1, Build901 2013/11/27)

>  <Rbt.Parameter_File>
/export/apps/rDock/src/rDock_2013.1_src/data/scripts/dock_solv.prm

>  <Rbt.Receptor>
prm/blind_docking_60.prm

>  <SCORE>
-5.17099

>  <SCORE.INTER>
-5.91556

>  <SCORE.INTER.CONST>
1

>  <SCORE.INTER.POLAR>
0

>  <SCORE.INTER.ROT>
6

>  <SCORE.INTER.SOLV>
15.8669

>  <SCORE.INTER.VDW>
-16.8327

>  <SCORE.INTER.norm>
-0.173987

>  <SCORE.INTRA>
-2.76532

>  <SCORE.INTRA.DIHEDRAL>
-9.52257

>  <SCORE.INTRA.DIHEDRAL.0>
18.0069

>  <SCORE.INTRA.POLAR>
0

>  <SCORE.INTRA.POLAR.0>
0

>  <SCORE.INTRA.REPUL>
0

>  <SCORE.INTRA.REPUL.0>
0

>  <SCORE.INTRA.SOLV>
-2.392

>  <SCORE.INTRA.SOLV.lig_0>
-70.7393

>  <SCORE.INTRA.VDW>
3.19196

>  <SCORE.INTRA.VDW.0>
-3.23471

>  <SCORE.INTRA.norm>
-0.081333

>  <SCORE.RESTR>
3.5099

>  <SCORE.RESTR.CAVITY>
3.5099

>  <SCORE.RESTR.norm>
0.103232

>  <SCORE.SYSTEM>
0

>  <SCORE.SYSTEM.CONST>
0

>  <SCORE.SYSTEM.DIHEDRAL>
0

>  <SCORE.SYSTEM.SOLV>
0

>  <SCORE.SYSTEM.norm>
0

>  <SCORE.heavy>
34

>  <SCORE.norm>
-0.152088

>  <RMSD>
31.482

$$$$
lig.pdb
 OpenBabel11021811503D
libRbt.so/2013.1/901 2013/11/27
 34 36  0  0  0  0  0  0  0  0999 V2000
    2.3181    5.0042    8.5677 C   0  0  2  0  0  0  0  0  0  0  0  0
    1.7058    4.8938    7.2781 O   0  0  0  0  0  0  0  0  0  0  0  0
    3.2029    3.7097    8.8180 C   0  0  2  0  0  0  0  0  0  0  0  0
    4.2711    3.5677    7.8013 N   0  0  0  0  0  0  0  0  0  0  0  0
    2.2941    2.4548    8.8077 C   0  0  1  0  0  0  0  0  0  0  0  0
    3.0730    1.2785    9.0387 O   0  0  0  0  0  0  0  0  0  0  0  0
    1.2080    2.6276    9.8844 C   0  0  2  0  0  0  0  0  0  0  0  0
    0.3645    1.4747    9.8883 O   0  0  0  0  0  0  0  0  0  0  0  0
    0.3743    3.9339    9.5933 C   0  0  2  0  0  0  0  0  0  0  0  0
    1.2539    5.1221    9.5699 O   0  0  0  0  0  0  0  0  0  0  0  0
   -0.7233    4.1596   10.6626 C   0  0  2  0  0  0  0  0  0  0  0  0
   -1.5051    2.9730   10.8120 O   0  0  0  0  0  0  0  0  0  0  0  0
   -1.6462    5.3029   10.2701 C   0  0  0  0  0  0  0  0  0  0  0  0
   -0.7675    7.8083    5.3533 C   0  0  2  0  0  0  0  0  0  0  0  0
   -1.9377    8.6067    4.9801 N   0  0  0  0  0  0  0  0  0  0  0  0
   -1.1677    6.3132    5.2174 C   0  0  0  0  0  0  0  0  0  0  0  0
    0.0690    5.4496    5.5859 C   0  0  2  0  0  0  0  0  0  0  0  0
   -0.2634    4.0213    5.4654 N   0  0  0  0  0  0  0  0  0  0  0  0
    0.5390    5.7428    7.0360 C   0  0  2  0  0  0  0  0  0  0  0  0
    0.8914    7.2588    7.1604 C   0  0  2  0  0  0  0  0  0  0  0  0
    1.3145    7.5308    8.5034 O   0  0  0  0  0  0  0  0  0  0  0  0
   -0.3432    8.1382    6.8462 C   0  0  1  0  0  0  0  0  0  0  0  0
    0.0688    9.5217    6.9723 O   0  0  0  0  0  0  0  0  0  0  0  0
   -0.3742   10.2110    8.1649 C   0  0  2  0  0  0  0  0  0  0  0  0
   -1.8266   10.7325    7.8551 C   0  0  2  0  0  0  0  0  0  0  0  0
   -2.6823    9.6363    7.5731 O   0  0  0  0  0  0  0  0  0  0  0  0
   -1.7641   11.7277    6.6351 C   0  0  1  0  0  0  0  0  0  0  0  0
   -3.1266   12.2417    6.2981 N   0  0  0  0  0  0  0  0  0  0  0  0
   -3.3798   12.0184    4.8584 C   0  0  0  0  0  0  0  0  0  0  0  0
   -0.8178   12.9090    7.0086 C   0  0  2  0  0  0  0  0  0  0  0  0
   -1.3522   13.5803    8.1485 O   0  0  0  0  0  0  0  0  0  0  0  0
   -0.6953   13.9191    5.8705 C   0  0  0  0  0  0  0  0  0  0  0  0
    0.5955   12.3420    7.3585 C   0  0  0  0  0  0  0  0  0  0  0  0
    0.5122   11.3556    8.4561 O   0  0  0  0  0  0  0  0  0  0  0  0
  1  3  1  0  0  0  0
  1  2  1  6  0  0  0
  3  5  1  0  0  0  0
  3  4  1  6  0  0  0
  5  6  1  1  0  0  0
  7  8  1  6  0  0  0
  7  5  1  0  0  0  0
  9 10  1  1  0  0  0
  9  7  1  0  0  0  0
 10  1  1  0  0  0  0
 11 13  1  6  0  0  0
 11  9  1  0  0  0  0
 12 11  1  0  0  0  0
 14 15  1  1  0  0  0
 16 14  1  0  0  0  0
 17 18  1  1  0  0  0
 17 16  1  0  0  0  0
 19  2  1  6  0  0  0
 19 20  1  0  0  0  0
 19 17  1  0  0  0  0
 20 21  1  1  0  0  0
 20 22  1  0  0  0  0
 22 23  1  6  0  0  0
 22 14  1  0  0  0  0
 24 23  1  6  0  0  0
 24 25  1  0  0  0  0
 25 27  1  0  0  0  0
 25 26  1  6  0  0  0
 27 28  1  1  0  0  0
 28 29  1  0  0  0  0
 30 31  1  1  0  0  0
 30 32  1  0  0  0  0
 30 27  1  0  0  0  0
 33 30  1  0  0  0  0
 34 33  1  0  0  0  0
 34 24  1  0  0  0  0
M  END
>  <CHROM.1>
160.86362510,-51.65487858,179.68083194,139.27054603,-84.31811371,-127.35267457
-0.01705640,7.28238826,7.74551025,-1.25873892,0.28248975,-0.34645173

>  <Name>
lig.pdb

>  <RI>
0

>  <Rbt.Current_Directory>
/home/itssahil/PROJECTS/Mol_Feturizer/New_Systems/rnas/4k32

>  <Rbt.Executable>
rbdock ($Id: //depot/dev/client3/rdock/2013.1/src/exe/rbdock.cxx#4 $)

>  <Rbt.Library>
libRbt.so (2013.1, Build901 2013/11/27)

>  <Rbt.Parameter_File>
/export/apps/rDock/src/rDock_2013.1_src/data/scripts/dock_solv.prm

>  <Rbt.Receptor>
prm/blind_docking_60.prm

>  <SCORE>
2.01795

>  <SCORE.INTER>
0.255013

>  <SCORE.INTER.CONST>
1

>  <SCORE.INTER.POLAR>
0

>  <SCORE.INTER.ROT>
6

>  <SCORE.INTER.SOLV>
18.4005

>  <SCORE.INTER.VDW>
-13.5635

>  <SCORE.INTER.norm>
0.00750039

>  <SCORE.INTRA>
-2.43914

>  <SCORE.INTRA.DIHEDRAL>
-6.87289

>  <SCORE.INTRA.DIHEDRAL.0>
18.0069

>  <SCORE.INTRA.POLAR>
0

>  <SCORE.INTRA.POLAR.0>
0

>  <SCORE.INTRA.REPUL>
0

>  <SCORE.INTRA.REPUL.0>
0

>  <SCORE.INTRA.SOLV>
0.518181

>  <SCORE.INTRA.SOLV.lig_0>
-70.7393

>  <SCORE.INTRA.VDW>
0.738214

>  <SCORE.INTRA.VDW.0>
-3.23471

>  <SCORE.INTRA.norm>
-0.0717394

>  <SCORE.RESTR>
4.20208

>  <SCORE.RESTR.CAVITY>
4.20208

>  <SCORE.RESTR.norm>
0.123591

>  <SCORE.SYSTEM>
0

>  <SCORE.SYSTEM.CONST>
0

>  <SCORE.SYSTEM.DIHEDRAL>
0

>  <SCORE.SYSTEM.SOLV>
0

>  <SCORE.SYSTEM.norm>
0

>  <SCORE.heavy>
34

>  <SCORE.norm>
0.0593516

>  <RMSD>
31.485

$$$$
lig.pdb
 OpenBabel11021811503D
libRbt.so/2013.1/901 2013/11/27
 34 36  0  0  0  0  0  0  0  0999 V2000
    1.6846    6.4330    8.4886 C   0  0  2  0  0  0  0  0  0  0  0  0
    1.4348    5.9691    7.1572 O   0  0  0  0  0  0  0  0  0  0  0  0
    2.9809    5.7019    9.0421 C   0  0  2  0  0  0  0  0  0  0  0  0
    4.1734    5.9917    8.2121 N   0  0  0  0  0  0  0  0  0  0  0  0
    2.7296    4.1736    9.0897 C   0  0  1  0  0  0  0  0  0  0  0  0
    3.8846    3.4981    9.5927 O   0  0  0  0  0  0  0  0  0  0  0  0
    1.4967    3.9071    9.9716 C   0  0  2  0  0  0  0  0  0  0  0  0
    1.2557    2.5003   10.0272 O   0  0  0  0  0  0  0  0  0  0  0  0
    0.2479    4.6692    9.3833 C   0  0  2  0  0  0  0  0  0  0  0  0
    0.5089    6.1226    9.3085 O   0  0  0  0  0  0  0  0  0  0  0  0
   -1.0168    4.4441   10.2488 C   0  0  2  0  0  0  0  0  0  0  0  0
   -0.7379    4.7781   11.6098 O   0  0  0  0  0  0  0  0  0  0  0  0
   -1.4733    2.9947   10.1883 C   0  0  0  0  0  0  0  0  0  0  0  0
   -0.7955    8.2786    4.3272 C   0  0  2  0  0  0  0  0  0  0  0  0
   -1.9089    8.7957    3.5278 N   0  0  0  0  0  0  0  0  0  0  0  0
   -0.7826    6.7346    4.1547 C   0  0  0  0  0  0  0  0  0  0  0  0
    0.4074    6.1693    4.9764 C   0  0  2  0  0  0  0  0  0  0  0  0
    0.4620    4.7056    4.8373 N   0  0  0  0  0  0  0  0  0  0  0  0
    0.2678    6.5337    6.4788 C   0  0  2  0  0  0  0  0  0  0  0  0
    0.2107    8.0873    6.6230 C   0  0  2  0  0  0  0  0  0  0  0  0
    0.0702    8.4223    8.0103 O   0  0  0  0  0  0  0  0  0  0  0  0
   -0.9998    8.6674    5.8520 C   0  0  1  0  0  0  0  0  0  0  0  0
   -0.9737   10.1057    6.0262 O   0  0  0  0  0  0  0  0  0  0  0  0
   -1.7767   10.6296    7.1100 C   0  0  2  0  0  0  0  0  0  0  0  0
   -2.2245   12.0716    6.6656 C   0  0  2  0  0  0  0  0  0  0  0  0
   -2.9941   11.9921    5.4762 O   0  0  0  0  0  0  0  0  0  0  0  0
   -0.9427   12.9621    6.4497 C   0  0  1  0  0  0  0  0  0  0  0  0
   -1.3209   14.3416    6.0158 N   0  0  0  0  0  0  0  0  0  0  0  0
   -0.3368   14.8166    5.0195 C   0  0  0  0  0  0  0  0  0  0  0  0
   -0.1466   13.0159    7.7891 C   0  0  2  0  0  0  0  0  0  0  0  0
   -0.9757   13.6032    8.7907 O   0  0  0  0  0  0  0  0  0  0  0  0
    1.1211   13.8568    7.6618 C   0  0  0  0  0  0  0  0  0  0  0  0
    0.2316   11.5621    8.2187 C   0  0  0  0  0  0  0  0  0  0  0  0
   -0.9751   10.7182    8.3470 O   0  0  0  0  0  0  0  0  0  0  0  0
  1  3  1  0  0  0  0
  1  2  1  6  0  0  0
  3  5  1  0  0  0  0
  3  4  1  6  0  0  0
  5  6  1  1  0  0  0
  7  8  1  6  0  0  0
  7  5  1  0  0  0  0
  9 10  1  1  0  0  0
  9  7  1  0  0  0  0
 10  1  1  0  0  0  0
 11 13  1  1  0  0  0
 11  9  1  0  0  0  0
 12 11  1  0  0  0  0
 14 15  1  6  0  0  0
 16 14  1  0  0  0  0
 17 18  1  1  0  0  0
 17 16  1  0  0  0  0
 19  2  1  1  0  0  0
 19 20  1  0  0  0  0
 19 17  1  0  0  0  0
 20 21  1  1  0  0  0
 20 22  1  0  0  0  0
 22 23  1  6  0  0  0
 22 14  1  0  0  0  0
 24 23  1  6  0  0  0
 24 25  1  0  0  0  0
 25 27  1  0  0  0  0
 25 26  1  6  0  0  0
 27 28  1  1  0  0  0
 28 29  1  0  0  0  0
 30 31  1  1  0  0  0
 30 32  1  0  0  0  0
 30 27  1  0  0  0  0
 33 30  1  0  0  0  0
 34 33  1  0  0  0  0
 34 24  1  0  0  0  0
M  END
>  <CHROM.1>
179.84392169,53.39859999,166.11183559,149.51240739,-150.11137213,-142.34691264
0.07725849,8.15739713,7.52926132,-0.76085733,-1.22036026,0.45938895

>  <Name>
lig.pdb

>  <RI>
0

>  <Rbt.Current_Directory>
/home/itssahil/PROJECTS/Mol_Feturizer/New_Systems/rnas/4k32

>  <Rbt.Executable>
rbdock ($Id: //depot/dev/client3/rdock/2013.1/src/exe/rbdock.cxx#4 $)

>  <Rbt.Library>
libRbt.so (2013.1, Build901 2013/11/27)

>  <Rbt.Parameter_File>
/export/apps/rDock/src/rDock_2013.1_src/data/scripts/dock_solv.prm

>  <Rbt.Receptor>
prm/blind_docking_60.prm

>  <SCORE>
-4.815

>  <SCORE.INTER>
-6.19371

>  <SCORE.INTER.CONST>
1

>  <SCORE.INTER.POLAR>
0

>  <SCORE.INTER.ROT>
6

>  <SCORE.INTER.SOLV>
17.5965

>  <SCORE.INTER.VDW>
-17.5946

>  <SCORE.INTER.norm>
-0.182168

>  <SCORE.INTRA>
-1.74138

>  <SCORE.INTRA.DIHEDRAL>
-8.82728

>  <SCORE.INTRA.DIHEDRAL.0>
18.0069

>  <SCORE.INTRA.POLAR>
0

>  <SCORE.INTRA.POLAR.0>
0

>  <SCORE.INTRA.REPUL>
0

>  <SCORE.INTRA.REPUL.0>
0

>  <SCORE.INTRA.SOLV>
-2.61706

>  <SCORE.INTRA.SOLV.lig_0>
-70.7393

>  <SCORE.INTRA.VDW>
3.98079

>  <SCORE.INTRA.VDW.0>
-3.23471

>  <SCORE.INTRA.norm>
-0.0512171

>  <SCORE.RESTR>
3.12009

>  <SCORE.RESTR.CAVITY>
3.12009

>  <SCORE.RESTR.norm>
0.0917674

>  <SCORE.SYSTEM>
0

>  <SCORE.SYSTEM.CONST>
0

>  <SCORE.SYSTEM.DIHEDRAL>
0

>  <SCORE.SYSTEM.SOLV>
0

>  <SCORE.SYSTEM.norm>
0

>  <SCORE.heavy>
34

>  <SCORE.norm>
-0.141618

>  <RMSD>
31.491

$$$$
lig.pdb
 OpenBabel11021811503D
libRbt.so/2013.1/901 2013/11/27
 34 36  0  0  0  0  0  0  0  0999 V2000
    0.0547    5.8883    8.7950 C   0  0  2  0  0  0  0  0  0  0  0  0
   -0.6033    5.2431    7.6991 O   0  0  0  0  0  0  0  0  0  0  0  0
    1.6236    5.7605    8.5868 C   0  0  2  0  0  0  0  0  0  0  0  0
    2.0663    6.4042    7.3280 N   0  0  0  0  0  0  0  0  0  0  0  0
    2.0224    4.2632    8.5826 C   0  0  1  0  0  0  0  0  0  0  0  0
    3.4341    4.1281    8.4030 O   0  0  0  0  0  0  0  0  0  0  0  0
    1.5634    3.6303    9.9083 C   0  0  2  0  0  0  0  0  0  0  0  0
    1.9285    2.2493    9.9193 O   0  0  0  0  0  0  0  0  0  0  0  0
    0.0040    3.8014   10.0671 C   0  0  2  0  0  0  0  0  0  0  0  0
   -0.3719    5.2310   10.0347 O   0  0  0  0  0  0  0  0  0  0  0  0
   -0.5036    3.1929   11.3979 C   0  0  2  0  0  0  0  0  0  0  0  0
   -0.2141    1.7941   11.4323 O   0  0  0  0  0  0  0  0  0  0  0  0
   -2.0047    3.3820   11.5516 C   0  0  0  0  0  0  0  0  0  0  0  0
   -0.4783    8.0965    4.5118 C   0  0  2  0  0  0  0  0  0  0  0  0
   -0.8765    8.9071    3.3583 N   0  0  0  0  0  0  0  0  0  0  0  0
   -0.7479    6.6108    4.1457 C   0  0  0  0  0  0  0  0  0  0  0  0
   -0.3088    5.7324    5.3485 C   0  0  2  0  0  0  0  0  0  0  0  0
   -0.5416    4.3121    5.0431 N   0  0  0  0  0  0  0  0  0  0  0  0
   -1.0958    6.1136    6.6311 C   0  0  2  0  0  0  0  0  0  0  0  0
   -0.8462    7.6209    6.9527 C   0  0  2  0  0  0  0  0  0  0  0  0
   -1.5828    7.9748    8.1312 O   0  0  0  0  0  0  0  0  0  0  0  0
   -1.3243    8.5189    5.7859 C   0  0  1  0  0  0  0  0  0  0  0  0
   -1.0484    9.8922    6.1570 O   0  0  0  0  0  0  0  0  0  0  0  0
   -1.8314   10.4249    7.2510 C   0  0  2  0  0  0  0  0  0  0  0  0
   -2.3278   11.8437    6.7840 C   0  0  2  0  0  0  0  0  0  0  0  0
   -3.1303   11.7147    5.6209 O   0  0  0  0  0  0  0  0  0  0  0  0
   -1.0754   12.7587    6.5066 C   0  0  1  0  0  0  0  0  0  0  0  0
   -1.5003   14.1169    6.0495 N   0  0  0  0  0  0  0  0  0  0  0  0
   -0.5514   14.5942    5.0207 C   0  0  0  0  0  0  0  0  0  0  0  0
   -0.2412   12.8665    7.8193 C   0  0  2  0  0  0  0  0  0  0  0  0
   -1.0543   13.4598    8.8304 O   0  0  0  0  0  0  0  0  0  0  0  0
    1.0009   13.7339    7.6321 C   0  0  0  0  0  0  0  0  0  0  0  0
    0.1854   11.4339    8.2740 C   0  0  0  0  0  0  0  0  0  0  0  0
   -0.9957   10.5651    8.4604 O   0  0  0  0  0  0  0  0  0  0  0  0
  1  3  1  0  0  0  0
  1  2  1  6  0  0  0
  3  5  1  0  0  0  0
  3  4  1  6  0  0  0
  5  6  1  1  0  0  0
  7  8  1  6  0  0  0
  7  5  1  0  0  0  0
  9 10  1  1  0  0  0
  9  7  1  0  0  0  0
 10  1  1  0  0  0  0
 11 13  1  6  0  0  0
 11  9  1  0  0  0  0
 12 11  1  0  0  0  0
 14 15  1  6  0  0  0
 16 14  1  0  0  0  0
 17 18  1  6  0  0  0
 17 16  1  0  0  0  0
 19  2  1  1  0  0  0
 19 20  1  0  0  0  0
 19 17  1  0  0  0  0
 20 21  1  1  0  0  0
 20 22  1  0  0  0  0
 22 23  1  1  0  0  0
 22 14  1  0  0  0  0
 24 23  1  6  0  0  0
 24 25  1  0  0  0  0
 25 27  1  0  0  0  0
 25 26  1  6  0  0  0
 27 28  1  1  0  0  0
 28 29  1  0  0  0  0
 30 31  1  1  0  0  0
 30 32  1  0  0  0  0
 30 27  1  0  0  0  0
 33 30  1  0  0  0  0
 34 33  1  0  0  0  0
 34 24  1  0  0  0  0
M  END
>  <CHROM.1>
-99.72330048,-60.64304834,116.48422927,175.82556960,-133.69289905,-142.84945161
-0.33758187,7.82747521,7.62531041,-0.18285866,-1.39903857,1.05308985

>  <Name>
lig.pdb

>  <RI>
0

>  <Rbt.Current_Directory>
/home/itssahil/PROJECTS/Mol_Feturizer/New_Systems/rnas/4k32

>  <Rbt.Executable>
rbdock ($Id: //depot/dev/client3/rdock/2013.1/src/exe/rbdock.cxx#4 $)

>  <Rbt.Library>
libRbt.so (2013.1, Build901 2013/11/27)

>  <Rbt.Parameter_File>
/export/apps/rDock/src/rDock_2013.1_src/data/scripts/dock_solv.prm

>  <Rbt.Receptor>
prm/blind_docking_60.prm

>  <SCORE>
5.69977

>  <SCORE.INTER>
-1.91782

>  <SCORE.INTER.CONST>
1

>  <SCORE.INTER.POLAR>
0

>  <SCORE.INTER.ROT>
6

>  <SCORE.INTER.SOLV>
16.9879

>  <SCORE.INTER.VDW>
-14.5412

>  <SCORE.INTER.norm>
-0.0564065

>  <SCORE.INTRA>
5.77261

>  <SCORE.INTRA.DIHEDRAL>
1.75821

>  <SCORE.INTRA.DIHEDRAL.0>
18.0069

>  <SCORE.INTRA.POLAR>
0

>  <SCORE.INTRA.POLAR.0>
0

>  <SCORE.INTRA.REPUL>
0

>  <SCORE.INTRA.REPUL.0>
0

>  <SCORE.INTRA.SOLV>
0.46325

>  <SCORE.INTRA.SOLV.lig_0>
-70.7393

>  <SCORE.INTRA.VDW>
4.66188

>  <SCORE.INTRA.VDW.0>
-3.23471

>  <SCORE.INTRA.norm>
0.169783

>  <SCORE.RESTR>
1.84498

>  <SCORE.RESTR.CAVITY>
1.84498

>  <SCORE.RESTR.norm>
0.0542641

>  <SCORE.SYSTEM>
0

>  <SCORE.SYSTEM.CONST>
0

>  <SCORE.SYSTEM.DIHEDRAL>
0

>  <SCORE.SYSTEM.SOLV>
0

>  <SCORE.SYSTEM.norm>
0

>  <SCORE.heavy>
34

>  <SCORE.norm>
0.16764

>  <RMSD>
31.493

$$$$
lig.pdb
 OpenBabel11021811503D
libRbt.so/2013.1/901 2013/11/27
 34 36  0  0  0  0  0  0  0  0999 V2000
    1.5656    6.1045    8.7396 C   0  0  2  0  0  0  0  0  0  0  0  0
    1.4586    5.8581    7.3331 O   0  0  0  0  0  0  0  0  0  0  0  0
    2.9162    5.4547    9.2638 C   0  0  2  0  0  0  0  0  0  0  0  0
    4.1031    6.0350    8.5934 N   0  0  0  0  0  0  0  0  0  0  0  0
    2.8750    3.9232    9.0317 C   0  0  1  0  0  0  0  0  0  0  0  0
    4.0812    3.3189    9.5044 O   0  0  0  0  0  0  0  0  0  0  0  0
    1.6419    3.3513    9.7537 C   0  0  2  0  0  0  0  0  0  0  0  0
    1.5938    1.9382    9.5509 O   0  0  0  0  0  0  0  0  0  0  0  0
    0.3360    4.0435    9.2044 C   0  0  2  0  0  0  0  0  0  0  0  0
    0.3987    5.5080    9.3978 O   0  0  0  0  0  0  0  0  0  0  0  0
   -0.9332    3.5109    9.9147 C   0  0  2  0  0  0  0  0  0  0  0  0
   -2.0979    4.0922    9.3255 O   0  0  0  0  0  0  0  0  0  0  0  0
   -0.9175    3.8515   11.3968 C   0  0  0  0  0  0  0  0  0  0  0  0
   -0.8395    8.1076    4.5092 C   0  0  2  0  0  0  0  0  0  0  0  0
   -1.9703    8.6017    3.7197 N   0  0  0  0  0  0  0  0  0  0  0  0
   -0.8094    6.5620    4.3534 C   0  0  0  0  0  0  0  0  0  0  0  0
    0.3989    6.0209    5.1647 C   0  0  2  0  0  0  0  0  0  0  0  0
    0.4702    4.5565    5.0410 N   0  0  0  0  0  0  0  0  0  0  0  0
    0.2753    6.4003    6.6649 C   0  0  2  0  0  0  0  0  0  0  0  0
    0.2005    7.9545    6.7928 C   0  0  2  0  0  0  0  0  0  0  0  0
    0.0747    8.3033    8.1781 O   0  0  0  0  0  0  0  0  0  0  0  0
   -1.0278    8.5107    6.0323 C   0  0  1  0  0  0  0  0  0  0  0  0
   -1.0177    9.9511    6.1903 O   0  0  0  0  0  0  0  0  0  0  0  0
   -1.8072   10.4764    7.2832 C   0  0  2  0  0  0  0  0  0  0  0  0
   -2.3146   11.8913    6.8161 C   0  0  2  0  0  0  0  0  0  0  0  0
   -3.1138   11.7563    5.6515 O   0  0  0  0  0  0  0  0  0  0  0  0
   -1.0694   12.8170    6.5418 C   0  0  1  0  0  0  0  0  0  0  0  0
   -1.5048   14.1719    6.0847 N   0  0  0  0  0  0  0  0  0  0  0  0
   -0.5953   14.6306    5.0128 C   0  0  0  0  0  0  0  0  0  0  0  0
   -0.2388   12.9309    7.8561 C   0  0  2  0  0  0  0  0  0  0  0  0
   -1.0588   13.5167    8.8661 O   0  0  0  0  0  0  0  0  0  0  0  0
    0.9964   13.8089    7.6720 C   0  0  0  0  0  0  0  0  0  0  0  0
    0.1990   11.5017    8.3107 C   0  0  0  0  0  0  0  0  0  0  0  0
   -0.9751   10.6228    8.4943 O   0  0  0  0  0  0  0  0  0  0  0  0
  1  3  1  0  0  0  0
  1  2  1  6  0  0  0
  3  5  1  0  0  0  0
  3  4  1  6  0  0  0
  5  6  1  1  0  0  0
  7  8  1  6  0  0  0
  7  5  1  0  0  0  0
  9 10  1  1  0  0  0
  9  7  1  0  0  0  0
 10  1  1  0  0  0  0
 11 13  1  1  0  0  0
 11  9  1  0  0  0  0
 12 11  1  0  0  0  0
 14 15  1  6  0  0  0
 16 14  1  0  0  0  0
 17 18  1  1  0  0  0
 17 16  1  0  0  0  0
 19  2  1  1  0  0  0
 19 20  1  0  0  0  0
 19 17  1  0  0  0  0
 20 21  1  1  0  0  0
 20 22  1  0  0  0  0
 22 23  1  6  0  0  0
 22 14  1  0  0  0  0
 24 23  1  6  0  0  0
 24 25  1  0  0  0  0
 25 27  1  0  0  0  0
 25 26  1  6  0  0  0
 27 28  1  1  0  0  0
 28 29  1  0  0  0  0
 30 31  1  1  0  0  0
 30 32  1  0  0  0  0
 30 27  1  0  0  0  0
 33 30  1  0  0  0  0
 34 33  1  0  0  0  0
 34 24  1  0  0  0  0
M  END
>  <CHROM.1>
-179.31177879,-175.95964985,179.28126285,149.79442487,-148.62553099,-140.20184670
0.03011780,7.94810942,7.56730970,-1.02420015,-1.04035860,0.20225193

>  <Name>
lig.pdb

>  <RI>
0

>  <Rbt.Current_Directory>
/home/itssahil/PROJECTS/Mol_Feturizer/New_Systems/rnas/4k32

>  <Rbt.Executable>
rbdock ($Id: //depot/dev/client3/rdock/2013.1/src/exe/rbdock.cxx#4 $)

>  <Rbt.Library>
libRbt.so (2013.1, Build901 2013/11/27)

>  <Rbt.Parameter_File>
/export/apps/rDock/src/rDock_2013.1_src/data/scripts/dock_solv.prm

>  <Rbt.Receptor>
prm/blind_docking_60.prm

>  <SCORE>
-6.43552

>  <SCORE.INTER>
-5.71166

>  <SCORE.INTER.CONST>
1

>  <SCORE.INTER.POLAR>
0

>  <SCORE.INTER.ROT>
6

>  <SCORE.INTER.SOLV>
15.8351

>  <SCORE.INTER.VDW>
-16.6862

>  <SCORE.INTER.norm>
-0.16799

>  <SCORE.INTRA>
-4.133

>  <SCORE.INTRA.DIHEDRAL>
-9.52929

>  <SCORE.INTRA.DIHEDRAL.0>
18.0069

>  <SCORE.INTRA.POLAR>
0

>  <SCORE.INTRA.POLAR.0>
0

>  <SCORE.INTRA.REPUL>
0

>  <SCORE.INTRA.REPUL.0>
0

>  <SCORE.INTRA.SOLV>
-2.82595

>  <SCORE.INTRA.SOLV.lig_0>
-70.7393

>  <SCORE.INTRA.VDW>
2.04462

>  <SCORE.INTRA.VDW.0>
-3.23471

>  <SCORE.INTRA.norm>
-0.121559

>  <SCORE.RESTR>
3.40914

>  <SCORE.RESTR.CAVITY>
3.40914

>  <SCORE.RESTR.norm>
0.100269

>  <SCORE.SYSTEM>
0

>  <SCORE.SYSTEM.CONST>
0

>  <SCORE.SYSTEM.DIHEDRAL>
0

>  <SCORE.SYSTEM.SOLV>
0

>  <SCORE.SYSTEM.norm>
0

>  <SCORE.heavy>
34

>  <SCORE.norm>
-0.18928

>  <RMSD>
31.497

$$$$
lig.pdb
 OpenBabel11021811503D
libRbt.so/2013.1/901 2013/11/27
 34 36  0  0  0  0  0  0  0  0999 V2000
    0.9136    5.8289    8.9758 C   0  0  2  0  0  0  0  0  0  0  0  0
    0.6063    5.3636    7.6570 O   0  0  0  0  0  0  0  0  0  0  0  0
    2.2236    5.0864    9.4797 C   0  0  2  0  0  0  0  0  0  0  0  0
    3.3848    5.3617    8.6018 N   0  0  0  0  0  0  0  0  0  0  0  0
    1.9592    3.5610    9.5424 C   0  0  1  0  0  0  0  0  0  0  0  0
    3.1266    2.8754   10.0013 O   0  0  0  0  0  0  0  0  0  0  0  0
    0.7599    3.3095   10.4737 C   0  0  2  0  0  0  0  0  0  0  0  0
    0.5073    1.9053   10.5436 O   0  0  0  0  0  0  0  0  0  0  0  0
   -0.5038    4.0824    9.9331 C   0  0  2  0  0  0  0  0  0  0  0  0
   -0.2315    5.5328    9.8430 O   0  0  0  0  0  0  0  0  0  0  0  0
   -1.7351    3.8725   10.8491 C   0  0  2  0  0  0  0  0  0  0  0  0
   -2.8132    4.7001   10.4082 O   0  0  0  0  0  0  0  0  0  0  0  0
   -1.4123    4.2241   12.2930 C   0  0  0  0  0  0  0  0  0  0  0  0
   -0.2602    8.2308    4.6000 C   0  0  2  0  0  0  0  0  0  0  0  0
   -0.9987    9.0652    3.6489 N   0  0  0  0  0  0  0  0  0  0  0  0
   -0.7015    6.7603    4.3619 C   0  0  0  0  0  0  0  0  0  0  0  0
    0.0895    5.8561    5.3458 C   0  0  2  0  0  0  0  0  0  0  0  0
   -0.2935    4.4489    5.1513 N   0  0  0  0  0  0  0  0  0  0  0  0
   -0.1885    6.2612    6.8182 C   0  0  2  0  0  0  0  0  0  0  0  0
    0.2195    7.7546    7.0213 C   0  0  2  0  0  0  0  0  0  0  0  0
   -0.0485    8.1310    8.3789 O   0  0  0  0  0  0  0  0  0  0  0  0
   -0.5948    8.6797    6.0847 C   0  0  1  0  0  0  0  0  0  0  0  0
   -0.1506   10.0377    6.3262 O   0  0  0  0  0  0  0  0  0  0  0  0
   -0.7719   10.7214    7.4398 C   0  0  2  0  0  0  0  0  0  0  0  0
   -1.7514   11.7812    6.8114 C   0  0  2  0  0  0  0  0  0  0  0  0
   -2.7340   11.1236    6.0270 O   0  0  0  0  0  0  0  0  0  0  0  0
   -0.9182   12.7946    5.9387 C   0  0  1  0  0  0  0  0  0  0  0  0
   -1.8117   13.8162    5.3124 N   0  0  0  0  0  0  0  0  0  0  0  0
   -2.0556   13.4392    3.9035 C   0  0  0  0  0  0  0  0  0  0  0  0
    0.1352   13.4872    6.8559 C   0  0  2  0  0  0  0  0  0  0  0  0
   -0.5511   14.1942    7.8877 O   0  0  0  0  0  0  0  0  0  0  0  0
    0.9940   14.4834    6.0810 C   0  0  0  0  0  0  0  0  0  0  0  0
    1.0511   12.3964    7.4981 C   0  0  0  0  0  0  0  0  0  0  0  0
    0.2492   11.4111    8.2537 O   0  0  0  0  0  0  0  0  0  0  0  0
  1  3  1  0  0  0  0
  1  2  1  6  0  0  0
  3  5  1  0  0  0  0
  3  4  1  6  0  0  0
  5  6  1  1  0  0  0
  7  8  1  6  0  0  0
  7  5  1  0  0  0  0
  9 10  1  1  0  0  0
  9  7  1  0  0  0  0
 10  1  1  0  0  0  0
 11 13  1  1  0  0  0
 11  9  1  0  0  0  0
 12 11  1  0  0  0  0
 14 15  1  6  0  0  0
 16 14  1  0  0  0  0
 17 18  1  1  0  0  0
 17 16  1  0  0  0  0
 19  2  1  1  0  0  0
 19 20  1  0  0  0  0
 19 17  1  0  0  0  0
 20 21  1  1  0  0  0
 20 22  1  0  0  0  0
 22 23  1  6  0  0  0
 22 14  1  0  0  0  0
 24 23  1  6  0  0  0
 24 25  1  0  0  0  0
 25 27  1  0  0  0  0
 25 26  1  6  0  0  0
 27 28  1  1  0  0  0
 28 29  1  0  0  0  0
 30 31  1  1  0  0  0
 30 32  1  0  0  0  0
 30 27  1  0  0  0  0
 33 30  1  0  0  0  0
 34 33  1  0  0  0  0
 34 24  1  0  0  0  0
M  END
>  <CHROM.1>
-155.97788599,173.77250212,157.49091473,159.81633508,-106.94289935,-100.51718420
-0.13783770,7.96308929,7.63281191,-0.35861561,-1.42924747,0.80240448

>  <Name>
lig.pdb

>  <RI>
0

>  <Rbt.Current_Directory>
/home/itssahil/PROJECTS/Mol_Feturizer/New_Systems/rnas/4k32

>  <Rbt.Executable>
rbdock ($Id: //depot/dev/client3/rdock/2013.1/src/exe/rbdock.cxx#4 $)

>  <Rbt.Library>
libRbt.so (2013.1, Build901 2013/11/27)

>  <Rbt.Parameter_File>
/export/apps/rDock/src/rDock_2013.1_src/data/scripts/dock_solv.prm

>  <Rbt.Receptor>
prm/blind_docking_60.prm

>  <SCORE>
-4.18745

>  <SCORE.INTER>
-8.29293

>  <SCORE.INTER.CONST>
1

>  <SCORE.INTER.POLAR>
0

>  <SCORE.INTER.ROT>
6

>  <SCORE.INTER.SOLV>
16.8164

>  <SCORE.INTER.VDW>
-18.7341

>  <SCORE.INTER.norm>
-0.24391

>  <SCORE.INTRA>
-0.0632893

>  <SCORE.INTRA.DIHEDRAL>
-3.99028

>  <SCORE.INTRA.DIHEDRAL.0>
18.0069

>  <SCORE.INTRA.POLAR>
0

>  <SCORE.INTRA.POLAR.0>
0

>  <SCORE.INTRA.REPUL>
0

>  <SCORE.INTRA.REPUL.0>
0

>  <SCORE.INTRA.SOLV>
-2.2089

>  <SCORE.INTRA.SOLV.lig_0>
-70.7393

>  <SCORE.INTRA.VDW>
3.0363

>  <SCORE.INTRA.VDW.0>
-3.23471

>  <SCORE.INTRA.norm>
-0.00186145

>  <SCORE.RESTR>
4.16877

>  <SCORE.RESTR.CAVITY>
4.16877

>  <SCORE.RESTR.norm>
0.122611

>  <SCORE.SYSTEM>
0

>  <SCORE.SYSTEM.CONST>
0

>  <SCORE.SYSTEM.DIHEDRAL>
0

>  <SCORE.SYSTEM.SOLV>
0

>  <SCORE.SYSTEM.norm>
0

>  <SCORE.heavy>
34

>  <SCORE.norm>
-0.12316

>  <RMSD>
31.510

$$$$
lig.pdb
 OpenBabel11021811503D
libRbt.so/2013.1/901 2013/11/27
 34 36  0  0  0  0  0  0  0  0999 V2000
    1.7455    6.3161    8.3711 C   0  0  2  0  0  0  0  0  0  0  0  0
    1.3148    5.7525    7.1273 O   0  0  0  0  0  0  0  0  0  0  0  0
    3.1084    5.6202    8.7947 C   0  0  2  0  0  0  0  0  0  0  0  0
    4.1732    5.8357    7.7874 N   0  0  0  0  0  0  0  0  0  0  0  0
    2.8710    4.1022    8.9953 C   0  0  1  0  0  0  0  0  0  0  0  0
    4.0868    3.4588    9.3843 O   0  0  0  0  0  0  0  0  0  0  0  0
    1.7733    3.9142   10.0576 C   0  0  2  0  0  0  0  0  0  0  0  0
    1.5469    2.5177   10.2553 O   0  0  0  0  0  0  0  0  0  0  0  0
    0.4525    4.6380    9.5908 C   0  0  2  0  0  0  0  0  0  0  0  0
    0.6960    6.0791    9.3677 O   0  0  0  0  0  0  0  0  0  0  0  0
   -0.6790    4.4901   10.6381 C   0  0  2  0  0  0  0  0  0  0  0  0
   -0.9495    3.1058   10.8666 O   0  0  0  0  0  0  0  0  0  0  0  0
   -1.9579    5.1629   10.1642 C   0  0  0  0  0  0  0  0  0  0  0  0
   -1.1058    8.0190    4.4217 C   0  0  2  0  0  0  0  0  0  0  0  0
   -2.2744    8.5388    3.7073 N   0  0  0  0  0  0  0  0  0  0  0  0
   -1.1504    6.4699    4.3120 C   0  0  0  0  0  0  0  0  0  0  0  0
    0.0952    5.9004    5.0436 C   0  0  2  0  0  0  0  0  0  0  0  0
    0.0973    4.4314    4.9601 N   0  0  0  0  0  0  0  0  0  0  0  0
    0.1054    6.3260    6.5363 C   0  0  2  0  0  0  0  0  0  0  0  0
    0.1036    7.8850    6.6215 C   0  0  2  0  0  0  0  0  0  0  0  0
    0.1015    8.2770    8.0009 O   0  0  0  0  0  0  0  0  0  0  0  0
   -1.1572    8.4718    5.9416 C   0  0  1  0  0  0  0  0  0  0  0  0
   -1.0765    9.9143    6.0538 O   0  0  0  0  0  0  0  0  0  0  0  0
   -1.9160   10.5214    7.0639 C   0  0  2  0  0  0  0  0  0  0  0  0
   -2.2224   11.9805    6.5593 C   0  0  2  0  0  0  0  0  0  0  0  0
   -2.9064   11.9273    5.3173 O   0  0  0  0  0  0  0  0  0  0  0  0
   -0.8660   12.7707    6.4229 C   0  0  1  0  0  0  0  0  0  0  0  0
   -1.1085   14.1627    5.9352 N   0  0  0  0  0  0  0  0  0  0  0  0
   -1.2175   14.1409    4.4607 C   0  0  0  0  0  0  0  0  0  0  0  0
   -0.1685   12.8001    7.8169 C   0  0  2  0  0  0  0  0  0  0  0  0
   -1.0232   13.4704    8.7419 O   0  0  0  0  0  0  0  0  0  0  0  0
    1.1637   13.5439    7.7687 C   0  0  0  0  0  0  0  0  0  0  0  0
    0.0688   11.3339    8.3017 C   0  0  0  0  0  0  0  0  0  0  0  0
   -1.2030   10.5827    8.3556 O   0  0  0  0  0  0  0  0  0  0  0  0
  1  3  1  0  0  0  0
  1  2  1  6  0  0  0
  3  5  1  0  0  0  0
  3  4  1  6  0  0  0
  5  6  1  1  0  0  0
  7  8  1  6  0  0  0
  7  5  1  0  0  0  0
  9 10  1  1  0  0  0
  9  7  1  0  0  0  0
 10  1  1  0  0  0  0
 11 13  1  6  0  0  0
 11  9  1  0  0  0  0
 12 11  1  0  0  0  0
 14 15  1  6  0  0  0
 16 14  1  0  0  0  0
 17 18  1  1  0  0  0
 17 16  1  0  0  0  0
 19  2  1  6  0  0  0
 19 20  1  0  0  0  0
 19 17  1  0  0  0  0
 20 21  1  1  0  0  0
 20 22  1  0  0  0  0
 22 23  1  6  0  0  0
 22 14  1  0  0  0  0
 24 23  1  6  0  0  0
 24 25  1  0  0  0  0
 25 27  1  0  0  0  0
 25 26  1  6  0  0  0
 27 28  1  1  0  0  0
 28 29  1  0  0  0  0
 30 31  1  1  0  0  0
 30 32  1  0  0  0  0
 30 27  1  0  0  0  0
 33 30  1  0  0  0  0
 34 33  1  0  0  0  0
 34 24  1  0  0  0  0
M  END
>  <CHROM.1>
-176.69241717,-58.41706345,162.39979305,140.82248782,-152.43804784,-83.53406648
0.00919887,8.01475325,7.49676363,-0.87597037,-1.10759801,0.31084637

>  <Name>
lig.pdb

>  <RI>
0

>  <Rbt.Current_Directory>
/home/itssahil/PROJECTS/Mol_Feturizer/New_Systems/rnas/4k32

>  <Rbt.Executable>
rbdock ($Id: //depot/dev/client3/rdock/2013.1/src/exe/rbdock.cxx#4 $)

>  <Rbt.Library>
libRbt.so (2013.1, Build901 2013/11/27)

>  <Rbt.Parameter_File>
/export/apps/rDock/src/rDock_2013.1_src/data/scripts/dock_solv.prm

>  <Rbt.Receptor>
prm/blind_docking_60.prm

>  <SCORE>
-4.93996

>  <SCORE.INTER>
-6.14575

>  <SCORE.INTER.CONST>
1

>  <SCORE.INTER.POLAR>
0

>  <SCORE.INTER.ROT>
6

>  <SCORE.INTER.SOLV>
16.0298

>  <SCORE.INTER.VDW>
-17.0404

>  <SCORE.INTER.norm>
-0.180757

>  <SCORE.INTRA>
-2.51398

>  <SCORE.INTRA.DIHEDRAL>
-7.71918

>  <SCORE.INTRA.DIHEDRAL.0>
18.0069

>  <SCORE.INTRA.POLAR>
0

>  <SCORE.INTRA.POLAR.0>
0

>  <SCORE.INTRA.REPUL>
0

>  <SCORE.INTRA.REPUL.0>
0

>  <SCORE.INTRA.SOLV>
-2.46664

>  <SCORE.INTRA.SOLV.lig_0>
-70.7393

>  <SCORE.INTRA.VDW>
2.57893

>  <SCORE.INTRA.VDW.0>
-3.23471

>  <SCORE.INTRA.norm>
-0.0739407

>  <SCORE.RESTR>
3.71978

>  <SCORE.RESTR.CAVITY>
3.71978

>  <SCORE.RESTR.norm>
0.109405

>  <SCORE.SYSTEM>
0

>  <SCORE.SYSTEM.CONST>
0

>  <SCORE.SYSTEM.DIHEDRAL>
0

>  <SCORE.SYSTEM.SOLV>
0

>  <SCORE.SYSTEM.norm>
0

>  <SCORE.heavy>
34

>  <SCORE.norm>
-0.145293

>  <RMSD>
31.519

$$$$
lig.pdb
 OpenBabel11021811503D
libRbt.so/2013.1/901 2013/11/27
 34 36  0  0  0  0  0  0  0  0999 V2000
    0.5524    4.0946    7.3110 C   0  0  2  0  0  0  0  0  0  0  0  0
   -0.5597    4.7960    7.8779 O   0  0  0  0  0  0  0  0  0  0  0  0
    1.0315    2.9893    8.3454 C   0  0  2  0  0  0  0  0  0  0  0  0
   -0.0404    2.0101    8.6409 N   0  0  0  0  0  0  0  0  0  0  0  0
    1.4951    3.6757    9.6549 C   0  0  1  0  0  0  0  0  0  0  0  0
    1.9372    2.6957   10.5970 O   0  0  0  0  0  0  0  0  0  0  0  0
    2.6178    4.6720    9.3148 C   0  0  2  0  0  0  0  0  0  0  0  0
    3.0575    5.3099   10.5149 O   0  0  0  0  0  0  0  0  0  0  0  0
    2.0897    5.7329    8.2746 C   0  0  2  0  0  0  0  0  0  0  0  0
    1.6167    5.0672    7.0421 O   0  0  0  0  0  0  0  0  0  0  0  0
    3.1922    6.7498    7.8881 C   0  0  2  0  0  0  0  0  0  0  0  0
    2.7154    7.6104    6.8519 O   0  0  0  0  0  0  0  0  0  0  0  0
    4.4440    6.0419    7.3936 C   0  0  0  0  0  0  0  0  0  0  0  0
   -0.5343    8.0614    5.1116 C   0  0  2  0  0  0  0  0  0  0  0  0
   -0.9941    9.1420    4.2357 N   0  0  0  0  0  0  0  0  0  0  0  0
   -1.3216    6.7816    4.7165 C   0  0  0  0  0  0  0  0  0  0  0  0
   -0.8301    5.6175    5.6189 C   0  0  2  0  0  0  0  0  0  0  0  0
   -1.5472    4.3797    5.2748 N   0  0  0  0  0  0  0  0  0  0  0  0
   -1.0631    5.9413    7.1190 C   0  0  2  0  0  0  0  0  0  0  0  0
   -0.3006    7.2548    7.4810 C   0  0  2  0  0  0  0  0  0  0  0  0
   -0.5259    7.5590    8.8642 O   0  0  0  0  0  0  0  0  0  0  0  0
   -0.8114    8.4407    6.6272 C   0  0  1  0  0  0  0  0  0  0  0  0
   -0.0499    9.6111    7.0143 O   0  0  0  0  0  0  0  0  0  0  0  0
   -0.5398   10.3359    8.1669 C   0  0  2  0  0  0  0  0  0  0  0  0
   -1.8431   11.0809    7.6940 C   0  0  2  0  0  0  0  0  0  0  0  0
   -2.8081   10.1355    7.2600 O   0  0  0  0  0  0  0  0  0  0  0  0
   -1.4698   12.0794    6.5336 C   0  0  1  0  0  0  0  0  0  0  0  0
   -2.6826   12.8038    6.0451 N   0  0  0  0  0  0  0  0  0  0  0  0
   -3.0415   12.2877    4.7066 C   0  0  0  0  0  0  0  0  0  0  0  0
   -0.4155   13.0930    7.0735 C   0  0  2  0  0  0  0  0  0  0  0  0
   -0.9905   13.8152    8.1613 O   0  0  0  0  0  0  0  0  0  0  0  0
    0.0078   14.0952    6.0025 C   0  0  0  0  0  0  0  0  0  0  0  0
    0.8373   12.3082    7.5791 C   0  0  0  0  0  0  0  0  0  0  0  0
    0.4614   11.3242    8.6160 O   0  0  0  0  0  0  0  0  0  0  0  0
  1  3  1  0  0  0  0
  1  2  1  1  0  0  0
  3  5  1  0  0  0  0
  3  4  1  1  0  0  0
  5  6  1  1  0  0  0
  7  8  1  1  0  0  0
  7  5  1  0  0  0  0
  9 10  1  6  0  0  0
  9  7  1  0  0  0  0
 10  1  1  0  0  0  0
 11 13  1  6  0  0  0
 11  9  1  0  0  0  0
 12 11  1  0  0  0  0
 14 15  1  6  0  0  0
 16 14  1  0  0  0  0
 17 18  1  6  0  0  0
 17 16  1  0  0  0  0
 19  2  1  1  0  0  0
 19 20  1  0  0  0  0
 19 17  1  0  0  0  0
 20 21  1  1  0  0  0
 20 22  1  0  0  0  0
 22 23  1  1  0  0  0
 22 14  1  0  0  0  0
 24 23  1  6  0  0  0
 24 25  1  0  0  0  0
 25 27  1  0  0  0  0
 25 26  1  6  0  0  0
 27 28  1  1  0  0  0
 28 29  1  0  0  0  0
 30 31  1  1  0  0  0
 30 32  1  0  0  0  0
 30 27  1  0  0  0  0
 33 30  1  0  0  0  0
 34 33  1  0  0  0  0
 34 24  1  0  0  0  0
M  END
>  <CHROM.1>
174.51543922,174.42017388,31.82912029,158.91034199,-72.78717893,-107.97222991
0.12418997,7.89201147,7.36796484,1.16646790,0.68510772,-3.10090323

>  <Name>
lig.pdb

>  <RI>
0

>  <Rbt.Current_Directory>
/home/itssahil/PROJECTS/Mol_Feturizer/New_Systems/rnas/4k32

>  <Rbt.Executable>
rbdock ($Id: //depot/dev/client3/rdock/2013.1/src/exe/rbdock.cxx#4 $)

>  <Rbt.Library>
libRbt.so (2013.1, Build901 2013/11/27)

>  <Rbt.Parameter_File>
/export/apps/rDock/src/rDock_2013.1_src/data/scripts/dock_solv.prm

>  <Rbt.Receptor>
prm/blind_docking_60.prm

>  <SCORE>
1.12456

>  <SCORE.INTER>
-0.767629

>  <SCORE.INTER.CONST>
1

>  <SCORE.INTER.POLAR>
0

>  <SCORE.INTER.ROT>
6

>  <SCORE.INTER.SOLV>
17.2627

>  <SCORE.INTER.VDW>
-13.866

>  <SCORE.INTER.norm>
-0.0225773

>  <SCORE.INTRA>
-1.51404

>  <SCORE.INTRA.DIHEDRAL>
-10.6148

>  <SCORE.INTRA.DIHEDRAL.0>
18.0069

>  <SCORE.INTRA.POLAR>
0

>  <SCORE.INTRA.POLAR.0>
0

>  <SCORE.INTRA.REPUL>
0.00627629

>  <SCORE.INTRA.REPUL.0>
0

>  <SCORE.INTRA.SOLV>
1.18345

>  <SCORE.INTRA.SOLV.lig_0>
-70.7393

>  <SCORE.INTRA.VDW>
3.17025

>  <SCORE.INTRA.VDW.0>
-3.23471

>  <SCORE.INTRA.norm>
-0.0445307

>  <SCORE.RESTR>
3.40624

>  <SCORE.RESTR.CAVITY>
3.40624

>  <SCORE.RESTR.norm>
0.100183

>  <SCORE.SYSTEM>
0

>  <SCORE.SYSTEM.CONST>
0

>  <SCORE.SYSTEM.DIHEDRAL>
0

>  <SCORE.SYSTEM.SOLV>
0

>  <SCORE.SYSTEM.norm>
0

>  <SCORE.heavy>
34

>  <SCORE.norm>
0.0330754

>  <RMSD>
31.548

$$$$
lig.pdb
 OpenBabel11021811503D
libRbt.so/2013.1/901 2013/11/27
 34 36  0  0  0  0  0  0  0  0999 V2000
    1.6513    6.4479    8.4167 C   0  0  2  0  0  0  0  0  0  0  0  0
    1.4067    5.9651    7.0910 O   0  0  0  0  0  0  0  0  0  0  0  0
    2.9572    5.7401    8.9779 C   0  0  2  0  0  0  0  0  0  0  0  0
    4.1454    6.0353    8.1436 N   0  0  0  0  0  0  0  0  0  0  0  0
    2.7255    4.2094    9.0438 C   0  0  1  0  0  0  0  0  0  0  0  0
    3.8894    3.5548    9.5539 O   0  0  0  0  0  0  0  0  0  0  0  0
    1.4967    3.9376    9.9296 C   0  0  2  0  0  0  0  0  0  0  0  0
    1.2738    2.5285   10.0021 O   0  0  0  0  0  0  0  0  0  0  0  0
    0.2378    4.6765    9.3333 C   0  0  2  0  0  0  0  0  0  0  0  0
    0.4801    6.1321    9.2410 O   0  0  0  0  0  0  0  0  0  0  0  0
   -1.0233    4.4454   10.2023 C   0  0  2  0  0  0  0  0  0  0  0  0
   -0.7516    4.8101   11.5568 O   0  0  0  0  0  0  0  0  0  0  0  0
   -1.4540    2.9873   10.1692 C   0  0  0  0  0  0  0  0  0  0  0  0
   -0.6751    8.3560    4.2160 C   0  0  2  0  0  0  0  0  0  0  0  0
   -1.7487    8.9053    3.3842 N   0  0  0  0  0  0  0  0  0  0  0  0
   -0.6843    6.8147    4.0212 C   0  0  0  0  0  0  0  0  0  0  0  0
    0.4641    6.2154    4.8774 C   0  0  2  0  0  0  0  0  0  0  0  0
    0.4968    4.7530    4.7188 N   0  0  0  0  0  0  0  0  0  0  0  0
    0.2760    6.5611    6.3789 C   0  0  2  0  0  0  0  0  0  0  0  0
    0.2423    8.1133    6.5439 C   0  0  2  0  0  0  0  0  0  0  0  0
    0.0569    8.4314    7.9299 O   0  0  0  0  0  0  0  0  0  0  0  0
   -0.9282    8.7270    5.7378 C   0  0  1  0  0  0  0  0  0  0  0  0
   -0.8821   10.1620    5.9342 O   0  0  0  0  0  0  0  0  0  0  0  0
   -1.7186   10.6862    6.9920 C   0  0  2  0  0  0  0  0  0  0  0  0
   -2.1111   12.1470    6.5566 C   0  0  2  0  0  0  0  0  0  0  0  0
   -2.8297   12.1086    5.3337 O   0  0  0  0  0  0  0  0  0  0  0  0
   -0.7996   13.0086    6.4136 C   0  0  1  0  0  0  0  0  0  0  0  0
   -1.1246   14.4049    5.9904 N   0  0  0  0  0  0  0  0  0  0  0  0
   -0.0336   14.9101    5.1294 C   0  0  0  0  0  0  0  0  0  0  0  0
   -0.0618   13.0178    7.7869 C   0  0  2  0  0  0  0  0  0  0  0  0
   -0.9192   13.6076    8.7629 O   0  0  0  0  0  0  0  0  0  0  0  0
    1.2305   13.8285    7.7308 C   0  0  0  0  0  0  0  0  0  0  0  0
    0.2615   11.5473    8.2043 C   0  0  0  0  0  0  0  0  0  0  0  0
   -0.9700   10.7321    8.2641 O   0  0  0  0  0  0  0  0  0  0  0  0
  1  3  1  0  0  0  0
  1  2  1  6  0  0  0
  3  5  1  0  0  0  0
  3  4  1  6  0  0  0
  5  6  1  1  0  0  0
  7  8  1  6  0  0  0
  7  5  1  0  0  0  0
  9 10  1  1  0  0  0
  9  7  1  0  0  0  0
 10  1  1  0  0  0  0
 11 13  1  1  0  0  0
 11  9  1  0  0  0  0
 12 11  1  0  0  0  0
 14 15  1  6  0  0  0
 16 14  1  0  0  0  0
 17 18  1  1  0  0  0
 17 16  1  0  0  0  0
 19  2  1  1  0  0  0
 19 20  1  0  0  0  0
 19 17  1  0  0  0  0
 20 21  1  1  0  0  0
 20 22  1  0  0  0  0
 22 23  1  6  0  0  0
 22 14  1  0  0  0  0
 24 23  1  6  0  0  0
 24 25  1  0  0  0  0
 25 27  1  0  0  0  0
 25 26  1  6  0  0  0
 27 28  1  1  0  0  0
 28 29  1  0  0  0  0
 30 31  1  1  0  0  0
 30 32  1  0  0  0  0
 30 27  1  0  0  0  0
 33 30  1  0  0  0  0
 34 33  1  0  0  0  0
 34 24  1  0  0  0  0
M  END
>  <CHROM.1>
-176.85729059,53.90174510,163.46863491,149.28015928,-150.55638438,-146.63810855
0.12969011,8.19408332,7.46792883,-0.72756837,-1.25389644,0.49880839

>  <Name>
lig.pdb

>  <RI>
0

>  <Rbt.Current_Directory>
/home/itssahil/PROJECTS/Mol_Feturizer/New_Systems/rnas/4k32

>  <Rbt.Executable>
rbdock ($Id: //depot/dev/client3/rdock/2013.1/src/exe/rbdock.cxx#4 $)

>  <Rbt.Library>
libRbt.so (2013.1, Build901 2013/11/27)

>  <Rbt.Parameter_File>
/export/apps/rDock/src/rDock_2013.1_src/data/scripts/dock_solv.prm

>  <Rbt.Receptor>
prm/blind_docking_60.prm

>  <SCORE>
-3.97109

>  <SCORE.INTER>
-5.84832

>  <SCORE.INTER.CONST>
1

>  <SCORE.INTER.POLAR>
0

>  <SCORE.INTER.ROT>
6

>  <SCORE.INTER.SOLV>
18.7864

>  <SCORE.INTER.VDW>
-17.761

>  <SCORE.INTER.norm>
-0.17201

>  <SCORE.INTRA>
-0.894446

>  <SCORE.INTRA.DIHEDRAL>
-8.61523

>  <SCORE.INTRA.DIHEDRAL.0>
18.0069

>  <SCORE.INTRA.POLAR>
0

>  <SCORE.INTRA.POLAR.0>
0

>  <SCORE.INTRA.REPUL>
0

>  <SCORE.INTRA.REPUL.0>
0

>  <SCORE.INTRA.SOLV>
-2.6555

>  <SCORE.INTRA.SOLV.lig_0>
-70.7393

>  <SCORE.INTRA.VDW>
4.74092

>  <SCORE.INTRA.VDW.0>
-3.23471

>  <SCORE.INTRA.norm>
-0.0263072

>  <SCORE.RESTR>
2.77168

>  <SCORE.RESTR.CAVITY>
2.77168

>  <SCORE.RESTR.norm>
0.08152

>  <SCORE.SYSTEM>
0

>  <SCORE.SYSTEM.CONST>
0

>  <SCORE.SYSTEM.DIHEDRAL>
0

>  <SCORE.SYSTEM.SOLV>
0

>  <SCORE.SYSTEM.norm>
0

>  <SCORE.heavy>
34

>  <SCORE.norm>
-0.116797

>  <RMSD>
31.551

$$$$
lig.pdb
 OpenBabel11021811503D
libRbt.so/2013.1/901 2013/11/27
 34 36  0  0  0  0  0  0  0  0999 V2000
    0.2721    5.8461    8.5896 C   0  0  2  0  0  0  0  0  0  0  0  0
   -0.6425    5.1957    7.7005 O   0  0  0  0  0  0  0  0  0  0  0  0
    1.7049    5.1856    8.4106 C   0  0  2  0  0  0  0  0  0  0  0  0
    2.2103    5.3333    7.0258 N   0  0  0  0  0  0  0  0  0  0  0  0
    1.6309    3.6847    8.7883 C   0  0  1  0  0  0  0  0  0  0  0  0
    2.9147    3.0737    8.6399 O   0  0  0  0  0  0  0  0  0  0  0  0
    1.1193    3.5681   10.2351 C   0  0  2  0  0  0  0  0  0  0  0  0
    1.0497    2.1883   10.5978 O   0  0  0  0  0  0  0  0  0  0  0  0
   -0.2957    4.2536   10.3551 C   0  0  2  0  0  0  0  0  0  0  0  0
   -0.2236    5.6763    9.9594 O   0  0  0  0  0  0  0  0  0  0  0  0
   -0.8458    4.1760   11.8010 C   0  0  2  0  0  0  0  0  0  0  0  0
   -1.1263    2.8166   12.1400 O   0  0  0  0  0  0  0  0  0  0  0  0
   -2.1242    4.9865   11.9469 C   0  0  0  0  0  0  0  0  0  0  0  0
   -0.2136    7.7223    4.2729 C   0  0  2  0  0  0  0  0  0  0  0  0
   -0.4950    8.4030    3.0066 N   0  0  0  0  0  0  0  0  0  0  0  0
   -0.4141    6.2005    4.0323 C   0  0  0  0  0  0  0  0  0  0  0  0
   -0.0964    5.4585    5.3587 C   0  0  2  0  0  0  0  0  0  0  0  0
   -0.2682    4.0088    5.1755 N   0  0  0  0  0  0  0  0  0  0  0  0
   -1.0282    5.9416    6.5024 C   0  0  2  0  0  0  0  0  0  0  0  0
   -0.8431    7.4800    6.6946 C   0  0  2  0  0  0  0  0  0  0  0  0
   -1.7128    7.9271    7.7436 O   0  0  0  0  0  0  0  0  0  0  0  0
   -1.2039    8.2440    5.3975 C   0  0  1  0  0  0  0  0  0  0  0  0
   -0.9958    9.6547    5.6552 O   0  0  0  0  0  0  0  0  0  0  0  0
   -2.1483   10.3919    6.1262 C   0  0  2  0  0  0  0  0  0  0  0  0
   -1.8915   11.8969    5.7438 C   0  0  2  0  0  0  0  0  0  0  0  0
   -1.7684   12.0222    4.3358 O   0  0  0  0  0  0  0  0  0  0  0  0
   -0.5850   12.3943    6.4708 C   0  0  1  0  0  0  0  0  0  0  0  0
   -0.2958   13.8201    6.1276 N   0  0  0  0  0  0  0  0  0  0  0  0
    1.1685   14.0258    6.1321 C   0  0  0  0  0  0  0  0  0  0  0  0
   -0.7852   12.2385    8.0091 C   0  0  2  0  0  0  0  0  0  0  0  0
   -1.8932   13.0431    8.4099 O   0  0  0  0  0  0  0  0  0  0  0  0
    0.4453   12.6930    8.7899 C   0  0  0  0  0  0  0  0  0  0  0  0
   -1.0886   10.7413    8.3369 C   0  0  0  0  0  0  0  0  0  0  0  0
   -2.2741   10.2671    7.5923 O   0  0  0  0  0  0  0  0  0  0  0  0
  1  3  1  0  0  0  0
  1  2  1  6  0  0  0
  3  5  1  0  0  0  0
  3  4  1  6  0  0  0
  5  6  1  1  0  0  0
  7  8  1  6  0  0  0
  7  5  1  0  0  0  0
  9 10  1  1  0  0  0
  9  7  1  0  0  0  0
 10  1  1  0  0  0  0
 11 13  1  6  0  0  0
 11  9  1  0  0  0  0
 12 11  1  0  0  0  0
 14 15  1  6  0  0  0
 16 14  1  0  0  0  0
 17 18  1  6  0  0  0
 17 16  1  0  0  0  0
 19  2  1  1  0  0  0
 19 20  1  0  0  0  0
 19 17  1  0  0  0  0
 20 21  1  1  0  0  0
 20 22  1  0  0  0  0
 22 23  1  1  0  0  0
 22 14  1  0  0  0  0
 24 23  1  1  0  0  0
 24 25  1  0  0  0  0
 25 27  1  0  0  0  0
 25 26  1  6  0  0  0
 27 28  1  1  0  0  0
 28 29  1  0  0  0  0
 30 31  1  1  0  0  0
 30 32  1  0  0  0  0
 30 27  1  0  0  0  0
 33 30  1  0  0  0  0
 34 33  1  0  0  0  0
 34 24  1  0  0  0  0
M  END
>  <CHROM.1>
-104.75782156,-66.84387405,95.87935676,151.66770873,-156.11235329,-148.16757746
-0.38557403,7.66612495,7.57162230,0.83538320,-1.35921117,2.02375400

>  <Name>
lig.pdb

>  <RI>
0

>  <Rbt.Current_Directory>
/home/itssahil/PROJECTS/Mol_Feturizer/New_Systems/rnas/4k32

>  <Rbt.Executable>
rbdock ($Id: //depot/dev/client3/rdock/2013.1/src/exe/rbdock.cxx#4 $)

>  <Rbt.Library>
libRbt.so (2013.1, Build901 2013/11/27)

>  <Rbt.Parameter_File>
/export/apps/rDock/src/rDock_2013.1_src/data/scripts/dock_solv.prm

>  <Rbt.Receptor>
prm/blind_docking_60.prm

>  <SCORE>
4.85196

>  <SCORE.INTER>
-1.10315

>  <SCORE.INTER.CONST>
1

>  <SCORE.INTER.POLAR>
0

>  <SCORE.INTER.ROT>
6

>  <SCORE.INTER.SOLV>
19.843

>  <SCORE.INTER.VDW>
-14.9498

>  <SCORE.INTER.norm>
-0.0324455

>  <SCORE.INTRA>
4.68203

>  <SCORE.INTRA.DIHEDRAL>
-0.615745

>  <SCORE.INTRA.DIHEDRAL.0>
18.0069

>  <SCORE.INTRA.POLAR>
0

>  <SCORE.INTRA.POLAR.0>
0

>  <SCORE.INTRA.REPUL>
0

>  <SCORE.INTRA.REPUL.0>
0

>  <SCORE.INTRA.SOLV>
1.49798

>  <SCORE.INTRA.SOLV.lig_0>
-70.7393

>  <SCORE.INTRA.VDW>
4.24091

>  <SCORE.INTRA.VDW.0>
-3.23471

>  <SCORE.INTRA.norm>
0.137707

>  <SCORE.RESTR>
1.27308

>  <SCORE.RESTR.CAVITY>
1.27308

>  <SCORE.RESTR.norm>
0.0374436

>  <SCORE.SYSTEM>
0

>  <SCORE.SYSTEM.CONST>
0

>  <SCORE.SYSTEM.DIHEDRAL>
0

>  <SCORE.SYSTEM.SOLV>
0

>  <SCORE.SYSTEM.norm>
0

>  <SCORE.heavy>
34

>  <SCORE.norm>
0.142705

>  <RMSD>
31.566

$$$$
lig.pdb
 OpenBabel11021811503D
libRbt.so/2013.1/901 2013/11/27
 34 36  0  0  0  0  0  0  0  0999 V2000
    0.3331    4.6023    6.8560 C   0  0  2  0  0  0  0  0  0  0  0  0
   -0.7255    5.2577    7.5632 O   0  0  0  0  0  0  0  0  0  0  0  0
    0.4950    3.1341    7.4385 C   0  0  2  0  0  0  0  0  0  0  0  0
   -0.7432    2.3371    7.2749 N   0  0  0  0  0  0  0  0  0  0  0  0
    0.8771    3.2140    8.9380 C   0  0  1  0  0  0  0  0  0  0  0  0
    1.0342    1.9002    9.4788 O   0  0  0  0  0  0  0  0  0  0  0  0
    2.1736    4.0327    9.0702 C   0  0  2  0  0  0  0  0  0  0  0  0
    2.5398    4.1112   10.4486 O   0  0  0  0  0  0  0  0  0  0  0  0
    1.9578    5.4716    8.4624 C   0  0  2  0  0  0  0  0  0  0  0  0
    1.5593    5.3854    7.0412 O   0  0  0  0  0  0  0  0  0  0  0  0
    3.2440    6.3294    8.5578 C   0  0  2  0  0  0  0  0  0  0  0  0
    4.3159    5.6720    7.8793 O   0  0  0  0  0  0  0  0  0  0  0  0
    3.6501    6.5518   10.0064 C   0  0  0  0  0  0  0  0  0  0  0  0
   -0.6349    8.8884    5.2992 C   0  0  2  0  0  0  0  0  0  0  0  0
   -1.0704   10.1071    4.6125 N   0  0  0  0  0  0  0  0  0  0  0  0
   -1.5087    7.7208    4.7636 C   0  0  0  0  0  0  0  0  0  0  0  0
   -1.0453    6.4141    5.4628 C   0  0  2  0  0  0  0  0  0  0  0  0
   -1.8444    5.2769    4.9801 N   0  0  0  0  0  0  0  0  0  0  0  0
   -1.1958    6.5252    7.0037 C   0  0  2  0  0  0  0  0  0  0  0  0
   -0.3463    7.7323    7.5127 C   0  0  2  0  0  0  0  0  0  0  0  0
   -0.4952    7.8410    8.9349 O   0  0  0  0  0  0  0  0  0  0  0  0
   -0.8257    9.0543    6.8656 C   0  0  1  0  0  0  0  0  0  0  0  0
    0.0159   10.1164    7.3789 O   0  0  0  0  0  0  0  0  0  0  0  0
   -0.5979   11.0050    8.3418 C   0  0  2  0  0  0  0  0  0  0  0  0
   -1.6520   11.8569    7.5415 C   0  0  2  0  0  0  0  0  0  0  0  0
   -2.6283   11.0013    6.9688 O   0  0  0  0  0  0  0  0  0  0  0  0
   -0.9035   12.6836    6.4283 C   0  0  1  0  0  0  0  0  0  0  0  0
   -1.8697   13.5024    5.6344 N   0  0  0  0  0  0  0  0  0  0  0  0
   -2.0180   12.8995    4.2923 C   0  0  0  0  0  0  0  0  0  0  0  0
    0.1465   13.6059    7.1193 C   0  0  2  0  0  0  0  0  0  0  0  0
   -0.5363   14.4963    8.0005 O   0  0  0  0  0  0  0  0  0  0  0  0
    0.9249   14.4387    6.1040 C   0  0  0  0  0  0  0  0  0  0  0  0
    1.1392   12.7242    7.9429 C   0  0  0  0  0  0  0  0  0  0  0  0
    0.4163   11.9001    8.9343 O   0  0  0  0  0  0  0  0  0  0  0  0
  1  3  1  0  0  0  0
  1  2  1  1  0  0  0
  3  5  1  0  0  0  0
  3  4  1  1  0  0  0
  5  6  1  6  0  0  0
  7  8  1  1  0  0  0
  7  5  1  0  0  0  0
  9 10  1  6  0  0  0
  9  7  1  0  0  0  0
 10  1  1  0  0  0  0
 11 13  1  1  0  0  0
 11  9  1  0  0  0  0
 12 11  1  0  0  0  0
 14 15  1  6  0  0  0
 16 14  1  0  0  0  0
 17 18  1  6  0  0  0
 17 16  1  0  0  0  0
 19  2  1  1  0  0  0
 19 20  1  0  0  0  0
 19 17  1  0  0  0  0
 20 21  1  1  0  0  0
 20 22  1  0  0  0  0
 22 23  1  1  0  0  0
 22 14  1  0  0  0  0
 24 23  1  6  0  0  0
 24 25  1  0  0  0  0
 25 27  1  0  0  0  0
 25 26  1  6  0  0  0
 27 28  1  1  0  0  0
 28 29  1  0  0  0  0
 30 31  1  1  0  0  0
 30 32  1  0  0  0  0
 30 27  1  0  0  0  0
 33 30  1  0  0  0  0
 34 33  1  0  0  0  0
 34 24  1  0  0  0  0
M  END
>  <CHROM.1>
-168.74352971,57.95267253,32.65911596,137.17646373,-70.03514555,-107.41103330
0.14478441,8.17884840,7.36110726,1.27094330,0.72450193,-3.13025692

>  <Name>
lig.pdb

>  <RI>
0

>  <Rbt.Current_Directory>
/home/itssahil/PROJECTS/Mol_Feturizer/New_Systems/rnas/4k32

>  <Rbt.Executable>
rbdock ($Id: //depot/dev/client3/rdock/2013.1/src/exe/rbdock.cxx#4 $)

>  <Rbt.Library>
libRbt.so (2013.1, Build901 2013/11/27)

>  <Rbt.Parameter_File>
/export/apps/rDock/src/rDock_2013.1_src/data/scripts/dock_solv.prm

>  <Rbt.Receptor>
prm/blind_docking_60.prm

>  <SCORE>
2.35646

>  <SCORE.INTER>
-3.42514

>  <SCORE.INTER.CONST>
1

>  <SCORE.INTER.POLAR>
0

>  <SCORE.INTER.ROT>
6

>  <SCORE.INTER.SOLV>
15.5302

>  <SCORE.INTER.VDW>
-15.0602

>  <SCORE.INTER.norm>
-0.100739

>  <SCORE.INTRA>
2.2568

>  <SCORE.INTRA.DIHEDRAL>
-6.90027

>  <SCORE.INTRA.DIHEDRAL.0>
18.0069

>  <SCORE.INTRA.POLAR>
0

>  <SCORE.INTRA.POLAR.0>
0

>  <SCORE.INTRA.REPUL>
0

>  <SCORE.INTRA.REPUL.0>
0

>  <SCORE.INTRA.SOLV>
3.41243

>  <SCORE.INTRA.SOLV.lig_0>
-70.7393

>  <SCORE.INTRA.VDW>
4.00071

>  <SCORE.INTRA.VDW.0>
-3.23471

>  <SCORE.INTRA.norm>
0.0663763

>  <SCORE.RESTR>
3.52481

>  <SCORE.RESTR.CAVITY>
3.52481

>  <SCORE.RESTR.norm>
0.103671

>  <SCORE.SYSTEM>
0

>  <SCORE.SYSTEM.CONST>
0

>  <SCORE.SYSTEM.DIHEDRAL>
0

>  <SCORE.SYSTEM.SOLV>
0

>  <SCORE.SYSTEM.norm>
0

>  <SCORE.heavy>
34

>  <SCORE.norm>
0.0693077

>  <RMSD>
31.586

$$$$
lig.pdb
 OpenBabel11021811503D
libRbt.so/2013.1/901 2013/11/27
 34 36  0  0  0  0  0  0  0  0999 V2000
   -0.3081    4.2821    7.4415 C   0  0  2  0  0  0  0  0  0  0  0  0
    0.3708    5.3902    6.8403 O   0  0  0  0  0  0  0  0  0  0  0  0
   -0.7426    4.6948    8.9119 C   0  0  2  0  0  0  0  0  0  0  0  0
   -1.6567    5.8607    8.9093 N   0  0  0  0  0  0  0  0  0  0  0  0
    0.5199    5.0157    9.7510 C   0  0  1  0  0  0  0  0  0  0  0  0
    0.1487    5.3830   11.0818 O   0  0  0  0  0  0  0  0  0  0  0  0
    1.4381    3.7806    9.7466 C   0  0  2  0  0  0  0  0  0  0  0  0
    2.6053    4.0617   10.5206 O   0  0  0  0  0  0  0  0  0  0  0  0
    1.8225    3.4096    8.2630 C   0  0  2  0  0  0  0  0  0  0  0  0
    0.6108    3.1392    7.4602 O   0  0  0  0  0  0  0  0  0  0  0  0
    2.7349    2.1592    8.2064 C   0  0  2  0  0  0  0  0  0  0  0  0
    2.1330    1.0871    8.9343 O   0  0  0  0  0  0  0  0  0  0  0  0
    4.1012    2.4481    8.8086 C   0  0  0  0  0  0  0  0  0  0  0  0
   -0.7173    9.1535    5.1168 C   0  0  2  0  0  0  0  0  0  0  0  0
   -1.5123   10.3117    4.7015 N   0  0  0  0  0  0  0  0  0  0  0  0
   -1.4551    7.8831    4.6111 C   0  0  0  0  0  0  0  0  0  0  0  0
   -0.6141    6.6439    5.0211 C   0  0  2  0  0  0  0  0  0  0  0  0
   -1.2745    5.4140    4.5562 N   0  0  0  0  0  0  0  0  0  0  0  0
   -0.4386    6.5770    6.5620 C   0  0  2  0  0  0  0  0  0  0  0  0
    0.2628    7.8830    7.0519 C   0  0  2  0  0  0  0  0  0  0  0  0
    0.4141    7.8251    8.4768 O   0  0  0  0  0  0  0  0  0  0  0  0
   -0.5848    9.1289    6.6978 C   0  0  1  0  0  0  0  0  0  0  0  0
    0.1369   10.2918    7.1737 O   0  0  0  0  0  0  0  0  0  0  0  0
   -0.4725   11.0139    8.2695 C   0  0  2  0  0  0  0  0  0  0  0  0
   -1.6221   11.8824    7.6359 C   0  0  2  0  0  0  0  0  0  0  0  0
   -2.5761   11.0377    7.0116 O   0  0  0  0  0  0  0  0  0  0  0  0
   -0.9925   12.8864    6.5975 C   0  0  1  0  0  0  0  0  0  0  0  0
   -2.0521   13.7273    5.9615 N   0  0  0  0  0  0  0  0  0  0  0  0
   -1.9785   13.5608    4.4940 C   0  0  0  0  0  0  0  0  0  0  0  0
    0.0378   13.7878    7.3434 C   0  0  2  0  0  0  0  0  0  0  0  0
   -0.6453   14.5169    8.3619 O   0  0  0  0  0  0  0  0  0  0  0  0
    0.7027   14.7882    6.4012 C   0  0  0  0  0  0  0  0  0  0  0  0
    1.1294   12.8828    7.9996 C   0  0  0  0  0  0  0  0  0  0  0  0
    0.5179   11.8978    8.9164 O   0  0  0  0  0  0  0  0  0  0  0  0
  1  3  1  0  0  0  0
  1  2  1  1  0  0  0
  3  5  1  0  0  0  0
  3  4  1  6  0  0  0
  5  6  1  1  0  0  0
  7  8  1  1  0  0  0
  7  5  1  0  0  0  0
  9 10  1  6  0  0  0
  9  7  1  0  0  0  0
 10  1  1  0  0  0  0
 11 13  1  1  0  0  0
 11  9  1  0  0  0  0
 12 11  1  0  0  0  0
 14 15  1  1  0  0  0
 16 14  1  0  0  0  0
 17 18  1  1  0  0  0
 17 16  1  0  0  0  0
 19  2  1  6  0  0  0
 19 20  1  0  0  0  0
 19 17  1  0  0  0  0
 20 21  1  1  0  0  0
 20 22  1  0  0  0  0
 22 23  1  6  0  0  0
 22 14  1  0  0  0  0
 24 23  1  6  0  0  0
 24 25  1  0  0  0  0
 25 27  1  0  0  0  0
 25 26  1  6  0  0  0
 27 28  1  1  0  0  0
 28 29  1  0  0  0  0
 30 31  1  1  0  0  0
 30 32  1  0  0  0  0
 30 27  1  0  0  0  0
 33 30  1  0  0  0  0
 34 33  1  0  0  0  0
 34 24  1  0  0  0  0
M  END
>  <CHROM.1>
-67.32680262,52.69940330,-108.27370552,131.40385626,-78.26801999,-123.42246502
0.02183967,8.04850982,7.50065240,1.11264812,1.03391139,-2.94263724

>  <Name>
lig.pdb

>  <RI>
0

>  <Rbt.Current_Directory>
/home/itssahil/PROJECTS/Mol_Feturizer/New_Systems/rnas/4k32

>  <Rbt.Executable>
rbdock ($Id: //depot/dev/client3/rdock/2013.1/src/exe/rbdock.cxx#4 $)

>  <Rbt.Library>
libRbt.so (2013.1, Build901 2013/11/27)

>  <Rbt.Parameter_File>
/export/apps/rDock/src/rDock_2013.1_src/data/scripts/dock_solv.prm

>  <Rbt.Receptor>
prm/blind_docking_60.prm

>  <SCORE>
2.52572

>  <SCORE.INTER>
-3.08074

>  <SCORE.INTER.CONST>
1

>  <SCORE.INTER.POLAR>
0

>  <SCORE.INTER.ROT>
6

>  <SCORE.INTER.SOLV>
17.8756

>  <SCORE.INTER.VDW>
-15.6124

>  <SCORE.INTER.norm>
-0.0906101

>  <SCORE.INTRA>
2.6057

>  <SCORE.INTRA.DIHEDRAL>
-1.7538

>  <SCORE.INTRA.DIHEDRAL.0>
18.0069

>  <SCORE.INTRA.POLAR>
0

>  <SCORE.INTRA.POLAR.0>
0

>  <SCORE.INTRA.REPUL>
0

>  <SCORE.INTRA.REPUL.0>
0

>  <SCORE.INTRA.SOLV>
5.14924

>  <SCORE.INTRA.SOLV.lig_0>
-70.7393

>  <SCORE.INTRA.VDW>
0.907975

>  <SCORE.INTRA.VDW.0>
-3.23471

>  <SCORE.INTRA.norm>
0.0766381

>  <SCORE.RESTR>
3.00077

>  <SCORE.RESTR.CAVITY>
3.00077

>  <SCORE.RESTR.norm>
0.0882579

>  <SCORE.SYSTEM>
0

>  <SCORE.SYSTEM.CONST>
0

>  <SCORE.SYSTEM.DIHEDRAL>
0

>  <SCORE.SYSTEM.SOLV>
0

>  <SCORE.SYSTEM.norm>
0

>  <SCORE.heavy>
34

>  <SCORE.norm>
0.0742859

>  <RMSD>
31.602

$$$$
lig.pdb
 OpenBabel11021811503D
libRbt.so/2013.1/901 2013/11/27
 34 36  0  0  0  0  0  0  0  0999 V2000
    1.5545    6.2376    8.5713 C   0  0  2  0  0  0  0  0  0  0  0  0
    1.4756    5.9161    7.1783 O   0  0  0  0  0  0  0  0  0  0  0  0
    2.8907    5.6119    9.1581 C   0  0  2  0  0  0  0  0  0  0  0  0
    4.0941    6.1508    8.4826 N   0  0  0  0  0  0  0  0  0  0  0  0
    2.8468    4.0703    9.0080 C   0  0  1  0  0  0  0  0  0  0  0  0
    4.0399    3.4879    9.5378 O   0  0  0  0  0  0  0  0  0  0  0  0
    1.5962    3.5428    9.7336 C   0  0  2  0  0  0  0  0  0  0  0  0
    1.5454    2.1210    9.6062 O   0  0  0  0  0  0  0  0  0  0  0  0
    0.3054    4.2094    9.1205 C   0  0  2  0  0  0  0  0  0  0  0  0
    0.3712    5.6818    9.2361 O   0  0  0  0  0  0  0  0  0  0  0  0
   -0.9809    3.7206    9.8316 C   0  0  2  0  0  0  0  0  0  0  0  0
   -2.1248    4.3463    9.2472 O   0  0  0  0  0  0  0  0  0  0  0  0
   -0.9496    4.0545   11.3149 C   0  0  0  0  0  0  0  0  0  0  0  0
   -0.5943    8.2463    4.2453 C   0  0  2  0  0  0  0  0  0  0  0  0
   -1.6619    8.7700    3.3896 N   0  0  0  0  0  0  0  0  0  0  0  0
   -0.5740    6.7033    4.0642 C   0  0  0  0  0  0  0  0  0  0  0  0
    0.5688    6.1312    4.9460 C   0  0  2  0  0  0  0  0  0  0  0  0
    0.6291    4.6682    4.8011 N   0  0  0  0  0  0  0  0  0  0  0  0
    0.3479    6.4865    6.4408 C   0  0  2  0  0  0  0  0  0  0  0  0
    0.2850    8.0393    6.5913 C   0  0  2  0  0  0  0  0  0  0  0  0
    0.0694    8.3661    7.9709 O   0  0  0  0  0  0  0  0  0  0  0  0
   -0.8810    8.6260    5.7590 C   0  0  1  0  0  0  0  0  0  0  0  0
   -0.8627   10.0632    5.9434 O   0  0  0  0  0  0  0  0  0  0  0  0
   -1.7167   10.5809    6.9905 C   0  0  2  0  0  0  0  0  0  0  0  0
   -2.1172   12.0374    6.5485 C   0  0  2  0  0  0  0  0  0  0  0  0
   -2.8207   11.9912    5.3171 O   0  0  0  0  0  0  0  0  0  0  0  0
   -0.8121   12.9109    6.4203 C   0  0  1  0  0  0  0  0  0  0  0  0
   -1.1447   14.3037    5.9915 N   0  0  0  0  0  0  0  0  0  0  0  0
   -1.1612   14.3585    4.5139 C   0  0  0  0  0  0  0  0  0  0  0  0
   -0.0910   12.9284    7.8024 C   0  0  2  0  0  0  0  0  0  0  0  0
   -0.9655   13.5114    8.7672 O   0  0  0  0  0  0  0  0  0  0  0  0
    1.1944   13.7509    7.7609 C   0  0  0  0  0  0  0  0  0  0  0  0
    0.2407   11.4614    8.2255 C   0  0  0  0  0  0  0  0  0  0  0  0
   -0.9838   10.6350    8.2714 O   0  0  0  0  0  0  0  0  0  0  0  0
  1  3  1  0  0  0  0
  1  2  1  6  0  0  0
  3  5  1  0  0  0  0
  3  4  1  6  0  0  0
  5  6  1  1  0  0  0
  7  8  1  6  0  0  0
  7  5  1  0  0  0  0
  9 10  1  1  0  0  0
  9  7  1  0  0  0  0
 10  1  1  0  0  0  0
 11 13  1  1  0  0  0
 11  9  1  0  0  0  0
 12 11  1  0  0  0  0
 14 15  1  6  0  0  0
 16 14  1  0  0  0  0
 17 18  1  1  0  0  0
 17 16  1  0  0  0  0
 19  2  1  1  0  0  0
 19 20  1  0  0  0  0
 19 17  1  0  0  0  0
 20 21  1  1  0  0  0
 20 22  1  0  0  0  0
 22 23  1  6  0  0  0
 22 14  1  0  0  0  0
 24 23  1  6  0  0  0
 24 25  1  0  0  0  0
 25 27  1  0  0  0  0
 25 26  1  6  0  0  0
 27 28  1  1  0  0  0
 28 29  1  0  0  0  0
 30 31  1  1  0  0  0
 30 32  1  0  0  0  0
 30 27  1  0  0  0  0
 33 30  1  0  0  0  0
 34 33  1  0  0  0  0
 34 24  1  0  0  0  0
M  END
>  <CHROM.1>
-176.08112429,-179.97402013,173.83400131,149.88154091,-151.27936323,-88.54611193
0.09530566,8.05456836,7.40727642,-0.85589860,-1.16756207,0.36694513

>  <Name>
lig.pdb

>  <RI>
0

>  <Rbt.Current_Directory>
/home/itssahil/PROJECTS/Mol_Feturizer/New_Systems/rnas/4k32

>  <Rbt.Executable>
rbdock ($Id: //depot/dev/client3/rdock/2013.1/src/exe/rbdock.cxx#4 $)

>  <Rbt.Library>
libRbt.so (2013.1, Build901 2013/11/27)

>  <Rbt.Parameter_File>
/export/apps/rDock/src/rDock_2013.1_src/data/scripts/dock_solv.prm

>  <Rbt.Receptor>
prm/blind_docking_60.prm

>  <SCORE>
-6.19631

>  <SCORE.INTER>
-5.71231

>  <SCORE.INTER.CONST>
1

>  <SCORE.INTER.POLAR>
0

>  <SCORE.INTER.ROT>
6

>  <SCORE.INTER.SOLV>
18.591

>  <SCORE.INTER.VDW>
-17.6052

>  <SCORE.INTER.norm>
-0.168009

>  <SCORE.INTRA>
-4.25025

>  <SCORE.INTRA.DIHEDRAL>
-10.1938

>  <SCORE.INTRA.DIHEDRAL.0>
18.0069

>  <SCORE.INTRA.POLAR>
0

>  <SCORE.INTRA.POLAR.0>
0

>  <SCORE.INTRA.REPUL>
0

>  <SCORE.INTRA.REPUL.0>
0

>  <SCORE.INTRA.SOLV>
-2.83941

>  <SCORE.INTRA.SOLV.lig_0>
-70.7393

>  <SCORE.INTRA.VDW>
2.26634

>  <SCORE.INTRA.VDW.0>
-3.23471

>  <SCORE.INTRA.norm>
-0.125007

>  <SCORE.RESTR>
3.76625

>  <SCORE.RESTR.CAVITY>
3.76625

>  <SCORE.RESTR.norm>
0.110772

>  <SCORE.SYSTEM>
0

>  <SCORE.SYSTEM.CONST>
0

>  <SCORE.SYSTEM.DIHEDRAL>
0

>  <SCORE.SYSTEM.SOLV>
0

>  <SCORE.SYSTEM.norm>
0

>  <SCORE.heavy>
34

>  <SCORE.norm>
-0.182245

>  <RMSD>
31.626

$$$$
lig.pdb
 OpenBabel11021811503D
libRbt.so/2013.1/901 2013/11/27
 34 36  0  0  0  0  0  0  0  0999 V2000
   -1.8747    9.3385    5.6295 C   0  0  2  0  0  0  0  0  0  0  0  0
   -0.6706    9.1885    4.8693 O   0  0  0  0  0  0  0  0  0  0  0  0
   -2.1875   10.8881    5.7776 C   0  0  2  0  0  0  0  0  0  0  0  0
   -2.3789   11.5396    4.4609 N   0  0  0  0  0  0  0  0  0  0  0  0
   -1.0299   11.5763    6.5439 C   0  0  1  0  0  0  0  0  0  0  0  0
   -1.2972   12.9726    6.6933 O   0  0  0  0  0  0  0  0  0  0  0  0
   -0.8694   10.8875    7.9108 C   0  0  2  0  0  0  0  0  0  0  0  0
    0.1932   11.5153    8.6299 O   0  0  0  0  0  0  0  0  0  0  0  0
   -0.5770    9.3523    7.7011 C   0  0  2  0  0  0  0  0  0  0  0  0
   -1.6693    8.7106    6.9389 O   0  0  0  0  0  0  0  0  0  0  0  0
   -0.4238    8.6115    9.0527 C   0  0  2  0  0  0  0  0  0  0  0  0
    0.6105    7.6308    8.9529 O   0  0  0  0  0  0  0  0  0  0  0  0
   -1.7168    7.9150    9.4474 C   0  0  0  0  0  0  0  0  0  0  0  0
   -0.5491    4.9191    5.1416 C   0  0  2  0  0  0  0  0  0  0  0  0
   -0.2622    3.5163    4.8319 N   0  0  0  0  0  0  0  0  0  0  0  0
   -1.1946    5.5476    3.8758 C   0  0  0  0  0  0  0  0  0  0  0  0
   -1.5288    7.0304    4.1928 C   0  0  2  0  0  0  0  0  0  0  0  0
   -2.1493    7.6661    3.0199 N   0  0  0  0  0  0  0  0  0  0  0  0
   -0.2485    7.8175    4.5813 C   0  0  2  0  0  0  0  0  0  0  0  0
    0.4072    7.1409    5.8264 C   0  0  2  0  0  0  0  0  0  0  0  0
    1.5960    7.8620    6.1774 O   0  0  0  0  0  0  0  0  0  0  0  0
    0.7950    5.6749    5.5155 C   0  0  1  0  0  0  0  0  0  0  0  0
    1.3826    5.1194    6.7180 O   0  0  0  0  0  0  0  0  0  0  0  0
    0.5322    5.0946    7.8884 C   0  0  2  0  0  0  0  0  0  0  0  0
    1.4745    4.7741    9.1076 C   0  0  2  0  0  0  0  0  0  0  0  0
    2.4589    5.7880    9.2355 O   0  0  0  0  0  0  0  0  0  0  0  0
    2.1422    3.3647    8.8822 C   0  0  1  0  0  0  0  0  0  0  0  0
    3.0563    3.0225   10.0143 N   0  0  0  0  0  0  0  0  0  0  0  0
    4.4022    2.7363    9.4729 C   0  0  0  0  0  0  0  0  0  0  0  0
    1.0131    2.2970    8.7572 C   0  0  2  0  0  0  0  0  0  0  0  0
    0.2607    2.2830    9.9693 O   0  0  0  0  0  0  0  0  0  0  0  0
    1.5789    0.8978    8.5274 C   0  0  0  0  0  0  0  0  0  0  0  0
    0.0733    2.6821    7.5700 C   0  0  0  0  0  0  0  0  0  0  0  0
   -0.4891    4.0359    7.7590 O   0  0  0  0  0  0  0  0  0  0  0  0
  1  3  1  0  0  0  0
  1  2  1  6  0  0  0
  3  5  1  0  0  0  0
  3  4  1  6  0  0  0
  5  6  1  1  0  0  0
  7  8  1  6  0  0  0
  7  5  1  0  0  0  0
  9 10  1  1  0  0  0
  9  7  1  0  0  0  0
 10  1  1  0  0  0  0
 11 13  1  6  0  0  0
 11  9  1  0  0  0  0
 12 11  1  0  0  0  0
 14 15  1  6  0  0  0
 16 14  1  0  0  0  0
 17 18  1  6  0  0  0
 17 16  1  0  0  0  0
 19  2  1  1  0  0  0
 19 20  1  0  0  0  0
 19 17  1  0  0  0  0
 20 21  1  6  0  0  0
 20 22  1  0  0  0  0
 22 23  1  1  0  0  0
 22 14  1  0  0  0  0
 24 23  1  6  0  0  0
 24 25  1  0  0  0  0
 25 27  1  0  0  0  0
 25 26  1  6  0  0  0
 27 28  1  1  0  0  0
 28 29  1  0  0  0  0
 30 31  1  1  0  0  0
 30 32  1  0  0  0  0
 30 27  1  0  0  0  0
 33 30  1  0  0  0  0
 34 33  1  0  0  0  0
 34 24  1  0  0  0  0
M  END
>  <CHROM.1>
-177.61615933,-141.75457375,42.23916884,-55.76801970,-167.21598664,-124.12093502
0.04759671,6.75356857,7.08800379,2.41882306,-1.08890315,0.46268012

>  <Name>
lig.pdb

>  <RI>
0

>  <Rbt.Current_Directory>
/home/itssahil/PROJECTS/Mol_Feturizer/New_Systems/rnas/4k32

>  <Rbt.Executable>
rbdock ($Id: //depot/dev/client3/rdock/2013.1/src/exe/rbdock.cxx#4 $)

>  <Rbt.Library>
libRbt.so (2013.1, Build901 2013/11/27)

>  <Rbt.Parameter_File>
/export/apps/rDock/src/rDock_2013.1_src/data/scripts/dock_solv.prm

>  <Rbt.Receptor>
prm/blind_docking_60.prm

>  <SCORE>
-3.58221

>  <SCORE.INTER>
-7.27396

>  <SCORE.INTER.CONST>
1

>  <SCORE.INTER.POLAR>
0

>  <SCORE.INTER.ROT>
6

>  <SCORE.INTER.SOLV>
19.2963

>  <SCORE.INTER.VDW>
-18.8814

>  <SCORE.INTER.norm>
-0.21394

>  <SCORE.INTRA>
-0.445002

>  <SCORE.INTRA.DIHEDRAL>
-10.5742

>  <SCORE.INTRA.DIHEDRAL.0>
18.0069

>  <SCORE.INTRA.POLAR>
0

>  <SCORE.INTRA.POLAR.0>
0

>  <SCORE.INTRA.REPUL>
0

>  <SCORE.INTRA.REPUL.0>
0

>  <SCORE.INTRA.SOLV>
2.25056

>  <SCORE.INTRA.SOLV.lig_0>
-70.7393

>  <SCORE.INTRA.VDW>
3.71682

>  <SCORE.INTRA.VDW.0>
-3.23471

>  <SCORE.INTRA.norm>
-0.0130883

>  <SCORE.RESTR>
4.13676

>  <SCORE.RESTR.CAVITY>
4.13676

>  <SCORE.RESTR.norm>
0.121669

>  <SCORE.SYSTEM>
0

>  <SCORE.SYSTEM.CONST>
0

>  <SCORE.SYSTEM.DIHEDRAL>
0

>  <SCORE.SYSTEM.SOLV>
0

>  <SCORE.SYSTEM.norm>
0

>  <SCORE.heavy>
34

>  <SCORE.norm>
-0.105359

>  <RMSD>
31.682

$$$$
lig.pdb
 OpenBabel11021811503D
libRbt.so/2013.1/901 2013/11/27
 34 36  0  0  0  0  0  0  0  0999 V2000
   -0.9133    7.8468    6.3363 C   0  0  2  0  0  0  0  0  0  0  0  0
   -1.4591    6.5231    6.3446 O   0  0  0  0  0  0  0  0  0  0  0  0
   -0.9303    8.3896    4.8442 C   0  0  2  0  0  0  0  0  0  0  0  0
   -2.3047    8.4446    4.2938 N   0  0  0  0  0  0  0  0  0  0  0  0
   -0.0419    7.4827    3.9559 C   0  0  1  0  0  0  0  0  0  0  0  0
   -0.0392    7.9603    2.6086 O   0  0  0  0  0  0  0  0  0  0  0  0
    1.3797    7.4611    4.5452 C   0  0  2  0  0  0  0  0  0  0  0  0
    2.2111    6.6307    3.7330 O   0  0  0  0  0  0  0  0  0  0  0  0
    1.3318    6.9299    6.0291 C   0  0  2  0  0  0  0  0  0  0  0  0
    0.4544    7.7802    6.8616 O   0  0  0  0  0  0  0  0  0  0  0  0
    2.7410    6.9058    6.6715 C   0  0  2  0  0  0  0  0  0  0  0  0
    3.5684    5.9620    5.9887 O   0  0  0  0  0  0  0  0  0  0  0  0
    2.6692    6.5157    8.1396 C   0  0  0  0  0  0  0  0  0  0  0  0
   -0.5259    5.7562   10.4504 C   0  0  2  0  0  0  0  0  0  0  0  0
   -0.5404    5.1620   11.7893 N   0  0  0  0  0  0  0  0  0  0  0  0
   -1.9916    6.1313   10.0970 C   0  0  0  0  0  0  0  0  0  0  0  0
   -1.9939    6.7859    8.6890 C   0  0  2  0  0  0  0  0  0  0  0  0
   -3.3656    7.1637    8.3143 N   0  0  0  0  0  0  0  0  0  0  0  0
   -1.4242    5.8120    7.6229 C   0  0  2  0  0  0  0  0  0  0  0  0
    0.0314    5.4135    8.0231 C   0  0  2  0  0  0  0  0  0  0  0  0
    0.5525    4.5049    7.0436 O   0  0  0  0  0  0  0  0  0  0  0  0
    0.0502    4.7126    9.4032 C   0  0  1  0  0  0  0  0  0  0  0  0
    1.4301    4.3876    9.7036 O   0  0  0  0  0  0  0  0  0  0  0  0
    1.6487    3.1609   10.4392 C   0  0  2  0  0  0  0  0  0  0  0  0
    2.9137    2.4827    9.7933 C   0  0  2  0  0  0  0  0  0  0  0  0
    4.0374    3.3398    9.9198 O   0  0  0  0  0  0  0  0  0  0  0  0
    2.6102    2.1700    8.2791 C   0  0  1  0  0  0  0  0  0  0  0  0
    3.7912    1.5326    7.6209 N   0  0  0  0  0  0  0  0  0  0  0  0
    4.9284    2.4769    7.6600 C   0  0  0  0  0  0  0  0  0  0  0  0
    1.3746    1.2220    8.2080 C   0  0  2  0  0  0  0  0  0  0  0  0
    1.6872    0.0110    8.8946 O   0  0  0  0  0  0  0  0  0  0  0  0
    1.0078    0.8757    6.7671 C   0  0  0  0  0  0  0  0  0  0  0  0
    0.1588    1.9123    8.9053 C   0  0  0  0  0  0  0  0  0  0  0  0
    0.4823    2.2655   10.3036 O   0  0  0  0  0  0  0  0  0  0  0  0
  1  3  1  0  0  0  0
  1  2  1  6  0  0  0
  3  5  1  0  0  0  0
  3  4  1  6  0  0  0
  5  6  1  6  0  0  0
  7  8  1  6  0  0  0
  7  5  1  0  0  0  0
  9 10  1  1  0  0  0
  9  7  1  0  0  0  0
 10  1  1  0  0  0  0
 11 13  1  1  0  0  0
 11  9  1  0  0  0  0
 12 11  1  0  0  0  0
 14 15  1  1  0  0  0
 16 14  1  0  0  0  0
 17 18  1  6  0  0  0
 17 16  1  0  0  0  0
 19  2  1  6  0  0  0
 19 20  1  0  0  0  0
 19 17  1  0  0  0  0
 20 21  1  6  0  0  0
 20 22  1  0  0  0  0
 22 23  1  1  0  0  0
 22 14  1  0  0  0  0
 24 23  1  6  0  0  0
 24 25  1  0  0  0  0
 25 27  1  0  0  0  0
 25 26  1  6  0  0  0
 27 28  1  1  0  0  0
 28 29  1  0  0  0  0
 30 31  1  1  0  0  0
 30 32  1  0  0  0  0
 30 27  1  0  0  0  0
 33 30  1  0  0  0  0
 34 33  1  0  0  0  0
 34 24  1  0  0  0  0
M  END
>  <CHROM.1>
175.11795267,-65.01703337,48.93095554,98.24255265,139.35030003,-61.98567375
0.79143633,5.04006230,7.57739865,2.02769891,0.61717488,-0.89960256

>  <Name>
lig.pdb

>  <RI>
0

>  <Rbt.Current_Directory>
/home/itssahil/PROJECTS/Mol_Feturizer/New_Systems/rnas/4k32

>  <Rbt.Executable>
rbdock ($Id: //depot/dev/client3/rdock/2013.1/src/exe/rbdock.cxx#4 $)

>  <Rbt.Library>
libRbt.so (2013.1, Build901 2013/11/27)

>  <Rbt.Parameter_File>
/export/apps/rDock/src/rDock_2013.1_src/data/scripts/dock_solv.prm

>  <Rbt.Receptor>
prm/blind_docking_20.prm

>  <SCORE>
55.261

>  <SCORE.INTER>
20.928

>  <SCORE.INTER.CONST>
1

>  <SCORE.INTER.POLAR>
0

>  <SCORE.INTER.ROT>
6

>  <SCORE.INTER.SOLV>
28.1862

>  <SCORE.INTER.VDW>
-3.0434

>  <SCORE.INTER.norm>
0.61553

>  <SCORE.INTRA>
7.20018

>  <SCORE.INTRA.DIHEDRAL>
-6.6109

>  <SCORE.INTRA.DIHEDRAL.0>
18.0069

>  <SCORE.INTRA.POLAR>
0

>  <SCORE.INTRA.POLAR.0>
0

>  <SCORE.INTRA.REPUL>
0

>  <SCORE.INTRA.REPUL.0>
0

>  <SCORE.INTRA.SOLV>
0.538377

>  <SCORE.INTRA.SOLV.lig_0>
-70.7393

>  <SCORE.INTRA.VDW>
10.2364

>  <SCORE.INTRA.VDW.0>
-3.23471

>  <SCORE.INTRA.norm>
0.21177

>  <SCORE.RESTR>
27.1328

>  <SCORE.RESTR.CAVITY>
27.1328

>  <SCORE.RESTR.norm>
0.798023

>  <SCORE.SYSTEM>
0

>  <SCORE.SYSTEM.CONST>
0

>  <SCORE.SYSTEM.DIHEDRAL>
0

>  <SCORE.SYSTEM.SOLV>
0

>  <SCORE.SYSTEM.norm>
0

>  <SCORE.heavy>
34

>  <SCORE.norm>
1.62532

>  <RMSD>
31.687

$$$$
lig.pdb
 OpenBabel11021811503D
libRbt.so/2013.1/901 2013/11/27
 34 36  0  0  0  0  0  0  0  0999 V2000
    0.5357    3.6379    7.5095 C   0  0  2  0  0  0  0  0  0  0  0  0
   -0.8410    3.8303    7.1662 O   0  0  0  0  0  0  0  0  0  0  0  0
    0.6324    2.4493    8.5579 C   0  0  2  0  0  0  0  0  0  0  0  0
    0.1048    1.1810    8.0029 N   0  0  0  0  0  0  0  0  0  0  0  0
   -0.1489    2.8294    9.8409 C   0  0  1  0  0  0  0  0  0  0  0  0
   -0.0674    1.7730   10.8006 O   0  0  0  0  0  0  0  0  0  0  0  0
    0.4342    4.1395   10.3996 C   0  0  2  0  0  0  0  0  0  0  0  0
   -0.2751    4.4999   11.5859 O   0  0  0  0  0  0  0  0  0  0  0  0
    0.3256    5.2759    9.3118 C   0  0  2  0  0  0  0  0  0  0  0  0
    1.0439    4.8905    8.0784 O   0  0  0  0  0  0  0  0  0  0  0  0
    0.9165    6.6131    9.8236 C   0  0  2  0  0  0  0  0  0  0  0  0
    0.5915    7.6658    8.9138 O   0  0  0  0  0  0  0  0  0  0  0  0
    2.4297    6.5320    9.9518 C   0  0  0  0  0  0  0  0  0  0  0  0
   -0.1247    7.2190    4.6522 C   0  0  2  0  0  0  0  0  0  0  0  0
   -0.3207    8.2708    3.6516 N   0  0  0  0  0  0  0  0  0  0  0  0
   -0.4558    5.8643    3.9674 C   0  0  0  0  0  0  0  0  0  0  0  0
   -0.2303    4.7328    5.0066 C   0  0  2  0  0  0  0  0  0  0  0  0
   -0.5275    3.4267    4.3979 N   0  0  0  0  0  0  0  0  0  0  0  0
   -1.1362    4.9331    6.2511 C   0  0  2  0  0  0  0  0  0  0  0  0
   -0.8180    6.3195    6.8950 C   0  0  2  0  0  0  0  0  0  0  0  0
   -1.6636    6.5083    8.0377 O   0  0  0  0  0  0  0  0  0  0  0  0
   -1.0851    7.4668    5.8907 C   0  0  1  0  0  0  0  0  0  0  0  0
   -0.7566    8.7103    6.5584 O   0  0  0  0  0  0  0  0  0  0  0  0
   -1.8125    9.3064    7.3479 C   0  0  2  0  0  0  0  0  0  0  0  0
   -2.3271   10.5461    6.5259 C   0  0  2  0  0  0  0  0  0  0  0  0
   -2.8326   10.1165    5.2716 O   0  0  0  0  0  0  0  0  0  0  0  0
   -1.1394   11.5640    6.3368 C   0  0  1  0  0  0  0  0  0  0  0  0
   -1.5811   12.7560    5.5505 N   0  0  0  0  0  0  0  0  0  0  0  0
   -1.5568   12.4159    4.1116 C   0  0  0  0  0  0  0  0  0  0  0  0
   -0.6347   12.0023    7.7453 C   0  0  2  0  0  0  0  0  0  0  0  0
   -1.7072   12.6397    8.4375 O   0  0  0  0  0  0  0  0  0  0  0  0
    0.5276   12.9874    7.6500 C   0  0  0  0  0  0  0  0  0  0  0  0
   -0.1836   10.7375    8.5440 C   0  0  0  0  0  0  0  0  0  0  0  0
   -1.2864    9.7592    8.6513 O   0  0  0  0  0  0  0  0  0  0  0  0
  1  3  1  0  0  0  0
  1  2  1  1  0  0  0
  3  5  1  0  0  0  0
  3  4  1  6  0  0  0
  5  6  1  1  0  0  0
  7  8  1  1  0  0  0
  7  5  1  0  0  0  0
  9 10  1  6  0  0  0
  9  7  1  0  0  0  0
 10  1  1  0  0  0  0
 11 13  1  6  0  0  0
 11  9  1  0  0  0  0
 12 11  1  0  0  0  0
 14 15  1  6  0  0  0
 16 14  1  0  0  0  0
 17 18  1  6  0  0  0
 17 16  1  0  0  0  0
 19  2  1  1  0  0  0
 19 20  1  0  0  0  0
 19 17  1  0  0  0  0
 20 21  1  1  0  0  0
 20 22  1  0  0  0  0
 22 23  1  1  0  0  0
 22 14  1  0  0  0  0
 24 23  1  6  0  0  0
 24 25  1  0  0  0  0
 25 27  1  0  0  0  0
 25 26  1  6  0  0  0
 27 28  1  6  0  0  0
 28 29  1  0  0  0  0
 30 31  1  1  0  0  0
 30 32  1  0  0  0  0
 30 27  1  0  0  0  0
 33 30  1  0  0  0  0
 34 33  1  0  0  0  0
 34 24  1  0  0  0  0
M  END
>  <CHROM.1>
177.24560989,-169.87487410,53.20979542,157.49066137,-106.07278385,-81.24852772
-0.47703423,7.18898906,7.42998769,0.80414224,1.33519246,-2.66495205

>  <Name>
lig.pdb

>  <RI>
0

>  <Rbt.Current_Directory>
/home/itssahil/PROJECTS/Mol_Feturizer/New_Systems/rnas/4k32

>  <Rbt.Executable>
rbdock ($Id: //depot/dev/client3/rdock/2013.1/src/exe/rbdock.cxx#4 $)

>  <Rbt.Library>
libRbt.so (2013.1, Build901 2013/11/27)

>  <Rbt.Parameter_File>
/export/apps/rDock/src/rDock_2013.1_src/data/scripts/dock_solv.prm

>  <Rbt.Receptor>
prm/blind_docking_60.prm

>  <SCORE>
8.54119

>  <SCORE.INTER>
4.8128

>  <SCORE.INTER.CONST>
1

>  <SCORE.INTER.POLAR>
0

>  <SCORE.INTER.ROT>
6

>  <SCORE.INTER.SOLV>
19.9972

>  <SCORE.INTER.VDW>
-11.0572

>  <SCORE.INTER.norm>
0.141553

>  <SCORE.INTRA>
-0.562396

>  <SCORE.INTRA.DIHEDRAL>
-8.48787

>  <SCORE.INTRA.DIHEDRAL.0>
18.0069

>  <SCORE.INTRA.POLAR>
0

>  <SCORE.INTRA.POLAR.0>
0

>  <SCORE.INTRA.REPUL>
0

>  <SCORE.INTRA.REPUL.0>
0

>  <SCORE.INTRA.SOLV>
0.788026

>  <SCORE.INTRA.SOLV.lig_0>
-70.7393

>  <SCORE.INTRA.VDW>
3.28753

>  <SCORE.INTRA.VDW.0>
-3.23471

>  <SCORE.INTRA.norm>
-0.0165411

>  <SCORE.RESTR>
4.29079

>  <SCORE.RESTR.CAVITY>
4.29079

>  <SCORE.RESTR.norm>
0.1262

>  <SCORE.SYSTEM>
0

>  <SCORE.SYSTEM.CONST>
0

>  <SCORE.SYSTEM.DIHEDRAL>
0

>  <SCORE.SYSTEM.SOLV>
0

>  <SCORE.SYSTEM.norm>
0

>  <SCORE.heavy>
34

>  <SCORE.norm>
0.251211

>  <RMSD>
31.703

$$$$
lig.pdb
 OpenBabel11021811503D
libRbt.so/2013.1/901 2013/11/27
 34 36  0  0  0  0  0  0  0  0999 V2000
    1.5727    5.9974    8.5012 C   0  0  2  0  0  0  0  0  0  0  0  0
    1.4169    5.6659    7.1170 O   0  0  0  0  0  0  0  0  0  0  0  0
    2.9301    5.3595    9.0225 C   0  0  2  0  0  0  0  0  0  0  0  0
    4.1030    5.8777    8.2803 N   0  0  0  0  0  0  0  0  0  0  0  0
    2.8596    3.8175    8.8881 C   0  0  1  0  0  0  0  0  0  0  0  0
    4.0716    3.2241    9.3596 O   0  0  0  0  0  0  0  0  0  0  0  0
    1.6424    3.3116    9.6827 C   0  0  2  0  0  0  0  0  0  0  0  0
    1.5676    1.8896    9.5703 O   0  0  0  0  0  0  0  0  0  0  0  0
    0.3295    3.9896    9.1324 C   0  0  2  0  0  0  0  0  0  0  0  0
    0.4192    5.4620    9.2317 O   0  0  0  0  0  0  0  0  0  0  0  0
   -0.9236    3.5228    9.9140 C   0  0  2  0  0  0  0  0  0  0  0  0
   -2.0936    4.1259    9.3581 O   0  0  0  0  0  0  0  0  0  0  0  0
   -0.8303    3.9072   11.3824 C   0  0  0  0  0  0  0  0  0  0  0  0
   -0.9436    7.6702    4.1627 C   0  0  2  0  0  0  0  0  0  0  0  0
   -2.0968    8.1247    3.3820 N   0  0  0  0  0  0  0  0  0  0  0  0
   -0.9991    6.1181    4.2056 C   0  0  0  0  0  0  0  0  0  0  0  0
    0.2305    5.6154    5.0096 C   0  0  2  0  0  0  0  0  0  0  0  0
    0.2219    4.1454    5.0713 N   0  0  0  0  0  0  0  0  0  0  0  0
    0.2213    6.1862    6.4531 C   0  0  2  0  0  0  0  0  0  0  0  0
    0.2310    7.7460    6.3840 C   0  0  2  0  0  0  0  0  0  0  0  0
    0.2110    8.2723    7.7179 O   0  0  0  0  0  0  0  0  0  0  0  0
   -1.0144    8.2712    5.6295 C   0  0  1  0  0  0  0  0  0  0  0  0
   -0.9237    9.7171    5.6002 O   0  0  0  0  0  0  0  0  0  0  0  0
   -2.0937   10.4370    6.0548 C   0  0  2  0  0  0  0  0  0  0  0  0
   -1.8322   11.9527    5.7210 C   0  0  2  0  0  0  0  0  0  0  0  0
   -1.6662   12.1163    4.3214 O   0  0  0  0  0  0  0  0  0  0  0  0
   -0.5511   12.4354    6.5012 C   0  0  1  0  0  0  0  0  0  0  0  0
   -0.2581   13.8710    6.2054 N   0  0  0  0  0  0  0  0  0  0  0  0
    1.2067   14.0731    6.2193 C   0  0  0  0  0  0  0  0  0  0  0  0
   -0.7980   12.2375    8.0278 C   0  0  2  0  0  0  0  0  0  0  0  0
   -1.9216   13.0268    8.4154 O   0  0  0  0  0  0  0  0  0  0  0  0
    0.4056   12.6755    8.8583 C   0  0  0  0  0  0  0  0  0  0  0  0
   -1.1044   10.7309    8.3058 C   0  0  0  0  0  0  0  0  0  0  0  0
   -2.2641   10.2723    7.5124 O   0  0  0  0  0  0  0  0  0  0  0  0
  1  3  1  0  0  0  0
  1  2  1  6  0  0  0
  3  5  1  0  0  0  0
  3  4  1  6  0  0  0
  5  6  1  1  0  0  0
  7  8  1  6  0  0  0
  7  5  1  0  0  0  0
  9 10  1  1  0  0  0
  9  7  1  0  0  0  0
 10  1  1  0  0  0  0
 11 13  1  1  0  0  0
 11  9  1  0  0  0  0
 12 11  1  0  0  0  0
 14 15  1  6  0  0  0
 16 14  1  0  0  0  0
 17 18  1  1  0  0  0
 17 16  1  0  0  0  0
 19  2  1  1  0  0  0
 19 20  1  0  0  0  0
 19 17  1  0  0  0  0
 20 21  1  1  0  0  0
 20 22  1  0  0  0  0
 22 23  1  6  0  0  0
 22 14  1  0  0  0  0
 24 23  1  1  0  0  0
 24 25  1  0  0  0  0
 25 27  1  0  0  0  0
 25 26  1  6  0  0  0
 27 28  1  1  0  0  0
 28 29  1  0  0  0  0
 30 31  1  1  0  0  0
 30 32  1  0  0  0  0
 30 27  1  0  0  0  0
 33 30  1  0  0  0  0
 34 33  1  0  0  0  0
 34 24  1  0  0  0  0
M  END
>  <CHROM.1>
-179.23334273,-178.16914465,-176.13924640,115.27503463,-171.52418922,-146.42703263
0.03298151,7.70889586,7.35934520,-0.94462325,-1.11889385,0.27389013

>  <Name>
lig.pdb

>  <RI>
0

>  <Rbt.Current_Directory>
/home/itssahil/PROJECTS/Mol_Feturizer/New_Systems/rnas/4k32

>  <Rbt.Executable>
rbdock ($Id: //depot/dev/client3/rdock/2013.1/src/exe/rbdock.cxx#4 $)

>  <Rbt.Library>
libRbt.so (2013.1, Build901 2013/11/27)

>  <Rbt.Parameter_File>
/export/apps/rDock/src/rDock_2013.1_src/data/scripts/dock_solv.prm

>  <Rbt.Receptor>
prm/blind_docking_60.prm

>  <SCORE>
-5.65997

>  <SCORE.INTER>
-4.73252

>  <SCORE.INTER.CONST>
1

>  <SCORE.INTER.POLAR>
0

>  <SCORE.INTER.ROT>
6

>  <SCORE.INTER.SOLV>
15.6853

>  <SCORE.INTER.VDW>
-15.9835

>  <SCORE.INTER.norm>
-0.139192

>  <SCORE.INTRA>
-3.96864

>  <SCORE.INTRA.DIHEDRAL>
-9.79263

>  <SCORE.INTRA.DIHEDRAL.0>
18.0069

>  <SCORE.INTRA.POLAR>
0

>  <SCORE.INTRA.POLAR.0>
0

>  <SCORE.INTRA.REPUL>
0

>  <SCORE.INTRA.REPUL.0>
0

>  <SCORE.INTRA.SOLV>
-2.68103

>  <SCORE.INTRA.SOLV.lig_0>
-70.7393

>  <SCORE.INTRA.VDW>
2.26819

>  <SCORE.INTRA.VDW.0>
-3.23471

>  <SCORE.INTRA.norm>
-0.116725

>  <SCORE.RESTR>
3.0412

>  <SCORE.RESTR.CAVITY>
3.0412

>  <SCORE.RESTR.norm>
0.089447

>  <SCORE.SYSTEM>
0

>  <SCORE.SYSTEM.CONST>
0

>  <SCORE.SYSTEM.DIHEDRAL>
0

>  <SCORE.SYSTEM.SOLV>
0

>  <SCORE.SYSTEM.norm>
0

>  <SCORE.heavy>
34

>  <SCORE.norm>
-0.16647

>  <RMSD>
31.727

$$$$
lig.pdb
 OpenBabel11021811503D
libRbt.so/2013.1/901 2013/11/27
 34 36  0  0  0  0  0  0  0  0999 V2000
    2.2156    6.0566    8.1142 C   0  0  2  0  0  0  0  0  0  0  0  0
    1.7747    5.6226    6.8229 O   0  0  0  0  0  0  0  0  0  0  0  0
    3.7102    5.5649    8.3279 C   0  0  2  0  0  0  0  0  0  0  0  0
    4.6256    6.1246    7.3062 N   0  0  0  0  0  0  0  0  0  0  0  0
    3.7543    4.0166    8.2848 C   0  0  1  0  0  0  0  0  0  0  0  0
    5.0925    3.5544    8.4825 O   0  0  0  0  0  0  0  0  0  0  0  0
    2.8071    3.4692    9.3673 C   0  0  2  0  0  0  0  0  0  0  0  0
    2.8409    2.0414    9.3409 O   0  0  0  0  0  0  0  0  0  0  0  0
    1.3450    4.0023    9.1130 C   0  0  2  0  0  0  0  0  0  0  0  0
    1.3179    5.4805    9.1208 O   0  0  0  0  0  0  0  0  0  0  0  0
    0.3564    3.4899   10.1896 C   0  0  2  0  0  0  0  0  0  0  0  0
    0.4136    2.0640   10.2603 O   0  0  0  0  0  0  0  0  0  0  0  0
   -1.0710    3.9031    9.8662 C   0  0  0  0  0  0  0  0  0  0  0  0
   -0.9114    7.9692    4.4576 C   0  0  2  0  0  0  0  0  0  0  0  0
   -2.1443    8.4804    3.8537 N   0  0  0  0  0  0  0  0  0  0  0  0
   -0.8809    6.4351    4.2141 C   0  0  0  0  0  0  0  0  0  0  0  0
    0.4324    5.8775    4.8267 C   0  0  2  0  0  0  0  0  0  0  0  0
    0.5068    4.4235    4.6140 N   0  0  0  0  0  0  0  0  0  0  0  0
    0.5052    6.1742    6.3487 C   0  0  2  0  0  0  0  0  0  0  0  0
    0.4266    7.7177    6.5709 C   0  0  2  0  0  0  0  0  0  0  0  0
    0.4824    7.9900    7.9778 O   0  0  0  0  0  0  0  0  0  0  0  0
   -0.8999    8.2872    6.0121 C   0  0  1  0  0  0  0  0  0  0  0  0
   -0.8887    9.7171    6.2467 O   0  0  0  0  0  0  0  0  0  0  0  0
   -1.7527   10.1947    7.3045 C   0  0  2  0  0  0  0  0  0  0  0  0
   -2.3046   11.5881    6.8235 C   0  0  2  0  0  0  0  0  0  0  0  0
   -3.0411   11.4258    5.6216 O   0  0  0  0  0  0  0  0  0  0  0  0
   -1.0936   12.5741    6.6144 C   0  0  1  0  0  0  0  0  0  0  0  0
   -1.5713   13.9109    6.1463 N   0  0  0  0  0  0  0  0  0  0  0  0
   -0.6095   14.4435    5.1574 C   0  0  0  0  0  0  0  0  0  0  0  0
   -0.3318   12.7156    7.9672 C   0  0  2  0  0  0  0  0  0  0  0  0
   -1.2252   13.2529    8.9412 O   0  0  0  0  0  0  0  0  0  0  0  0
    0.8674   13.6527    7.8473 C   0  0  0  0  0  0  0  0  0  0  0  0
    0.1520   11.3047    8.4324 C   0  0  0  0  0  0  0  0  0  0  0  0
   -0.9862   10.3696    8.5545 O   0  0  0  0  0  0  0  0  0  0  0  0
  1  3  1  0  0  0  0
  1  2  1  6  0  0  0
  3  5  1  0  0  0  0
  3  4  1  6  0  0  0
  5  6  1  1  0  0  0
  7  8  1  6  0  0  0
  7  5  1  0  0  0  0
  9 10  1  1  0  0  0
  9  7  1  0  0  0  0
 10  1  1  0  0  0  0
 11 13  1  6  0  0  0
 11  9  1  0  0  0  0
 12 11  1  0  0  0  0
 14 15  1  1  0  0  0
 16 14  1  0  0  0  0
 17 18  1  1  0  0  0
 17 16  1  0  0  0  0
 19  2  1  6  0  0  0
 19 20  1  0  0  0  0
 19 17  1  0  0  0  0
 20 21  1  1  0  0  0
 20 22  1  0  0  0  0
 22 23  1  6  0  0  0
 22 14  1  0  0  0  0
 24 23  1  6  0  0  0
 24 25  1  0  0  0  0
 25 27  1  0  0  0  0
 25 26  1  6  0  0  0
 27 28  1  1  0  0  0
 28 29  1  0  0  0  0
 30 31  1  1  0  0  0
 30 32  1  0  0  0  0
 30 27  1  0  0  0  0
 33 30  1  0  0  0  0
 34 33  1  0  0  0  0
 34 24  1  0  0  0  0
M  END
>  <CHROM.1>
-169.81668264,-54.56370822,165.09971597,137.76844106,-144.12040127,-142.22265517
0.40901617,7.75849742,7.36034288,-0.91181931,-0.93797463,0.33167772

>  <Name>
lig.pdb

>  <RI>
0

>  <Rbt.Current_Directory>
/home/itssahil/PROJECTS/Mol_Feturizer/New_Systems/rnas/4k32

>  <Rbt.Executable>
rbdock ($Id: //depot/dev/client3/rdock/2013.1/src/exe/rbdock.cxx#4 $)

>  <Rbt.Library>
libRbt.so (2013.1, Build901 2013/11/27)

>  <Rbt.Parameter_File>
/export/apps/rDock/src/rDock_2013.1_src/data/scripts/dock_solv.prm

>  <Rbt.Receptor>
prm/blind_docking_60.prm

>  <SCORE>
-2.55343

>  <SCORE.INTER>
-3.8151

>  <SCORE.INTER.CONST>
1

>  <SCORE.INTER.POLAR>
0

>  <SCORE.INTER.ROT>
6

>  <SCORE.INTER.SOLV>
20.6571

>  <SCORE.INTER.VDW>
-17.0291

>  <SCORE.INTER.norm>
-0.112209

>  <SCORE.INTRA>
-1.40064

>  <SCORE.INTRA.DIHEDRAL>
-5.08721

>  <SCORE.INTRA.DIHEDRAL.0>
18.0069

>  <SCORE.INTRA.POLAR>
0

>  <SCORE.INTRA.POLAR.0>
0

>  <SCORE.INTRA.REPUL>
0

>  <SCORE.INTRA.REPUL.0>
0

>  <SCORE.INTRA.SOLV>
-2.3625

>  <SCORE.INTRA.SOLV.lig_0>
-70.7393

>  <SCORE.INTRA.VDW>
2.32422

>  <SCORE.INTRA.VDW.0>
-3.23471

>  <SCORE.INTRA.norm>
-0.0411952

>  <SCORE.RESTR>
2.66231

>  <SCORE.RESTR.CAVITY>
2.66231

>  <SCORE.RESTR.norm>
0.0783031

>  <SCORE.SYSTEM>
0

>  <SCORE.SYSTEM.CONST>
0

>  <SCORE.SYSTEM.DIHEDRAL>
0

>  <SCORE.SYSTEM.SOLV>
0

>  <SCORE.SYSTEM.norm>
0

>  <SCORE.heavy>
34

>  <SCORE.norm>
-0.0751008

>  <RMSD>
31.738

$$$$
lig.pdb
 OpenBabel11021811503D
libRbt.so/2013.1/901 2013/11/27
 34 36  0  0  0  0  0  0  0  0999 V2000
    2.2102    6.0763    8.0974 C   0  0  2  0  0  0  0  0  0  0  0  0
    1.7707    5.6642    6.7986 O   0  0  0  0  0  0  0  0  0  0  0  0
    3.7029    5.5768    8.3064 C   0  0  2  0  0  0  0  0  0  0  0  0
    4.6220    6.1497    7.2956 N   0  0  0  0  0  0  0  0  0  0  0  0
    3.7423    4.0293    8.2389 C   0  0  1  0  0  0  0  0  0  0  0  0
    5.0787    3.5599    8.4320 O   0  0  0  0  0  0  0  0  0  0  0  0
    2.7912    3.4677    9.3106 C   0  0  2  0  0  0  0  0  0  0  0  0
    2.8208    2.0404    9.2618 O   0  0  0  0  0  0  0  0  0  0  0  0
    1.3313    4.0092    9.0618 C   0  0  2  0  0  0  0  0  0  0  0  0
    1.3087    5.4872    9.0929 O   0  0  0  0  0  0  0  0  0  0  0  0
    0.3388    3.4829   10.1282 C   0  0  2  0  0  0  0  0  0  0  0  0
    0.3850    2.0554   10.1701 O   0  0  0  0  0  0  0  0  0  0  0  0
   -1.0853    3.9136    9.8136 C   0  0  0  0  0  0  0  0  0  0  0  0
   -1.0431    7.9021    4.4767 C   0  0  2  0  0  0  0  0  0  0  0  0
   -2.3063    8.3739    3.9041 N   0  0  0  0  0  0  0  0  0  0  0  0
   -0.9871    6.3641    4.2641 C   0  0  0  0  0  0  0  0  0  0  0  0
    0.3578    5.8477    4.8437 C   0  0  2  0  0  0  0  0  0  0  0  0
    0.4569    4.3914    4.6587 N   0  0  0  0  0  0  0  0  0  0  0  0
    0.4744    6.1785    6.3559 C   0  0  2  0  0  0  0  0  0  0  0  0
    0.3694    7.7243    6.5487 C   0  0  2  0  0  0  0  0  0  0  0  0
    0.4657    8.0278    7.9469 O   0  0  0  0  0  0  0  0  0  0  0  0
   -0.9871    8.2535    6.0230 C   0  0  1  0  0  0  0  0  0  0  0  0
   -0.9995    9.6880    6.2275 O   0  0  0  0  0  0  0  0  0  0  0  0
   -1.8458   10.1705    7.2973 C   0  0  2  0  0  0  0  0  0  0  0  0
   -2.3709   11.5813    6.8377 C   0  0  2  0  0  0  0  0  0  0  0  0
   -3.1188   11.4502    5.6391 O   0  0  0  0  0  0  0  0  0  0  0  0
   -1.1403   12.5438    6.6324 C   0  0  1  0  0  0  0  0  0  0  0  0
   -1.5924   13.8964    6.1845 N   0  0  0  0  0  0  0  0  0  0  0  0
   -0.6513   14.4011    5.1617 C   0  0  0  0  0  0  0  0  0  0  0  0
   -0.3664   12.6518    7.9814 C   0  0  2  0  0  0  0  0  0  0  0  0
   -1.2414   13.1957    8.9684 O   0  0  0  0  0  0  0  0  0  0  0  0
    0.8518   13.5644    7.8649 C   0  0  0  0  0  0  0  0  0  0  0  0
    0.0900   11.2250    8.4255 C   0  0  0  0  0  0  0  0  0  0  0  0
   -1.0671   10.3130    8.5440 O   0  0  0  0  0  0  0  0  0  0  0  0
  1  3  1  0  0  0  0
  1  2  1  6  0  0  0
  3  5  1  0  0  0  0
  3  4  1  6  0  0  0
  5  6  1  1  0  0  0
  7  8  1  6  0  0  0
  7  5  1  0  0  0  0
  9 10  1  1  0  0  0
  9  7  1  0  0  0  0
 10  1  1  0  0  0  0
 11 13  1  6  0  0  0
 11  9  1  0  0  0  0
 12 11  1  0  0  0  0
 14 15  1  1  0  0  0
 16 14  1  0  0  0  0
 17 18  1  1  0  0  0
 17 16  1  0  0  0  0
 19  2  1  6  0  0  0
 19 20  1  0  0  0  0
 19 17  1  0  0  0  0
 20 21  1  1  0  0  0
 20 22  1  0  0  0  0
 22 23  1  6  0  0  0
 22 14  1  0  0  0  0
 24 23  1  6  0  0  0
 24 25  1  0  0  0  0
 25 27  1  0  0  0  0
 25 26  1  6  0  0  0
 27 28  1  1  0  0  0
 28 29  1  0  0  0  0
 30 31  1  1  0  0  0
 30 32  1  0  0  0  0
 30 27  1  0  0  0  0
 33 30  1  0  0  0  0
 34 33  1  0  0  0  0
 34 24  1  0  0  0  0
M  END
>  <CHROM.1>
-172.54054956,-54.95581942,168.46248247,137.33391739,-147.38501245,-140.31639187
0.36392353,7.74016033,7.34972173,-0.95494702,-0.87807704,0.27867107

>  <Name>
lig.pdb

>  <RI>
0

>  <Rbt.Current_Directory>
/home/itssahil/PROJECTS/Mol_Feturizer/New_Systems/rnas/4k32

>  <Rbt.Executable>
rbdock ($Id: //depot/dev/client3/rdock/2013.1/src/exe/rbdock.cxx#4 $)

>  <Rbt.Library>
libRbt.so (2013.1, Build901 2013/11/27)

>  <Rbt.Parameter_File>
/export/apps/rDock/src/rDock_2013.1_src/data/scripts/dock_solv.prm

>  <Rbt.Receptor>
prm/blind_docking_60.prm

>  <SCORE>
-3.4988

>  <SCORE.INTER>
-3.98585

>  <SCORE.INTER.CONST>
1

>  <SCORE.INTER.POLAR>
0

>  <SCORE.INTER.ROT>
6

>  <SCORE.INTER.SOLV>
20.0417

>  <SCORE.INTER.VDW>
-16.9378

>  <SCORE.INTER.norm>
-0.117231

>  <SCORE.INTRA>
-2.4201

>  <SCORE.INTRA.DIHEDRAL>
-6.21551

>  <SCORE.INTRA.DIHEDRAL.0>
18.0069

>  <SCORE.INTRA.POLAR>
0

>  <SCORE.INTRA.POLAR.0>
0

>  <SCORE.INTRA.REPUL>
0

>  <SCORE.INTRA.REPUL.0>
0

>  <SCORE.INTRA.SOLV>
-2.41007

>  <SCORE.INTRA.SOLV.lig_0>
-70.7393

>  <SCORE.INTRA.VDW>
1.89269

>  <SCORE.INTRA.VDW.0>
-3.23471

>  <SCORE.INTRA.norm>
-0.0711793

>  <SCORE.RESTR>
2.90714

>  <SCORE.RESTR.CAVITY>
2.90714

>  <SCORE.RESTR.norm>
0.0855043

>  <SCORE.SYSTEM>
0

>  <SCORE.SYSTEM.CONST>
0

>  <SCORE.SYSTEM.DIHEDRAL>
0

>  <SCORE.SYSTEM.SOLV>
0

>  <SCORE.SYSTEM.norm>
0

>  <SCORE.heavy>
34

>  <SCORE.norm>
-0.102906

>  <RMSD>
31.739

$$$$
lig.pdb
 OpenBabel11021811503D
libRbt.so/2013.1/901 2013/11/27
 34 36  0  0  0  0  0  0  0  0999 V2000
    1.5730    6.0503    8.4358 C   0  0  2  0  0  0  0  0  0  0  0  0
    1.4265    5.7030    7.0544 O   0  0  0  0  0  0  0  0  0  0  0  0
    2.9324    5.4279    8.9706 C   0  0  2  0  0  0  0  0  0  0  0  0
    4.1051    5.9468    8.2287 N   0  0  0  0  0  0  0  0  0  0  0  0
    2.8737    3.8840    8.8522 C   0  0  1  0  0  0  0  0  0  0  0  0
    4.0877    3.3047    9.3360 O   0  0  0  0  0  0  0  0  0  0  0  0
    1.6563    3.3777    9.6462 C   0  0  2  0  0  0  0  0  0  0  0  0
    1.5924    1.9541    9.5485 O   0  0  0  0  0  0  0  0  0  0  0  0
    0.3412    4.0402    9.0821 C   0  0  2  0  0  0  0  0  0  0  0  0
    0.4198    5.5142    9.1662 O   0  0  0  0  0  0  0  0  0  0  0  0
   -0.9124    3.5725    9.8625 C   0  0  2  0  0  0  0  0  0  0  0  0
   -2.0864    4.1381    9.2765 O   0  0  0  0  0  0  0  0  0  0  0  0
   -0.8433    3.9998   11.3204 C   0  0  0  0  0  0  0  0  0  0  0  0
   -0.8912    7.7273    4.0801 C   0  0  2  0  0  0  0  0  0  0  0  0
   -2.0325    8.1835    3.2829 N   0  0  0  0  0  0  0  0  0  0  0  0
   -0.9366    6.1745    4.1030 C   0  0  0  0  0  0  0  0  0  0  0  0
    0.2809    5.6703    4.9242 C   0  0  2  0  0  0  0  0  0  0  0  0
    0.2815    4.1996    4.9679 N   0  0  0  0  0  0  0  0  0  0  0  0
    0.2402    6.2232    6.3741 C   0  0  2  0  0  0  0  0  0  0  0  0
    0.2403    7.7838    6.3243 C   0  0  2  0  0  0  0  0  0  0  0  0
    0.1911    8.2934    7.6638 O   0  0  0  0  0  0  0  0  0  0  0  0
   -0.9943    8.3097    5.5525 C   0  0  1  0  0  0  0  0  0  0  0  0
   -0.9132    9.7564    5.5425 O   0  0  0  0  0  0  0  0  0  0  0  0
   -2.0893   10.4624    6.0032 C   0  0  2  0  0  0  0  0  0  0  0  0
   -1.8370   11.9841    5.6902 C   0  0  2  0  0  0  0  0  0  0  0  0
   -1.6683   12.1673    4.2933 O   0  0  0  0  0  0  0  0  0  0  0  0
   -0.5614   12.4650    6.4804 C   0  0  1  0  0  0  0  0  0  0  0  0
   -0.2772   13.9063    6.2044 N   0  0  0  0  0  0  0  0  0  0  0  0
    1.1874   14.1077    6.1728 C   0  0  0  0  0  0  0  0  0  0  0  0
   -0.8113   12.2453    8.0035 C   0  0  2  0  0  0  0  0  0  0  0  0
   -1.9412   13.0218    8.3983 O   0  0  0  0  0  0  0  0  0  0  0  0
    0.3871   12.6803    8.8432 C   0  0  0  0  0  0  0  0  0  0  0  0
   -1.1083   10.7331    8.2607 C   0  0  0  0  0  0  0  0  0  0  0  0
   -2.2627   10.2773    7.4580 O   0  0  0  0  0  0  0  0  0  0  0  0
  1  3  1  0  0  0  0
  1  2  1  6  0  0  0
  3  5  1  0  0  0  0
  3  4  1  6  0  0  0
  5  6  1  1  0  0  0
  7  8  1  6  0  0  0
  7  5  1  0  0  0  0
  9 10  1  1  0  0  0
  9  7  1  0  0  0  0
 10  1  1  0  0  0  0
 11 13  1  1  0  0  0
 11  9  1  0  0  0  0
 12 11  1  0  0  0  0
 14 15  1  6  0  0  0
 16 14  1  0  0  0  0
 17 18  1  1  0  0  0
 17 16  1  0  0  0  0
 19  2  1  1  0  0  0
 19 20  1  0  0  0  0
 19 17  1  0  0  0  0
 20 21  1  1  0  0  0
 20 22  1  0  0  0  0
 22 23  1  6  0  0  0
 22 14  1  0  0  0  0
 24 23  1  1  0  0  0
 24 25  1  0  0  0  0
 25 27  1  0  0  0  0
 25 26  1  6  0  0  0
 27 28  1  1  0  0  0
 28 29  1  0  0  0  0
 30 31  1  1  0  0  0
 30 32  1  0  0  0  0
 30 27  1  0  0  0  0
 33 30  1  0  0  0  0
 34 33  1  0  0  0  0
 34 24  1  0  0  0  0
M  END
>  <CHROM.1>
-178.39420561,-176.92095449,-177.85724160,116.21035673,-171.52557805,-144.23932566
0.04203271,7.75096625,7.30680969,-0.89733185,-1.14217047,0.32443931

>  <Name>
lig.pdb

>  <RI>
0

>  <Rbt.Current_Directory>
/home/itssahil/PROJECTS/Mol_Feturizer/New_Systems/rnas/4k32

>  <Rbt.Executable>
rbdock ($Id: //depot/dev/client3/rdock/2013.1/src/exe/rbdock.cxx#4 $)

>  <Rbt.Library>
libRbt.so (2013.1, Build901 2013/11/27)

>  <Rbt.Parameter_File>
/export/apps/rDock/src/rDock_2013.1_src/data/scripts/dock_solv.prm

>  <Rbt.Receptor>
prm/blind_docking_60.prm

>  <SCORE>
-6.04728

>  <SCORE.INTER>
-5.18455

>  <SCORE.INTER.CONST>
1

>  <SCORE.INTER.POLAR>
0

>  <SCORE.INTER.ROT>
6

>  <SCORE.INTER.SOLV>
16.251

>  <SCORE.INTER.VDW>
-16.4734

>  <SCORE.INTER.norm>
-0.152487

>  <SCORE.INTRA>
-4.05522

>  <SCORE.INTRA.DIHEDRAL>
-9.70422

>  <SCORE.INTRA.DIHEDRAL.0>
18.0069

>  <SCORE.INTRA.POLAR>
0

>  <SCORE.INTRA.POLAR.0>
0

>  <SCORE.INTRA.REPUL>
0

>  <SCORE.INTRA.REPUL.0>
0

>  <SCORE.INTRA.SOLV>
-2.72515

>  <SCORE.INTRA.SOLV.lig_0>
-70.7393

>  <SCORE.INTRA.VDW>
2.15946

>  <SCORE.INTRA.VDW.0>
-3.23471

>  <SCORE.INTRA.norm>
-0.119271

>  <SCORE.RESTR>
3.1925

>  <SCORE.RESTR.CAVITY>
3.1925

>  <SCORE.RESTR.norm>
0.0938969

>  <SCORE.SYSTEM>
0

>  <SCORE.SYSTEM.CONST>
0

>  <SCORE.SYSTEM.DIHEDRAL>
0

>  <SCORE.SYSTEM.SOLV>
0

>  <SCORE.SYSTEM.norm>
0

>  <SCORE.heavy>
34

>  <SCORE.norm>
-0.177861

>  <RMSD>
31.763

$$$$
lig.pdb
 OpenBabel11021811503D
libRbt.so/2013.1/901 2013/11/27
 34 36  0  0  0  0  0  0  0  0999 V2000
    2.3065    5.9788    8.0614 C   0  0  2  0  0  0  0  0  0  0  0  0
    1.8588    5.5778    6.7618 O   0  0  0  0  0  0  0  0  0  0  0  0
    3.7938    5.4608    8.2641 C   0  0  2  0  0  0  0  0  0  0  0  0
    4.7169    6.0277    7.2534 N   0  0  0  0  0  0  0  0  0  0  0  0
    3.8150    3.9133    8.1893 C   0  0  1  0  0  0  0  0  0  0  0  0
    5.1462    3.4275    8.3768 O   0  0  0  0  0  0  0  0  0  0  0  0
    2.8602    3.3579    9.2610 C   0  0  2  0  0  0  0  0  0  0  0  0
    2.8729    1.9306    9.2056 O   0  0  0  0  0  0  0  0  0  0  0  0
    1.4061    3.9176    9.0186 C   0  0  2  0  0  0  0  0  0  0  0  0
    1.4008    5.3956    9.0566 O   0  0  0  0  0  0  0  0  0  0  0  0
    0.4103    3.3981   10.0853 C   0  0  2  0  0  0  0  0  0  0  0  0
    0.4319    1.9696   10.1128 O   0  0  0  0  0  0  0  0  0  0  0  0
   -1.0078    3.8564    9.7827 C   0  0  0  0  0  0  0  0  0  0  0  0
   -0.8474    7.9571    4.4527 C   0  0  2  0  0  0  0  0  0  0  0  0
   -2.0859    8.4791    3.8698 N   0  0  0  0  0  0  0  0  0  0  0  0
   -0.8276    6.4249    4.1960 C   0  0  0  0  0  0  0  0  0  0  0  0
    0.4911    5.8559    4.7861 C   0  0  2  0  0  0  0  0  0  0  0  0
    0.5555    4.4034    4.5602 N   0  0  0  0  0  0  0  0  0  0  0  0
    0.5857    6.1394    6.3093 C   0  0  2  0  0  0  0  0  0  0  0  0
    0.5176    7.6813    6.5456 C   0  0  2  0  0  0  0  0  0  0  0  0
    0.5936    7.9414    7.9538 O   0  0  0  0  0  0  0  0  0  0  0  0
   -0.8135    8.2618    6.0095 C   0  0  1  0  0  0  0  0  0  0  0  0
   -0.7922    9.6896    6.2559 O   0  0  0  0  0  0  0  0  0  0  0  0
   -1.6744   10.1682    7.2982 C   0  0  2  0  0  0  0  0  0  0  0  0
   -2.2694   11.5292    6.7775 C   0  0  2  0  0  0  0  0  0  0  0  0
   -2.9965   11.3100    5.5789 O   0  0  0  0  0  0  0  0  0  0  0  0
   -1.0900   12.5476    6.5437 C   0  0  1  0  0  0  0  0  0  0  0  0
   -1.6091   13.8548    6.0376 N   0  0  0  0  0  0  0  0  0  0  0  0
   -0.6026   14.4516    5.1335 C   0  0  0  0  0  0  0  0  0  0  0  0
   -0.3373   12.7509    7.8937 C   0  0  2  0  0  0  0  0  0  0  0  0
   -1.2506   13.2859    8.8505 O   0  0  0  0  0  0  0  0  0  0  0  0
    0.8314   13.7225    7.7505 C   0  0  0  0  0  0  0  0  0  0  0  0
    0.1901   11.3698    8.3990 C   0  0  0  0  0  0  0  0  0  0  0  0
   -0.9177   10.4022    8.5446 O   0  0  0  0  0  0  0  0  0  0  0  0
  1  3  1  0  0  0  0
  1  2  1  6  0  0  0
  3  5  1  0  0  0  0
  3  4  1  6  0  0  0
  5  6  1  1  0  0  0
  7  8  1  6  0  0  0
  7  5  1  0  0  0  0
  9 10  1  1  0  0  0
  9  7  1  0  0  0  0
 10  1  1  0  0  0  0
 11 13  1  6  0  0  0
 11  9  1  0  0  0  0
 12 11  1  0  0  0  0
 14 15  1  1  0  0  0
 16 14  1  0  0  0  0
 17 18  1  1  0  0  0
 17 16  1  0  0  0  0
 19  2  1  6  0  0  0
 19 20  1  0  0  0  0
 19 17  1  0  0  0  0
 20 21  1  1  0  0  0
 20 22  1  0  0  0  0
 22 23  1  6  0  0  0
 22 14  1  0  0  0  0
 24 23  1  6  0  0  0
 24 25  1  0  0  0  0
 25 27  1  0  0  0  0
 25 26  1  6  0  0  0
 27 28  1  1  0  0  0
 28 29  1  0  0  0  0
 30 31  1  1  0  0  0
 30 32  1  0  0  0  0
 30 27  1  0  0  0  0
 33 30  1  0  0  0  0
 34 33  1  0  0  0  0
 34 24  1  0  0  0  0
M  END
>  <CHROM.1>
-170.85312240,-55.42583669,166.25838627,135.69595775,-140.72481956,-147.51261653
0.46024372,7.71548576,7.30238274,-0.92498432,-0.92320034,0.32425245

>  <Name>
lig.pdb

>  <RI>
0

>  <Rbt.Current_Directory>
/home/itssahil/PROJECTS/Mol_Feturizer/New_Systems/rnas/4k32

>  <Rbt.Executable>
rbdock ($Id: //depot/dev/client3/rdock/2013.1/src/exe/rbdock.cxx#4 $)

>  <Rbt.Library>
libRbt.so (2013.1, Build901 2013/11/27)

>  <Rbt.Parameter_File>
/export/apps/rDock/src/rDock_2013.1_src/data/scripts/dock_solv.prm

>  <Rbt.Receptor>
prm/blind_docking_60.prm

>  <SCORE>
-1.84633

>  <SCORE.INTER>
-3.83294

>  <SCORE.INTER.CONST>
1

>  <SCORE.INTER.POLAR>
0

>  <SCORE.INTER.ROT>
6

>  <SCORE.INTER.SOLV>
21.3777

>  <SCORE.INTER.VDW>
-17.2812

>  <SCORE.INTER.norm>
-0.112734

>  <SCORE.INTRA>
-0.527864

>  <SCORE.INTRA.DIHEDRAL>
-4.63839

>  <SCORE.INTRA.DIHEDRAL.0>
18.0069

>  <SCORE.INTRA.POLAR>
0

>  <SCORE.INTRA.POLAR.0>
0

>  <SCORE.INTRA.REPUL>
0

>  <SCORE.INTRA.REPUL.0>
0

>  <SCORE.INTRA.SOLV>
-2.2318

>  <SCORE.INTRA.SOLV.lig_0>
-70.7393

>  <SCORE.INTRA.VDW>
2.90723

>  <SCORE.INTRA.VDW.0>
-3.23471

>  <SCORE.INTRA.norm>
-0.0155254

>  <SCORE.RESTR>
2.51447

>  <SCORE.RESTR.CAVITY>
2.51447

>  <SCORE.RESTR.norm>
0.0739551

>  <SCORE.SYSTEM>
0

>  <SCORE.SYSTEM.CONST>
0

>  <SCORE.SYSTEM.DIHEDRAL>
0

>  <SCORE.SYSTEM.SOLV>
0

>  <SCORE.SYSTEM.norm>
0

>  <SCORE.heavy>
34

>  <SCORE.norm>
-0.0543039

>  <RMSD>
31.813

$$$$
lig.pdb
 OpenBabel11021811503D
libRbt.so/2013.1/901 2013/11/27
 34 36  0  0  0  0  0  0  0  0999 V2000
   -0.2377    7.9820    6.7368 C   0  0  2  0  0  0  0  0  0  0  0  0
   -0.7272    6.8841    7.5147 O   0  0  0  0  0  0  0  0  0  0  0  0
   -0.8880    7.9043    5.2903 C   0  0  2  0  0  0  0  0  0  0  0  0
   -2.3660    7.9896    5.3456 N   0  0  0  0  0  0  0  0  0  0  0  0
   -0.4608    6.5824    4.6038 C   0  0  1  0  0  0  0  0  0  0  0  0
   -1.0316    6.4976    3.2960 O   0  0  0  0  0  0  0  0  0  0  0  0
    1.0765    6.5339    4.5481 C   0  0  2  0  0  0  0  0  0  0  0  0
    1.4843    5.3208    3.9135 O   0  0  0  0  0  0  0  0  0  0  0  0
    1.6645    6.6306    6.0080 C   0  0  2  0  0  0  0  0  0  0  0  0
    1.2236    7.8777    6.6685 O   0  0  0  0  0  0  0  0  0  0  0  0
    3.2131    6.6024    6.0016 C   0  0  2  0  0  0  0  0  0  0  0  0
    3.6846    6.1877    4.7182 O   0  0  0  0  0  0  0  0  0  0  0  0
    3.7496    5.6403    7.0501 C   0  0  0  0  0  0  0  0  0  0  0  0
    2.8776    6.1177    9.6906 C   0  0  2  0  0  0  0  0  0  0  0  0
    3.7951    5.7855   10.7833 N   0  0  0  0  0  0  0  0  0  0  0  0
    1.9534    7.2596   10.1964 C   0  0  0  0  0  0  0  0  0  0  0  0
    0.9880    7.6430    9.0423 C   0  0  2  0  0  0  0  0  0  0  0  0
    0.0946    8.7286    9.4761 N   0  0  0  0  0  0  0  0  0  0  0  0
    0.1330    6.4234    8.6050 C   0  0  2  0  0  0  0  0  0  0  0  0
    1.0838    5.2737    8.1448 C   0  0  2  0  0  0  0  0  0  0  0  0
    0.2933    4.1435    7.7519 O   0  0  0  0  0  0  0  0  0  0  0  0
    2.0218    4.8407    9.2977 C   0  0  1  0  0  0  0  0  0  0  0  0
    2.8735    3.7849    8.7880 O   0  0  0  0  0  0  0  0  0  0  0  0
    2.8970    2.5597    9.5573 C   0  0  2  0  0  0  0  0  0  0  0  0
    2.7183    1.3886    8.5210 C   0  0  2  0  0  0  0  0  0  0  0  0
    3.7865    1.4043    7.5871 O   0  0  0  0  0  0  0  0  0  0  0  0
    1.3306    1.5556    7.7937 C   0  0  1  0  0  0  0  0  0  0  0  0
    1.1222    0.4676    6.7901 N   0  0  0  0  0  0  0  0  0  0  0  0
    0.2819    0.9864    5.6894 C   0  0  0  0  0  0  0  0  0  0  0  0
    0.2018    1.5230    8.8686 C   0  0  2  0  0  0  0  0  0  0  0  0
    0.2441    0.2638    9.5381 O   0  0  0  0  0  0  0  0  0  0  0  0
   -1.1812    1.6880    8.2436 C   0  0  0  0  0  0  0  0  0  0  0  0
    0.4474    2.6671    9.9038 C   0  0  0  0  0  0  0  0  0  0  0  0
    1.7822    2.5395   10.5256 O   0  0  0  0  0  0  0  0  0  0  0  0
  1  3  1  0  0  0  0
  1  2  1  1  0  0  0
  3  5  1  0  0  0  0
  3  4  1  1  0  0  0
  5  6  1  6  0  0  0
  7  8  1  1  0  0  0
  7  5  1  0  0  0  0
  9 10  1  6  0  0  0
  9  7  1  0  0  0  0
 10  1  1  0  0  0  0
 11 13  1  1  0  0  0
 11  9  1  0  0  0  0
 12 11  1  0  0  0  0
 14 15  1  1  0  0  0
 16 14  1  0  0  0  0
 17 18  1  1  0  0  0
 17 16  1  0  0  0  0
 19  2  1  6  0  0  0
 19 20  1  0  0  0  0
 19 17  1  0  0  0  0
 20 21  1  1  0  0  0
 20 22  1  0  0  0  0
 22 23  1  6  0  0  0
 22 14  1  0  0  0  0
 24 23  1  6  0  0  0
 24 25  1  0  0  0  0
 25 27  1  0  0  0  0
 25 26  1  6  0  0  0
 27 28  1  6  0  0  0
 28 29  1  0  0  0  0
 30 31  1  1  0  0  0
 30 32  1  0  0  0  0
 30 27  1  0  0  0  0
 33 30  1  0  0  0  0
 34 33  1  0  0  0  0
 34 24  1  0  0  0  0
M  END
>  <CHROM.1>
153.95181014,-13.37943307,26.88275779,117.26426409,132.66227978,-150.03631682
1.18645483,4.83746756,7.51748696,-2.07505451,1.14351365,3.13563452

>  <Name>
lig.pdb

>  <RI>
0

>  <Rbt.Current_Directory>
/home/itssahil/PROJECTS/Mol_Feturizer/New_Systems/rnas/4k32

>  <Rbt.Executable>
rbdock ($Id: //depot/dev/client3/rdock/2013.1/src/exe/rbdock.cxx#4 $)

>  <Rbt.Library>
libRbt.so (2013.1, Build901 2013/11/27)

>  <Rbt.Parameter_File>
/export/apps/rDock/src/rDock_2013.1_src/data/scripts/dock_solv.prm

>  <Rbt.Receptor>
prm/blind_docking_20.prm

>  <SCORE>
77.1287

>  <SCORE.INTER>
30.1196

>  <SCORE.INTER.CONST>
1

>  <SCORE.INTER.POLAR>
0

>  <SCORE.INTER.ROT>
6

>  <SCORE.INTER.SOLV>
36.1074

>  <SCORE.INTER.VDW>
0.443929

>  <SCORE.INTER.norm>
0.885871

>  <SCORE.INTRA>
29.6374

>  <SCORE.INTRA.DIHEDRAL>
7.95702

>  <SCORE.INTRA.DIHEDRAL.0>
18.0069

>  <SCORE.INTRA.POLAR>
0

>  <SCORE.INTRA.POLAR.0>
0

>  <SCORE.INTRA.REPUL>
0

>  <SCORE.INTRA.REPUL.0>
0

>  <SCORE.INTRA.SOLV>
1.91469

>  <SCORE.INTRA.SOLV.lig_0>
-70.7393

>  <SCORE.INTRA.VDW>
24.7015

>  <SCORE.INTRA.VDW.0>
-3.23471

>  <SCORE.INTRA.norm>
0.871688

>  <SCORE.RESTR>
17.3717

>  <SCORE.RESTR.CAVITY>
17.3717

>  <SCORE.RESTR.norm>
0.510931

>  <SCORE.SYSTEM>
0

>  <SCORE.SYSTEM.CONST>
0

>  <SCORE.SYSTEM.DIHEDRAL>
0

>  <SCORE.SYSTEM.SOLV>
0

>  <SCORE.SYSTEM.norm>
0

>  <SCORE.heavy>
34

>  <SCORE.norm>
2.26849

>  <RMSD>
31.860

$$$$
lig.pdb
 OpenBabel11021811503D
libRbt.so/2013.1/901 2013/11/27
 34 36  0  0  0  0  0  0  0  0999 V2000
   -0.1623    8.0034    6.7262 C   0  0  2  0  0  0  0  0  0  0  0  0
   -0.6677    6.9039    7.4916 O   0  0  0  0  0  0  0  0  0  0  0  0
   -0.7883    7.9328    5.2687 C   0  0  2  0  0  0  0  0  0  0  0  0
   -2.2668    8.0218    5.2994 N   0  0  0  0  0  0  0  0  0  0  0  0
   -0.3530    6.6124    4.5846 C   0  0  1  0  0  0  0  0  0  0  0  0
   -0.9019    6.5340    3.2670 O   0  0  0  0  0  0  0  0  0  0  0  0
    1.1848    6.5600    4.5546 C   0  0  2  0  0  0  0  0  0  0  0  0
    1.6001    5.3482    3.9224 O   0  0  0  0  0  0  0  0  0  0  0  0
    1.7484    6.6497    6.0245 C   0  0  2  0  0  0  0  0  0  0  0  0
    1.2997    7.8955    6.6822 O   0  0  0  0  0  0  0  0  0  0  0  0
    3.2968    6.6174    6.0442 C   0  0  2  0  0  0  0  0  0  0  0  0
    3.7901    6.2566    4.7526 O   0  0  0  0  0  0  0  0  0  0  0  0
    3.8127    5.6098    7.0598 C   0  0  0  0  0  0  0  0  0  0  0  0
    2.9113    6.0875    9.6919 C   0  0  2  0  0  0  0  0  0  0  0  0
    3.8165    5.7397   10.7899 N   0  0  0  0  0  0  0  0  0  0  0  0
    1.9953    7.2365   10.1965 C   0  0  0  0  0  0  0  0  0  0  0  0
    1.0432    7.6364    9.0368 C   0  0  2  0  0  0  0  0  0  0  0  0
    0.1580    8.7291    9.4694 N   0  0  0  0  0  0  0  0  0  0  0  0
    0.1789    6.4283    8.5862 C   0  0  2  0  0  0  0  0  0  0  0  0
    1.1210    5.2709    8.1274 C   0  0  2  0  0  0  0  0  0  0  0  0
    0.3217    4.1513    7.7221 O   0  0  0  0  0  0  0  0  0  0  0  0
    2.0451    4.8218    9.2853 C   0  0  1  0  0  0  0  0  0  0  0  0
    2.8896    3.7598    8.7767 O   0  0  0  0  0  0  0  0  0  0  0  0
    2.8992    2.5327    9.5434 C   0  0  2  0  0  0  0  0  0  0  0  0
    2.6960    1.3666    8.5059 C   0  0  2  0  0  0  0  0  0  0  0  0
    3.7582    1.3680    7.5651 O   0  0  0  0  0  0  0  0  0  0  0  0
    1.3063    1.5564    7.7879 C   0  0  1  0  0  0  0  0  0  0  0  0
    1.0747    0.4738    6.7835 N   0  0  0  0  0  0  0  0  0  0  0  0
    0.2289    1.0055    5.6933 C   0  0  0  0  0  0  0  0  0  0  0  0
    0.1841    1.5388    8.8701 C   0  0  2  0  0  0  0  0  0  0  0  0
    0.2114    0.2778    9.5368 O   0  0  0  0  0  0  0  0  0  0  0  0
   -1.2002    1.7263    8.2545 C   0  0  0  0  0  0  0  0  0  0  0  0
    0.4539    2.6769    9.9060 C   0  0  0  0  0  0  0  0  0  0  0  0
    1.7906    2.5276   10.5189 O   0  0  0  0  0  0  0  0  0  0  0  0
  1  3  1  0  0  0  0
  1  2  1  1  0  0  0
  3  5  1  0  0  0  0
  3  4  1  1  0  0  0
  5  6  1  6  0  0  0
  7  8  1  1  0  0  0
  7  5  1  0  0  0  0
  9 10  1  6  0  0  0
  9  7  1  0  0  0  0
 10  1  1  0  0  0  0
 11 13  1  1  0  0  0
 11  9  1  0  0  0  0
 12 11  1  0  0  0  0
 14 15  1  1  0  0  0
 16 14  1  0  0  0  0
 17 18  1  1  0  0  0
 17 16  1  0  0  0  0
 19  2  1  6  0  0  0
 19 20  1  0  0  0  0
 19 17  1  0  0  0  0
 20 21  1  1  0  0  0
 20 22  1  0  0  0  0
 22 23  1  6  0  0  0
 22 14  1  0  0  0  0
 24 23  1  6  0  0  0
 24 25  1  0  0  0  0
 25 27  1  0  0  0  0
 25 26  1  6  0  0  0
 27 28  1  6  0  0  0
 28 29  1  0  0  0  0
 30 31  1  1  0  0  0
 30 32  1  0  0  0  0
 30 27  1  0  0  0  0
 33 30  1  0  0  0  0
 34 33  1  0  0  0  0
 34 24  1  0  0  0  0
M  END
>  <CHROM.1>
153.36521944,-11.14050488,26.69067943,116.95484724,131.95397712,-150.36229331
1.22603759,4.84307024,7.51265189,-2.02023197,1.14622657,3.08486706

>  <Name>
lig.pdb

>  <RI>
0

>  <Rbt.Current_Directory>
/home/itssahil/PROJECTS/Mol_Feturizer/New_Systems/rnas/4k32

>  <Rbt.Executable>
rbdock ($Id: //depot/dev/client3/rdock/2013.1/src/exe/rbdock.cxx#4 $)

>  <Rbt.Library>
libRbt.so (2013.1, Build901 2013/11/27)

>  <Rbt.Parameter_File>
/export/apps/rDock/src/rDock_2013.1_src/data/scripts/dock_solv.prm

>  <Rbt.Receptor>
prm/blind_docking_20.prm

>  <SCORE>
78.3043

>  <SCORE.INTER>
31.1843

>  <SCORE.INTER.CONST>
1

>  <SCORE.INTER.POLAR>
0

>  <SCORE.INTER.ROT>
6

>  <SCORE.INTER.SOLV>
36.2757

>  <SCORE.INTER.VDW>
1.09765

>  <SCORE.INTER.norm>
0.917186

>  <SCORE.INTRA>
30.2394

>  <SCORE.INTRA.DIHEDRAL>
8.34845

>  <SCORE.INTRA.DIHEDRAL.0>
18.0069

>  <SCORE.INTRA.POLAR>
0

>  <SCORE.INTRA.POLAR.0>
0

>  <SCORE.INTRA.REPUL>
0

>  <SCORE.INTRA.REPUL.0>
0

>  <SCORE.INTRA.SOLV>
1.98792

>  <SCORE.INTRA.SOLV.lig_0>
-70.7393

>  <SCORE.INTRA.VDW>
25.0712

>  <SCORE.INTRA.VDW.0>
-3.23471

>  <SCORE.INTRA.norm>
0.889394

>  <SCORE.RESTR>
16.8806

>  <SCORE.RESTR.CAVITY>
16.8806

>  <SCORE.RESTR.norm>
0.496488

>  <SCORE.SYSTEM>
0

>  <SCORE.SYSTEM.CONST>
0

>  <SCORE.SYSTEM.DIHEDRAL>
0

>  <SCORE.SYSTEM.SOLV>
0

>  <SCORE.SYSTEM.norm>
0

>  <SCORE.heavy>
34

>  <SCORE.norm>
2.30307

>  <RMSD>
31.865

$$$$
lig.pdb
 OpenBabel11021811503D
libRbt.so/2013.1/901 2013/11/27
 34 36  0  0  0  0  0  0  0  0999 V2000
    0.1069    8.4099    6.6773 C   0  0  2  0  0  0  0  0  0  0  0  0
   -0.7147    7.4288    7.3197 O   0  0  0  0  0  0  0  0  0  0  0  0
   -0.3110    8.4938    5.1477 C   0  0  2  0  0  0  0  0  0  0  0  0
   -1.7295    8.8895    4.9852 N   0  0  0  0  0  0  0  0  0  0  0  0
   -0.0647    7.1221    4.4704 C   0  0  1  0  0  0  0  0  0  0  0  0
   -0.4290    7.1802    3.0893 O   0  0  0  0  0  0  0  0  0  0  0  0
    1.4186    6.7498    4.6430 C   0  0  2  0  0  0  0  0  0  0  0  0
    1.6606    5.4878    4.0193 O   0  0  0  0  0  0  0  0  0  0  0  0
    1.7782    6.6975    6.1774 C   0  0  2  0  0  0  0  0  0  0  0  0
    1.5072    7.9994    6.8235 O   0  0  0  0  0  0  0  0  0  0  0  0
    3.2690    6.3419    6.4015 C   0  0  2  0  0  0  0  0  0  0  0  0
    3.3897    4.9636    6.7585 O   0  0  0  0  0  0  0  0  0  0  0  0
    3.8744    7.1858    7.5124 C   0  0  0  0  0  0  0  0  0  0  0  0
    2.3879    5.5866    9.6211 C   0  0  2  0  0  0  0  0  0  0  0  0
    3.0957    4.9335   10.7250 N   0  0  0  0  0  0  0  0  0  0  0  0
    1.7218    6.8676   10.1948 C   0  0  0  0  0  0  0  0  0  0  0  0
    0.9856    7.5879    9.0328 C   0  0  2  0  0  0  0  0  0  0  0  0
    0.3424    8.8140    9.5307 N   0  0  0  0  0  0  0  0  0  0  0  0
   -0.0929    6.6663    8.4027 C   0  0  2  0  0  0  0  0  0  0  0  0
    0.5929    5.3667    7.8750 C   0  0  2  0  0  0  0  0  0  0  0  0
   -0.4060    4.5111    7.3034 O   0  0  0  0  0  0  0  0  0  0  0  0
    1.2908    4.6056    9.0282 C   0  0  1  0  0  0  0  0  0  0  0  0
    1.9078    3.4260    8.4559 O   0  0  0  0  0  0  0  0  0  0  0  0
    2.1313    2.3215    9.3635 C   0  0  2  0  0  0  0  0  0  0  0  0
    2.2539    1.0348    8.4654 C   0  0  2  0  0  0  0  0  0  0  0  0
    3.3507    1.1708    7.5756 O   0  0  0  0  0  0  0  0  0  0  0  0
    0.9067    0.8327    7.6735 C   0  0  1  0  0  0  0  0  0  0  0  0
    0.9815   -0.3758    6.7970 N   0  0  0  0  0  0  0  0  0  0  0  0
    0.0556   -0.1987    5.6577 C   0  0  0  0  0  0  0  0  0  0  0  0
   -0.2544    0.6829    8.7030 C   0  0  2  0  0  0  0  0  0  0  0  0
    0.0003   -0.4614    9.5162 O   0  0  0  0  0  0  0  0  0  0  0  0
   -1.6026    0.4908    8.0131 C   0  0  0  0  0  0  0  0  0  0  0  0
   -0.3060    1.9571    9.6057 C   0  0  0  0  0  0  0  0  0  0  0  0
    0.9877    2.1752   10.2863 O   0  0  0  0  0  0  0  0  0  0  0  0
  1  3  1  0  0  0  0
  1  2  1  1  0  0  0
  3  5  1  0  0  0  0
  3  4  1  1  0  0  0
  5  6  1  6  0  0  0
  7  8  1  1  0  0  0
  7  5  1  0  0  0  0
  9 10  1  6  0  0  0
  9  7  1  0  0  0  0
 10  1  1  0  0  0  0
 11 13  1  1  0  0  0
 11  9  1  0  0  0  0
 12 11  1  0  0  0  0
 14 15  1  1  0  0  0
 16 14  1  0  0  0  0
 17 18  1  1  0  0  0
 17 16  1  0  0  0  0
 19  2  1  6  0  0  0
 19 20  1  0  0  0  0
 19 17  1  0  0  0  0
 20 21  1  1  0  0  0
 20 22  1  0  0  0  0
 22 23  1  6  0  0  0
 22 14  1  0  0  0  0
 24 23  1  6  0  0  0
 24 25  1  0  0  0  0
 25 27  1  0  0  0  0
 25 26  1  6  0  0  0
 27 28  1  1  0  0  0
 28 29  1  0  0  0  0
 30 31  1  1  0  0  0
 30 32  1  0  0  0  0
 30 27  1  0  0  0  0
 33 30  1  0  0  0  0
 34 33  1  0  0  0  0
 34 24  1  0  0  0  0
M  END
>  <CHROM.1>
146.87205493,-101.18326478,28.93028241,88.23253443,158.32155264,-153.59855831
1.00597856,4.69825765,7.50536193,-1.65744067,1.18507073,2.91112854

>  <Name>
lig.pdb

>  <RI>
0

>  <Rbt.Current_Directory>
/home/itssahil/PROJECTS/Mol_Feturizer/New_Systems/rnas/4k32

>  <Rbt.Executable>
rbdock ($Id: //depot/dev/client3/rdock/2013.1/src/exe/rbdock.cxx#4 $)

>  <Rbt.Library>
libRbt.so (2013.1, Build901 2013/11/27)

>  <Rbt.Parameter_File>
/export/apps/rDock/src/rDock_2013.1_src/data/scripts/dock_solv.prm

>  <Rbt.Receptor>
prm/blind_docking_20.prm

>  <SCORE>
77.9971

>  <SCORE.INTER>
33.6854

>  <SCORE.INTER.CONST>
1

>  <SCORE.INTER.POLAR>
0

>  <SCORE.INTER.ROT>
6

>  <SCORE.INTER.SOLV>
34.6167

>  <SCORE.INTER.VDW>
3.31803

>  <SCORE.INTER.norm>
0.990748

>  <SCORE.INTRA>
25.2773

>  <SCORE.INTRA.DIHEDRAL>
-0.0127719

>  <SCORE.INTRA.DIHEDRAL.0>
18.0069

>  <SCORE.INTRA.POLAR>
0

>  <SCORE.INTRA.POLAR.0>
0

>  <SCORE.INTRA.REPUL>
0.185013

>  <SCORE.INTRA.REPUL.0>
0

>  <SCORE.INTRA.SOLV>
2.60537

>  <SCORE.INTRA.SOLV.lig_0>
-70.7393

>  <SCORE.INTRA.VDW>
23.0559

>  <SCORE.INTRA.VDW.0>
-3.23471

>  <SCORE.INTRA.norm>
0.74345

>  <SCORE.RESTR>
19.0344

>  <SCORE.RESTR.CAVITY>
19.0344

>  <SCORE.RESTR.norm>
0.559834

>  <SCORE.SYSTEM>
0

>  <SCORE.SYSTEM.CONST>
0

>  <SCORE.SYSTEM.DIHEDRAL>
0

>  <SCORE.SYSTEM.SOLV>
0

>  <SCORE.SYSTEM.norm>
0

>  <SCORE.heavy>
34

>  <SCORE.norm>
2.29403

>  <RMSD>
31.866

$$$$
lig.pdb
 OpenBabel11021811503D
libRbt.so/2013.1/901 2013/11/27
 34 36  0  0  0  0  0  0  0  0999 V2000
   -0.1049    7.9508    6.5624 C   0  0  2  0  0  0  0  0  0  0  0  0
   -0.7219    7.0134    7.4517 O   0  0  0  0  0  0  0  0  0  0  0  0
   -0.8367    7.8679    5.1557 C   0  0  2  0  0  0  0  0  0  0  0  0
   -2.2764    8.2001    5.2635 N   0  0  0  0  0  0  0  0  0  0  0  0
   -0.6659    6.4438    4.5694 C   0  0  1  0  0  0  0  0  0  0  0  0
   -1.3131    6.3517    3.2981 O   0  0  0  0  0  0  0  0  0  0  0  0
    0.8381    6.1379    4.4556 C   0  0  2  0  0  0  0  0  0  0  0  0
    1.0101    4.8281    3.9123 O   0  0  0  0  0  0  0  0  0  0  0  0
    1.5124    6.2508    5.8765 C   0  0  2  0  0  0  0  0  0  0  0  0
    1.3147    7.6017    6.4441 O   0  0  0  0  0  0  0  0  0  0  0  0
    3.0336    5.9669    5.8097 C   0  0  2  0  0  0  0  0  0  0  0  0
    3.7094    6.7064    6.8286 O   0  0  0  0  0  0  0  0  0  0  0  0
    3.6081    6.3648    4.4590 C   0  0  0  0  0  0  0  0  0  0  0  0
    2.8367    6.0461    9.6237 C   0  0  2  0  0  0  0  0  0  0  0  0
    3.7348    5.6579   10.7140 N   0  0  0  0  0  0  0  0  0  0  0  0
    1.9705    7.2284   10.1392 C   0  0  0  0  0  0  0  0  0  0  0  0
    1.0273    7.6707    8.9878 C   0  0  2  0  0  0  0  0  0  0  0  0
    0.1892    8.7959    9.4309 N   0  0  0  0  0  0  0  0  0  0  0  0
    0.1125    6.4999    8.5384 C   0  0  2  0  0  0  0  0  0  0  0  0
    1.0047    5.3079    8.0684 C   0  0  2  0  0  0  0  0  0  0  0  0
    0.1588    4.2227    7.6643 O   0  0  0  0  0  0  0  0  0  0  0  0
    1.9181    4.8175    9.2181 C   0  0  1  0  0  0  0  0  0  0  0  0
    2.7162    3.7249    8.6994 O   0  0  0  0  0  0  0  0  0  0  0  0
    2.7340    2.5167    9.4953 C   0  0  2  0  0  0  0  0  0  0  0  0
    2.5700    1.3230    8.4827 C   0  0  2  0  0  0  0  0  0  0  0  0
    3.6486    1.3213    7.5609 O   0  0  0  0  0  0  0  0  0  0  0  0
    1.1902    1.4704    7.7363 C   0  0  1  0  0  0  0  0  0  0  0  0
    0.9958    0.3603    6.7543 N   0  0  0  0  0  0  0  0  0  0  0  0
    1.0862   -0.9315    7.4682 C   0  0  0  0  0  0  0  0  0  0  0  0
    0.0494    1.4580    8.7989 C   0  0  2  0  0  0  0  0  0  0  0  0
    0.0871    0.2138    9.4960 O   0  0  0  0  0  0  0  0  0  0  0  0
   -1.3269    1.6056    8.1550 C   0  0  0  0  0  0  0  0  0  0  0  0
    0.2804    2.6250    9.8117 C   0  0  0  0  0  0  0  0  0  0  0  0
    1.6083    2.5146   10.4512 O   0  0  0  0  0  0  0  0  0  0  0  0
  1  3  1  0  0  0  0
  1  2  1  1  0  0  0
  3  5  1  0  0  0  0
  3  4  1  1  0  0  0
  5  6  1  6  0  0  0
  7  8  1  1  0  0  0
  7  5  1  0  0  0  0
  9 10  1  6  0  0  0
  9  7  1  0  0  0  0
 10  1  1  0  0  0  0
 11 13  1  6  0  0  0
 11  9  1  0  0  0  0
 12 11  1  0  0  0  0
 14 15  1  1  0  0  0
 16 14  1  0  0  0  0
 17 18  1  1  0  0  0
 17 16  1  0  0  0  0
 19  2  1  6  0  0  0
 19 20  1  0  0  0  0
 19 17  1  0  0  0  0
 20 21  1  1  0  0  0
 20 22  1  0  0  0  0
 22 23  1  6  0  0  0
 22 14  1  0  0  0  0
 24 23  1  6  0  0  0
 24 25  1  0  0  0  0
 25 27  1  0  0  0  0
 25 26  1  6  0  0  0
 27 28  1  6  0  0  0
 28 29  1  0  0  0  0
 30 31  1  1  0  0  0
 30 32  1  0  0  0  0
 30 27  1  0  0  0  0
 33 30  1  0  0  0  0
 34 33  1  0  0  0  0
 34 24  1  0  0  0  0
M  END
>  <CHROM.1>
153.69536812,149.94351263,35.83864099,114.06140307,136.18001993,57.20427615
1.11455973,4.73428528,7.49253864,-1.94587964,1.11540021,3.05514435

>  <Name>
lig.pdb

>  <RI>
0

>  <Rbt.Current_Directory>
/home/itssahil/PROJECTS/Mol_Feturizer/New_Systems/rnas/4k32

>  <Rbt.Executable>
rbdock ($Id: //depot/dev/client3/rdock/2013.1/src/exe/rbdock.cxx#4 $)

>  <Rbt.Library>
libRbt.so (2013.1, Build901 2013/11/27)

>  <Rbt.Parameter_File>
/export/apps/rDock/src/rDock_2013.1_src/data/scripts/dock_solv.prm

>  <Rbt.Receptor>
prm/blind_docking_20.prm

>  <SCORE>
76.7444

>  <SCORE.INTER>
30.9802

>  <SCORE.INTER.CONST>
1

>  <SCORE.INTER.POLAR>
0

>  <SCORE.INTER.ROT>
6

>  <SCORE.INTER.SOLV>
35.5089

>  <SCORE.INTER.VDW>
1.21715

>  <SCORE.INTER.norm>
0.911182

>  <SCORE.INTRA>
27.5374

>  <SCORE.INTRA.DIHEDRAL>
3.06602

>  <SCORE.INTRA.DIHEDRAL.0>
18.0069

>  <SCORE.INTRA.POLAR>
0

>  <SCORE.INTRA.POLAR.0>
0

>  <SCORE.INTRA.REPUL>
0

>  <SCORE.INTRA.REPUL.0>
0

>  <SCORE.INTRA.SOLV>
1.64768

>  <SCORE.INTRA.SOLV.lig_0>
-70.7393

>  <SCORE.INTRA.VDW>
25.1805

>  <SCORE.INTRA.VDW.0>
-3.23471

>  <SCORE.INTRA.norm>
0.809923

>  <SCORE.RESTR>
18.2268

>  <SCORE.RESTR.CAVITY>
18.2268

>  <SCORE.RESTR.norm>
0.536082

>  <SCORE.SYSTEM>
0

>  <SCORE.SYSTEM.CONST>
0

>  <SCORE.SYSTEM.DIHEDRAL>
0

>  <SCORE.SYSTEM.SOLV>
0

>  <SCORE.SYSTEM.norm>
0

>  <SCORE.heavy>
34

>  <SCORE.norm>
2.25719

>  <RMSD>
31.909

$$$$
lig.pdb
 OpenBabel11021811503D
libRbt.so/2013.1/901 2013/11/27
 34 36  0  0  0  0  0  0  0  0999 V2000
    0.3807    5.2964    8.5283 C   0  0  2  0  0  0  0  0  0  0  0  0
    0.8602    5.6181    7.2180 O   0  0  0  0  0  0  0  0  0  0  0  0
    1.3031    6.0254    9.5955 C   0  0  2  0  0  0  0  0  0  0  0  0
    1.2752    7.4978    9.4333 N   0  0  0  0  0  0  0  0  0  0  0  0
    2.7569    5.5068    9.4596 C   0  0  1  0  0  0  0  0  0  0  0  0
    3.6019    6.1474   10.4183 O   0  0  0  0  0  0  0  0  0  0  0  0
    2.7520    3.9795    9.6496 C   0  0  2  0  0  0  0  0  0  0  0  0
    4.0880    3.4883    9.5304 O   0  0  0  0  0  0  0  0  0  0  0  0
    1.8095    3.3135    8.5752 C   0  0  2  0  0  0  0  0  0  0  0  0
    0.4324    3.8395    8.6886 O   0  0  0  0  0  0  0  0  0  0  0  0
    1.7591    1.7739    8.7374 C   0  0  2  0  0  0  0  0  0  0  0  0
    3.0840    1.2398    8.7027 O   0  0  0  0  0  0  0  0  0  0  0  0
    0.9468    1.1302    7.6245 C   0  0  0  0  0  0  0  0  0  0  0  0
   -0.5734    7.9456    3.9249 C   0  0  2  0  0  0  0  0  0  0  0  0
   -1.4639    8.5099    2.9077 N   0  0  0  0  0  0  0  0  0  0  0  0
   -0.6751    6.3989    3.8192 C   0  0  0  0  0  0  0  0  0  0  0  0
    0.2816    5.7813    4.8749 C   0  0  2  0  0  0  0  0  0  0  0  0
    0.2220    4.3127    4.8069 N   0  0  0  0  0  0  0  0  0  0  0  0
   -0.1009    6.2411    6.3074 C   0  0  2  0  0  0  0  0  0  0  0  0
   -0.0361    7.7995    6.3764 C   0  0  2  0  0  0  0  0  0  0  0  0
   -0.4007    8.2237    7.6969 O   0  0  0  0  0  0  0  0  0  0  0  0
   -1.0208    8.4364    5.3659 C   0  0  1  0  0  0  0  0  0  0  0  0
   -0.8914    9.8748    5.4849 O   0  0  0  0  0  0  0  0  0  0  0  0
   -2.0516   10.5782    5.9879 C   0  0  2  0  0  0  0  0  0  0  0  0
   -1.7980   12.1043    5.6979 C   0  0  2  0  0  0  0  0  0  0  0  0
   -1.6624   12.3134    4.3011 O   0  0  0  0  0  0  0  0  0  0  0  0
   -0.5005   12.5627    6.4655 C   0  0  1  0  0  0  0  0  0  0  0  0
   -0.2146   14.0075    6.2103 N   0  0  0  0  0  0  0  0  0  0  0  0
    1.2501   14.2025    6.1526 C   0  0  0  0  0  0  0  0  0  0  0  0
   -0.7143   12.3151    7.9898 C   0  0  2  0  0  0  0  0  0  0  0  0
   -1.8295   13.0901    8.4272 O   0  0  0  0  0  0  0  0  0  0  0  0
    0.5068   12.7272    8.8080 C   0  0  0  0  0  0  0  0  0  0  0  0
   -1.0140   10.7999    8.2253 C   0  0  0  0  0  0  0  0  0  0  0  0
   -2.1904   10.3660    7.4426 O   0  0  0  0  0  0  0  0  0  0  0  0
  1  3  1  0  0  0  0
  1  2  1  6  0  0  0
  3  5  1  0  0  0  0
  3  4  1  6  0  0  0
  5  6  1  1  0  0  0
  7  8  1  6  0  0  0
  7  5  1  0  0  0  0
  9 10  1  1  0  0  0
  9  7  1  0  0  0  0
 10  1  1  0  0  0  0
 11 13  1  6  0  0  0
 11  9  1  0  0  0  0
 12 11  1  0  0  0  0
 14 15  1  6  0  0  0
 16 14  1  0  0  0  0
 17 18  1  1  0  0  0
 17 16  1  0  0  0  0
 19  2  1  1  0  0  0
 19 20  1  0  0  0  0
 19 17  1  0  0  0  0
 20 21  1  1  0  0  0
 20 22  1  0  0  0  0
 22 23  1  6  0  0  0
 22 14  1  0  0  0  0
 24 23  1  1  0  0  0
 24 25  1  0  0  0  0
 25 27  1  0  0  0  0
 25 26  1  6  0  0  0
 27 28  1  1  0  0  0
 28 29  1  0  0  0  0
 30 31  1  1  0  0  0
 30 32  1  0  0  0  0
 30 27  1  0  0  0  0
 33 30  1  0  0  0  0
 34 33  1  0  0  0  0
 34 24  1  0  0  0  0
M  END
>  <CHROM.1>
-123.04737119,-54.78636862,-148.68143020,129.64863196,-166.64002612,-144.49023498
0.31421064,7.74912406,7.18611034,-0.90919053,-1.04436200,0.35101771

>  <Name>
lig.pdb

>  <RI>
0

>  <Rbt.Current_Directory>
/home/itssahil/PROJECTS/Mol_Feturizer/New_Systems/rnas/4k32

>  <Rbt.Executable>
rbdock ($Id: //depot/dev/client3/rdock/2013.1/src/exe/rbdock.cxx#4 $)

>  <Rbt.Library>
libRbt.so (2013.1, Build901 2013/11/27)

>  <Rbt.Parameter_File>
/export/apps/rDock/src/rDock_2013.1_src/data/scripts/dock_solv.prm

>  <Rbt.Receptor>
prm/blind_docking_60.prm

>  <SCORE>
-2.26706

>  <SCORE.INTER>
-7.33825

>  <SCORE.INTER.CONST>
1

>  <SCORE.INTER.POLAR>
0

>  <SCORE.INTER.ROT>
6

>  <SCORE.INTER.SOLV>
24.5344

>  <SCORE.INTER.VDW>
-20.6703

>  <SCORE.INTER.norm>
-0.215831

>  <SCORE.INTRA>
2.8627

>  <SCORE.INTRA.DIHEDRAL>
1.43843

>  <SCORE.INTRA.DIHEDRAL.0>
18.0069

>  <SCORE.INTRA.POLAR>
0

>  <SCORE.INTRA.POLAR.0>
0

>  <SCORE.INTRA.REPUL>
0

>  <SCORE.INTRA.REPUL.0>
0

>  <SCORE.INTRA.SOLV>
0.53404

>  <SCORE.INTRA.SOLV.lig_0>
-70.7393

>  <SCORE.INTRA.VDW>
1.87646

>  <SCORE.INTRA.VDW.0>
-3.23471

>  <SCORE.INTRA.norm>
0.0841971

>  <SCORE.RESTR>
2.20849

>  <SCORE.RESTR.CAVITY>
2.20849

>  <SCORE.RESTR.norm>
0.0649555

>  <SCORE.SYSTEM>
0

>  <SCORE.SYSTEM.CONST>
0

>  <SCORE.SYSTEM.DIHEDRAL>
0

>  <SCORE.SYSTEM.SOLV>
0

>  <SCORE.SYSTEM.norm>
0

>  <SCORE.heavy>
34

>  <SCORE.norm>
-0.0666783

>  <RMSD>
31.917

$$$$
lig.pdb
 OpenBabel11021811503D
libRbt.so/2013.1/901 2013/11/27
 34 36  0  0  0  0  0  0  0  0999 V2000
   -0.0582    7.9284    6.6025 C   0  0  2  0  0  0  0  0  0  0  0  0
   -0.6623    6.9811    7.4902 O   0  0  0  0  0  0  0  0  0  0  0  0
   -0.8019    7.8517    5.2017 C   0  0  2  0  0  0  0  0  0  0  0  0
   -2.2425    8.1753    5.3246 N   0  0  0  0  0  0  0  0  0  0  0  0
   -0.6287    6.4329    4.6035 C   0  0  1  0  0  0  0  0  0  0  0  0
   -1.2865    6.3466    3.3373 O   0  0  0  0  0  0  0  0  0  0  0  0
    0.8759    6.1361    4.4742 C   0  0  2  0  0  0  0  0  0  0  0  0
    1.0502    4.8312    3.9198 O   0  0  0  0  0  0  0  0  0  0  0  0
    1.5621    6.2424    5.8899 C   0  0  2  0  0  0  0  0  0  0  0  0
    1.3621    7.5879    6.4691 O   0  0  0  0  0  0  0  0  0  0  0  0
    3.0842    5.9673    5.8076 C   0  0  2  0  0  0  0  0  0  0  0  0
    3.7671    6.7189    6.8128 O   0  0  0  0  0  0  0  0  0  0  0  0
    3.6405    6.3580    4.4473 C   0  0  0  0  0  0  0  0  0  0  0  0
    2.9111    6.0386    9.6488 C   0  0  2  0  0  0  0  0  0  0  0  0
    3.8163    5.6592   10.7364 N   0  0  0  0  0  0  0  0  0  0  0  0
    2.0427    7.2197   10.1632 C   0  0  0  0  0  0  0  0  0  0  0  0
    1.0919    7.6528    9.0145 C   0  0  2  0  0  0  0  0  0  0  0  0
    0.2514    8.7766    9.4565 N   0  0  0  0  0  0  0  0  0  0  0  0
    0.1797    6.4761    8.5751 C   0  0  2  0  0  0  0  0  0  0  0  0
    1.0744    5.2857    8.1062 C   0  0  2  0  0  0  0  0  0  0  0  0
    0.2309    4.1952    7.7115 O   0  0  0  0  0  0  0  0  0  0  0  0
    1.9955    4.8044    9.2535 C   0  0  1  0  0  0  0  0  0  0  0  0
    2.7955    3.7127    8.7359 O   0  0  0  0  0  0  0  0  0  0  0  0
    2.8043    2.5005    9.5260 C   0  0  2  0  0  0  0  0  0  0  0  0
    2.6120    1.3141    8.5097 C   0  0  2  0  0  0  0  0  0  0  0  0
    3.6804    1.3012    7.5762 O   0  0  0  0  0  0  0  0  0  0  0  0
    1.2264    1.4851    7.7791 C   0  0  1  0  0  0  0  0  0  0  0  0
    1.0053    0.3827    6.7942 N   0  0  0  0  0  0  0  0  0  0  0  0
    0.1912    0.8990    5.6729 C   0  0  0  0  0  0  0  0  0  0  0  0
    0.0972    1.4842    8.8540 C   0  0  2  0  0  0  0  0  0  0  0  0
    0.1244    0.2363    9.5449 O   0  0  0  0  0  0  0  0  0  0  0  0
   -1.2837    1.6549    8.2258 C   0  0  0  0  0  0  0  0  0  0  0  0
    0.3561    2.6429    9.8697 C   0  0  0  0  0  0  0  0  0  0  0  0
    1.6892    2.5101   10.4941 O   0  0  0  0  0  0  0  0  0  0  0  0
  1  3  1  0  0  0  0
  1  2  1  1  0  0  0
  3  5  1  0  0  0  0
  3  4  1  1  0  0  0
  5  6  1  6  0  0  0
  7  8  1  1  0  0  0
  7  5  1  0  0  0  0
  9 10  1  6  0  0  0
  9  7  1  0  0  0  0
 10  1  1  0  0  0  0
 11 13  1  6  0  0  0
 11  9  1  0  0  0  0
 12 11  1  0  0  0  0
 14 15  1  1  0  0  0
 16 14  1  0  0  0  0
 17 18  1  1  0  0  0
 17 16  1  0  0  0  0
 19  2  1  6  0  0  0
 19 20  1  0  0  0  0
 19 17  1  0  0  0  0
 20 21  1  1  0  0  0
 20 22  1  0  0  0  0
 22 23  1  6  0  0  0
 22 14  1  0  0  0  0
 24 23  1  6  0  0  0
 24 25  1  0  0  0  0
 25 27  1  0  0  0  0
 25 26  1  6  0  0  0
 27 28  1  6  0  0  0
 28 29  1  0  0  0  0
 30 31  1  1  0  0  0
 30 32  1  0  0  0  0
 30 27  1  0  0  0  0
 33 30  1  0  0  0  0
 34 33  1  0  0  0  0
 34 24  1  0  0  0  0
M  END
>  <CHROM.1>
154.38780766,149.05956175,35.15544991,115.05777071,134.88046320,-149.06189038
1.13803754,4.78615060,7.46715680,-1.96666003,1.10998460,3.03297560

>  <Name>
lig.pdb

>  <RI>
0

>  <Rbt.Current_Directory>
/home/itssahil/PROJECTS/Mol_Feturizer/New_Systems/rnas/4k32

>  <Rbt.Executable>
rbdock ($Id: //depot/dev/client3/rdock/2013.1/src/exe/rbdock.cxx#4 $)

>  <Rbt.Library>
libRbt.so (2013.1, Build901 2013/11/27)

>  <Rbt.Parameter_File>
/export/apps/rDock/src/rDock_2013.1_src/data/scripts/dock_solv.prm

>  <Rbt.Receptor>
prm/blind_docking_20.prm

>  <SCORE>
73.4158

>  <SCORE.INTER>
32.901

>  <SCORE.INTER.CONST>
1

>  <SCORE.INTER.POLAR>
0

>  <SCORE.INTER.ROT>
6

>  <SCORE.INTER.SOLV>
36.1179

>  <SCORE.INTER.VDW>
2.29472

>  <SCORE.INTER.norm>
0.967678

>  <SCORE.INTRA>
22.0444

>  <SCORE.INTRA.DIHEDRAL>
4.03902

>  <SCORE.INTRA.DIHEDRAL.0>
18.0069

>  <SCORE.INTRA.POLAR>
0

>  <SCORE.INTRA.POLAR.0>
0

>  <SCORE.INTRA.REPUL>
0

>  <SCORE.INTRA.REPUL.0>
0

>  <SCORE.INTRA.SOLV>
1.43271

>  <SCORE.INTRA.SOLV.lig_0>
-70.7393

>  <SCORE.INTRA.VDW>
19.3085

>  <SCORE.INTRA.VDW.0>
-3.23471

>  <SCORE.INTRA.norm>
0.648364

>  <SCORE.RESTR>
18.4704

>  <SCORE.RESTR.CAVITY>
18.4704

>  <SCORE.RESTR.norm>
0.543246

>  <SCORE.SYSTEM>
0

>  <SCORE.SYSTEM.CONST>
0

>  <SCORE.SYSTEM.DIHEDRAL>
0

>  <SCORE.SYSTEM.SOLV>
0

>  <SCORE.SYSTEM.norm>
0

>  <SCORE.heavy>
34

>  <SCORE.norm>
2.15929

>  <RMSD>
31.923

$$$$
lig.pdb
 OpenBabel11021811503D
libRbt.so/2013.1/901 2013/11/27
 34 36  0  0  0  0  0  0  0  0999 V2000
    0.3725    5.2844    8.5318 C   0  0  2  0  0  0  0  0  0  0  0  0
    0.8481    5.5823    7.2145 O   0  0  0  0  0  0  0  0  0  0  0  0
    1.3068    6.0208    9.5835 C   0  0  2  0  0  0  0  0  0  0  0  0
    1.2912    7.4908    9.3996 N   0  0  0  0  0  0  0  0  0  0  0  0
    2.7552    5.4872    9.4481 C   0  0  1  0  0  0  0  0  0  0  0  0
    3.6108    6.1343   10.3929 O   0  0  0  0  0  0  0  0  0  0  0  0
    2.7377    3.9630    9.6608 C   0  0  2  0  0  0  0  0  0  0  0  0
    4.0686    3.4580    9.5423 O   0  0  0  0  0  0  0  0  0  0  0  0
    1.7838    3.2896    8.6011 C   0  0  2  0  0  0  0  0  0  0  0  0
    0.4120    3.8296    8.7135 O   0  0  0  0  0  0  0  0  0  0  0  0
    1.7205    1.7531    8.7864 C   0  0  2  0  0  0  0  0  0  0  0  0
    3.0423    1.2104    8.7857 O   0  0  0  0  0  0  0  0  0  0  0  0
    0.9257    1.0968    7.6682 C   0  0  0  0  0  0  0  0  0  0  0  0
   -0.5726    7.9196    3.9229 C   0  0  2  0  0  0  0  0  0  0  0  0
   -1.4592    8.4872    2.9041 N   0  0  0  0  0  0  0  0  0  0  0  0
   -0.6747    6.3732    3.8126 C   0  0  0  0  0  0  0  0  0  0  0  0
    0.2779    5.7522    4.8699 C   0  0  2  0  0  0  0  0  0  0  0  0
    0.2178    4.2839    4.7976 N   0  0  0  0  0  0  0  0  0  0  0  0
   -0.1094    6.2082    6.3023 C   0  0  2  0  0  0  0  0  0  0  0  0
   -0.0441    7.7665    6.3758 C   0  0  2  0  0  0  0  0  0  0  0  0
   -0.4131    8.1872    7.6962 O   0  0  0  0  0  0  0  0  0  0  0  0
   -1.0249    8.4067    5.3637 C   0  0  1  0  0  0  0  0  0  0  0  0
   -0.8952    9.8446    5.4871 O   0  0  0  0  0  0  0  0  0  0  0  0
   -2.0588   10.5479    5.9823 C   0  0  2  0  0  0  0  0  0  0  0  0
   -1.8108   12.0724    5.6791 C   0  0  2  0  0  0  0  0  0  0  0  0
   -1.6742   12.2697    4.2807 O   0  0  0  0  0  0  0  0  0  0  0  0
   -0.5162   12.5427    6.4443 C   0  0  1  0  0  0  0  0  0  0  0  0
   -0.2355   13.9863    6.1767 N   0  0  0  0  0  0  0  0  0  0  0  0
    1.2284   14.1948    6.1640 C   0  0  0  0  0  0  0  0  0  0  0  0
   -0.7310   12.3077    7.9705 C   0  0  2  0  0  0  0  0  0  0  0  0
   -1.8498   13.0822    8.3995 O   0  0  0  0  0  0  0  0  0  0  0  0
    0.4875   12.7319    8.7865 C   0  0  0  0  0  0  0  0  0  0  0  0
   -1.0250   10.7935    8.2190 C   0  0  0  0  0  0  0  0  0  0  0  0
   -2.1987   10.3481    7.4387 O   0  0  0  0  0  0  0  0  0  0  0  0
  1  3  1  0  0  0  0
  1  2  1  6  0  0  0
  3  5  1  0  0  0  0
  3  4  1  6  0  0  0
  5  6  1  1  0  0  0
  7  8  1  6  0  0  0
  7  5  1  0  0  0  0
  9 10  1  1  0  0  0
  9  7  1  0  0  0  0
 10  1  1  0  0  0  0
 11 13  1  6  0  0  0
 11  9  1  0  0  0  0
 12 11  1  0  0  0  0
 14 15  1  6  0  0  0
 16 14  1  0  0  0  0
 17 18  1  1  0  0  0
 17 16  1  0  0  0  0
 19  2  1  1  0  0  0
 19 20  1  0  0  0  0
 19 17  1  0  0  0  0
 20 21  1  1  0  0  0
 20 22  1  0  0  0  0
 22 23  1  6  0  0  0
 22 14  1  0  0  0  0
 24 23  1  1  0  0  0
 24 25  1  0  0  0  0
 25 27  1  0  0  0  0
 25 26  1  6  0  0  0
 27 28  1  1  0  0  0
 28 29  1  0  0  0  0
 30 31  1  1  0  0  0
 30 32  1  0  0  0  0
 30 27  1  0  0  0  0
 33 30  1  0  0  0  0
 34 33  1  0  0  0  0
 34 24  1  0  0  0  0
M  END
>  <CHROM.1>
-122.66391817,-53.38156733,-150.02509069,129.38458411,-165.83968192,-146.36024598
0.30287841,7.72722576,7.18546772,-0.91064492,-1.04523796,0.34619646

>  <Name>
lig.pdb

>  <RI>
0

>  <Rbt.Current_Directory>
/home/itssahil/PROJECTS/Mol_Feturizer/New_Systems/rnas/4k32

>  <Rbt.Executable>
rbdock ($Id: //depot/dev/client3/rdock/2013.1/src/exe/rbdock.cxx#4 $)

>  <Rbt.Library>
libRbt.so (2013.1, Build901 2013/11/27)

>  <Rbt.Parameter_File>
/export/apps/rDock/src/rDock_2013.1_src/data/scripts/dock_solv.prm

>  <Rbt.Receptor>
prm/blind_docking_60.prm

>  <SCORE>
-2.30941

>  <SCORE.INTER>
-7.51491

>  <SCORE.INTER.CONST>
1

>  <SCORE.INTER.POLAR>
0

>  <SCORE.INTER.ROT>
6

>  <SCORE.INTER.SOLV>
24.3638

>  <SCORE.INTER.VDW>
-20.7312

>  <SCORE.INTER.norm>
-0.221027

>  <SCORE.INTRA>
2.94764

>  <SCORE.INTRA.DIHEDRAL>
1.32426

>  <SCORE.INTRA.DIHEDRAL.0>
18.0069

>  <SCORE.INTRA.POLAR>
0

>  <SCORE.INTRA.POLAR.0>
0

>  <SCORE.INTRA.REPUL>
0

>  <SCORE.INTRA.REPUL.0>
0

>  <SCORE.INTRA.SOLV>
0.519215

>  <SCORE.INTRA.SOLV.lig_0>
-70.7393

>  <SCORE.INTRA.VDW>
2.02591

>  <SCORE.INTRA.VDW.0>
-3.23471

>  <SCORE.INTRA.norm>
0.0866954

>  <SCORE.RESTR>
2.25786

>  <SCORE.RESTR.CAVITY>
2.25786

>  <SCORE.RESTR.norm>
0.0664075

>  <SCORE.SYSTEM>
0

>  <SCORE.SYSTEM.CONST>
0

>  <SCORE.SYSTEM.DIHEDRAL>
0

>  <SCORE.SYSTEM.SOLV>
0

>  <SCORE.SYSTEM.norm>
0

>  <SCORE.heavy>
34

>  <SCORE.norm>
-0.0679237

>  <RMSD>
31.924

$$$$
lig.pdb
 OpenBabel11021811503D
libRbt.so/2013.1/901 2013/11/27
 34 36  0  0  0  0  0  0  0  0999 V2000
   -0.9604    8.4946    5.2479 C   0  0  2  0  0  0  0  0  0  0  0  0
   -1.8783    7.9664    6.2115 O   0  0  0  0  0  0  0  0  0  0  0  0
   -1.4106    8.0100    3.8044 C   0  0  2  0  0  0  0  0  0  0  0  0
   -2.7727    8.4833    3.4645 N   0  0  0  0  0  0  0  0  0  0  0  0
   -1.3582    6.4627    3.7410 C   0  0  1  0  0  0  0  0  0  0  0  0
   -1.7540    6.0074    2.4451 O   0  0  0  0  0  0  0  0  0  0  0  0
    0.0715    6.0065    4.0823 C   0  0  2  0  0  0  0  0  0  0  0  0
    0.1348    4.5806    4.0238 O   0  0  0  0  0  0  0  0  0  0  0  0
    0.4680    6.5291    5.5162 C   0  0  2  0  0  0  0  0  0  0  0  0
    0.3815    8.0037    5.5785 O   0  0  0  0  0  0  0  0  0  0  0  0
    1.9087    6.1077    5.8981 C   0  0  2  0  0  0  0  0  0  0  0  0
    1.8764    4.8815    6.6308 O   0  0  0  0  0  0  0  0  0  0  0  0
    2.5825    7.1679    6.7553 C   0  0  0  0  0  0  0  0  0  0  0  0
    1.0824    7.2113    9.2082 C   0  0  2  0  0  0  0  0  0  0  0  0
    1.7126    6.9917   10.5123 N   0  0  0  0  0  0  0  0  0  0  0  0
    0.2729    8.5339    9.3047 C   0  0  0  0  0  0  0  0  0  0  0  0
   -0.3838    8.7972    7.9225 C   0  0  2  0  0  0  0  0  0  0  0  0
   -1.1588   10.0471    7.9658 N   0  0  0  0  0  0  0  0  0  0  0  0
   -1.3237    7.6283    7.5226 C   0  0  2  0  0  0  0  0  0  0  0  0
   -0.4984    6.3038    7.4770 C   0  0  2  0  0  0  0  0  0  0  0  0
   -1.3700    5.2229    7.1186 O   0  0  0  0  0  0  0  0  0  0  0  0
    0.1242    5.9955    8.8604 C   0  0  1  0  0  0  0  0  0  0  0  0
    0.8779    4.7647    8.7301 O   0  0  0  0  0  0  0  0  0  0  0  0
    0.6867    3.7878    9.7803 C   0  0  2  0  0  0  0  0  0  0  0  0
    1.9842    2.8969    9.7909 C   0  0  2  0  0  0  0  0  0  0  0  0
    3.1193    3.7019   10.0678 O   0  0  0  0  0  0  0  0  0  0  0  0
    2.1264    2.1826    8.3937 C   0  0  1  0  0  0  0  0  0  0  0  0
    3.3543    1.3310    8.3546 N   0  0  0  0  0  0  0  0  0  0  0  0
    4.5178    2.1837    8.0294 C   0  0  0  0  0  0  0  0  0  0  0  0
    0.8564    1.3112    8.1522 C   0  0  2  0  0  0  0  0  0  0  0  0
    0.7709    0.3312    9.1855 O   0  0  0  0  0  0  0  0  0  0  0  0
    0.9117    0.5884    6.8087 C   0  0  0  0  0  0  0  0  0  0  0  0
   -0.4092    2.2260    8.2017 C   0  0  0  0  0  0  0  0  0  0  0  0
   -0.4911    2.9455    9.4902 O   0  0  0  0  0  0  0  0  0  0  0  0
  1  3  1  0  0  0  0
  1  2  1  1  0  0  0
  3  5  1  0  0  0  0
  3  4  1  1  0  0  0
  5  6  1  6  0  0  0
  7  8  1  1  0  0  0
  7  5  1  0  0  0  0
  9 10  1  6  0  0  0
  9  7  1  0  0  0  0
 10  1  1  0  0  0  0
 11 13  1  1  0  0  0
 11  9  1  0  0  0  0
 12 11  1  0  0  0  0
 14 15  1  1  0  0  0
 16 14  1  0  0  0  0
 17 18  1  1  0  0  0
 17 16  1  0  0  0  0
 19  2  1  6  0  0  0
 19 20  1  0  0  0  0
 19 17  1  0  0  0  0
 20 21  1  1  0  0  0
 20 22  1  0  0  0  0
 22 23  1  6  0  0  0
 22 14  1  0  0  0  0
 24 23  1  6  0  0  0
 24 25  1  0  0  0  0
 25 27  1  0  0  0  0
 25 26  1  6  0  0  0
 27 28  1  1  0  0  0
 28 29  1  0  0  0  0
 30 31  1  1  0  0  0
 30 32  1  0  0  0  0
 30 27  1  0  0  0  0
 33 30  1  0  0  0  0
 34 33  1  0  0  0  0
 34 24  1  0  0  0  0
M  END
>  <CHROM.1>
146.76657133,-93.37520587,43.70928792,109.59185606,-155.75083728,-82.82645258
0.42233894,5.36083693,7.17789244,-2.75342359,1.12396904,-2.55544755

>  <Name>
lig.pdb

>  <RI>
0

>  <Rbt.Current_Directory>
/home/itssahil/PROJECTS/Mol_Feturizer/New_Systems/rnas/4k32

>  <Rbt.Executable>
rbdock ($Id: //depot/dev/client3/rdock/2013.1/src/exe/rbdock.cxx#4 $)

>  <Rbt.Library>
libRbt.so (2013.1, Build901 2013/11/27)

>  <Rbt.Parameter_File>
/export/apps/rDock/src/rDock_2013.1_src/data/scripts/dock_solv.prm

>  <Rbt.Receptor>
prm/blind_docking_20.prm

>  <SCORE>
79.2704

>  <SCORE.INTER>
27.4839

>  <SCORE.INTER.CONST>
1

>  <SCORE.INTER.POLAR>
0

>  <SCORE.INTER.ROT>
6

>  <SCORE.INTER.SOLV>
26.4942

>  <SCORE.INTER.VDW>
1.8912

>  <SCORE.INTER.norm>
0.80835

>  <SCORE.INTRA>
23.5165

>  <SCORE.INTRA.DIHEDRAL>
0.129393

>  <SCORE.INTRA.DIHEDRAL.0>
18.0069

>  <SCORE.INTRA.POLAR>
0

>  <SCORE.INTRA.POLAR.0>
0

>  <SCORE.INTRA.REPUL>
0.0338062

>  <SCORE.INTRA.REPUL.0>
0

>  <SCORE.INTRA.SOLV>
2.60812

>  <SCORE.INTRA.SOLV.lig_0>
-70.7393

>  <SCORE.INTRA.VDW>
21.9787

>  <SCORE.INTRA.VDW.0>
-3.23471

>  <SCORE.INTRA.norm>
0.691661

>  <SCORE.RESTR>
28.27

>  <SCORE.RESTR.CAVITY>
28.27

>  <SCORE.RESTR.norm>
0.831471

>  <SCORE.SYSTEM>
0

>  <SCORE.SYSTEM.CONST>
0

>  <SCORE.SYSTEM.DIHEDRAL>
0

>  <SCORE.SYSTEM.SOLV>
0

>  <SCORE.SYSTEM.norm>
0

>  <SCORE.heavy>
34

>  <SCORE.norm>
2.33148

>  <RMSD>
31.938

$$$$
lig.pdb
 OpenBabel11021811503D
libRbt.so/2013.1/901 2013/11/27
 34 36  0  0  0  0  0  0  0  0999 V2000
    1.9020    5.7836    8.2960 C   0  0  2  0  0  0  0  0  0  0  0  0
    1.7587    5.7325    6.8723 O   0  0  0  0  0  0  0  0  0  0  0  0
    3.4232    5.5101    8.6595 C   0  0  2  0  0  0  0  0  0  0  0  0
    4.3234    6.5225    8.0600 N   0  0  0  0  0  0  0  0  0  0  0  0
    3.8226    4.0943    8.1728 C   0  0  1  0  0  0  0  0  0  0  0  0
    5.1887    3.8268    8.4978 O   0  0  0  0  0  0  0  0  0  0  0  0
    2.8802    3.0677    8.8261 C   0  0  2  0  0  0  0  0  0  0  0  0
    3.2400    1.7564    8.3884 O   0  0  0  0  0  0  0  0  0  0  0  0
    1.3867    3.3986    8.4436 C   0  0  2  0  0  0  0  0  0  0  0  0
    1.0246    4.7640    8.8803 O   0  0  0  0  0  0  0  0  0  0  0  0
    0.3973    2.3995    9.0933 C   0  0  2  0  0  0  0  0  0  0  0  0
    0.6820    2.2736   10.4878 O   0  0  0  0  0  0  0  0  0  0  0  0
    0.5023    1.0254    8.4503 C   0  0  0  0  0  0  0  0  0  0  0  0
   -0.8218    8.0307    4.3472 C   0  0  2  0  0  0  0  0  0  0  0  0
   -2.0255    8.5212    3.6714 N   0  0  0  0  0  0  0  0  0  0  0  0
   -0.7544    6.4964    4.1120 C   0  0  0  0  0  0  0  0  0  0  0  0
    0.5297    5.9607    4.8013 C   0  0  2  0  0  0  0  0  0  0  0  0
    0.6379    4.5073    4.5990 N   0  0  0  0  0  0  0  0  0  0  0  0
    0.5104    6.2633    6.3236 C   0  0  2  0  0  0  0  0  0  0  0  0
    0.3961    7.8061    6.5348 C   0  0  2  0  0  0  0  0  0  0  0  0
    0.3668    8.0836    7.9415 O   0  0  0  0  0  0  0  0  0  0  0  0
   -0.9044    8.3537    5.8984 C   0  0  1  0  0  0  0  0  0  0  0  0
   -0.9281    9.7844    6.1276 O   0  0  0  0  0  0  0  0  0  0  0  0
   -1.7969   10.2440    7.1894 C   0  0  2  0  0  0  0  0  0  0  0  0
   -2.3365   11.6511    6.7354 C   0  0  2  0  0  0  0  0  0  0  0  0
   -3.0650   11.5203    5.5248 O   0  0  0  0  0  0  0  0  0  0  0  0
   -1.1177   12.6338    6.5570 C   0  0  1  0  0  0  0  0  0  0  0  0
   -1.5836   13.9836    6.1152 N   0  0  0  0  0  0  0  0  0  0  0  0
   -0.6011   14.5402    5.1605 C   0  0  0  0  0  0  0  0  0  0  0  0
   -0.3651   12.7403    7.9181 C   0  0  2  0  0  0  0  0  0  0  0  0
   -1.2623   13.2617    8.8973 O   0  0  0  0  0  0  0  0  0  0  0  0
    0.8408   13.6721    7.8278 C   0  0  0  0  0  0  0  0  0  0  0  0
    0.1063   11.3164    8.3554 C   0  0  0  0  0  0  0  0  0  0  0  0
   -1.0386   10.3862    8.4485 O   0  0  0  0  0  0  0  0  0  0  0  0
  1  3  1  0  0  0  0
  1  2  1  6  0  0  0
  3  5  1  0  0  0  0
  3  4  1  6  0  0  0
  5  6  1  1  0  0  0
  7  8  1  6  0  0  0
  7  5  1  0  0  0  0
  9 10  1  1  0  0  0
  9  7  1  0  0  0  0
 10  1  1  0  0  0  0
 11 13  1  6  0  0  0
 11  9  1  0  0  0  0
 12 11  1  0  0  0  0
 14 15  1  6  0  0  0
 16 14  1  0  0  0  0
 17 18  1  1  0  0  0
 17 16  1  0  0  0  0
 19  2  1  6  0  0  0
 19 20  1  0  0  0  0
 19 17  1  0  0  0  0
 20 21  1  1  0  0  0
 20 22  1  0  0  0  0
 22 23  1  6  0  0  0
 22 14  1  0  0  0  0
 24 23  1  6  0  0  0
 24 25  1  0  0  0  0
 25 27  1  0  0  0  0
 25 26  1  6  0  0  0
 27 28  1  1  0  0  0
 28 29  1  0  0  0  0
 30 31  1  1  0  0  0
 30 32  1  0  0  0  0
 30 27  1  0  0  0  0
 33 30  1  0  0  0  0
 34 33  1  0  0  0  0
 34 24  1  0  0  0  0
M  END
>  <CHROM.1>
-166.13456544,49.46080618,-174.11826528,141.49622232,-146.61172417,-143.04119450
0.45456663,7.64025929,7.21478392,-1.01139710,-0.85824762,0.25438208

>  <Name>
lig.pdb

>  <RI>
0

>  <Rbt.Current_Directory>
/home/itssahil/PROJECTS/Mol_Feturizer/New_Systems/rnas/4k32

>  <Rbt.Executable>
rbdock ($Id: //depot/dev/client3/rdock/2013.1/src/exe/rbdock.cxx#4 $)

>  <Rbt.Library>
libRbt.so (2013.1, Build901 2013/11/27)

>  <Rbt.Parameter_File>
/export/apps/rDock/src/rDock_2013.1_src/data/scripts/dock_solv.prm

>  <Rbt.Receptor>
prm/blind_docking_60.prm

>  <SCORE>
-4.08912

>  <SCORE.INTER>
-5.57337

>  <SCORE.INTER.CONST>
1

>  <SCORE.INTER.POLAR>
0

>  <SCORE.INTER.ROT>
6

>  <SCORE.INTER.SOLV>
22.2578

>  <SCORE.INTER.VDW>
-18.7348

>  <SCORE.INTER.norm>
-0.163923

>  <SCORE.INTRA>
-2.40766

>  <SCORE.INTRA.DIHEDRAL>
-6.35216

>  <SCORE.INTRA.DIHEDRAL.0>
18.0069

>  <SCORE.INTRA.POLAR>
0

>  <SCORE.INTRA.POLAR.0>
0

>  <SCORE.INTRA.REPUL>
0

>  <SCORE.INTRA.REPUL.0>
0

>  <SCORE.INTRA.SOLV>
-1.97058

>  <SCORE.INTRA.SOLV.lig_0>
-70.7393

>  <SCORE.INTRA.VDW>
1.75371

>  <SCORE.INTRA.VDW.0>
-3.23471

>  <SCORE.INTRA.norm>
-0.0708135

>  <SCORE.RESTR>
3.89191

>  <SCORE.RESTR.CAVITY>
3.89191

>  <SCORE.RESTR.norm>
0.114468

>  <SCORE.SYSTEM>
0

>  <SCORE.SYSTEM.CONST>
0

>  <SCORE.SYSTEM.DIHEDRAL>
0

>  <SCORE.SYSTEM.SOLV>
0

>  <SCORE.SYSTEM.norm>
0

>  <SCORE.heavy>
34

>  <SCORE.norm>
-0.120268

>  <RMSD>
31.938

$$$$
lig.pdb
 OpenBabel11021811503D
libRbt.so/2013.1/901 2013/11/27
 34 36  0  0  0  0  0  0  0  0999 V2000
   -0.0843    7.8995    6.5871 C   0  0  2  0  0  0  0  0  0  0  0  0
   -0.6782    6.9555    7.4851 O   0  0  0  0  0  0  0  0  0  0  0  0
   -0.8400    7.8134    5.1933 C   0  0  2  0  0  0  0  0  0  0  0  0
   -2.2803    8.1338    5.3270 N   0  0  0  0  0  0  0  0  0  0  0  0
   -0.6683    6.3918    4.6012 C   0  0  1  0  0  0  0  0  0  0  0  0
   -1.3368    6.2969    3.3413 O   0  0  0  0  0  0  0  0  0  0  0  0
    0.8360    6.0982    4.4604 C   0  0  2  0  0  0  0  0  0  0  0  0
    1.0088    4.7907    3.9116 O   0  0  0  0  0  0  0  0  0  0  0  0
    1.5341    6.2138    5.8695 C   0  0  2  0  0  0  0  0  0  0  0  0
    1.3356    7.5620    6.4431 O   0  0  0  0  0  0  0  0  0  0  0  0
    3.0561    5.9423    5.7755 C   0  0  2  0  0  0  0  0  0  0  0  0
    3.7400    6.6562    6.8071 O   0  0  0  0  0  0  0  0  0  0  0  0
    3.6110    6.3832    4.4300 C   0  0  0  0  0  0  0  0  0  0  0  0
    2.9115    6.0708    9.6411 C   0  0  2  0  0  0  0  0  0  0  0  0
    3.8234    5.7050   10.7278 N   0  0  0  0  0  0  0  0  0  0  0  0
    2.0228    7.2356   10.1581 C   0  0  0  0  0  0  0  0  0  0  0  0
    1.0643    7.6545    9.0104 C   0  0  2  0  0  0  0  0  0  0  0  0
    0.2045    8.7626    9.4549 N   0  0  0  0  0  0  0  0  0  0  0  0
    0.1727    6.4630    8.5689 C   0  0  2  0  0  0  0  0  0  0  0  0
    1.0879    5.2892    8.0974 C   0  0  2  0  0  0  0  0  0  0  0  0
    0.2633    4.1850    7.7005 O   0  0  0  0  0  0  0  0  0  0  0  0
    2.0174    4.8217    9.2435 C   0  0  1  0  0  0  0  0  0  0  0  0
    2.8362    3.7451    8.7235 O   0  0  0  0  0  0  0  0  0  0  0  0
    2.8556    2.5270    9.5042 C   0  0  2  0  0  0  0  0  0  0  0  0
    2.6753    1.3468    8.4786 C   0  0  2  0  0  0  0  0  0  0  0  0
    3.7447    1.3512    7.5460 O   0  0  0  0  0  0  0  0  0  0  0  0
    1.2889    1.5104    7.7480 C   0  0  1  0  0  0  0  0  0  0  0  0
    1.0790    0.4137    6.7543 N   0  0  0  0  0  0  0  0  0  0  0  0
    0.2220    0.9174    5.6595 C   0  0  0  0  0  0  0  0  0  0  0  0
    0.1587    1.4906    8.8218 C   0  0  2  0  0  0  0  0  0  0  0  0
    0.1970    0.2376    9.5030 O   0  0  0  0  0  0  0  0  0  0  0  0
   -1.2231    1.6533    8.1936 C   0  0  0  0  0  0  0  0  0  0  0  0
    0.4059    2.6437    9.8467 C   0  0  0  0  0  0  0  0  0  0  0  0
    1.7396    2.5186   10.4713 O   0  0  0  0  0  0  0  0  0  0  0  0
  1  3  1  0  0  0  0
  1  2  1  1  0  0  0
  3  5  1  0  0  0  0
  3  4  1  1  0  0  0
  5  6  1  6  0  0  0
  7  8  1  1  0  0  0
  7  5  1  0  0  0  0
  9 10  1  6  0  0  0
  9  7  1  0  0  0  0
 10  1  1  0  0  0  0
 11 13  1  6  0  0  0
 11  9  1  0  0  0  0
 12 11  1  0  0  0  0
 14 15  1  1  0  0  0
 16 14  1  0  0  0  0
 17 18  1  1  0  0  0
 17 16  1  0  0  0  0
 19  2  1  6  0  0  0
 19 20  1  0  0  0  0
 19 17  1  0  0  0  0
 20 21  1  1  0  0  0
 20 22  1  0  0  0  0
 22 23  1  6  0  0  0
 22 14  1  0  0  0  0
 24 23  1  6  0  0  0
 24 25  1  0  0  0  0
 25 27  1  0  0  0  0
 25 26  1  6  0  0  0
 27 28  1  6  0  0  0
 28 29  1  0  0  0  0
 30 31  1  1  0  0  0
 30 32  1  0  0  0  0
 30 27  1  0  0  0  0
 33 30  1  0  0  0  0
 34 33  1  0  0  0  0
 34 24  1  0  0  0  0
M  END
>  <CHROM.1>
154.64804302,151.53578404,36.07966535,115.65175566,134.42715037,-151.00308859
1.14495458,4.78267861,7.45117342,-2.01583091,1.10709374,3.07533452

>  <Name>
lig.pdb

>  <RI>
0

>  <Rbt.Current_Directory>
/home/itssahil/PROJECTS/Mol_Feturizer/New_Systems/rnas/4k32

>  <Rbt.Executable>
rbdock ($Id: //depot/dev/client3/rdock/2013.1/src/exe/rbdock.cxx#4 $)

>  <Rbt.Library>
libRbt.so (2013.1, Build901 2013/11/27)

>  <Rbt.Parameter_File>
/export/apps/rDock/src/rDock_2013.1_src/data/scripts/dock_solv.prm

>  <Rbt.Receptor>
prm/blind_docking_20.prm

>  <SCORE>
73.367

>  <SCORE.INTER>
32.5833

>  <SCORE.INTER.CONST>
1

>  <SCORE.INTER.POLAR>
0

>  <SCORE.INTER.ROT>
6

>  <SCORE.INTER.SOLV>
36.2582

>  <SCORE.INTER.VDW>
2.03614

>  <SCORE.INTER.norm>
0.958332

>  <SCORE.INTRA>
22.2959

>  <SCORE.INTRA.DIHEDRAL>
3.50135

>  <SCORE.INTRA.DIHEDRAL.0>
18.0069

>  <SCORE.INTRA.POLAR>
0

>  <SCORE.INTRA.POLAR.0>
0

>  <SCORE.INTRA.REPUL>
0

>  <SCORE.INTRA.REPUL.0>
0

>  <SCORE.INTRA.SOLV>
1.45413

>  <SCORE.INTRA.SOLV.lig_0>
-70.7393

>  <SCORE.INTRA.VDW>
19.8182

>  <SCORE.INTRA.VDW.0>
-3.23471

>  <SCORE.INTRA.norm>
0.655762

>  <SCORE.RESTR>
18.4878

>  <SCORE.RESTR.CAVITY>
18.4878

>  <SCORE.RESTR.norm>
0.543759

>  <SCORE.SYSTEM>
0

>  <SCORE.SYSTEM.CONST>
0

>  <SCORE.SYSTEM.DIHEDRAL>
0

>  <SCORE.SYSTEM.SOLV>
0

>  <SCORE.SYSTEM.norm>
0

>  <SCORE.heavy>
34

>  <SCORE.norm>
2.15785

>  <RMSD>
31.944

$$$$
lig.pdb
 OpenBabel11021811503D
libRbt.so/2013.1/901 2013/11/27
 34 36  0  0  0  0  0  0  0  0999 V2000
   -0.0996    7.8680    6.5653 C   0  0  2  0  0  0  0  0  0  0  0  0
   -0.6882    6.9333    7.4764 O   0  0  0  0  0  0  0  0  0  0  0  0
   -0.8710    7.7759    5.1805 C   0  0  2  0  0  0  0  0  0  0  0  0
   -2.3081    8.1046    5.3277 N   0  0  0  0  0  0  0  0  0  0  0  0
   -0.7129    6.3494    4.5966 C   0  0  1  0  0  0  0  0  0  0  0  0
   -1.3957    6.2491    3.3447 O   0  0  0  0  0  0  0  0  0  0  0  0
    0.7882    6.0472    4.4414 C   0  0  2  0  0  0  0  0  0  0  0  0
    0.9485    4.7351    3.8999 O   0  0  0  0  0  0  0  0  0  0  0  0
    1.5024    6.1692    5.8419 C   0  0  2  0  0  0  0  0  0  0  0  0
    1.3170    7.5223    6.4081 O   0  0  0  0  0  0  0  0  0  0  0  0
    3.0219    5.8893    5.7330 C   0  0  2  0  0  0  0  0  0  0  0  0
    3.7161    6.5715    6.7792 O   0  0  0  0  0  0  0  0  0  0  0  0
    3.5734    6.3609    4.3965 C   0  0  0  0  0  0  0  0  0  0  0  0
    2.9053    6.1225    9.6548 C   0  0  2  0  0  0  0  0  0  0  0  0
    3.8178    5.7769   10.7476 N   0  0  0  0  0  0  0  0  0  0  0  0
    1.9918    7.2717   10.1636 C   0  0  0  0  0  0  0  0  0  0  0  0
    1.0321    7.6692    9.0094 C   0  0  2  0  0  0  0  0  0  0  0  0
    0.1490    8.7621    9.4460 N   0  0  0  0  0  0  0  0  0  0  0  0
    0.1656    6.4600    8.5662 C   0  0  2  0  0  0  0  0  0  0  0  0
    1.1055    5.3024    8.1031 C   0  0  2  0  0  0  0  0  0  0  0  0
    0.3042    4.1817    7.7048 O   0  0  0  0  0  0  0  0  0  0  0  0
    2.0372    4.8556    9.2558 C   0  0  1  0  0  0  0  0  0  0  0  0
    2.8791    3.7933    8.7434 O   0  0  0  0  0  0  0  0  0  0  0  0
    2.8999    2.5699    9.5158 C   0  0  2  0  0  0  0  0  0  0  0  0
    2.7079    1.3972    8.4836 C   0  0  2  0  0  0  0  0  0  0  0  0
    3.7704    1.4041    7.5433 O   0  0  0  0  0  0  0  0  0  0  0  0
    1.3168    1.5707    7.7643 C   0  0  1  0  0  0  0  0  0  0  0  0
    1.0958    0.4814    6.7649 N   0  0  0  0  0  0  0  0  0  0  0  0
    0.2439    0.9995    5.6728 C   0  0  0  0  0  0  0  0  0  0  0  0
    0.1944    1.5476    8.8461 C   0  0  2  0  0  0  0  0  0  0  0  0
    0.2332    0.2900    9.5187 O   0  0  0  0  0  0  0  0  0  0  0  0
   -1.1914    1.7193    8.2292 C   0  0  0  0  0  0  0  0  0  0  0  0
    0.4532    2.6930    9.8768 C   0  0  0  0  0  0  0  0  0  0  0  0
    1.7909    2.5590   10.4909 O   0  0  0  0  0  0  0  0  0  0  0  0
  1  3  1  0  0  0  0
  1  2  1  1  0  0  0
  3  5  1  0  0  0  0
  3  4  1  1  0  0  0
  5  6  1  6  0  0  0
  7  8  1  1  0  0  0
  7  5  1  0  0  0  0
  9 10  1  6  0  0  0
  9  7  1  0  0  0  0
 10  1  1  0  0  0  0
 11 13  1  6  0  0  0
 11  9  1  0  0  0  0
 12 11  1  0  0  0  0
 14 15  1  1  0  0  0
 16 14  1  0  0  0  0
 17 18  1  1  0  0  0
 17 16  1  0  0  0  0
 19  2  1  6  0  0  0
 19 20  1  0  0  0  0
 19 17  1  0  0  0  0
 20 21  1  1  0  0  0
 20 22  1  0  0  0  0
 22 23  1  6  0  0  0
 22 14  1  0  0  0  0
 24 23  1  6  0  0  0
 24 25  1  0  0  0  0
 25 27  1  0  0  0  0
 25 26  1  6  0  0  0
 27 28  1  6  0  0  0
 28 29  1  0  0  0  0
 30 31  1  1  0  0  0
 30 32  1  0  0  0  0
 30 27  1  0  0  0  0
 33 30  1  0  0  0  0
 34 33  1  0  0  0  0
 34 24  1  0  0  0  0
M  END
>  <CHROM.1>
155.56096844,153.45234761,37.14656762,116.63931630,132.68750339,-150.43873109
1.14264969,4.79182421,7.45135605,-2.07650160,1.11209675,3.11041899

>  <Name>
lig.pdb

>  <RI>
0

>  <Rbt.Current_Directory>
/home/itssahil/PROJECTS/Mol_Feturizer/New_Systems/rnas/4k32

>  <Rbt.Executable>
rbdock ($Id: //depot/dev/client3/rdock/2013.1/src/exe/rbdock.cxx#4 $)

>  <Rbt.Library>
libRbt.so (2013.1, Build901 2013/11/27)

>  <Rbt.Parameter_File>
/export/apps/rDock/src/rDock_2013.1_src/data/scripts/dock_solv.prm

>  <Rbt.Receptor>
prm/blind_docking_20.prm

>  <SCORE>
73.5672

>  <SCORE.INTER>
32.9652

>  <SCORE.INTER.CONST>
1

>  <SCORE.INTER.POLAR>
0

>  <SCORE.INTER.ROT>
6

>  <SCORE.INTER.SOLV>
36.303

>  <SCORE.INTER.VDW>
2.27581

>  <SCORE.INTER.norm>
0.969565

>  <SCORE.INTRA>
21.9763

>  <SCORE.INTRA.DIHEDRAL>
3.14724

>  <SCORE.INTRA.DIHEDRAL.0>
18.0069

>  <SCORE.INTRA.POLAR>
0

>  <SCORE.INTRA.POLAR.0>
0

>  <SCORE.INTRA.REPUL>
0

>  <SCORE.INTRA.REPUL.0>
0

>  <SCORE.INTRA.SOLV>
1.48322

>  <SCORE.INTRA.SOLV.lig_0>
-70.7393

>  <SCORE.INTRA.VDW>
19.6611

>  <SCORE.INTRA.VDW.0>
-3.23471

>  <SCORE.INTRA.norm>
0.646361

>  <SCORE.RESTR>
18.6258

>  <SCORE.RESTR.CAVITY>
18.6258

>  <SCORE.RESTR.norm>
0.547817

>  <SCORE.SYSTEM>
0

>  <SCORE.SYSTEM.CONST>
0

>  <SCORE.SYSTEM.DIHEDRAL>
0

>  <SCORE.SYSTEM.SOLV>
0

>  <SCORE.SYSTEM.norm>
0

>  <SCORE.heavy>
34

>  <SCORE.norm>
2.16374

>  <RMSD>
31.944

$$$$
lig.pdb
 OpenBabel11021811503D
libRbt.so/2013.1/901 2013/11/27
 34 36  0  0  0  0  0  0  0  0999 V2000
    2.2140    5.8589    8.0093 C   0  0  2  0  0  0  0  0  0  0  0  0
    1.7016    5.4116    6.7493 O   0  0  0  0  0  0  0  0  0  0  0  0
    3.6977    5.3171    8.1710 C   0  0  2  0  0  0  0  0  0  0  0  0
    4.5872    5.8183    7.0975 N   0  0  0  0  0  0  0  0  0  0  0  0
    3.6838    3.7677    8.1646 C   0  0  1  0  0  0  0  0  0  0  0  0
    5.0118    3.2607    8.3164 O   0  0  0  0  0  0  0  0  0  0  0  0
    2.7656    3.2812    9.3000 C   0  0  2  0  0  0  0  0  0  0  0  0
    2.7466    1.8530    9.3079 O   0  0  0  0  0  0  0  0  0  0  0  0
    1.3141    3.8623    9.0953 C   0  0  2  0  0  0  0  0  0  0  0  0
    1.3409    5.3403    9.0674 O   0  0  0  0  0  0  0  0  0  0  0  0
    0.3555    3.4124   10.2258 C   0  0  2  0  0  0  0  0  0  0  0  0
    0.3953    1.9901   10.3569 O   0  0  0  0  0  0  0  0  0  0  0  0
   -1.0761    3.8331    9.9323 C   0  0  0  0  0  0  0  0  0  0  0  0
   -1.1128    7.5843    4.3672 C   0  0  2  0  0  0  0  0  0  0  0  0
   -2.3789    8.0844    3.8256 N   0  0  0  0  0  0  0  0  0  0  0  0
   -1.1781    6.0324    4.3327 C   0  0  0  0  0  0  0  0  0  0  0  0
    0.1666    5.4828    4.8811 C   0  0  2  0  0  0  0  0  0  0  0  0
    0.1519    4.0117    4.8617 N   0  0  0  0  0  0  0  0  0  0  0  0
    0.4150    5.9708    6.3336 C   0  0  2  0  0  0  0  0  0  0  0  0
    0.4306    7.5320    6.3507 C   0  0  2  0  0  0  0  0  0  0  0  0
    0.6487    7.9817    7.6949 O   0  0  0  0  0  0  0  0  0  0  0  0
   -0.9209    8.1012    5.8550 C   0  0  1  0  0  0  0  0  0  0  0  0
   -0.8199    9.5463    5.8907 O   0  0  0  0  0  0  0  0  0  0  0  0
   -1.8512   10.2376    6.6338 C   0  0  2  0  0  0  0  0  0  0  0  0
   -1.9574   11.6751    6.0016 C   0  0  2  0  0  0  0  0  0  0  0  0
   -2.3197   11.5743    4.6334 O   0  0  0  0  0  0  0  0  0  0  0  0
   -0.5735   12.4104    6.1660 C   0  0  1  0  0  0  0  0  0  0  0  0
   -0.6251   13.7798    5.5689 N   0  0  0  0  0  0  0  0  0  0  0  0
   -1.8670   14.4488    6.0124 C   0  0  0  0  0  0  0  0  0  0  0  0
   -0.2363   12.4957    7.6857 C   0  0  2  0  0  0  0  0  0  0  0  0
   -1.2587   13.2456    8.3397 O   0  0  0  0  0  0  0  0  0  0  0  0
    1.1005   13.1906    7.9317 C   0  0  0  0  0  0  0  0  0  0  0  0
   -0.1925   11.0523    8.2822 C   0  0  0  0  0  0  0  0  0  0  0  0
   -1.4725   10.3484    8.0569 O   0  0  0  0  0  0  0  0  0  0  0  0
  1  3  1  0  0  0  0
  1  2  1  6  0  0  0
  3  5  1  0  0  0  0
  3  4  1  6  0  0  0
  5  6  1  1  0  0  0
  7  8  1  6  0  0  0
  7  5  1  0  0  0  0
  9 10  1  1  0  0  0
  9  7  1  0  0  0  0
 10  1  1  0  0  0  0
 11 13  1  6  0  0  0
 11  9  1  0  0  0  0
 12 11  1  0  0  0  0
 14 15  1  1  0  0  0
 16 14  1  0  0  0  0
 17 18  1  1  0  0  0
 17 16  1  0  0  0  0
 19  2  1  6  0  0  0
 19 20  1  0  0  0  0
 19 17  1  0  0  0  0
 20 21  1  1  0  0  0
 20 22  1  0  0  0  0
 22 23  1  6  0  0  0
 22 14  1  0  0  0  0
 24 23  1  6  0  0  0
 24 25  1  0  0  0  0
 25 27  1  0  0  0  0
 25 26  1  6  0  0  0
 27 28  1  1  0  0  0
 28 29  1  0  0  0  0
 30 31  1  1  0  0  0
 30 32  1  0  0  0  0
 30 27  1  0  0  0  0
 33 30  1  0  0  0  0
 34 33  1  0  0  0  0
 34 24  1  0  0  0  0
M  END
>  <CHROM.1>
-171.47126443,-52.79194636,172.92537895,118.02359344,-153.76595565,46.36370144
0.37735794,7.58259358,7.19405721,-0.98449958,-0.88635547,0.22368477

>  <Name>
lig.pdb

>  <RI>
0

>  <Rbt.Current_Directory>
/home/itssahil/PROJECTS/Mol_Feturizer/New_Systems/rnas/4k32

>  <Rbt.Executable>
rbdock ($Id: //depot/dev/client3/rdock/2013.1/src/exe/rbdock.cxx#4 $)

>  <Rbt.Library>
libRbt.so (2013.1, Build901 2013/11/27)

>  <Rbt.Parameter_File>
/export/apps/rDock/src/rDock_2013.1_src/data/scripts/dock_solv.prm

>  <Rbt.Receptor>
prm/blind_docking_60.prm

>  <SCORE>
-0.179911

>  <SCORE.INTER>
-4.56737

>  <SCORE.INTER.CONST>
1

>  <SCORE.INTER.POLAR>
0

>  <SCORE.INTER.ROT>
6

>  <SCORE.INTER.SOLV>
20.0964

>  <SCORE.INTER.VDW>
-17.3437

>  <SCORE.INTER.norm>
-0.134334

>  <SCORE.INTRA>
1.72565

>  <SCORE.INTRA.DIHEDRAL>
-7.02151

>  <SCORE.INTRA.DIHEDRAL.0>
18.0069

>  <SCORE.INTRA.POLAR>
0

>  <SCORE.INTRA.POLAR.0>
0

>  <SCORE.INTRA.REPUL>
0

>  <SCORE.INTRA.REPUL.0>
0

>  <SCORE.INTRA.SOLV>
-1.8488

>  <SCORE.INTRA.SOLV.lig_0>
-70.7393

>  <SCORE.INTRA.VDW>
6.16081

>  <SCORE.INTRA.VDW.0>
-3.23471

>  <SCORE.INTRA.norm>
0.0507545

>  <SCORE.RESTR>
2.66181

>  <SCORE.RESTR.CAVITY>
2.66181

>  <SCORE.RESTR.norm>
0.0782884

>  <SCORE.SYSTEM>
0

>  <SCORE.SYSTEM.CONST>
0

>  <SCORE.SYSTEM.DIHEDRAL>
0

>  <SCORE.SYSTEM.SOLV>
0

>  <SCORE.SYSTEM.norm>
0

>  <SCORE.heavy>
34

>  <SCORE.norm>
-0.00529151

>  <RMSD>
31.946

$$$$
lig.pdb
 OpenBabel11021811503D
libRbt.so/2013.1/901 2013/11/27
 34 36  0  0  0  0  0  0  0  0999 V2000
   -0.0889    7.9335    6.5116 C   0  0  2  0  0  0  0  0  0  0  0  0
   -0.7234    7.0320    7.4252 O   0  0  0  0  0  0  0  0  0  0  0  0
   -0.8081    7.8110    5.1012 C   0  0  2  0  0  0  0  0  0  0  0  0
   -2.2455    8.1601    5.1838 N   0  0  0  0  0  0  0  0  0  0  0  0
   -0.6456    6.3667    4.5640 C   0  0  1  0  0  0  0  0  0  0  0  0
   -1.2815    6.2387    3.2901 O   0  0  0  0  0  0  0  0  0  0  0  0
    0.8564    6.0431    4.4751 C   0  0  2  0  0  0  0  0  0  0  0  0
    1.0208    4.7144    3.9771 O   0  0  0  0  0  0  0  0  0  0  0  0
    1.5182    6.1967    5.8981 C   0  0  2  0  0  0  0  0  0  0  0  0
    1.3282    7.5674    6.4187 O   0  0  0  0  0  0  0  0  0  0  0  0
    3.0371    5.8965    5.8556 C   0  0  2  0  0  0  0  0  0  0  0  0
    3.6961    6.5813    6.9226 O   0  0  0  0  0  0  0  0  0  0  0  0
    3.6497    6.3463    4.5384 C   0  0  0  0  0  0  0  0  0  0  0  0
    2.8309    6.0871    9.6138 C   0  0  2  0  0  0  0  0  0  0  0  0
    3.7250    5.6894   10.7041 N   0  0  0  0  0  0  0  0  0  0  0  0
    1.9309    7.2338   10.1513 C   0  0  0  0  0  0  0  0  0  0  0  0
    0.9912    7.6863    9.0010 C   0  0  2  0  0  0  0  0  0  0  0  0
    0.1215    8.7787    9.4647 N   0  0  0  0  0  0  0  0  0  0  0  0
    0.1099    6.5076    8.5075 C   0  0  2  0  0  0  0  0  0  0  0  0
    1.0357    5.3506    8.0157 C   0  0  2  0  0  0  0  0  0  0  0  0
    0.2205    4.2578    7.5708 O   0  0  0  0  0  0  0  0  0  0  0  0
    1.9466    4.8494    9.1625 C   0  0  1  0  0  0  0  0  0  0  0  0
    2.7765    3.7908    8.6236 O   0  0  0  0  0  0  0  0  0  0  0  0
    2.8517    2.5788    9.4103 C   0  0  2  0  0  0  0  0  0  0  0  0
    2.6968    1.3869    8.3941 C   0  0  2  0  0  0  0  0  0  0  0  0
    3.7502    1.4235    7.4441 O   0  0  0  0  0  0  0  0  0  0  0  0
    1.2939    1.4971    7.6854 C   0  0  1  0  0  0  0  0  0  0  0  0
    1.1069    0.3878    6.7012 N   0  0  0  0  0  0  0  0  0  0  0  0
    0.1918    0.8447    5.6333 C   0  0  0  0  0  0  0  0  0  0  0  0
    0.1826    1.4437    8.7776 C   0  0  2  0  0  0  0  0  0  0  0  0
    0.2763    0.1969    9.4649 O   0  0  0  0  0  0  0  0  0  0  0  0
   -1.2141    1.5536    8.1713 C   0  0  0  0  0  0  0  0  0  0  0  0
    0.4053    2.6108    9.7922 C   0  0  0  0  0  0  0  0  0  0  0  0
    1.7525    2.5367   10.3956 O   0  0  0  0  0  0  0  0  0  0  0  0
  1  3  1  0  0  0  0
  1  2  1  1  0  0  0
  3  5  1  0  0  0  0
  3  4  1  1  0  0  0
  5  6  1  6  0  0  0
  7  8  1  1  0  0  0
  7  5  1  0  0  0  0
  9 10  1  6  0  0  0
  9  7  1  0  0  0  0
 10  1  1  0  0  0  0
 11 13  1  6  0  0  0
 11  9  1  0  0  0  0
 12 11  1  0  0  0  0
 14 15  1  1  0  0  0
 16 14  1  0  0  0  0
 17 18  1  1  0  0  0
 17 16  1  0  0  0  0
 19  2  1  6  0  0  0
 19 20  1  0  0  0  0
 19 17  1  0  0  0  0
 20 21  1  1  0  0  0
 20 22  1  0  0  0  0
 22 23  1  6  0  0  0
 22 14  1  0  0  0  0
 24 23  1  6  0  0  0
 24 25  1  0  0  0  0
 25 27  1  0  0  0  0
 25 26  1  6  0  0  0
 27 28  1  6  0  0  0
 28 29  1  0  0  0  0
 30 31  1  1  0  0  0
 30 32  1  0  0  0  0
 30 27  1  0  0  0  0
 33 30  1  0  0  0  0
 34 33  1  0  0  0  0
 34 24  1  0  0  0  0
M  END
>  <CHROM.1>
151.47071072,154.47114371,40.28597580,111.90727335,135.43713825,-152.21366442
1.13126289,4.77936897,7.41513642,-2.02971703,1.11770411,3.11524598

>  <Name>
lig.pdb

>  <RI>
0

>  <Rbt.Current_Directory>
/home/itssahil/PROJECTS/Mol_Feturizer/New_Systems/rnas/4k32

>  <Rbt.Executable>
rbdock ($Id: //depot/dev/client3/rdock/2013.1/src/exe/rbdock.cxx#4 $)

>  <Rbt.Library>
libRbt.so (2013.1, Build901 2013/11/27)

>  <Rbt.Parameter_File>
/export/apps/rDock/src/rDock_2013.1_src/data/scripts/dock_solv.prm

>  <Rbt.Receptor>
prm/blind_docking_20.prm

>  <SCORE>
75.4172

>  <SCORE.INTER>
31.8136

>  <SCORE.INTER.CONST>
1

>  <SCORE.INTER.POLAR>
0

>  <SCORE.INTER.ROT>
6

>  <SCORE.INTER.SOLV>
36.1078

>  <SCORE.INTER.VDW>
1.57315

>  <SCORE.INTER.norm>
0.935694

>  <SCORE.INTRA>
25.1513

>  <SCORE.INTRA.DIHEDRAL>
2.57114

>  <SCORE.INTRA.DIHEDRAL.0>
18.0069

>  <SCORE.INTRA.POLAR>
0

>  <SCORE.INTRA.POLAR.0>
0

>  <SCORE.INTRA.REPUL>
0

>  <SCORE.INTRA.REPUL.0>
0

>  <SCORE.INTRA.SOLV>
1.71015

>  <SCORE.INTRA.SOLV.lig_0>
-70.7393

>  <SCORE.INTRA.VDW>
23.0107

>  <SCORE.INTRA.VDW.0>
-3.23471

>  <SCORE.INTRA.norm>
0.739744

>  <SCORE.RESTR>
18.4523

>  <SCORE.RESTR.CAVITY>
18.4523

>  <SCORE.RESTR.norm>
0.542715

>  <SCORE.SYSTEM>
0

>  <SCORE.SYSTEM.CONST>
0

>  <SCORE.SYSTEM.DIHEDRAL>
0

>  <SCORE.SYSTEM.SOLV>
0

>  <SCORE.SYSTEM.norm>
0

>  <SCORE.heavy>
34

>  <SCORE.norm>
2.21815

>  <RMSD>
31.975

$$$$
lig.pdb
 OpenBabel11021811503D
libRbt.so/2013.1/901 2013/11/27
 34 36  0  0  0  0  0  0  0  0999 V2000
   -1.3057    7.9757    5.4826 C   0  0  2  0  0  0  0  0  0  0  0  0
   -1.8962    7.1544    6.4961 O   0  0  0  0  0  0  0  0  0  0  0  0
   -1.7130    7.3943    4.0623 C   0  0  2  0  0  0  0  0  0  0  0  0
   -3.1818    7.3921    3.8686 N   0  0  0  0  0  0  0  0  0  0  0  0
   -1.1592    5.9544    3.9170 C   0  0  1  0  0  0  0  0  0  0  0  0
   -1.5103    5.4162    2.6401 O   0  0  0  0  0  0  0  0  0  0  0  0
    0.3676    5.9953    4.1069 C   0  0  2  0  0  0  0  0  0  0  0  0
    0.8921    4.6735    3.9716 O   0  0  0  0  0  0  0  0  0  0  0  0
    0.7109    6.5947    5.5243 C   0  0  2  0  0  0  0  0  0  0  0  0
    0.1490    7.9547    5.6679 O   0  0  0  0  0  0  0  0  0  0  0  0
    2.2406    6.6713    5.7554 C   0  0  2  0  0  0  0  0  0  0  0  0
    2.9278    6.4683    4.5192 O   0  0  0  0  0  0  0  0  0  0  0  0
    2.7005    5.6131    6.7460 C   0  0  0  0  0  0  0  0  0  0  0  0
    1.3675    7.3598    9.2571 C   0  0  2  0  0  0  0  0  0  0  0  0
    2.1230    7.4239   10.5106 N   0  0  0  0  0  0  0  0  0  0  0  0
    0.3092    8.4965    9.2985 C   0  0  0  0  0  0  0  0  0  0  0  0
   -0.4870    8.4603    7.9660 C   0  0  2  0  0  0  0  0  0  0  0  0
   -1.5004    9.5270    7.9586 N   0  0  0  0  0  0  0  0  0  0  0  0
   -1.1891    7.0891    7.7755 C   0  0  2  0  0  0  0  0  0  0  0  0
   -0.1112    5.9596    7.7831 C   0  0  2  0  0  0  0  0  0  0  0  0
   -0.7620    4.6923    7.6186 O   0  0  0  0  0  0  0  0  0  0  0  0
    0.6612    5.9451    9.1246 C   0  0  1  0  0  0  0  0  0  0  0  0
    1.6434    4.8827    9.0459 O   0  0  0  0  0  0  0  0  0  0  0  0
    1.5207    3.8291   10.0301 C   0  0  2  0  0  0  0  0  0  0  0  0
    2.7162    2.8404    9.7643 C   0  0  2  0  0  0  0  0  0  0  0  0
    3.9502    3.5223    9.9240 O   0  0  0  0  0  0  0  0  0  0  0  0
    2.5808    2.2526    8.3086 C   0  0  1  0  0  0  0  0  0  0  0  0
    3.7040    1.3133    8.0081 N   0  0  0  0  0  0  0  0  0  0  0  0
    4.9401    2.0971    7.7979 C   0  0  0  0  0  0  0  0  0  0  0  0
    1.2131    1.5123    8.1995 C   0  0  2  0  0  0  0  0  0  0  0  0
    1.1916    0.4487    9.1502 O   0  0  0  0  0  0  0  0  0  0  0  0
    0.9993    0.9180    6.8097 C   0  0  0  0  0  0  0  0  0  0  0  0
    0.0602    2.5165    8.5215 C   0  0  0  0  0  0  0  0  0  0  0  0
    0.2393    3.1148    9.8611 O   0  0  0  0  0  0  0  0  0  0  0  0
  1  3  1  0  0  0  0
  1  2  1  1  0  0  0
  3  5  1  0  0  0  0
  3  4  1  1  0  0  0
  5  6  1  6  0  0  0
  7  8  1  1  0  0  0
  7  5  1  0  0  0  0
  9 10  1  6  0  0  0
  9  7  1  0  0  0  0
 10  1  1  0  0  0  0
 11 13  1  1  0  0  0
 11  9  1  0  0  0  0
 12 11  1  0  0  0  0
 14 15  1  1  0  0  0
 16 14  1  0  0  0  0
 17 18  1  1  0  0  0
 17 16  1  0  0  0  0
 19  2  1  6  0  0  0
 19 20  1  0  0  0  0
 19 17  1  0  0  0  0
 20 21  1  1  0  0  0
 20 22  1  0  0  0  0
 22 23  1  6  0  0  0
 22 14  1  0  0  0  0
 24 23  1  6  0  0  0
 24 25  1  0  0  0  0
 25 27  1  0  0  0  0
 25 26  1  6  0  0  0
 27 28  1  1  0  0  0
 28 29  1  0  0  0  0
 30 31  1  1  0  0  0
 30 32  1  0  0  0  0
 30 27  1  0  0  0  0
 33 30  1  0  0  0  0
 34 33  1  0  0  0  0
 34 24  1  0  0  0  0
M  END
>  <CHROM.1>
151.80849448,13.20588207,31.20181465,124.34656154,-178.12615041,-73.35056164
0.73553763,5.23879566,7.20611718,-3.07756137,1.05819473,-2.25893924

>  <Name>
lig.pdb

>  <RI>
0

>  <Rbt.Current_Directory>
/home/itssahil/PROJECTS/Mol_Feturizer/New_Systems/rnas/4k32

>  <Rbt.Executable>
rbdock ($Id: //depot/dev/client3/rdock/2013.1/src/exe/rbdock.cxx#4 $)

>  <Rbt.Library>
libRbt.so (2013.1, Build901 2013/11/27)

>  <Rbt.Parameter_File>
/export/apps/rDock/src/rDock_2013.1_src/data/scripts/dock_solv.prm

>  <Rbt.Receptor>
prm/blind_docking_20.prm

>  <SCORE>
79.0303

>  <SCORE.INTER>
32.2645

>  <SCORE.INTER.CONST>
1

>  <SCORE.INTER.POLAR>
0

>  <SCORE.INTER.ROT>
6

>  <SCORE.INTER.SOLV>
32.1034

>  <SCORE.INTER.VDW>
3.20853

>  <SCORE.INTER.norm>
0.948956

>  <SCORE.INTRA>
20.9734

>  <SCORE.INTRA.DIHEDRAL>
0.602891

>  <SCORE.INTRA.DIHEDRAL.0>
18.0069

>  <SCORE.INTRA.POLAR>
0

>  <SCORE.INTRA.POLAR.0>
0

>  <SCORE.INTRA.REPUL>
0

>  <SCORE.INTRA.REPUL.0>
0

>  <SCORE.INTRA.SOLV>
0.809512

>  <SCORE.INTRA.SOLV.lig_0>
-70.7393

>  <SCORE.INTRA.VDW>
20.2672

>  <SCORE.INTRA.VDW.0>
-3.23471

>  <SCORE.INTRA.norm>
0.616864

>  <SCORE.RESTR>
25.7924

>  <SCORE.RESTR.CAVITY>
25.7924

>  <SCORE.RESTR.norm>
0.758601

>  <SCORE.SYSTEM>
0

>  <SCORE.SYSTEM.CONST>
0

>  <SCORE.SYSTEM.DIHEDRAL>
0

>  <SCORE.SYSTEM.SOLV>
0

>  <SCORE.SYSTEM.norm>
0

>  <SCORE.heavy>
34

>  <SCORE.norm>
2.32442

>  <RMSD>
31.998

$$$$
lig.pdb
 OpenBabel11021811503D
libRbt.so/2013.1/901 2013/11/27
 34 36  0  0  0  0  0  0  0  0999 V2000
    2.1400    5.8299    7.9794 C   0  0  2  0  0  0  0  0  0  0  0  0
    1.6250    5.3369    6.7377 O   0  0  0  0  0  0  0  0  0  0  0  0
    3.6355    5.3218    8.1421 C   0  0  2  0  0  0  0  0  0  0  0  0
    4.5051    5.8091    7.0461 N   0  0  0  0  0  0  0  0  0  0  0  0
    3.6519    3.7728    8.1800 C   0  0  1  0  0  0  0  0  0  0  0  0
    4.9909    3.2962    8.3332 O   0  0  0  0  0  0  0  0  0  0  0  0
    2.7539    3.3015    9.3376 C   0  0  2  0  0  0  0  0  0  0  0  0
    2.7630    1.8739    9.3863 O   0  0  0  0  0  0  0  0  0  0  0  0
    1.2895    3.8482    9.1305 C   0  0  2  0  0  0  0  0  0  0  0  0
    1.2869    5.3250    9.0603 O   0  0  0  0  0  0  0  0  0  0  0  0
    0.3503    3.4124   10.2826 C   0  0  2  0  0  0  0  0  0  0  0  0
    0.4198    1.9956   10.4543 O   0  0  0  0  0  0  0  0  0  0  0  0
   -1.0921    3.7959    9.9907 C   0  0  0  0  0  0  0  0  0  0  0  0
   -1.0811    7.4572    4.1887 C   0  0  2  0  0  0  0  0  0  0  0  0
   -2.3216    7.9743    3.6055 N   0  0  0  0  0  0  0  0  0  0  0  0
   -1.2184    5.9116    4.2673 C   0  0  0  0  0  0  0  0  0  0  0  0
    0.0983    5.3420    4.8614 C   0  0  2  0  0  0  0  0  0  0  0  0
    0.0152    3.8757    4.9494 N   0  0  0  0  0  0  0  0  0  0  0  0
    0.3665    5.9231    6.2756 C   0  0  2  0  0  0  0  0  0  0  0  0
    0.4547    7.4789    6.1787 C   0  0  2  0  0  0  0  0  0  0  0  0
    0.6911    8.0153    7.4875 O   0  0  0  0  0  0  0  0  0  0  0  0
   -0.8679    8.0722    5.6357 C   0  0  1  0  0  0  0  0  0  0  0  0
   -0.6999    9.5098    5.5664 O   0  0  0  0  0  0  0  0  0  0  0  0
   -1.8676   10.3026    5.8852 C   0  0  2  0  0  0  0  0  0  0  0  0
   -1.5022   11.7884    5.5159 C   0  0  2  0  0  0  0  0  0  0  0  0
   -1.2063   11.8820    4.1313 O   0  0  0  0  0  0  0  0  0  0  0  0
   -0.2718   12.2451    6.3878 C   0  0  1  0  0  0  0  0  0  0  0  0
    0.1177   13.6510    6.0623 N   0  0  0  0  0  0  0  0  0  0  0  0
   -1.1027   14.4838    6.0015 C   0  0  0  0  0  0  0  0  0  0  0  0
   -0.6610   12.1265    7.8928 C   0  0  2  0  0  0  0  0  0  0  0  0
   -1.7732   12.9835    8.1464 O   0  0  0  0  0  0  0  0  0  0  0  0
    0.4857   12.5445    8.8097 C   0  0  0  0  0  0  0  0  0  0  0  0
   -1.0658   10.6495    8.2022 C   0  0  0  0  0  0  0  0  0  0  0  0
   -2.1731   10.2107    7.3270 O   0  0  0  0  0  0  0  0  0  0  0  0
  1  3  1  0  0  0  0
  1  2  1  6  0  0  0
  3  5  1  0  0  0  0
  3  4  1  6  0  0  0
  5  6  1  1  0  0  0
  7  8  1  6  0  0  0
  7  5  1  0  0  0  0
  9 10  1  1  0  0  0
  9  7  1  0  0  0  0
 10  1  1  0  0  0  0
 11 13  1  6  0  0  0
 11  9  1  0  0  0  0
 12 11  1  0  0  0  0
 14 15  1  1  0  0  0
 16 14  1  0  0  0  0
 17 18  1  1  0  0  0
 17 16  1  0  0  0  0
 19  2  1  6  0  0  0
 19 20  1  0  0  0  0
 19 17  1  0  0  0  0
 20 21  1  1  0  0  0
 20 22  1  0  0  0  0
 22 23  1  6  0  0  0
 22 14  1  0  0  0  0
 24 23  1  1  0  0  0
 24 25  1  0  0  0  0
 25 27  1  0  0  0  0
 25 26  1  6  0  0  0
 27 28  1  6  0  0  0
 28 29  1  0  0  0  0
 30 31  1  1  0  0  0
 30 32  1  0  0  0  0
 30 27  1  0  0  0  0
 33 30  1  0  0  0  0
 34 33  1  0  0  0  0
 34 24  1  0  0  0  0
M  END
>  <CHROM.1>
-167.61150580,-52.75512439,174.27515503,100.17451990,-171.09524881,45.56667805
0.37372190,7.51216213,7.13135124,-0.87451259,-1.01221502,0.34456906

>  <Name>
lig.pdb

>  <RI>
0

>  <Rbt.Current_Directory>
/home/itssahil/PROJECTS/Mol_Feturizer/New_Systems/rnas/4k32

>  <Rbt.Executable>
rbdock ($Id: //depot/dev/client3/rdock/2013.1/src/exe/rbdock.cxx#4 $)

>  <Rbt.Library>
libRbt.so (2013.1, Build901 2013/11/27)

>  <Rbt.Parameter_File>
/export/apps/rDock/src/rDock_2013.1_src/data/scripts/dock_solv.prm

>  <Rbt.Receptor>
prm/blind_docking_60.prm

>  <SCORE>
-0.761275

>  <SCORE.INTER>
-3.22218

>  <SCORE.INTER.CONST>
1

>  <SCORE.INTER.POLAR>
0

>  <SCORE.INTER.ROT>
6

>  <SCORE.INTER.SOLV>
20.7641

>  <SCORE.INTER.VDW>
-16.6695

>  <SCORE.INTER.norm>
-0.0947699

>  <SCORE.INTRA>
-0.394938

>  <SCORE.INTRA.DIHEDRAL>
-10.9431

>  <SCORE.INTRA.DIHEDRAL.0>
18.0069

>  <SCORE.INTRA.POLAR>
0

>  <SCORE.INTRA.POLAR.0>
0

>  <SCORE.INTRA.REPUL>
0

>  <SCORE.INTRA.REPUL.0>
0

>  <SCORE.INTRA.SOLV>
-2.14502

>  <SCORE.INTRA.SOLV.lig_0>
-70.7393

>  <SCORE.INTRA.VDW>
6.14914

>  <SCORE.INTRA.VDW.0>
-3.23471

>  <SCORE.INTRA.norm>
-0.0116158

>  <SCORE.RESTR>
2.85584

>  <SCORE.RESTR.CAVITY>
2.85584

>  <SCORE.RESTR.norm>
0.0839952

>  <SCORE.SYSTEM>
0

>  <SCORE.SYSTEM.CONST>
0

>  <SCORE.SYSTEM.DIHEDRAL>
0

>  <SCORE.SYSTEM.SOLV>
0

>  <SCORE.SYSTEM.norm>
0

>  <SCORE.heavy>
34

>  <SCORE.norm>
-0.0223904

>  <RMSD>
32.015

$$$$
lig.pdb
 OpenBabel11021811503D
libRbt.so/2013.1/901 2013/11/27
 34 36  0  0  0  0  0  0  0  0999 V2000
   -0.2008    3.8998    6.8714 C   0  0  2  0  0  0  0  0  0  0  0  0
    0.4505    5.1713    6.7754 O   0  0  0  0  0  0  0  0  0  0  0  0
   -1.4769    4.0564    7.8033 C   0  0  2  0  0  0  0  0  0  0  0  0
   -2.4416    5.0384    7.2557 N   0  0  0  0  0  0  0  0  0  0  0  0
   -1.0288    4.4910    9.2215 C   0  0  1  0  0  0  0  0  0  0  0  0
   -2.1649    4.6305   10.0779 O   0  0  0  0  0  0  0  0  0  0  0  0
   -0.0423    3.4427    9.7663 C   0  0  2  0  0  0  0  0  0  0  0  0
    0.3763    3.8295   11.0761 O   0  0  0  0  0  0  0  0  0  0  0  0
    1.1930    3.3197    8.7940 C   0  0  2  0  0  0  0  0  0  0  0  0
    0.7535    2.9391    7.4346 O   0  0  0  0  0  0  0  0  0  0  0  0
    2.2081    2.2617    9.2933 C   0  0  2  0  0  0  0  0  0  0  0  0
    2.8431    2.7252   10.4864 O   0  0  0  0  0  0  0  0  0  0  0  0
    3.2784    1.9905    8.2476 C   0  0  0  0  0  0  0  0  0  0  0  0
   -0.5443    8.6935    4.5571 C   0  0  2  0  0  0  0  0  0  0  0  0
   -1.3216    9.7645    3.9286 N   0  0  0  0  0  0  0  0  0  0  0  0
   -1.1577    7.3445    4.0904 C   0  0  0  0  0  0  0  0  0  0  0  0
   -0.3310    6.1949    4.7277 C   0  0  2  0  0  0  0  0  0  0  0  0
   -0.8747    4.8940    4.3073 N   0  0  0  0  0  0  0  0  0  0  0  0
   -0.3603    6.2827    6.2773 C   0  0  2  0  0  0  0  0  0  0  0  0
    0.2176    7.6639    6.7202 C   0  0  2  0  0  0  0  0  0  0  0  0
    0.1794    7.7485    8.1512 O   0  0  0  0  0  0  0  0  0  0  0  0
   -0.6233    8.8250    6.1364 C   0  0  1  0  0  0  0  0  0  0  0  0
   -0.0177   10.0636    6.5825 O   0  0  0  0  0  0  0  0  0  0  0  0
   -0.7237   10.7774    7.6245 C   0  0  2  0  0  0  0  0  0  0  0  0
   -1.6926   11.7776    6.8908 C   0  0  2  0  0  0  0  0  0  0  0  0
   -2.6076   11.0559    6.0814 O   0  0  0  0  0  0  0  0  0  0  0  0
   -0.8367   12.7756    6.0224 C   0  0  1  0  0  0  0  0  0  0  0  0
   -1.7188   13.7404    5.2976 N   0  0  0  0  0  0  0  0  0  0  0  0
   -1.9880   13.2167    3.9412 C   0  0  0  0  0  0  0  0  0  0  0  0
    0.1400   13.5404    6.9667 C   0  0  2  0  0  0  0  0  0  0  0  0
   -0.6266   14.2718    7.9222 O   0  0  0  0  0  0  0  0  0  0  0  0
    1.0159   14.5266    6.1981 C   0  0  0  0  0  0  0  0  0  0  0  0
    1.0454   12.5079    7.7119 C   0  0  0  0  0  0  0  0  0  0  0  0
    0.2271   11.5336    8.4641 O   0  0  0  0  0  0  0  0  0  0  0  0
  1  3  1  0  0  0  0
  1  2  1  1  0  0  0
  3  5  1  0  0  0  0
  3  4  1  6  0  0  0
  5  6  1  1  0  0  0
  7  8  1  1  0  0  0
  7  5  1  0  0  0  0
  9 10  1  6  0  0  0
  9  7  1  0  0  0  0
 10  1  1  0  0  0  0
 11 13  1  6  0  0  0
 11  9  1  0  0  0  0
 12 11  1  0  0  0  0
 14 15  1  6  0  0  0
 16 14  1  0  0  0  0
 17 18  1  1  0  0  0
 17 16  1  0  0  0  0
 19  2  1  1  0  0  0
 19 20  1  0  0  0  0
 19 17  1  0  0  0  0
 20 21  1  1  0  0  0
 20 22  1  0  0  0  0
 22 23  1  6  0  0  0
 22 14  1  0  0  0  0
 24 23  1  6  0  0  0
 24 25  1  0  0  0  0
 25 27  1  0  0  0  0
 25 26  1  6  0  0  0
 27 28  1  1  0  0  0
 28 29  1  0  0  0  0
 30 31  1  1  0  0  0
 30 32  1  0  0  0  0
 30 27  1  0  0  0  0
 33 30  1  0  0  0  0
 34 33  1  0  0  0  0
 34 24  1  0  0  0  0
M  END
>  <CHROM.1>
-57.05362106,-68.77658538,-83.15881295,138.16484367,-91.33849118,-94.35965126
-0.24587761,7.79750537,7.15005126,1.21153222,1.14052722,-3.07403496

>  <Name>
lig.pdb

>  <RI>
0

>  <Rbt.Current_Directory>
/home/itssahil/PROJECTS/Mol_Feturizer/New_Systems/rnas/4k32

>  <Rbt.Executable>
rbdock ($Id: //depot/dev/client3/rdock/2013.1/src/exe/rbdock.cxx#4 $)

>  <Rbt.Library>
libRbt.so (2013.1, Build901 2013/11/27)

>  <Rbt.Parameter_File>
/export/apps/rDock/src/rDock_2013.1_src/data/scripts/dock_solv.prm

>  <Rbt.Receptor>
prm/blind_docking_60.prm

>  <SCORE>
6.72137

>  <SCORE.INTER>
-1.22528

>  <SCORE.INTER.CONST>
1

>  <SCORE.INTER.POLAR>
0

>  <SCORE.INTER.ROT>
6

>  <SCORE.INTER.SOLV>
16.941

>  <SCORE.INTER.VDW>
-14.0639

>  <SCORE.INTER.norm>
-0.0360377

>  <SCORE.INTRA>
1.41985

>  <SCORE.INTRA.DIHEDRAL>
-5.09585

>  <SCORE.INTRA.DIHEDRAL.0>
18.0069

>  <SCORE.INTRA.POLAR>
0

>  <SCORE.INTRA.POLAR.0>
0

>  <SCORE.INTRA.REPUL>
0

>  <SCORE.INTRA.REPUL.0>
0

>  <SCORE.INTRA.SOLV>
5.21154

>  <SCORE.INTRA.SOLV.lig_0>
-70.7393

>  <SCORE.INTRA.VDW>
1.362

>  <SCORE.INTRA.VDW.0>
-3.23471

>  <SCORE.INTRA.norm>
0.0417603

>  <SCORE.RESTR>
6.5268

>  <SCORE.RESTR.CAVITY>
6.5268

>  <SCORE.RESTR.norm>
0.191965

>  <SCORE.SYSTEM>
0

>  <SCORE.SYSTEM.CONST>
0

>  <SCORE.SYSTEM.DIHEDRAL>
0

>  <SCORE.SYSTEM.SOLV>
0

>  <SCORE.SYSTEM.norm>
0

>  <SCORE.heavy>
34

>  <SCORE.norm>
0.197687

>  <RMSD>
32.025

$$$$
lig.pdb
 OpenBabel11021811503D
libRbt.so/2013.1/901 2013/11/27
 34 36  0  0  0  0  0  0  0  0999 V2000
    0.0768    7.9698    6.4737 C   0  0  2  0  0  0  0  0  0  0  0  0
   -0.5622    6.9867    7.2955 O   0  0  0  0  0  0  0  0  0  0  0  0
   -0.6852    8.0360    5.0822 C   0  0  2  0  0  0  0  0  0  0  0  0
   -2.1071    8.4166    5.2506 N   0  0  0  0  0  0  0  0  0  0  0  0
   -0.5870    6.6608    4.3752 C   0  0  1  0  0  0  0  0  0  0  0  0
   -1.2622    6.7029    3.1159 O   0  0  0  0  0  0  0  0  0  0  0  0
    0.9001    6.3043    4.2015 C   0  0  2  0  0  0  0  0  0  0  0  0
    1.0052    5.0390    3.5469 O   0  0  0  0  0  0  0  0  0  0  0  0
    1.6062    6.2691    5.6110 C   0  0  2  0  0  0  0  0  0  0  0  0
    1.4775    7.5741    6.2938 O   0  0  0  0  0  0  0  0  0  0  0  0
    3.1123    5.9298    5.4855 C   0  0  2  0  0  0  0  0  0  0  0  0
    3.8326    6.5154    6.5717 O   0  0  0  0  0  0  0  0  0  0  0  0
    3.6878    6.4577    4.1806 C   0  0  0  0  0  0  0  0  0  0  0  0
    2.8896    6.0753    9.6558 C   0  0  2  0  0  0  0  0  0  0  0  0
    3.7325    5.6777   10.7861 N   0  0  0  0  0  0  0  0  0  0  0  0
    1.9402    7.1965   10.1611 C   0  0  0  0  0  0  0  0  0  0  0  0
    1.0538    7.6489    8.9692 C   0  0  2  0  0  0  0  0  0  0  0  0
    0.1396    8.7174    9.4018 N   0  0  0  0  0  0  0  0  0  0  0  0
    0.2230    6.4615    8.4129 C   0  0  2  0  0  0  0  0  0  0  0  0
    1.1959    5.3298    7.9542 C   0  0  2  0  0  0  0  0  0  0  0  0
    0.4269    4.2288    7.4511 O   0  0  0  0  0  0  0  0  0  0  0  0
    2.0547    4.8282    9.1405 C   0  0  1  0  0  0  0  0  0  0  0  0
    2.9324    3.7938    8.6311 O   0  0  0  0  0  0  0  0  0  0  0  0
    2.9856    2.5694    9.4003 C   0  0  2  0  0  0  0  0  0  0  0  0
    2.7770    1.3967    8.3714 C   0  0  2  0  0  0  0  0  0  0  0  0
    3.8138    1.4153    7.4028 O   0  0  0  0  0  0  0  0  0  0  0  0
    1.3655    1.5581    7.6901 C   0  0  1  0  0  0  0  0  0  0  0  0
    1.1280    0.4684    6.6949 N   0  0  0  0  0  0  0  0  0  0  0  0
    0.2255    0.9738    5.6381 C   0  0  0  0  0  0  0  0  0  0  0  0
    0.2729    1.5225    8.8017 C   0  0  2  0  0  0  0  0  0  0  0  0
    0.3417    0.2642    9.4706 O   0  0  0  0  0  0  0  0  0  0  0  0
   -1.1305    1.6821    8.2226 C   0  0  0  0  0  0  0  0  0  0  0  0
    0.5484    2.6686    9.8273 C   0  0  0  0  0  0  0  0  0  0  0  0
    1.9035    2.5463   10.4049 O   0  0  0  0  0  0  0  0  0  0  0  0
  1  3  1  0  0  0  0
  1  2  1  1  0  0  0
  3  5  1  0  0  0  0
  3  4  1  1  0  0  0
  5  6  1  6  0  0  0
  7  8  1  1  0  0  0
  7  5  1  0  0  0  0
  9 10  1  6  0  0  0
  9  7  1  0  0  0  0
 10  1  1  0  0  0  0
 11 13  1  6  0  0  0
 11  9  1  0  0  0  0
 12 11  1  0  0  0  0
 14 15  1  1  0  0  0
 16 14  1  0  0  0  0
 17 18  1  1  0  0  0
 17 16  1  0  0  0  0
 19  2  1  6  0  0  0
 19 20  1  0  0  0  0
 19 17  1  0  0  0  0
 20 21  1  1  0  0  0
 20 22  1  0  0  0  0
 22 23  1  6  0  0  0
 22 14  1  0  0  0  0
 24 23  1  6  0  0  0
 24 25  1  0  0  0  0
 25 27  1  0  0  0  0
 25 26  1  6  0  0  0
 27 28  1  6  0  0  0
 28 29  1  0  0  0  0
 30 31  1  1  0  0  0
 30 32  1  0  0  0  0
 30 27  1  0  0  0  0
 33 30  1  0  0  0  0
 34 33  1  0  0  0  0
 34 24  1  0  0  0  0
M  END
>  <CHROM.1>
160.50159202,151.86156510,36.92261001,112.15151384,130.39229505,-151.29577386
1.22044190,4.84791449,7.32837589,-2.13878683,1.18930276,-3.13047741

>  <Name>
lig.pdb

>  <RI>
0

>  <Rbt.Current_Directory>
/home/itssahil/PROJECTS/Mol_Feturizer/New_Systems/rnas/4k32

>  <Rbt.Executable>
rbdock ($Id: //depot/dev/client3/rdock/2013.1/src/exe/rbdock.cxx#4 $)

>  <Rbt.Library>
libRbt.so (2013.1, Build901 2013/11/27)

>  <Rbt.Parameter_File>
/export/apps/rDock/src/rDock_2013.1_src/data/scripts/dock_solv.prm

>  <Rbt.Receptor>
prm/blind_docking_20.prm

>  <SCORE>
89.2612

>  <SCORE.INTER>
56.1327

>  <SCORE.INTER.CONST>
1

>  <SCORE.INTER.POLAR>
0

>  <SCORE.INTER.ROT>
6

>  <SCORE.INTER.SOLV>
37.3591

>  <SCORE.INTER.VDW>
17.3687

>  <SCORE.INTER.norm>
1.65096

>  <SCORE.INTRA>
16.5555

>  <SCORE.INTRA.DIHEDRAL>
2.53833

>  <SCORE.INTRA.DIHEDRAL.0>
18.0069

>  <SCORE.INTRA.POLAR>
0

>  <SCORE.INTRA.POLAR.0>
0

>  <SCORE.INTRA.REPUL>
0

>  <SCORE.INTRA.REPUL.0>
0

>  <SCORE.INTRA.SOLV>
1.19972

>  <SCORE.INTRA.SOLV.lig_0>
-70.7393

>  <SCORE.INTRA.VDW>
14.6865

>  <SCORE.INTRA.VDW.0>
-3.23471

>  <SCORE.INTRA.norm>
0.486928

>  <SCORE.RESTR>
16.5729

>  <SCORE.RESTR.CAVITY>
16.5729

>  <SCORE.RESTR.norm>
0.48744

>  <SCORE.SYSTEM>
0

>  <SCORE.SYSTEM.CONST>
0

>  <SCORE.SYSTEM.DIHEDRAL>
0

>  <SCORE.SYSTEM.SOLV>
0

>  <SCORE.SYSTEM.norm>
0

>  <SCORE.heavy>
34

>  <SCORE.norm>
2.62533

>  <RMSD>
32.042

$$$$
lig.pdb
 OpenBabel11021811503D
libRbt.so/2013.1/901 2013/11/27
 34 36  0  0  0  0  0  0  0  0999 V2000
    2.1545    5.8427    7.9268 C   0  0  2  0  0  0  0  0  0  0  0  0
    1.6524    5.3359    6.6854 O   0  0  0  0  0  0  0  0  0  0  0  0
    3.6542    5.3512    8.1022 C   0  0  2  0  0  0  0  0  0  0  0  0
    4.5255    5.8400    7.0083 N   0  0  0  0  0  0  0  0  0  0  0  0
    3.6863    3.8028    8.1508 C   0  0  1  0  0  0  0  0  0  0  0  0
    5.0292    3.3411    8.3156 O   0  0  0  0  0  0  0  0  0  0  0  0
    2.7860    3.3301    9.3061 C   0  0  2  0  0  0  0  0  0  0  0  0
    2.8095    1.9031    9.3648 O   0  0  0  0  0  0  0  0  0  0  0  0
    1.3173    3.8602    9.0863 C   0  0  2  0  0  0  0  0  0  0  0  0
    1.3000    5.3364    9.0059 O   0  0  0  0  0  0  0  0  0  0  0  0
    0.3755    3.4226   10.2355 C   0  0  2  0  0  0  0  0  0  0  0  0
    0.3923    1.9993   10.3599 O   0  0  0  0  0  0  0  0  0  0  0  0
   -1.0543    3.8704    9.9751 C   0  0  0  0  0  0  0  0  0  0  0  0
   -1.0912    7.3626    4.1005 C   0  0  2  0  0  0  0  0  0  0  0  0
   -2.3404    7.8526    3.5127 N   0  0  0  0  0  0  0  0  0  0  0  0
   -1.2135    5.8185    4.2212 C   0  0  0  0  0  0  0  0  0  0  0  0
    0.1126    5.2770    4.8207 C   0  0  2  0  0  0  0  0  0  0  0  0
    0.0438    3.8128    4.9483 N   0  0  0  0  0  0  0  0  0  0  0  0
    0.3853    5.8980    6.2170 C   0  0  2  0  0  0  0  0  0  0  0  0
    0.4583    7.4514    6.0781 C   0  0  2  0  0  0  0  0  0  0  0  0
    0.6988    8.0247    7.3704 O   0  0  0  0  0  0  0  0  0  0  0  0
   -0.8736    8.0179    5.5291 C   0  0  1  0  0  0  0  0  0  0  0  0
   -0.7195    9.4547    5.4203 O   0  0  0  0  0  0  0  0  0  0  0  0
   -1.8812   10.2465    5.7625 C   0  0  2  0  0  0  0  0  0  0  0  0
   -1.5139   11.7365    5.4127 C   0  0  2  0  0  0  0  0  0  0  0  0
   -1.2310   11.8505    4.0270 O   0  0  0  0  0  0  0  0  0  0  0  0
   -0.2736   12.1753    6.2798 C   0  0  1  0  0  0  0  0  0  0  0  0
    0.1179   13.5848    5.9723 N   0  0  0  0  0  0  0  0  0  0  0  0
   -1.0965   14.4285    5.9676 C   0  0  0  0  0  0  0  0  0  0  0  0
   -0.6489   12.0349    7.7864 C   0  0  2  0  0  0  0  0  0  0  0  0
   -1.7555   12.8917    8.0639 O   0  0  0  0  0  0  0  0  0  0  0  0
    0.5080   12.4346    8.6986 C   0  0  0  0  0  0  0  0  0  0  0  0
   -1.0561   10.5547    8.0768 C   0  0  0  0  0  0  0  0  0  0  0  0
   -2.1733   10.1333    7.2056 O   0  0  0  0  0  0  0  0  0  0  0  0
  1  3  1  0  0  0  0
  1  2  1  6  0  0  0
  3  5  1  0  0  0  0
  3  4  1  6  0  0  0
  5  6  1  1  0  0  0
  7  8  1  6  0  0  0
  7  5  1  0  0  0  0
  9 10  1  1  0  0  0
  9  7  1  0  0  0  0
 10  1  1  0  0  0  0
 11 13  1  6  0  0  0
 11  9  1  0  0  0  0
 12 11  1  0  0  0  0
 14 15  1  1  0  0  0
 16 14  1  0  0  0  0
 17 18  1  1  0  0  0
 17 16  1  0  0  0  0
 19  2  1  6  0  0  0
 19 20  1  0  0  0  0
 19 17  1  0  0  0  0
 20 21  1  1  0  0  0
 20 22  1  0  0  0  0
 22 23  1  6  0  0  0
 22 14  1  0  0  0  0
 24 23  1  1  0  0  0
 24 25  1  0  0  0  0
 25 27  1  0  0  0  0
 25 26  1  6  0  0  0
 27 28  1  1  0  0  0
 28 29  1  0  0  0  0
 30 31  1  1  0  0  0
 30 32  1  0  0  0  0
 30 27  1  0  0  0  0
 33 30  1  0  0  0  0
 34 33  1  0  0  0  0
 34 24  1  0  0  0  0
M  END
>  <CHROM.1>
-168.09451378,-56.51441313,175.78686080,101.84387576,-173.86232678,46.88895320
0.38394533,7.48134159,7.05924605,-0.88741817,-0.99260931,0.31602644

>  <Name>
lig.pdb

>  <RI>
0

>  <Rbt.Current_Directory>
/home/itssahil/PROJECTS/Mol_Feturizer/New_Systems/rnas/4k32

>  <Rbt.Executable>
rbdock ($Id: //depot/dev/client3/rdock/2013.1/src/exe/rbdock.cxx#4 $)

>  <Rbt.Library>
libRbt.so (2013.1, Build901 2013/11/27)

>  <Rbt.Parameter_File>
/export/apps/rDock/src/rDock_2013.1_src/data/scripts/dock_solv.prm

>  <Rbt.Receptor>
prm/blind_docking_60.prm

>  <SCORE>
-1.79041

>  <SCORE.INTER>
-4.24654

>  <SCORE.INTER.CONST>
1

>  <SCORE.INTER.POLAR>
0

>  <SCORE.INTER.ROT>
6

>  <SCORE.INTER.SOLV>
21.077

>  <SCORE.INTER.VDW>
-17.4567

>  <SCORE.INTER.norm>
-0.124898

>  <SCORE.INTRA>
-0.660717

>  <SCORE.INTRA.DIHEDRAL>
-11.189

>  <SCORE.INTRA.DIHEDRAL.0>
18.0069

>  <SCORE.INTRA.POLAR>
0

>  <SCORE.INTRA.POLAR.0>
0

>  <SCORE.INTRA.REPUL>
0

>  <SCORE.INTRA.REPUL.0>
0

>  <SCORE.INTRA.SOLV>
-2.21459

>  <SCORE.INTRA.SOLV.lig_0>
-70.7393

>  <SCORE.INTRA.VDW>
6.04106

>  <SCORE.INTRA.VDW.0>
-3.23471

>  <SCORE.INTRA.norm>
-0.0194329

>  <SCORE.RESTR>
3.11685

>  <SCORE.RESTR.CAVITY>
3.11685

>  <SCORE.RESTR.norm>
0.0916721

>  <SCORE.SYSTEM>
0

>  <SCORE.SYSTEM.CONST>
0

>  <SCORE.SYSTEM.DIHEDRAL>
0

>  <SCORE.SYSTEM.SOLV>
0

>  <SCORE.SYSTEM.norm>
0

>  <SCORE.heavy>
34

>  <SCORE.norm>
-0.0526592

>  <RMSD>
32.084

$$$$
lig.pdb
 OpenBabel11021811503D
libRbt.so/2013.1/901 2013/11/27
 34 36  0  0  0  0  0  0  0  0999 V2000
    4.0490    4.1880    9.8606 C   0  0  2  0  0  0  0  0  0  0  0  0
    4.1116    5.0012    8.6838 O   0  0  0  0  0  0  0  0  0  0  0  0
    5.0279    2.9521    9.6718 C   0  0  2  0  0  0  0  0  0  0  0  0
    6.4307    3.3857    9.4743 N   0  0  0  0  0  0  0  0  0  0  0  0
    4.5613    2.1059    8.4605 C   0  0  1  0  0  0  0  0  0  0  0  0
    5.4274    0.9833    8.2788 O   0  0  0  0  0  0  0  0  0  0  0  0
    3.1091    1.6589    8.7053 C   0  0  2  0  0  0  0  0  0  0  0  0
    2.6672    0.8740    7.5967 O   0  0  0  0  0  0  0  0  0  0  0  0
    2.1893    2.9247    8.9009 C   0  0  2  0  0  0  0  0  0  0  0  0
    2.6620    3.7451   10.0364 O   0  0  0  0  0  0  0  0  0  0  0  0
    0.7172    2.5237    9.1675 C   0  0  2  0  0  0  0  0  0  0  0  0
    0.1792    1.8652    8.0192 O   0  0  0  0  0  0  0  0  0  0  0  0
   -0.1381    3.7435    9.4728 C   0  0  0  0  0  0  0  0  0  0  0  0
    0.6120    7.3080    9.5483 C   0  0  2  0  0  0  0  0  0  0  0  0
   -0.3351    8.4242    9.6067 N   0  0  0  0  0  0  0  0  0  0  0  0
    1.9759    7.8333   10.0751 C   0  0  0  0  0  0  0  0  0  0  0  0
    2.9884    6.6565   10.0438 C   0  0  2  0  0  0  0  0  0  0  0  0
    4.2973    7.1083   10.5413 N   0  0  0  0  0  0  0  0  0  0  0  0
    3.1539    6.1044    8.6025 C   0  0  2  0  0  0  0  0  0  0  0  0
    1.7636    5.6255    8.0778 C   0  0  2  0  0  0  0  0  0  0  0  0
    1.9156    5.1263    6.7421 O   0  0  0  0  0  0  0  0  0  0  0  0
    0.7517    6.7967    8.0528 C   0  0  1  0  0  0  0  0  0  0  0  0
   -0.5077    6.2690    7.5676 O   0  0  0  0  0  0  0  0  0  0  0  0
   -1.0747    6.9355    6.4153 C   0  0  2  0  0  0  0  0  0  0  0  0
   -1.1007    5.8668    5.2601 C   0  0  2  0  0  0  0  0  0  0  0  0
   -1.9109    4.7657    5.6404 O   0  0  0  0  0  0  0  0  0  0  0  0
    0.3747    5.4037    4.9575 C   0  0  1  0  0  0  0  0  0  0  0  0
    0.3974    4.3781    3.8704 N   0  0  0  0  0  0  0  0  0  0  0  0
   -0.0540    3.0835    4.4244 C   0  0  0  0  0  0  0  0  0  0  0  0
    1.2092    6.6526    4.5400 C   0  0  2  0  0  0  0  0  0  0  0  0
    0.6321    7.2156    3.3629 O   0  0  0  0  0  0  0  0  0  0  0  0
    2.6604    6.2892    4.2364 C   0  0  0  0  0  0  0  0  0  0  0  0
    1.1645    7.7069    5.6923 C   0  0  0  0  0  0  0  0  0  0  0  0
   -0.2293    8.0782    6.0150 O   0  0  0  0  0  0  0  0  0  0  0  0
  1  3  1  0  0  0  0
  1  2  1  6  0  0  0
  3  5  1  0  0  0  0
  3  4  1  6  0  0  0
  5  6  1  1  0  0  0
  7  8  1  6  0  0  0
  7  5  1  0  0  0  0
  9 10  1  1  0  0  0
  9  7  1  0  0  0  0
 10  1  1  0  0  0  0
 11 13  1  6  0  0  0
 11  9  1  0  0  0  0
 12 11  1  0  0  0  0
 14 15  1  6  0  0  0
 16 14  1  0  0  0  0
 17 18  1  6  0  0  0
 17 16  1  0  0  0  0
 19  2  1  1  0  0  0
 19 20  1  0  0  0  0
 19 17  1  0  0  0  0
 20 21  1  6  0  0  0
 20 22  1  0  0  0  0
 22 23  1  1  0  0  0
 22 14  1  0  0  0  0
 24 23  1  1  0  0  0
 24 25  1  0  0  0  0
 25 27  1  0  0  0  0
 25 26  1  1  0  0  0
 27 28  1  6  0  0  0
 28 29  1  0  0  0  0
 30 31  1  6  0  0  0
 30 32  1  0  0  0  0
 30 27  1  0  0  0  0
 33 30  1  0  0  0  0
 34 33  1  0  0  0  0
 34 24  1  0  0  0  0
M  END
>  <CHROM.1>
172.81553465,-64.64157378,36.08375351,119.32083397,116.51132238,-75.89047797
1.73558487,4.95818290,7.60175944,-0.21161673,-0.87032870,0.49899050

>  <Name>
lig.pdb

>  <RI>
0

>  <Rbt.Current_Directory>
/home/itssahil/PROJECTS/Mol_Feturizer/New_Systems/rnas/4k32

>  <Rbt.Executable>
rbdock ($Id: //depot/dev/client3/rdock/2013.1/src/exe/rbdock.cxx#4 $)

>  <Rbt.Library>
libRbt.so (2013.1, Build901 2013/11/27)

>  <Rbt.Parameter_File>
/export/apps/rDock/src/rDock_2013.1_src/data/scripts/dock_solv.prm

>  <Rbt.Receptor>
prm/blind_docking_20.prm

>  <SCORE>
95.8878

>  <SCORE.INTER>
57.2608

>  <SCORE.INTER.CONST>
1

>  <SCORE.INTER.POLAR>
0

>  <SCORE.INTER.ROT>
6

>  <SCORE.INTER.SOLV>
38.1516

>  <SCORE.INTER.VDW>
17.8566

>  <SCORE.INTER.norm>
1.68414

>  <SCORE.INTRA>
16.2211

>  <SCORE.INTRA.DIHEDRAL>
-0.717618

>  <SCORE.INTRA.DIHEDRAL.0>
18.0069

>  <SCORE.INTRA.POLAR>
0

>  <SCORE.INTRA.POLAR.0>
0

>  <SCORE.INTRA.REPUL>
0

>  <SCORE.INTRA.REPUL.0>
0

>  <SCORE.INTRA.SOLV>
1.31161

>  <SCORE.INTRA.SOLV.lig_0>
-70.7393

>  <SCORE.INTRA.VDW>
15.9241

>  <SCORE.INTRA.VDW.0>
-3.23471

>  <SCORE.INTRA.norm>
0.477092

>  <SCORE.RESTR>
22.4059

>  <SCORE.RESTR.CAVITY>
22.4059

>  <SCORE.RESTR.norm>
0.658997

>  <SCORE.SYSTEM>
0

>  <SCORE.SYSTEM.CONST>
0

>  <SCORE.SYSTEM.DIHEDRAL>
0

>  <SCORE.SYSTEM.SOLV>
0

>  <SCORE.SYSTEM.norm>
0

>  <SCORE.heavy>
34

>  <SCORE.norm>
2.82023

>  <RMSD>
32.087

$$$$
lig.pdb
 OpenBabel11021811503D
libRbt.so/2013.1/901 2013/11/27
 34 36  0  0  0  0  0  0  0  0999 V2000
    1.7722    5.7028    5.4410 C   0  0  2  0  0  0  0  0  0  0  0  0
    2.2700    6.6551    6.3874 O   0  0  0  0  0  0  0  0  0  0  0  0
    1.9648    6.2957    3.9806 C   0  0  2  0  0  0  0  0  0  0  0  0
    3.3907    6.5589    3.6767 N   0  0  0  0  0  0  0  0  0  0  0  0
    1.1456    7.6038    3.8436 C   0  0  1  0  0  0  0  0  0  0  0  0
    1.3011    8.1493    2.5315 O   0  0  0  0  0  0  0  0  0  0  0  0
   -0.3302    7.2919    4.1491 C   0  0  2  0  0  0  0  0  0  0  0  0
   -1.0982    8.4897    4.0226 O   0  0  0  0  0  0  0  0  0  0  0  0
   -0.4570    6.6929    5.6022 C   0  0  2  0  0  0  0  0  0  0  0  0
    0.3552    5.4647    5.7350 O   0  0  0  0  0  0  0  0  0  0  0  0
   -1.9262    6.3468    5.9498 C   0  0  2  0  0  0  0  0  0  0  0  0
   -2.5703    5.7709    4.8117 O   0  0  0  0  0  0  0  0  0  0  0  0
   -2.6989    7.5878    6.3686 C   0  0  0  0  0  0  0  0  0  0  0  0
    4.2771    4.3735    9.4011 C   0  0  2  0  0  0  0  0  0  0  0  0
    4.7301    3.8988   10.7109 N   0  0  0  0  0  0  0  0  0  0  0  0
    4.5507    5.9019    9.3452 C   0  0  0  0  0  0  0  0  0  0  0  0
    4.0989    6.4203    7.9531 C   0  0  2  0  0  0  0  0  0  0  0  0
    4.3454    7.8674    7.8530 N   0  0  0  0  0  0  0  0  0  0  0  0
    2.5894    6.1431    7.7203 C   0  0  2  0  0  0  0  0  0  0  0  0
    2.3313    4.6070    7.8266 C   0  0  2  0  0  0  0  0  0  0  0  0
    0.9346    4.3532    7.6228 O   0  0  0  0  0  0  0  0  0  0  0  0
    2.7280    4.0779    9.2263 C   0  0  1  0  0  0  0  0  0  0  0  0
    2.4698    2.6521    9.2381 O   0  0  0  0  0  0  0  0  0  0  0  0
    1.5231    2.1855   10.2279 C   0  0  2  0  0  0  0  0  0  0  0  0
    0.5291    1.2311    9.4674 C   0  0  2  0  0  0  0  0  0  0  0  0
    1.2414    0.1365    8.9127 O   0  0  0  0  0  0  0  0  0  0  0  0
   -0.2094    2.0516    8.3430 C   0  0  1  0  0  0  0  0  0  0  0  0
   -1.1590    1.1802    7.5859 N   0  0  0  0  0  0  0  0  0  0  0  0
   -0.4153    0.4753    6.5198 C   0  0  0  0  0  0  0  0  0  0  0  0
   -0.9763    3.2312    9.0146 C   0  0  2  0  0  0  0  0  0  0  0  0
   -1.9350    2.6942    9.9247 O   0  0  0  0  0  0  0  0  0  0  0  0
   -1.7156    4.0848    7.9873 C   0  0  0  0  0  0  0  0  0  0  0  0
    0.0395    4.1214    9.7999 C   0  0  0  0  0  0  0  0  0  0  0  0
    0.7770    3.3233   10.8018 O   0  0  0  0  0  0  0  0  0  0  0  0
  1  3  1  0  0  0  0
  1  2  1  1  0  0  0
  3  5  1  0  0  0  0
  3  4  1  1  0  0  0
  5  6  1  6  0  0  0
  7  8  1  1  0  0  0
  7  5  1  0  0  0  0
  9 10  1  6  0  0  0
  9  7  1  0  0  0  0
 10  1  1  0  0  0  0
 11 13  1  6  0  0  0
 11  9  1  0  0  0  0
 12 11  1  0  0  0  0
 14 15  1  1  0  0  0
 16 14  1  0  0  0  0
 17 18  1  1  0  0  0
 17 16  1  0  0  0  0
 19  2  1  6  0  0  0
 19 20  1  0  0  0  0
 19 17  1  0  0  0  0
 20 21  1  1  0  0  0
 20 22  1  0  0  0  0
 22 23  1  6  0  0  0
 22 14  1  0  0  0  0
 24 23  1  6  0  0  0
 24 25  1  0  0  0  0
 25 27  1  0  0  0  0
 25 26  1  6  0  0  0
 27 28  1  1  0  0  0
 28 29  1  0  0  0  0
 30 31  1  1  0  0  0
 30 32  1  0  0  0  0
 30 27  1  0  0  0  0
 33 30  1  0  0  0  0
 34 33  1  0  0  0  0
 34 24  1  0  0  0  0
M  END
>  <CHROM.1>
-160.56265079,40.08686038,119.95691719,123.79365508,132.50839245,-84.51495914
0.94983704,4.80478904,7.27846647,-1.67677056,0.35327259,2.38550488

>  <Name>
lig.pdb

>  <RI>
0

>  <Rbt.Current_Directory>
/home/itssahil/PROJECTS/Mol_Feturizer/New_Systems/rnas/4k32

>  <Rbt.Executable>
rbdock ($Id: //depot/dev/client3/rdock/2013.1/src/exe/rbdock.cxx#4 $)

>  <Rbt.Library>
libRbt.so (2013.1, Build901 2013/11/27)

>  <Rbt.Parameter_File>
/export/apps/rDock/src/rDock_2013.1_src/data/scripts/dock_solv.prm

>  <Rbt.Receptor>
prm/blind_docking_20.prm

>  <SCORE>
115.881

>  <SCORE.INTER>
65.9859

>  <SCORE.INTER.CONST>
1

>  <SCORE.INTER.POLAR>
0

>  <SCORE.INTER.ROT>
6

>  <SCORE.INTER.SOLV>
39.6408

>  <SCORE.INTER.VDW>
23.177

>  <SCORE.INTER.norm>
1.94076

>  <SCORE.INTRA>
21.5124

>  <SCORE.INTRA.DIHEDRAL>
6.18309

>  <SCORE.INTRA.DIHEDRAL.0>
18.0069

>  <SCORE.INTRA.POLAR>
0

>  <SCORE.INTRA.POLAR.0>
0

>  <SCORE.INTRA.REPUL>
0

>  <SCORE.INTRA.REPUL.0>
0

>  <SCORE.INTRA.SOLV>
-0.74476

>  <SCORE.INTRA.SOLV.lig_0>
-70.7393

>  <SCORE.INTRA.VDW>
18.7932

>  <SCORE.INTRA.VDW.0>
-3.23471

>  <SCORE.INTRA.norm>
0.632716

>  <SCORE.RESTR>
28.3831

>  <SCORE.RESTR.CAVITY>
28.3831

>  <SCORE.RESTR.norm>
0.834797

>  <SCORE.SYSTEM>
0

>  <SCORE.SYSTEM.CONST>
0

>  <SCORE.SYSTEM.DIHEDRAL>
0

>  <SCORE.SYSTEM.SOLV>
0

>  <SCORE.SYSTEM.norm>
0

>  <SCORE.heavy>
34

>  <SCORE.norm>
3.40827

>  <RMSD>
32.098

$$$$
lig.pdb
 OpenBabel11021811503D
libRbt.so/2013.1/901 2013/11/27
 34 36  0  0  0  0  0  0  0  0999 V2000
    4.5538    4.6091   10.2508 C   0  0  2  0  0  0  0  0  0  0  0  0
    4.7913    5.4920    9.1489 O   0  0  0  0  0  0  0  0  0  0  0  0
    5.6112    3.4264   10.1860 C   0  0  2  0  0  0  0  0  0  0  0  0
    7.0029    3.9263   10.2759 N   0  0  0  0  0  0  0  0  0  0  0  0
    5.4187    2.6350    8.8678 C   0  0  1  0  0  0  0  0  0  0  0  0
    6.3585    1.5604    8.7946 O   0  0  0  0  0  0  0  0  0  0  0  0
    3.9704    2.1169    8.8145 C   0  0  2  0  0  0  0  0  0  0  0  0
    3.7801    1.3816    7.6048 O   0  0  0  0  0  0  0  0  0  0  0  0
    2.9682    3.3314    8.8985 C   0  0  2  0  0  0  0  0  0  0  0  0
    3.1821    4.1017   10.1421 O   0  0  0  0  0  0  0  0  0  0  0  0
    1.4941    2.8571    8.8650 C   0  0  2  0  0  0  0  0  0  0  0  0
    1.2916    1.9835    7.7527 O   0  0  0  0  0  0  0  0  0  0  0  0
    0.5406    4.0349    8.7372 C   0  0  0  0  0  0  0  0  0  0  0  0
    0.7858    6.9258    8.6836 C   0  0  2  0  0  0  0  0  0  0  0  0
   -0.3500    7.8258    8.4687 N   0  0  0  0  0  0  0  0  0  0  0  0
    1.6468    7.5350    9.8244 C   0  0  0  0  0  0  0  0  0  0  0  0
    2.8444    6.5814   10.0839 C   0  0  2  0  0  0  0  0  0  0  0  0
    3.6870    7.1177   11.1644 N   0  0  0  0  0  0  0  0  0  0  0  0
    3.7054    6.4099    8.8037 C   0  0  2  0  0  0  0  0  0  0  0  0
    2.8088    5.8403    7.6594 C   0  0  2  0  0  0  0  0  0  0  0  0
    3.6024    5.6930    6.4741 O   0  0  0  0  0  0  0  0  0  0  0  0
    1.6356    6.8015    7.3494 C   0  0  1  0  0  0  0  0  0  0  0  0
    0.8507    6.1978    6.2914 O   0  0  0  0  0  0  0  0  0  0  0  0
    1.1434    6.6465    4.9473 C   0  0  2  0  0  0  0  0  0  0  0  0
    0.4804    8.0670    4.8059 C   0  0  2  0  0  0  0  0  0  0  0  0
    1.0429    8.9581    5.7561 O   0  0  0  0  0  0  0  0  0  0  0  0
   -1.0754    7.9290    5.0138 C   0  0  1  0  0  0  0  0  0  0  0  0
   -1.7471    9.2593    4.8979 N   0  0  0  0  0  0  0  0  0  0  0  0
   -1.5786    9.9930    6.1707 C   0  0  0  0  0  0  0  0  0  0  0  0
   -1.6327    6.9465    3.9392 C   0  0  2  0  0  0  0  0  0  0  0  0
   -1.3675    7.4858    2.6452 O   0  0  0  0  0  0  0  0  0  0  0  0
   -3.1403    6.7505    4.0777 C   0  0  0  0  0  0  0  0  0  0  0  0
   -0.9111    5.5682    4.0823 C   0  0  0  0  0  0  0  0  0  0  0  0
    0.5535    5.7230    3.9574 O   0  0  0  0  0  0  0  0  0  0  0  0
  1  3  1  0  0  0  0
  1  2  1  6  0  0  0
  3  5  1  0  0  0  0
  3  4  1  6  0  0  0
  5  6  1  1  0  0  0
  7  8  1  6  0  0  0
  7  5  1  0  0  0  0
  9 10  1  1  0  0  0
  9  7  1  0  0  0  0
 10  1  1  0  0  0  0
 11 13  1  6  0  0  0
 11  9  1  0  0  0  0
 12 11  1  0  0  0  0
 14 15  1  6  0  0  0
 16 14  1  0  0  0  0
 17 18  1  1  0  0  0
 17 16  1  0  0  0  0
 19  2  1  1  0  0  0
 19 20  1  0  0  0  0
 19 17  1  0  0  0  0
 20 21  1  6  0  0  0
 20 22  1  0  0  0  0
 22 23  1  6  0  0  0
 22 14  1  0  0  0  0
 24 23  1  1  0  0  0
 24 25  1  0  0  0  0
 25 27  1  0  0  0  0
 25 26  1  1  0  0  0
 27 28  1  6  0  0  0
 28 29  1  0  0  0  0
 30 31  1  6  0  0  0
 30 32  1  0  0  0  0
 30 27  1  0  0  0  0
 33 30  1  0  0  0  0
 34 33  1  0  0  0  0
 34 24  1  0  0  0  0
M  END
>  <CHROM.1>
162.67343717,-51.29687908,23.60602447,147.58358588,-76.29121410,-79.74068208
1.87561794,5.61899328,7.41851618,-0.18132860,-0.82423970,0.49561386

>  <Name>
lig.pdb

>  <RI>
0

>  <Rbt.Current_Directory>
/home/itssahil/PROJECTS/Mol_Feturizer/New_Systems/rnas/4k32

>  <Rbt.Executable>
rbdock ($Id: //depot/dev/client3/rdock/2013.1/src/exe/rbdock.cxx#4 $)

>  <Rbt.Library>
libRbt.so (2013.1, Build901 2013/11/27)

>  <Rbt.Parameter_File>
/export/apps/rDock/src/rDock_2013.1_src/data/scripts/dock_solv.prm

>  <Rbt.Receptor>
prm/blind_docking_20.prm

>  <SCORE>
37.6341

>  <SCORE.INTER>
6.51429

>  <SCORE.INTER.CONST>
1

>  <SCORE.INTER.POLAR>
0

>  <SCORE.INTER.ROT>
6

>  <SCORE.INTER.SOLV>
30.9257

>  <SCORE.INTER.VDW>
-13.5657

>  <SCORE.INTER.norm>
0.191597

>  <SCORE.INTRA>
7.41285

>  <SCORE.INTRA.DIHEDRAL>
-5.9672

>  <SCORE.INTRA.DIHEDRAL.0>
18.0069

>  <SCORE.INTRA.POLAR>
0

>  <SCORE.INTRA.POLAR.0>
0

>  <SCORE.INTRA.REPUL>
0

>  <SCORE.INTRA.REPUL.0>
0

>  <SCORE.INTRA.SOLV>
2.88868

>  <SCORE.INTRA.SOLV.lig_0>
-70.7393

>  <SCORE.INTRA.VDW>
8.95211

>  <SCORE.INTRA.VDW.0>
-3.23471

>  <SCORE.INTRA.norm>
0.218025

>  <SCORE.RESTR>
23.7069

>  <SCORE.RESTR.CAVITY>
23.7069

>  <SCORE.RESTR.norm>
0.697263

>  <SCORE.SYSTEM>
0

>  <SCORE.SYSTEM.CONST>
0

>  <SCORE.SYSTEM.DIHEDRAL>
0

>  <SCORE.SYSTEM.SOLV>
0

>  <SCORE.SYSTEM.norm>
0

>  <SCORE.heavy>
34

>  <SCORE.norm>
1.10688

>  <RMSD>
32.124

$$$$
lig.pdb
 OpenBabel11021811503D
libRbt.so/2013.1/901 2013/11/27
 34 36  0  0  0  0  0  0  0  0999 V2000
    2.0556    7.2491    7.4025 C   0  0  2  0  0  0  0  0  0  0  0  0
    2.4116    5.9187    7.0107 O   0  0  0  0  0  0  0  0  0  0  0  0
    1.1097    7.1637    8.6750 C   0  0  2  0  0  0  0  0  0  0  0  0
    1.7816    6.5014    9.8173 N   0  0  0  0  0  0  0  0  0  0  0  0
   -0.1834    6.3945    8.3048 C   0  0  1  0  0  0  0  0  0  0  0  0
   -1.0517    6.3133    9.4375 O   0  0  0  0  0  0  0  0  0  0  0  0
   -0.8636    7.1171    7.1285 C   0  0  2  0  0  0  0  0  0  0  0  0
   -2.0603    6.4198    6.7790 O   0  0  0  0  0  0  0  0  0  0  0  0
    0.1262    7.1854    5.9029 C   0  0  2  0  0  0  0  0  0  0  0  0
    1.3718    7.8900    6.2744 O   0  0  0  0  0  0  0  0  0  0  0  0
   -0.5097    7.9206    4.6970 C   0  0  2  0  0  0  0  0  0  0  0  0
    0.3825    7.8830    3.5816 O   0  0  0  0  0  0  0  0  0  0  0  0
   -0.8058    9.3739    5.0331 C   0  0  0  0  0  0  0  0  0  0  0  0
    4.0450    2.4181    8.8530 C   0  0  2  0  0  0  0  0  0  0  0  0
    4.5975    1.5094    9.8606 N   0  0  0  0  0  0  0  0  0  0  0  0
    4.8885    3.7222    8.8969 C   0  0  0  0  0  0  0  0  0  0  0  0
    4.3328    4.6903    7.8176 C   0  0  2  0  0  0  0  0  0  0  0  0
    5.1079    5.9409    7.8194 N   0  0  0  0  0  0  0  0  0  0  0  0
    2.8382    5.0166    8.0808 C   0  0  2  0  0  0  0  0  0  0  0  0
    2.0186    3.6877    8.0776 C   0  0  2  0  0  0  0  0  0  0  0  0
    0.6399    3.9892    8.3323 O   0  0  0  0  0  0  0  0  0  0  0  0
    2.5237    2.7271    9.1814 C   0  0  1  0  0  0  0  0  0  0  0  0
    1.7235    1.5215    9.1040 O   0  0  0  0  0  0  0  0  0  0  0  0
    1.8741    0.7346    7.8990 C   0  0  2  0  0  0  0  0  0  0  0  0
    0.5730    0.9827    7.0487 C   0  0  2  0  0  0  0  0  0  0  0  0
    0.4630    2.3602    6.7269 O   0  0  0  0  0  0  0  0  0  0  0  0
   -0.6781    0.4941    7.8726 C   0  0  1  0  0  0  0  0  0  0  0  0
   -1.9410    0.7204    7.1055 N   0  0  0  0  0  0  0  0  0  0  0  0
   -1.7230    0.3247    5.6975 C   0  0  0  0  0  0  0  0  0  0  0  0
   -0.5013   -1.0224    8.1876 C   0  0  2  0  0  0  0  0  0  0  0  0
   -0.4277   -1.7397    6.9564 O   0  0  0  0  0  0  0  0  0  0  0  0
   -1.6734   -1.5743    8.9951 C   0  0  0  0  0  0  0  0  0  0  0  0
    0.8261   -1.2283    8.9856 C   0  0  0  0  0  0  0  0  0  0  0  0
    1.9828   -0.6999    8.2324 O   0  0  0  0  0  0  0  0  0  0  0  0
  1  3  1  0  0  0  0
  1  2  1  6  0  0  0
  3  5  1  0  0  0  0
  3  4  1  1  0  0  0
  5  6  1  1  0  0  0
  7  8  1  6  0  0  0
  7  5  1  0  0  0  0
  9 10  1  1  0  0  0
  9  7  1  0  0  0  0
 10  1  1  0  0  0  0
 11 13  1  1  0  0  0
 11  9  1  0  0  0  0
 12 11  1  0  0  0  0
 14 15  1  1  0  0  0
 16 14  1  0  0  0  0
 17 18  1  1  0  0  0
 17 16  1  0  0  0  0
 19  2  1  6  0  0  0
 19 20  1  0  0  0  0
 19 17  1  0  0  0  0
 20 21  1  1  0  0  0
 20 22  1  0  0  0  0
 22 23  1  6  0  0  0
 22 14  1  0  0  0  0
 24 23  1  1  0  0  0
 24 25  1  0  0  0  0
 25 27  1  0  0  0  0
 25 26  1  1  0  0  0
 27 28  1  6  0  0  0
 28 29  1  0  0  0  0
 30 31  1  6  0  0  0
 30 32  1  0  0  0  0
 30 27  1  0  0  0  0
 33 30  1  0  0  0  0
 34 33  1  0  0  0  0
 34 24  1  0  0  0  0
M  END
>  <CHROM.1>
-46.28130527,-176.17054253,-114.33724420,-50.42963345,-105.59902047,42.97774170
0.99781079,3.76125977,7.61518599,-1.54901119,0.41831654,2.92981113

>  <Name>
lig.pdb

>  <RI>
0

>  <Rbt.Current_Directory>
/home/itssahil/PROJECTS/Mol_Feturizer/New_Systems/rnas/4k32

>  <Rbt.Executable>
rbdock ($Id: //depot/dev/client3/rdock/2013.1/src/exe/rbdock.cxx#4 $)

>  <Rbt.Library>
libRbt.so (2013.1, Build901 2013/11/27)

>  <Rbt.Parameter_File>
/export/apps/rDock/src/rDock_2013.1_src/data/scripts/dock_solv.prm

>  <Rbt.Receptor>
prm/blind_docking_20.prm

>  <SCORE>
59.2151

>  <SCORE.INTER>
15.8147

>  <SCORE.INTER.CONST>
1

>  <SCORE.INTER.POLAR>
0

>  <SCORE.INTER.ROT>
6

>  <SCORE.INTER.SOLV>
27.3775

>  <SCORE.INTER.VDW>
-6.18272

>  <SCORE.INTER.norm>
0.465137

>  <SCORE.INTRA>
15.4034

>  <SCORE.INTRA.DIHEDRAL>
-3.07599

>  <SCORE.INTRA.DIHEDRAL.0>
18.0069

>  <SCORE.INTRA.POLAR>
0

>  <SCORE.INTRA.POLAR.0>
0

>  <SCORE.INTRA.REPUL>
0

>  <SCORE.INTRA.REPUL.0>
0

>  <SCORE.INTRA.SOLV>
3.69193

>  <SCORE.INTRA.SOLV.lig_0>
-70.7393

>  <SCORE.INTRA.VDW>
15.0954

>  <SCORE.INTRA.VDW.0>
-3.23471

>  <SCORE.INTRA.norm>
0.45304

>  <SCORE.RESTR>
27.9971

>  <SCORE.RESTR.CAVITY>
27.9971

>  <SCORE.RESTR.norm>
0.823444

>  <SCORE.SYSTEM>
0

>  <SCORE.SYSTEM.CONST>
0

>  <SCORE.SYSTEM.DIHEDRAL>
0

>  <SCORE.SYSTEM.SOLV>
0

>  <SCORE.SYSTEM.norm>
0

>  <SCORE.heavy>
34

>  <SCORE.norm>
1.74162

>  <RMSD>
32.131

$$$$
lig.pdb
 OpenBabel11021811503D
libRbt.so/2013.1/901 2013/11/27
 34 36  0  0  0  0  0  0  0  0999 V2000
    4.6396    4.5918   10.1483 C   0  0  2  0  0  0  0  0  0  0  0  0
    4.8165    5.4713    9.0323 O   0  0  0  0  0  0  0  0  0  0  0  0
    5.6227    3.3568    9.9775 C   0  0  2  0  0  0  0  0  0  0  0  0
    7.0409    3.7834    9.9356 N   0  0  0  0  0  0  0  0  0  0  0  0
    5.2641    2.5885    8.6805 C   0  0  1  0  0  0  0  0  0  0  0  0
    6.1352    1.4675    8.5130 O   0  0  0  0  0  0  0  0  0  0  0  0
    3.7923    2.1463    8.7641 C   0  0  2  0  0  0  0  0  0  0  0  0
    3.4492    1.4328    7.5752 O   0  0  0  0  0  0  0  0  0  0  0  0
    2.8675    3.4100    8.9489 C   0  0  2  0  0  0  0  0  0  0  0  0
    3.2391    4.1569   10.1695 O   0  0  0  0  0  0  0  0  0  0  0  0
    1.3742    3.0127    9.0550 C   0  0  2  0  0  0  0  0  0  0  0  0
    1.2356    1.6007    8.8863 O   0  0  0  0  0  0  0  0  0  0  0  0
    0.5423    3.7127    7.9915 C   0  0  0  0  0  0  0  0  0  0  0  0
    0.7851    6.8757    8.7280 C   0  0  2  0  0  0  0  0  0  0  0  0
   -0.3651    7.7689    8.5689 N   0  0  0  0  0  0  0  0  0  0  0  0
    1.6778    7.4701    9.8522 C   0  0  0  0  0  0  0  0  0  0  0  0
    2.8919    6.5230   10.0528 C   0  0  2  0  0  0  0  0  0  0  0  0
    3.7647    7.0455   11.1158 N   0  0  0  0  0  0  0  0  0  0  0  0
    3.7116    6.3855    8.7418 C   0  0  2  0  0  0  0  0  0  0  0  0
    2.7828    5.8304    7.6162 C   0  0  2  0  0  0  0  0  0  0  0  0
    3.5382    5.7147    6.4027 O   0  0  0  0  0  0  0  0  0  0  0  0
    1.5916    6.7864    7.3645 C   0  0  1  0  0  0  0  0  0  0  0  0
    0.7776    6.1966    6.3207 O   0  0  0  0  0  0  0  0  0  0  0  0
    1.0957    6.5929    4.9659 C   0  0  2  0  0  0  0  0  0  0  0  0
    0.4585    8.0181    4.7658 C   0  0  2  0  0  0  0  0  0  0  0  0
    1.0231    8.9329    5.6920 O   0  0  0  0  0  0  0  0  0  0  0  0
   -1.1020    7.9129    4.9567 C   0  0  1  0  0  0  0  0  0  0  0  0
   -1.7498    9.2490    4.7851 N   0  0  0  0  0  0  0  0  0  0  0  0
   -1.6019   10.0173    6.0398 C   0  0  0  0  0  0  0  0  0  0  0  0
   -1.6613    6.9024    3.9094 C   0  0  2  0  0  0  0  0  0  0  0  0
   -1.3700    7.3914    2.6012 O   0  0  0  0  0  0  0  0  0  0  0  0
   -3.1737    6.7359    4.0337 C   0  0  0  0  0  0  0  0  0  0  0  0
   -0.9649    5.5184    4.1107 C   0  0  0  0  0  0  0  0  0  0  0  0
    0.5037    5.6449    4.0008 O   0  0  0  0  0  0  0  0  0  0  0  0
  1  3  1  0  0  0  0
  1  2  1  6  0  0  0
  3  5  1  0  0  0  0
  3  4  1  6  0  0  0
  5  6  1  1  0  0  0
  7  8  1  6  0  0  0
  7  5  1  0  0  0  0
  9 10  1  1  0  0  0
  9  7  1  0  0  0  0
 10  1  1  0  0  0  0
 11 13  1  6  0  0  0
 11  9  1  0  0  0  0
 12 11  1  0  0  0  0
 14 15  1  6  0  0  0
 16 14  1  0  0  0  0
 17 18  1  1  0  0  0
 17 16  1  0  0  0  0
 19  2  1  1  0  0  0
 19 20  1  0  0  0  0
 19 17  1  0  0  0  0
 20 21  1  6  0  0  0
 20 22  1  0  0  0  0
 22 23  1  6  0  0  0
 22 14  1  0  0  0  0
 24 23  1  1  0  0  0
 24 25  1  0  0  0  0
 25 27  1  0  0  0  0
 25 26  1  1  0  0  0
 27 28  1  6  0  0  0
 28 29  1  0  0  0  0
 30 31  1  6  0  0  0
 30 32  1  0  0  0  0
 30 27  1  0  0  0  0
 33 30  1  0  0  0  0
 34 33  1  0  0  0  0
 34 24  1  0  0  0  0
M  END
>  <CHROM.1>
158.65388808,-2.96578981,21.79005643,152.47774770,-78.51383937,-80.49221241
1.83563164,5.57396510,7.38738634,-0.24799505,-0.81908073,0.41228919

>  <Name>
lig.pdb

>  <RI>
0

>  <Rbt.Current_Directory>
/home/itssahil/PROJECTS/Mol_Feturizer/New_Systems/rnas/4k32

>  <Rbt.Executable>
rbdock ($Id: //depot/dev/client3/rdock/2013.1/src/exe/rbdock.cxx#4 $)

>  <Rbt.Library>
libRbt.so (2013.1, Build901 2013/11/27)

>  <Rbt.Parameter_File>
/export/apps/rDock/src/rDock_2013.1_src/data/scripts/dock_solv.prm

>  <Rbt.Receptor>
prm/blind_docking_20.prm

>  <SCORE>
38.8459

>  <SCORE.INTER>
3.6261

>  <SCORE.INTER.CONST>
1

>  <SCORE.INTER.POLAR>
0

>  <SCORE.INTER.ROT>
6

>  <SCORE.INTER.SOLV>
30.1746

>  <SCORE.INTER.VDW>
-15.2408

>  <SCORE.INTER.norm>
0.10665

>  <SCORE.INTRA>
11.787

>  <SCORE.INTRA.DIHEDRAL>
-0.501881

>  <SCORE.INTRA.DIHEDRAL.0>
18.0069

>  <SCORE.INTRA.POLAR>
0

>  <SCORE.INTRA.POLAR.0>
0

>  <SCORE.INTRA.REPUL>
0

>  <SCORE.INTRA.REPUL.0>
0

>  <SCORE.INTRA.SOLV>
2.55504

>  <SCORE.INTRA.SOLV.lig_0>
-70.7393

>  <SCORE.INTRA.VDW>
10.7605

>  <SCORE.INTRA.VDW.0>
-3.23471

>  <SCORE.INTRA.norm>
0.346677

>  <SCORE.RESTR>
23.4328

>  <SCORE.RESTR.CAVITY>
23.4328

>  <SCORE.RESTR.norm>
0.6892

>  <SCORE.SYSTEM>
0

>  <SCORE.SYSTEM.CONST>
0

>  <SCORE.SYSTEM.DIHEDRAL>
0

>  <SCORE.SYSTEM.SOLV>
0

>  <SCORE.SYSTEM.norm>
0

>  <SCORE.heavy>
34

>  <SCORE.norm>
1.14253

>  <RMSD>
32.169

$$$$
lig.pdb
 OpenBabel11021811503D
libRbt.so/2013.1/901 2013/11/27
 34 36  0  0  0  0  0  0  0  0999 V2000
    4.4056    4.5299   10.2789 C   0  0  2  0  0  0  0  0  0  0  0  0
    4.7334    5.4506    9.2325 O   0  0  0  0  0  0  0  0  0  0  0  0
    5.3952    3.2914   10.1888 C   0  0  2  0  0  0  0  0  0  0  0  0
    6.8091    3.7031   10.3509 N   0  0  0  0  0  0  0  0  0  0  0  0
    5.2058    2.5790    8.8259 C   0  0  1  0  0  0  0  0  0  0  0  0
    6.0845    1.4556    8.7290 O   0  0  0  0  0  0  0  0  0  0  0  0
    3.7332    2.1506    8.6974 C   0  0  2  0  0  0  0  0  0  0  0  0
    3.5453    1.4885    7.4457 O   0  0  0  0  0  0  0  0  0  0  0  0
    2.7998    3.4166    8.8101 C   0  0  2  0  0  0  0  0  0  0  0  0
    3.0119    4.1105   10.0983 O   0  0  0  0  0  0  0  0  0  0  0  0
    1.3031    3.0325    8.7029 C   0  0  2  0  0  0  0  0  0  0  0  0
    0.5032    4.2147    8.6387 O   0  0  0  0  0  0  0  0  0  0  0  0
    0.8592    2.2105    9.9029 C   0  0  0  0  0  0  0  0  0  0  0  0
    0.7853    6.9875    8.6264 C   0  0  2  0  0  0  0  0  0  0  0  0
   -0.3178    7.9152    8.3644 N   0  0  0  0  0  0  0  0  0  0  0  0
    1.6291    7.5903    9.7834 C   0  0  0  0  0  0  0  0  0  0  0  0
    2.7913    6.6080   10.0927 C   0  0  2  0  0  0  0  0  0  0  0  0
    3.6163    7.1375   11.1899 N   0  0  0  0  0  0  0  0  0  0  0  0
    3.6844    6.3928    8.8414 C   0  0  2  0  0  0  0  0  0  0  0  0
    2.8063    5.8305    7.6794 C   0  0  2  0  0  0  0  0  0  0  0  0
    3.6301    5.6429    6.5206 O   0  0  0  0  0  0  0  0  0  0  0  0
    1.6703    6.8190    7.3203 C   0  0  1  0  0  0  0  0  0  0  0  0
    0.9003    6.2208    6.2483 O   0  0  0  0  0  0  0  0  0  0  0  0
    1.1719    6.7174    4.9166 C   0  0  2  0  0  0  0  0  0  0  0  0
    0.4101    8.0895    4.7972 C   0  0  2  0  0  0  0  0  0  0  0  0
    0.8989    8.9985    5.7710 O   0  0  0  0  0  0  0  0  0  0  0  0
   -1.1335    7.8364    4.9862 C   0  0  1  0  0  0  0  0  0  0  0  0
   -1.8978    9.1175    4.8904 N   0  0  0  0  0  0  0  0  0  0  0  0
   -1.4757    9.8364    3.6691 C   0  0  0  0  0  0  0  0  0  0  0  0
   -1.6095    6.8394    3.8863 C   0  0  2  0  0  0  0  0  0  0  0  0
   -1.3724    7.4232    2.6062 O   0  0  0  0  0  0  0  0  0  0  0  0
   -3.1004    6.5333    4.0053 C   0  0  0  0  0  0  0  0  0  0  0  0
   -0.7923    5.5134    4.0089 C   0  0  0  0  0  0  0  0  0  0  0  0
    0.6584    5.7750    3.9022 O   0  0  0  0  0  0  0  0  0  0  0  0
  1  3  1  0  0  0  0
  1  2  1  6  0  0  0
  3  5  1  0  0  0  0
  3  4  1  6  0  0  0
  5  6  1  1  0  0  0
  7  8  1  6  0  0  0
  7  5  1  0  0  0  0
  9 10  1  1  0  0  0
  9  7  1  0  0  0  0
 10  1  1  0  0  0  0
 11 13  1  1  0  0  0
 11  9  1  0  0  0  0
 12 11  1  0  0  0  0
 14 15  1  6  0  0  0
 16 14  1  0  0  0  0
 17 18  1  1  0  0  0
 17 16  1  0  0  0  0
 19  2  1  1  0  0  0
 19 20  1  0  0  0  0
 19 17  1  0  0  0  0
 20 21  1  6  0  0  0
 20 22  1  0  0  0  0
 22 23  1  6  0  0  0
 22 14  1  0  0  0  0
 24 23  1  1  0  0  0
 24 25  1  0  0  0  0
 25 27  1  0  0  0  0
 25 26  1  1  0  0  0
 27 28  1  6  0  0  0
 28 29  1  0  0  0  0
 30 31  1  6  0  0  0
 30 32  1  0  0  0  0
 30 27  1  0  0  0  0
 33 30  1  0  0  0  0
 34 33  1  0  0  0  0
 34 24  1  0  0  0  0
M  END
>  <CHROM.1>
158.96782062,-172.68908361,27.76030442,142.87874097,-78.72115780,49.70578857
1.79756625,5.61629667,7.37790535,-0.18215572,-0.87187305,0.45672336

>  <Name>
lig.pdb

>  <RI>
0

>  <Rbt.Current_Directory>
/home/itssahil/PROJECTS/Mol_Feturizer/New_Systems/rnas/4k32

>  <Rbt.Executable>
rbdock ($Id: //depot/dev/client3/rdock/2013.1/src/exe/rbdock.cxx#4 $)

>  <Rbt.Library>
libRbt.so (2013.1, Build901 2013/11/27)

>  <Rbt.Parameter_File>
/export/apps/rDock/src/rDock_2013.1_src/data/scripts/dock_solv.prm

>  <Rbt.Receptor>
prm/blind_docking_20.prm

>  <SCORE>
44.9978

>  <SCORE.INTER>
10.25

>  <SCORE.INTER.CONST>
1

>  <SCORE.INTER.POLAR>
0

>  <SCORE.INTER.ROT>
6

>  <SCORE.INTER.SOLV>
31.3317

>  <SCORE.INTER.VDW>
-11.2106

>  <SCORE.INTER.norm>
0.30147

>  <SCORE.INTRA>
11.6275

>  <SCORE.INTRA.DIHEDRAL>
-5.2216

>  <SCORE.INTRA.DIHEDRAL.0>
18.0069

>  <SCORE.INTRA.POLAR>
0

>  <SCORE.INTRA.POLAR.0>
0

>  <SCORE.INTRA.REPUL>
0

>  <SCORE.INTRA.REPUL.0>
0

>  <SCORE.INTRA.SOLV>
2.99318

>  <SCORE.INTRA.SOLV.lig_0>
-70.7393

>  <SCORE.INTRA.VDW>
12.7417

>  <SCORE.INTRA.VDW.0>
-3.23471

>  <SCORE.INTRA.norm>
0.341986

>  <SCORE.RESTR>
23.1203

>  <SCORE.RESTR.CAVITY>
23.1203

>  <SCORE.RESTR.norm>
0.680008

>  <SCORE.SYSTEM>
0

>  <SCORE.SYSTEM.CONST>
0

>  <SCORE.SYSTEM.DIHEDRAL>
0

>  <SCORE.SYSTEM.SOLV>
0

>  <SCORE.SYSTEM.norm>
0

>  <SCORE.heavy>
34

>  <SCORE.norm>
1.32346

>  <RMSD>
32.173

$$$$
lig.pdb
 OpenBabel11021811503D
libRbt.so/2013.1/901 2013/11/27
 34 36  0  0  0  0  0  0  0  0999 V2000
    4.4604    4.6051   10.1667 C   0  0  2  0  0  0  0  0  0  0  0  0
    4.6636    5.4666    9.0412 O   0  0  0  0  0  0  0  0  0  0  0  0
    5.5061    3.4131   10.0842 C   0  0  2  0  0  0  0  0  0  0  0  0
    6.9038    3.9035   10.1142 N   0  0  0  0  0  0  0  0  0  0  0  0
    5.2595    2.6003    8.7883 C   0  0  1  0  0  0  0  0  0  0  0  0
    6.1882    1.5172    8.6998 O   0  0  0  0  0  0  0  0  0  0  0  0
    3.8065    2.0928    8.7973 C   0  0  2  0  0  0  0  0  0  0  0  0
    3.5665    1.3379    7.6086 O   0  0  0  0  0  0  0  0  0  0  0  0
    2.8169    3.3165    8.8963 C   0  0  2  0  0  0  0  0  0  0  0  0
    3.0820    4.1068   10.1174 O   0  0  0  0  0  0  0  0  0  0  0  0
    1.3392    2.8534    8.9254 C   0  0  2  0  0  0  0  0  0  0  0  0
    1.0579    2.0588    7.7716 O   0  0  0  0  0  0  0  0  0  0  0  0
    0.3908    4.0421    8.9392 C   0  0  0  0  0  0  0  0  0  0  0  0
    0.6507    6.9067    8.6674 C   0  0  2  0  0  0  0  0  0  0  0  0
   -0.4881    7.8081    8.4760 N   0  0  0  0  0  0  0  0  0  0  0  0
    1.5407    7.5196    9.7837 C   0  0  0  0  0  0  0  0  0  0  0  0
    2.7424    6.5647   10.0184 C   0  0  2  0  0  0  0  0  0  0  0  0
    3.6123    7.1044   11.0753 N   0  0  0  0  0  0  0  0  0  0  0  0
    3.5714    6.3852    8.7184 C   0  0  2  0  0  0  0  0  0  0  0  0
    2.6458    5.8120    7.5992 C   0  0  2  0  0  0  0  0  0  0  0  0
    3.4098    5.6573    6.3955 O   0  0  0  0  0  0  0  0  0  0  0  0
    1.4673    6.7742    7.3134 C   0  0  1  0  0  0  0  0  0  0  0  0
    0.6555    6.1670    6.2779 O   0  0  0  0  0  0  0  0  0  0  0  0
    0.9987    6.5138    4.9157 C   0  0  2  0  0  0  0  0  0  0  0  0
    0.4211    7.9576    4.6727 C   0  0  2  0  0  0  0  0  0  0  0  0
    1.0159    8.8734    5.5788 O   0  0  0  0  0  0  0  0  0  0  0  0
   -1.1436    7.9205    4.8539 C   0  0  1  0  0  0  0  0  0  0  0  0
   -1.7356    9.2765    4.6417 N   0  0  0  0  0  0  0  0  0  0  0  0
   -1.6126   10.0537    5.8937 C   0  0  0  0  0  0  0  0  0  0  0  0
   -1.7361    6.9056    3.8294 C   0  0  2  0  0  0  0  0  0  0  0  0
   -1.4162    7.3472    2.5110 O   0  0  0  0  0  0  0  0  0  0  0  0
   -3.2548    6.8036    3.9459 C   0  0  0  0  0  0  0  0  0  0  0  0
   -1.0977    5.5006    4.0728 C   0  0  0  0  0  0  0  0  0  0  0  0
    0.3755    5.5648    3.9714 O   0  0  0  0  0  0  0  0  0  0  0  0
  1  3  1  0  0  0  0
  1  2  1  6  0  0  0
  3  5  1  0  0  0  0
  3  4  1  6  0  0  0
  5  6  1  1  0  0  0
  7  8  1  6  0  0  0
  7  5  1  0  0  0  0
  9 10  1  1  0  0  0
  9  7  1  0  0  0  0
 10  1  1  0  0  0  0
 11 13  1  6  0  0  0
 11  9  1  0  0  0  0
 12 11  1  0  0  0  0
 14 15  1  6  0  0  0
 16 14  1  0  0  0  0
 17 18  1  1  0  0  0
 17 16  1  0  0  0  0
 19  2  1  1  0  0  0
 19 20  1  0  0  0  0
 19 17  1  0  0  0  0
 20 21  1  6  0  0  0
 20 22  1  0  0  0  0
 22 23  1  6  0  0  0
 22 14  1  0  0  0  0
 24 23  1  1  0  0  0
 24 25  1  0  0  0  0
 25 27  1  0  0  0  0
 25 26  1  1  0  0  0
 27 28  1  6  0  0  0
 28 29  1  0  0  0  0
 30 31  1  6  0  0  0
 30 32  1  0  0  0  0
 30 27  1  0  0  0  0
 33 30  1  0  0  0  0
 34 33  1  0  0  0  0
 34 24  1  0  0  0  0
M  END
>  <CHROM.1>
162.56400003,-56.45800506,22.59798597,153.14821464,-77.23196252,-82.67618848
1.74883132,5.58997235,7.35188569,-0.18845400,-0.83204835,0.47560924

>  <Name>
lig.pdb

>  <RI>
0

>  <Rbt.Current_Directory>
/home/itssahil/PROJECTS/Mol_Feturizer/New_Systems/rnas/4k32

>  <Rbt.Executable>
rbdock ($Id: //depot/dev/client3/rdock/2013.1/src/exe/rbdock.cxx#4 $)

>  <Rbt.Library>
libRbt.so (2013.1, Build901 2013/11/27)

>  <Rbt.Parameter_File>
/export/apps/rDock/src/rDock_2013.1_src/data/scripts/dock_solv.prm

>  <Rbt.Receptor>
prm/blind_docking_20.prm

>  <SCORE>
36.5866

>  <SCORE.INTER>
6.01807

>  <SCORE.INTER.CONST>
1

>  <SCORE.INTER.POLAR>
0

>  <SCORE.INTER.ROT>
6

>  <SCORE.INTER.SOLV>
30.2536

>  <SCORE.INTER.VDW>
-13.6725

>  <SCORE.INTER.norm>
0.177002

>  <SCORE.INTRA>
6.66652

>  <SCORE.INTRA.DIHEDRAL>
-6.82028

>  <SCORE.INTRA.DIHEDRAL.0>
18.0069

>  <SCORE.INTRA.POLAR>
0

>  <SCORE.INTRA.POLAR.0>
0

>  <SCORE.INTRA.REPUL>
0

>  <SCORE.INTRA.REPUL.0>
0

>  <SCORE.INTRA.SOLV>
2.33896

>  <SCORE.INTRA.SOLV.lig_0>
-70.7393

>  <SCORE.INTRA.VDW>
8.90718

>  <SCORE.INTRA.VDW.0>
-3.23471

>  <SCORE.INTRA.norm>
0.196074

>  <SCORE.RESTR>
23.902

>  <SCORE.RESTR.CAVITY>
23.902

>  <SCORE.RESTR.norm>
0.703

>  <SCORE.SYSTEM>
0

>  <SCORE.SYSTEM.CONST>
0

>  <SCORE.SYSTEM.DIHEDRAL>
0

>  <SCORE.SYSTEM.SOLV>
0

>  <SCORE.SYSTEM.norm>
0

>  <SCORE.heavy>
34

>  <SCORE.norm>
1.07608

>  <RMSD>
32.178

$$$$
lig.pdb
 OpenBabel11021811503D
libRbt.so/2013.1/901 2013/11/27
 34 36  0  0  0  0  0  0  0  0999 V2000
    4.4282    4.5916   10.1524 C   0  0  2  0  0  0  0  0  0  0  0  0
    4.6420    5.4559    9.0311 O   0  0  0  0  0  0  0  0  0  0  0  0
    5.4675    3.3939   10.0709 C   0  0  2  0  0  0  0  0  0  0  0  0
    6.8678    3.8761   10.1096 N   0  0  0  0  0  0  0  0  0  0  0  0
    5.2227    2.5871    8.7708 C   0  0  1  0  0  0  0  0  0  0  0  0
    6.1456    1.4990    8.6831 O   0  0  0  0  0  0  0  0  0  0  0  0
    3.7668    2.0880    8.7707 C   0  0  2  0  0  0  0  0  0  0  0  0
    3.5285    1.3387    7.5781 O   0  0  0  0  0  0  0  0  0  0  0  0
    2.7838    3.3170    8.8692 C   0  0  2  0  0  0  0  0  0  0  0  0
    3.0472    4.1014   10.0944 O   0  0  0  0  0  0  0  0  0  0  0  0
    1.3033    2.8623    8.8892 C   0  0  2  0  0  0  0  0  0  0  0  0
    1.0299    2.0526    7.7440 O   0  0  0  0  0  0  0  0  0  0  0  0
    0.3614    4.0562    8.8757 C   0  0  0  0  0  0  0  0  0  0  0  0
    0.6401    6.9243    8.6501 C   0  0  2  0  0  0  0  0  0  0  0  0
   -0.4920    7.8337    8.4568 N   0  0  0  0  0  0  0  0  0  0  0  0
    1.5324    7.5309    9.7680 C   0  0  0  0  0  0  0  0  0  0  0  0
    2.7270    6.5675   10.0049 C   0  0  2  0  0  0  0  0  0  0  0  0
    3.5988    7.1011   11.0633 N   0  0  0  0  0  0  0  0  0  0  0  0
    3.5569    6.3821    8.7062 C   0  0  2  0  0  0  0  0  0  0  0  0
    2.6293    5.8154    7.5855 C   0  0  2  0  0  0  0  0  0  0  0  0
    3.3943    5.6554    6.3831 O   0  0  0  0  0  0  0  0  0  0  0  0
    1.4581    6.7859    7.2976 C   0  0  1  0  0  0  0  0  0  0  0  0
    0.6439    6.1845    6.2607 O   0  0  0  0  0  0  0  0  0  0  0  0
    0.9951    6.5247    4.8989 C   0  0  2  0  0  0  0  0  0  0  0  0
    0.4156    7.9658    4.6443 C   0  0  2  0  0  0  0  0  0  0  0  0
    1.0021    8.8879    5.5493 O   0  0  0  0  0  0  0  0  0  0  0  0
   -1.1503    7.9257    4.8155 C   0  0  1  0  0  0  0  0  0  0  0  0
   -1.7442    9.2791    4.5921 N   0  0  0  0  0  0  0  0  0  0  0  0
   -1.5526   10.0930    5.8117 C   0  0  0  0  0  0  0  0  0  0  0  0
   -1.7335    6.9039    3.7926 C   0  0  2  0  0  0  0  0  0  0  0  0
   -1.4061    7.3391    2.4740 O   0  0  0  0  0  0  0  0  0  0  0  0
   -3.2527    6.7987    3.8998 C   0  0  0  0  0  0  0  0  0  0  0  0
   -1.0932    5.5017    4.0478 C   0  0  0  0  0  0  0  0  0  0  0  0
    0.3804    5.5691    3.9557 O   0  0  0  0  0  0  0  0  0  0  0  0
  1  3  1  0  0  0  0
  1  2  1  6  0  0  0
  3  5  1  0  0  0  0
  3  4  1  6  0  0  0
  5  6  1  1  0  0  0
  7  8  1  6  0  0  0
  7  5  1  0  0  0  0
  9 10  1  1  0  0  0
  9  7  1  0  0  0  0
 10  1  1  0  0  0  0
 11 13  1  6  0  0  0
 11  9  1  0  0  0  0
 12 11  1  0  0  0  0
 14 15  1  6  0  0  0
 16 14  1  0  0  0  0
 17 18  1  1  0  0  0
 17 16  1  0  0  0  0
 19  2  1  1  0  0  0
 19 20  1  0  0  0  0
 19 17  1  0  0  0  0
 20 21  1  6  0  0  0
 20 22  1  0  0  0  0
 22 23  1  6  0  0  0
 22 14  1  0  0  0  0
 24 23  1  1  0  0  0
 24 25  1  0  0  0  0
 25 27  1  0  0  0  0
 25 26  1  1  0  0  0
 27 28  1  6  0  0  0
 28 29  1  0  0  0  0
 30 31  1  6  0  0  0
 30 32  1  0  0  0  0
 30 27  1  0  0  0  0
 33 30  1  0  0  0  0
 34 33  1  0  0  0  0
 34 24  1  0  0  0  0
M  END
>  <CHROM.1>
162.58010355,-55.37507059,22.87876869,153.37558920,-77.98602980,-79.03515938
1.73364435,5.59170583,7.32624492,-0.19463094,-0.83672192,0.46832492

>  <Name>
lig.pdb

>  <RI>
0

>  <Rbt.Current_Directory>
/home/itssahil/PROJECTS/Mol_Feturizer/New_Systems/rnas/4k32

>  <Rbt.Executable>
rbdock ($Id: //depot/dev/client3/rdock/2013.1/src/exe/rbdock.cxx#4 $)

>  <Rbt.Library>
libRbt.so (2013.1, Build901 2013/11/27)

>  <Rbt.Parameter_File>
/export/apps/rDock/src/rDock_2013.1_src/data/scripts/dock_solv.prm

>  <Rbt.Receptor>
prm/blind_docking_20.prm

>  <SCORE>
37.4083

>  <SCORE.INTER>
6.82691

>  <SCORE.INTER.CONST>
1

>  <SCORE.INTER.POLAR>
0

>  <SCORE.INTER.ROT>
6

>  <SCORE.INTER.SOLV>
30.3669

>  <SCORE.INTER.VDW>
-13.171

>  <SCORE.INTER.norm>
0.200791

>  <SCORE.INTRA>
6.90584

>  <SCORE.INTRA.DIHEDRAL>
-6.86789

>  <SCORE.INTRA.DIHEDRAL.0>
18.0069

>  <SCORE.INTRA.POLAR>
0

>  <SCORE.INTRA.POLAR.0>
0

>  <SCORE.INTRA.REPUL>
0

>  <SCORE.INTRA.REPUL.0>
0

>  <SCORE.INTRA.SOLV>
2.28912

>  <SCORE.INTRA.SOLV.lig_0>
-70.7393

>  <SCORE.INTRA.VDW>
9.19522

>  <SCORE.INTRA.VDW.0>
-3.23471

>  <SCORE.INTRA.norm>
0.203113

>  <SCORE.RESTR>
23.6756

>  <SCORE.RESTR.CAVITY>
23.6756

>  <SCORE.RESTR.norm>
0.696341

>  <SCORE.SYSTEM>
0

>  <SCORE.SYSTEM.CONST>
0

>  <SCORE.SYSTEM.DIHEDRAL>
0

>  <SCORE.SYSTEM.SOLV>
0

>  <SCORE.SYSTEM.norm>
0

>  <SCORE.heavy>
34

>  <SCORE.norm>
1.10024

>  <RMSD>
32.200

$$$$
lig.pdb
 OpenBabel11021811503D
libRbt.so/2013.1/901 2013/11/27
 34 36  0  0  0  0  0  0  0  0999 V2000
    4.4591    4.3476    9.9722 C   0  0  2  0  0  0  0  0  0  0  0  0
    4.6514    5.2198    8.8531 O   0  0  0  0  0  0  0  0  0  0  0  0
    5.2826    3.0139    9.7191 C   0  0  2  0  0  0  0  0  0  0  0  0
    6.7328    3.2809    9.5752 N   0  0  0  0  0  0  0  0  0  0  0  0
    4.7465    2.3112    8.4464 C   0  0  1  0  0  0  0  0  0  0  0  0
    5.4720    1.1032    8.2058 O   0  0  0  0  0  0  0  0  0  0  0  0
    3.2445    2.0340    8.6358 C   0  0  2  0  0  0  0  0  0  0  0  0
    2.7377    1.3823    7.4701 O   0  0  0  0  0  0  0  0  0  0  0  0
    2.4830    3.3895    8.8987 C   0  0  2  0  0  0  0  0  0  0  0  0
    3.0240    4.0707   10.0941 O   0  0  0  0  0  0  0  0  0  0  0  0
    0.9663    3.1589    9.1124 C   0  0  2  0  0  0  0  0  0  0  0  0
    0.2784    4.4111    9.0905 O   0  0  0  0  0  0  0  0  0  0  0  0
    0.6961    2.4798   10.4460 C   0  0  0  0  0  0  0  0  0  0  0  0
    0.8355    7.1519    9.0025 C   0  0  2  0  0  0  0  0  0  0  0  0
   -0.1983    8.1886    8.9498 N   0  0  0  0  0  0  0  0  0  0  0  0
    1.9411    7.6528    9.9724 C   0  0  0  0  0  0  0  0  0  0  0  0
    3.0359    6.5553   10.0607 C   0  0  2  0  0  0  0  0  0  0  0  0
    4.1044    6.9859   10.9760 N   0  0  0  0  0  0  0  0  0  0  0  0
    3.6474    6.2671    8.6633 C   0  0  2  0  0  0  0  0  0  0  0  0
    2.5113    5.8100    7.6947 C   0  0  2  0  0  0  0  0  0  0  0  0
    3.0754    5.5550    6.4011 O   0  0  0  0  0  0  0  0  0  0  0  0
    1.4331    6.9116    7.5525 C   0  0  1  0  0  0  0  0  0  0  0  0
    0.4163    6.4069    6.6519 O   0  0  0  0  0  0  0  0  0  0  0  0
    0.8951    5.7919    5.4327 C   0  0  2  0  0  0  0  0  0  0  0  0
    0.4877    6.7633    4.2632 C   0  0  2  0  0  0  0  0  0  0  0  0
    1.1024    8.0283    4.4511 O   0  0  0  0  0  0  0  0  0  0  0  0
   -1.0819    6.8978    4.2324 C   0  0  1  0  0  0  0  0  0  0  0  0
   -1.5148    7.8218    3.1401 N   0  0  0  0  0  0  0  0  0  0  0  0
   -1.4740    9.2113    3.6445 C   0  0  0  0  0  0  0  0  0  0  0  0
   -1.6955    5.4809    4.0167 C   0  0  2  0  0  0  0  0  0  0  0  0
   -1.2334    4.9676    2.7683 O   0  0  0  0  0  0  0  0  0  0  0  0
   -3.2211    5.5228    3.9831 C   0  0  0  0  0  0  0  0  0  0  0  0
   -1.2238    4.5378    5.1695 C   0  0  0  0  0  0  0  0  0  0  0  0
    0.2517    4.4778    5.2330 O   0  0  0  0  0  0  0  0  0  0  0  0
  1  3  1  0  0  0  0
  1  2  1  6  0  0  0
  3  5  1  0  0  0  0
  3  4  1  6  0  0  0
  5  6  1  1  0  0  0
  7  8  1  6  0  0  0
  7  5  1  0  0  0  0
  9 10  1  1  0  0  0
  9  7  1  0  0  0  0
 10  1  1  0  0  0  0
 11 13  1  1  0  0  0
 11  9  1  0  0  0  0
 12 11  1  0  0  0  0
 14 15  1  6  0  0  0
 16 14  1  0  0  0  0
 17 18  1  1  0  0  0
 17 16  1  0  0  0  0
 19  2  1  1  0  0  0
 19 20  1  0  0  0  0
 19 17  1  0  0  0  0
 20 21  1  6  0  0  0
 20 22  1  0  0  0  0
 22 23  1  6  0  0  0
 22 14  1  0  0  0  0
 24 23  1  1  0  0  0
 24 25  1  0  0  0  0
 25 27  1  0  0  0  0
 25 26  1  1  0  0  0
 27 28  1  6  0  0  0
 28 29  1  0  0  0  0
 30 31  1  6  0  0  0
 30 32  1  0  0  0  0
 30 27  1  0  0  0  0
 33 30  1  0  0  0  0
 34 33  1  0  0  0  0
 34 24  1  0  0  0  0
M  END
>  <CHROM.1>
159.45678755,-168.94379107,26.02759997,-162.94615042,-110.78856465,-85.52133069
1.66033295,5.19223300,7.34518066,-0.12920452,-0.85106413,0.37295145

>  <Name>
lig.pdb

>  <RI>
0

>  <Rbt.Current_Directory>
/home/itssahil/PROJECTS/Mol_Feturizer/New_Systems/rnas/4k32

>  <Rbt.Executable>
rbdock ($Id: //depot/dev/client3/rdock/2013.1/src/exe/rbdock.cxx#4 $)

>  <Rbt.Library>
libRbt.so (2013.1, Build901 2013/11/27)

>  <Rbt.Parameter_File>
/export/apps/rDock/src/rDock_2013.1_src/data/scripts/dock_solv.prm

>  <Rbt.Receptor>
prm/blind_docking_20.prm

>  <SCORE>
46.1355

>  <SCORE.INTER>
9.49671

>  <SCORE.INTER.CONST>
1

>  <SCORE.INTER.POLAR>
0

>  <SCORE.INTER.ROT>
6

>  <SCORE.INTER.SOLV>
32.7848

>  <SCORE.INTER.VDW>
-12.1971

>  <SCORE.INTER.norm>
0.279315

>  <SCORE.INTRA>
11.4417

>  <SCORE.INTRA.DIHEDRAL>
-2.69115

>  <SCORE.INTRA.DIHEDRAL.0>
18.0069

>  <SCORE.INTRA.POLAR>
0

>  <SCORE.INTRA.POLAR.0>
0

>  <SCORE.INTRA.REPUL>
0

>  <SCORE.INTRA.REPUL.0>
0

>  <SCORE.INTRA.SOLV>
0.547357

>  <SCORE.INTRA.SOLV.lig_0>
-70.7393

>  <SCORE.INTRA.VDW>
12.5136

>  <SCORE.INTRA.VDW.0>
-3.23471

>  <SCORE.INTRA.norm>
0.336521

>  <SCORE.RESTR>
25.1971

>  <SCORE.RESTR.CAVITY>
25.1971

>  <SCORE.RESTR.norm>
0.74109

>  <SCORE.SYSTEM>
0

>  <SCORE.SYSTEM.CONST>
0

>  <SCORE.SYSTEM.DIHEDRAL>
0

>  <SCORE.SYSTEM.SOLV>
0

>  <SCORE.SYSTEM.norm>
0

>  <SCORE.heavy>
34

>  <SCORE.norm>
1.35693

>  <RMSD>
32.277

$$$$
lig.pdb
 OpenBabel11021811503D
libRbt.so/2013.1/901 2013/11/27
 34 36  0  0  0  0  0  0  0  0999 V2000
    3.7818    3.6330    9.5938 C   0  0  2  0  0  0  0  0  0  0  0  0
    4.0549    4.4541    8.4530 O   0  0  0  0  0  0  0  0  0  0  0  0
    3.7474    2.1159    9.1263 C   0  0  2  0  0  0  0  0  0  0  0  0
    5.0399    1.6909    8.5400 N   0  0  0  0  0  0  0  0  0  0  0  0
    2.6095    1.9211    8.0928 C   0  0  1  0  0  0  0  0  0  0  0  0
    2.5583    0.5581    7.6649 O   0  0  0  0  0  0  0  0  0  0  0  0
    1.2816    2.3555    8.7385 C   0  0  2  0  0  0  0  0  0  0  0  0
    0.2224    2.1773    7.7969 O   0  0  0  0  0  0  0  0  0  0  0  0
    1.3807    3.8612    9.1959 C   0  0  2  0  0  0  0  0  0  0  0  0
    2.4910    4.0453   10.1547 O   0  0  0  0  0  0  0  0  0  0  0  0
    0.0701    4.3400    9.8683 C   0  0  2  0  0  0  0  0  0  0  0  0
    0.3117    5.5459   10.5958 O   0  0  0  0  0  0  0  0  0  0  0  0
   -0.4687    3.2925   10.8301 C   0  0  0  0  0  0  0  0  0  0  0  0
    0.9121    7.3263    8.8884 C   0  0  2  0  0  0  0  0  0  0  0  0
    0.2036    8.6054    8.9786 N   0  0  0  0  0  0  0  0  0  0  0  0
    2.0892    7.3793    9.9010 C   0  0  0  0  0  0  0  0  0  0  0  0
    2.8390    6.0211    9.8377 C   0  0  2  0  0  0  0  0  0  0  0  0
    3.9625    6.0241   10.7878 N   0  0  0  0  0  0  0  0  0  0  0  0
    3.3811    5.7521    8.4082 C   0  0  2  0  0  0  0  0  0  0  0  0
    2.1867    5.7490    7.4027 C   0  0  2  0  0  0  0  0  0  0  0  0
    2.6900    5.5118    6.0810 O   0  0  0  0  0  0  0  0  0  0  0  0
    1.4553    7.1133    7.4129 C   0  0  1  0  0  0  0  0  0  0  0  0
    0.3608    7.0236    6.4675 O   0  0  0  0  0  0  0  0  0  0  0  0
    0.4545    5.9657    5.4848 C   0  0  2  0  0  0  0  0  0  0  0  0
    0.4934    6.6750    4.0803 C   0  0  2  0  0  0  0  0  0  0  0  0
    1.6278    7.5235    4.0001 O   0  0  0  0  0  0  0  0  0  0  0  0
   -0.8384    7.4935    3.8828 C   0  0  1  0  0  0  0  0  0  0  0  0
   -0.8409    8.1941    2.5624 N   0  0  0  0  0  0  0  0  0  0  0  0
   -1.4654    9.5243    2.7276 C   0  0  0  0  0  0  0  0  0  0  0  0
   -2.0428    6.5078    3.9740 C   0  0  2  0  0  0  0  0  0  0  0  0
   -1.9184    5.5364    2.9364 O   0  0  0  0  0  0  0  0  0  0  0  0
   -3.3783    7.2267    3.8006 C   0  0  0  0  0  0  0  0  0  0  0  0
   -2.0124    5.7891    5.3609 C   0  0  0  0  0  0  0  0  0  0  0  0
   -0.7285    5.0853    5.5633 O   0  0  0  0  0  0  0  0  0  0  0  0
  1  3  1  0  0  0  0
  1  2  1  6  0  0  0
  3  5  1  0  0  0  0
  3  4  1  6  0  0  0
  5  6  1  1  0  0  0
  7  8  1  6  0  0  0
  7  5  1  0  0  0  0
  9 10  1  1  0  0  0
  9  7  1  0  0  0  0
 10  1  1  0  0  0  0
 11 13  1  1  0  0  0
 11  9  1  0  0  0  0
 12 11  1  0  0  0  0
 14 15  1  6  0  0  0
 16 14  1  0  0  0  0
 17 18  1  1  0  0  0
 17 16  1  0  0  0  0
 19  2  1  1  0  0  0
 19 20  1  0  0  0  0
 19 17  1  0  0  0  0
 20 21  1  6  0  0  0
 20 22  1  0  0  0  0
 22 23  1  6  0  0  0
 22 14  1  0  0  0  0
 24 23  1  1  0  0  0
 24 25  1  0  0  0  0
 25 27  1  0  0  0  0
 25 26  1  1  0  0  0
 27 28  1  6  0  0  0
 28 29  1  0  0  0  0
 30 31  1  6  0  0  0
 30 32  1  0  0  0  0
 30 27  1  0  0  0  0
 33 30  1  0  0  0  0
 34 33  1  0  0  0  0
 34 24  1  0  0  0  0
M  END
>  <CHROM.1>
144.04053826,163.66512014,15.05527250,-135.16833520,-118.62964268,-141.82237955
1.05452696,5.34169550,7.24532629,-0.28886483,-1.01818549,0.27006661

>  <Name>
lig.pdb

>  <RI>
0

>  <Rbt.Current_Directory>
/home/itssahil/PROJECTS/Mol_Feturizer/New_Systems/rnas/4k32

>  <Rbt.Executable>
rbdock ($Id: //depot/dev/client3/rdock/2013.1/src/exe/rbdock.cxx#4 $)

>  <Rbt.Library>
libRbt.so (2013.1, Build901 2013/11/27)

>  <Rbt.Parameter_File>
/export/apps/rDock/src/rDock_2013.1_src/data/scripts/dock_solv.prm

>  <Rbt.Receptor>
prm/blind_docking_20.prm

>  <SCORE>
76.343

>  <SCORE.INTER>
11.6314

>  <SCORE.INTER.CONST>
1

>  <SCORE.INTER.POLAR>
0

>  <SCORE.INTER.ROT>
6

>  <SCORE.INTER.SOLV>
35.3375

>  <SCORE.INTER.VDW>
-11.6249

>  <SCORE.INTER.norm>
0.3421

>  <SCORE.INTRA>
43.051

>  <SCORE.INTRA.DIHEDRAL>
7.87222

>  <SCORE.INTRA.DIHEDRAL.0>
18.0069

>  <SCORE.INTRA.POLAR>
0

>  <SCORE.INTRA.POLAR.0>
0

>  <SCORE.INTRA.REPUL>
0

>  <SCORE.INTRA.REPUL.0>
0

>  <SCORE.INTRA.SOLV>
2.54643

>  <SCORE.INTRA.SOLV.lig_0>
-70.7393

>  <SCORE.INTRA.VDW>
37.8416

>  <SCORE.INTRA.VDW.0>
-3.23471

>  <SCORE.INTRA.norm>
1.2662

>  <SCORE.RESTR>
21.6607

>  <SCORE.RESTR.CAVITY>
21.6607

>  <SCORE.RESTR.norm>
0.637079

>  <SCORE.SYSTEM>
0

>  <SCORE.SYSTEM.CONST>
0

>  <SCORE.SYSTEM.DIHEDRAL>
0

>  <SCORE.SYSTEM.SOLV>
0

>  <SCORE.SYSTEM.norm>
0

>  <SCORE.heavy>
34

>  <SCORE.norm>
2.24538

>  <RMSD>
32.324

$$$$
lig.pdb
 OpenBabel11021811503D
libRbt.so/2013.1/901 2013/11/27
 34 36  0  0  0  0  0  0  0  0999 V2000
    4.4435    4.3176    9.8825 C   0  0  2  0  0  0  0  0  0  0  0  0
    4.5952    5.1823    8.7513 O   0  0  0  0  0  0  0  0  0  0  0  0
    5.2703    2.9886    9.6154 C   0  0  2  0  0  0  0  0  0  0  0  0
    6.7133    3.2663    9.4264 N   0  0  0  0  0  0  0  0  0  0  0  0
    4.7025    2.2713    8.3649 C   0  0  1  0  0  0  0  0  0  0  0  0
    5.4307    1.0673    8.1123 O   0  0  0  0  0  0  0  0  0  0  0  0
    3.2092    1.9834    8.6010 C   0  0  2  0  0  0  0  0  0  0  0  0
    2.6735    1.3181    7.4561 O   0  0  0  0  0  0  0  0  0  0  0  0
    2.4445    3.3347    8.8758 C   0  0  2  0  0  0  0  0  0  0  0  0
    3.0151    4.0300   10.0492 O   0  0  0  0  0  0  0  0  0  0  0  0
    0.9368    3.0936    9.1364 C   0  0  2  0  0  0  0  0  0  0  0  0
    0.2344    4.3374    9.1017 O   0  0  0  0  0  0  0  0  0  0  0  0
    0.7103    2.4457   10.4935 C   0  0  0  0  0  0  0  0  0  0  0  0
    0.8072    7.1526    9.0435 C   0  0  2  0  0  0  0  0  0  0  0  0
   -0.2169    8.2001    9.0320 N   0  0  0  0  0  0  0  0  0  0  0  0
    1.9512    7.6371    9.9765 C   0  0  0  0  0  0  0  0  0  0  0  0
    3.0370    6.5280   10.0211 C   0  0  2  0  0  0  0  0  0  0  0  0
    4.1412    6.9429   10.9005 N   0  0  0  0  0  0  0  0  0  0  0  0
    3.5961    6.2408    8.6018 C   0  0  2  0  0  0  0  0  0  0  0  0
    2.4222    5.8003    7.6714 C   0  0  2  0  0  0  0  0  0  0  0  0
    2.9380    5.5463    6.3576 O   0  0  0  0  0  0  0  0  0  0  0  0
    1.3512    6.9137    7.5723 C   0  0  1  0  0  0  0  0  0  0  0  0
    0.2983    6.4240    6.7054 O   0  0  0  0  0  0  0  0  0  0  0  0
    0.7164    5.5602    5.6225 C   0  0  2  0  0  0  0  0  0  0  0  0
    0.6782    6.4421    4.3194 C   0  0  2  0  0  0  0  0  0  0  0  0
    1.5730    7.5354    4.4509 O   0  0  0  0  0  0  0  0  0  0  0  0
   -0.7964    6.9451    4.0844 C   0  0  1  0  0  0  0  0  0  0  0  0
   -0.8784    7.7975    2.8593 N   0  0  0  0  0  0  0  0  0  0  0  0
   -1.4464    9.1121    3.2281 C   0  0  0  0  0  0  0  0  0  0  0  0
   -1.7261    5.7019    3.9411 C   0  0  2  0  0  0  0  0  0  0  0  0
   -1.2957    4.9360    2.8170 O   0  0  0  0  0  0  0  0  0  0  0  0
   -3.1816    6.1049    3.7183 C   0  0  0  0  0  0  0  0  0  0  0  0
   -1.6173    4.8295    5.2328 C   0  0  0  0  0  0  0  0  0  0  0  0
   -0.2175    4.4251    5.4809 O   0  0  0  0  0  0  0  0  0  0  0  0
  1  3  1  0  0  0  0
  1  2  1  6  0  0  0
  3  5  1  0  0  0  0
  3  4  1  6  0  0  0
  5  6  1  1  0  0  0
  7  8  1  6  0  0  0
  7  5  1  0  0  0  0
  9 10  1  1  0  0  0
  9  7  1  0  0  0  0
 10  1  1  0  0  0  0
 11 13  1  1  0  0  0
 11  9  1  0  0  0  0
 12 11  1  0  0  0  0
 14 15  1  6  0  0  0
 16 14  1  0  0  0  0
 17 18  1  1  0  0  0
 17 16  1  0  0  0  0
 19  2  1  1  0  0  0
 19 20  1  0  0  0  0
 19 17  1  0  0  0  0
 20 21  1  6  0  0  0
 20 22  1  0  0  0  0
 22 23  1  6  0  0  0
 22 14  1  0  0  0  0
 24 23  1  1  0  0  0
 24 25  1  0  0  0  0
 25 27  1  0  0  0  0
 25 26  1  1  0  0  0
 27 28  1  6  0  0  0
 28 29  1  0  0  0  0
 30 31  1  6  0  0  0
 30 32  1  0  0  0  0
 30 27  1  0  0  0  0
 33 30  1  0  0  0  0
 34 33  1  0  0  0  0
 34 24  1  0  0  0  0
M  END
>  <CHROM.1>
160.93613381,-167.93034937,25.19973835,-149.92411181,-103.49859430,-123.72860021
1.64838452,5.16807667,7.30801062,-0.10414839,-0.86672253,0.40845642

>  <Name>
lig.pdb

>  <RI>
0

>  <Rbt.Current_Directory>
/home/itssahil/PROJECTS/Mol_Feturizer/New_Systems/rnas/4k32

>  <Rbt.Executable>
rbdock ($Id: //depot/dev/client3/rdock/2013.1/src/exe/rbdock.cxx#4 $)

>  <Rbt.Library>
libRbt.so (2013.1, Build901 2013/11/27)

>  <Rbt.Parameter_File>
/export/apps/rDock/src/rDock_2013.1_src/data/scripts/dock_solv.prm

>  <Rbt.Receptor>
prm/blind_docking_20.prm

>  <SCORE>
48.7765

>  <SCORE.INTER>
10.0411

>  <SCORE.INTER.CONST>
1

>  <SCORE.INTER.POLAR>
0

>  <SCORE.INTER.ROT>
6

>  <SCORE.INTER.SOLV>
33.2843

>  <SCORE.INTER.VDW>
-12.0007

>  <SCORE.INTER.norm>
0.295327

>  <SCORE.INTRA>
13.9099

>  <SCORE.INTRA.DIHEDRAL>
-0.578594

>  <SCORE.INTRA.DIHEDRAL.0>
18.0069

>  <SCORE.INTRA.POLAR>
0

>  <SCORE.INTRA.POLAR.0>
0

>  <SCORE.INTRA.REPUL>
0

>  <SCORE.INTRA.REPUL.0>
0

>  <SCORE.INTRA.SOLV>
0.579005

>  <SCORE.INTRA.SOLV.lig_0>
-70.7393

>  <SCORE.INTRA.VDW>
13.9097

>  <SCORE.INTRA.VDW.0>
-3.23471

>  <SCORE.INTRA.norm>
0.409116

>  <SCORE.RESTR>
24.8255

>  <SCORE.RESTR.CAVITY>
24.8255

>  <SCORE.RESTR.norm>
0.730161

>  <SCORE.SYSTEM>
0

>  <SCORE.SYSTEM.CONST>
0

>  <SCORE.SYSTEM.DIHEDRAL>
0

>  <SCORE.SYSTEM.SOLV>
0

>  <SCORE.SYSTEM.norm>
0

>  <SCORE.heavy>
34

>  <SCORE.norm>
1.4346

>  <RMSD>
32.326

$$$$
lig.pdb
 OpenBabel11021811503D
libRbt.so/2013.1/901 2013/11/27
 34 36  0  0  0  0  0  0  0  0999 V2000
    3.7600    4.5604   10.0235 C   0  0  2  0  0  0  0  0  0  0  0  0
    4.0364    5.3951    8.8934 O   0  0  0  0  0  0  0  0  0  0  0  0
    4.7851    3.3478   10.0171 C   0  0  2  0  0  0  0  0  0  0  0  0
    6.1888    3.8128   10.1085 N   0  0  0  0  0  0  0  0  0  0  0  0
    4.5883    2.5137    8.7262 C   0  0  1  0  0  0  0  0  0  0  0  0
    5.4989    1.4120    8.7059 O   0  0  0  0  0  0  0  0  0  0  0  0
    3.1271    2.0335    8.6712 C   0  0  2  0  0  0  0  0  0  0  0  0
    2.9326    1.2592    7.4867 O   0  0  0  0  0  0  0  0  0  0  0  0
    2.1578    3.2769    8.6963 C   0  0  2  0  0  0  0  0  0  0  0  0
    2.3763    4.0867    9.9139 O   0  0  0  0  0  0  0  0  0  0  0  0
    0.6717    2.8419    8.6593 C   0  0  2  0  0  0  0  0  0  0  0  0
   -0.1705    3.9961    8.6456 O   0  0  0  0  0  0  0  0  0  0  0  0
    0.3162    1.9959    9.8719 C   0  0  0  0  0  0  0  0  0  0  0  0
    0.0592    6.8637    8.3092 C   0  0  2  0  0  0  0  0  0  0  0  0
   -1.0593    7.7665    8.0260 N   0  0  0  0  0  0  0  0  0  0  0  0
    0.9271    7.5364    9.4083 C   0  0  0  0  0  0  0  0  0  0  0  0
    2.1063    6.5822    9.7401 C   0  0  2  0  0  0  0  0  0  0  0  0
    2.9546    7.1782   10.7842 N   0  0  0  0  0  0  0  0  0  0  0  0
    2.9685    6.3056    8.4793 C   0  0  2  0  0  0  0  0  0  0  0  0
    2.0658    5.6729    7.3737 C   0  0  2  0  0  0  0  0  0  0  0  0
    2.8608    5.4283    6.2054 O   0  0  0  0  0  0  0  0  0  0  0  0
    0.9113    6.6306    6.9912 C   0  0  1  0  0  0  0  0  0  0  0  0
    0.1194    5.9679    5.9746 O   0  0  0  0  0  0  0  0  0  0  0  0
    0.5491    6.1624    4.6066 C   0  0  2  0  0  0  0  0  0  0  0  0
    0.2721    7.6752    4.2717 C   0  0  2  0  0  0  0  0  0  0  0  0
    1.0190    8.5069    5.1455 O   0  0  0  0  0  0  0  0  0  0  0  0
   -1.2724    7.9556    4.4088 C   0  0  1  0  0  0  0  0  0  0  0  0
   -1.5814    9.3870    4.1087 N   0  0  0  0  0  0  0  0  0  0  0  0
   -1.3413   10.1935    5.3247 C   0  0  0  0  0  0  0  0  0  0  0  0
   -2.0344    7.0197    3.4219 C   0  0  2  0  0  0  0  0  0  0  0  0
   -1.6096    7.3141    2.0921 O   0  0  0  0  0  0  0  0  0  0  0  0
   -3.5453    7.2239    3.4993 C   0  0  0  0  0  0  0  0  0  0  0  0
   -1.6901    5.5330    3.7571 C   0  0  0  0  0  0  0  0  0  0  0  0
   -0.2316    5.3016    3.6955 O   0  0  0  0  0  0  0  0  0  0  0  0
  1  3  1  0  0  0  0
  1  2  1  6  0  0  0
  3  5  1  0  0  0  0
  3  4  1  6  0  0  0
  5  6  1  1  0  0  0
  7  8  1  6  0  0  0
  7  5  1  0  0  0  0
  9 10  1  1  0  0  0
  9  7  1  0  0  0  0
 10  1  1  0  0  0  0
 11 13  1  1  0  0  0
 11  9  1  0  0  0  0
 12 11  1  0  0  0  0
 14 15  1  6  0  0  0
 16 14  1  0  0  0  0
 17 18  1  1  0  0  0
 17 16  1  0  0  0  0
 19  2  1  1  0  0  0
 19 20  1  0  0  0  0
 19 17  1  0  0  0  0
 20 21  1  6  0  0  0
 20 22  1  0  0  0  0
 22 23  1  6  0  0  0
 22 14  1  0  0  0  0
 24 23  1  1  0  0  0
 24 25  1  0  0  0  0
 25 27  1  0  0  0  0
 25 26  1  1  0  0  0
 27 28  1  6  0  0  0
 28 29  1  0  0  0  0
 30 31  1  6  0  0  0
 30 32  1  0  0  0  0
 30 27  1  0  0  0  0
 33 30  1  0  0  0  0
 34 33  1  0  0  0  0
 34 24  1  0  0  0  0
M  END
>  <CHROM.1>
161.22905495,-178.38632647,25.87252520,156.28354110,-68.49774426,-83.14236919
1.25096287,5.53359774,7.14914314,-0.24105738,-0.90684801,0.39600376

>  <Name>
lig.pdb

>  <RI>
0

>  <Rbt.Current_Directory>
/home/itssahil/PROJECTS/Mol_Feturizer/New_Systems/rnas/4k32

>  <Rbt.Executable>
rbdock ($Id: //depot/dev/client3/rdock/2013.1/src/exe/rbdock.cxx#4 $)

>  <Rbt.Library>
libRbt.so (2013.1, Build901 2013/11/27)

>  <Rbt.Parameter_File>
/export/apps/rDock/src/rDock_2013.1_src/data/scripts/dock_solv.prm

>  <Rbt.Receptor>
prm/blind_docking_20.prm

>  <SCORE>
35.995

>  <SCORE.INTER>
6.77577

>  <SCORE.INTER.CONST>
1

>  <SCORE.INTER.POLAR>
0

>  <SCORE.INTER.ROT>
6

>  <SCORE.INTER.SOLV>
28.9508

>  <SCORE.INTER.VDW>
-12.7331

>  <SCORE.INTER.norm>
0.199287

>  <SCORE.INTRA>
4.54401

>  <SCORE.INTRA.DIHEDRAL>
-8.81078

>  <SCORE.INTRA.DIHEDRAL.0>
18.0069

>  <SCORE.INTRA.POLAR>
0

>  <SCORE.INTRA.POLAR.0>
0

>  <SCORE.INTRA.REPUL>
0

>  <SCORE.INTRA.REPUL.0>
0

>  <SCORE.INTRA.SOLV>
2.59783

>  <SCORE.INTRA.SOLV.lig_0>
-70.7393

>  <SCORE.INTRA.VDW>
7.65049

>  <SCORE.INTRA.VDW.0>
-3.23471

>  <SCORE.INTRA.norm>
0.133647

>  <SCORE.RESTR>
24.6753

>  <SCORE.RESTR.CAVITY>
24.6753

>  <SCORE.RESTR.norm>
0.725743

>  <SCORE.SYSTEM>
0

>  <SCORE.SYSTEM.CONST>
0

>  <SCORE.SYSTEM.DIHEDRAL>
0

>  <SCORE.SYSTEM.SOLV>
0

>  <SCORE.SYSTEM.norm>
0

>  <SCORE.heavy>
34

>  <SCORE.norm>
1.05868

>  <RMSD>
32.341

$$$$
lig.pdb
 OpenBabel11021811503D
libRbt.so/2013.1/901 2013/11/27
 34 36  0  0  0  0  0  0  0  0999 V2000
    4.0912    4.9151   10.0169 C   0  0  2  0  0  0  0  0  0  0  0  0
    4.2344    5.7535    8.8650 O   0  0  0  0  0  0  0  0  0  0  0  0
    5.3684    3.9773   10.1195 C   0  0  2  0  0  0  0  0  0  0  0  0
    6.6175    4.7613   10.2612 N   0  0  0  0  0  0  0  0  0  0  0  0
    5.4496    3.0781    8.8602 C   0  0  1  0  0  0  0  0  0  0  0  0
    6.5907    2.2206    8.9378 O   0  0  0  0  0  0  0  0  0  0  0  0
    4.1460    2.2670    8.7526 C   0  0  2  0  0  0  0  0  0  0  0  0
    4.2091    1.4300    7.5968 O   0  0  0  0  0  0  0  0  0  0  0  0
    2.9147    3.2485    8.6701 C   0  0  2  0  0  0  0  0  0  0  0  0
    2.8647    4.1268    9.8584 O   0  0  0  0  0  0  0  0  0  0  0  0
    1.5754    2.4761    8.5770 C   0  0  2  0  0  0  0  0  0  0  0  0
    1.6522    1.4970    7.5391 O   0  0  0  0  0  0  0  0  0  0  0  0
    0.4189    3.4158    8.2732 C   0  0  0  0  0  0  0  0  0  0  0  0
    0.1009    6.7365    8.3505 C   0  0  2  0  0  0  0  0  0  0  0  0
   -1.1224    7.5004    8.0931 N   0  0  0  0  0  0  0  0  0  0  0  0
    0.8968    7.4971    9.4468 C   0  0  0  0  0  0  0  0  0  0  0  0
    2.1873    6.6891    9.7513 C   0  0  2  0  0  0  0  0  0  0  0  0
    2.9721    7.3718   10.7919 N   0  0  0  0  0  0  0  0  0  0  0  0
    3.0585    6.5326    8.4762 C   0  0  2  0  0  0  0  0  0  0  0  0
    2.2231    5.8075    7.3744 C   0  0  2  0  0  0  0  0  0  0  0  0
    3.0251    5.6738    6.1930 O   0  0  0  0  0  0  0  0  0  0  0  0
    0.9561    6.6227    7.0188 C   0  0  1  0  0  0  0  0  0  0  0  0
    0.2356    5.8802    6.0042 O   0  0  0  0  0  0  0  0  0  0  0  0
    0.6409    6.1164    4.6354 C   0  0  2  0  0  0  0  0  0  0  0  0
    0.3016    7.6231    4.3321 C   0  0  2  0  0  0  0  0  0  0  0  0
    1.0262    8.4671    5.2130 O   0  0  0  0  0  0  0  0  0  0  0  0
   -1.2508    7.8407    4.4920 C   0  0  1  0  0  0  0  0  0  0  0  0
   -1.6185    9.2642    4.2224 N   0  0  0  0  0  0  0  0  0  0  0  0
   -1.4892   10.0375    5.4762 C   0  0  0  0  0  0  0  0  0  0  0  0
   -1.9879    6.8941    3.4964 C   0  0  2  0  0  0  0  0  0  0  0  0
   -1.5909    7.2292    2.1676 O   0  0  0  0  0  0  0  0  0  0  0  0
   -3.5046    7.0379    3.5947 C   0  0  0  0  0  0  0  0  0  0  0  0
   -1.5824    5.4161    3.7996 C   0  0  0  0  0  0  0  0  0  0  0  0
   -0.1168    5.2427    3.7171 O   0  0  0  0  0  0  0  0  0  0  0  0
  1  3  1  0  0  0  0
  1  2  1  6  0  0  0
  3  5  1  0  0  0  0
  3  4  1  6  0  0  0
  5  6  1  1  0  0  0
  7  8  1  6  0  0  0
  7  5  1  0  0  0  0
  9 10  1  1  0  0  0
  9  7  1  0  0  0  0
 10  1  1  0  0  0  0
 11 13  1  6  0  0  0
 11  9  1  0  0  0  0
 12 11  1  0  0  0  0
 14 15  1  6  0  0  0
 16 14  1  0  0  0  0
 17 18  1  1  0  0  0
 17 16  1  0  0  0  0
 19  2  1  1  0  0  0
 19 20  1  0  0  0  0
 19 17  1  0  0  0  0
 20 21  1  6  0  0  0
 20 22  1  0  0  0  0
 22 23  1  6  0  0  0
 22 14  1  0  0  0  0
 24 23  1  1  0  0  0
 24 25  1  0  0  0  0
 25 27  1  0  0  0  0
 25 26  1  1  0  0  0
 27 28  1  6  0  0  0
 28 29  1  0  0  0  0
 30 31  1  6  0  0  0
 30 32  1  0  0  0  0
 30 27  1  0  0  0  0
 33 30  1  0  0  0  0
 34 33  1  0  0  0  0
 34 24  1  0  0  0  0
M  END
>  <CHROM.1>
170.21342597,-50.59985507,23.71366659,157.71244828,-64.56383186,-87.21368568
1.57458931,5.58393533,7.11131669,-0.12969300,-0.82207860,0.49016242

>  <Name>
lig.pdb

>  <RI>
0

>  <Rbt.Current_Directory>
/home/itssahil/PROJECTS/Mol_Feturizer/New_Systems/rnas/4k32

>  <Rbt.Executable>
rbdock ($Id: //depot/dev/client3/rdock/2013.1/src/exe/rbdock.cxx#4 $)

>  <Rbt.Library>
libRbt.so (2013.1, Build901 2013/11/27)

>  <Rbt.Parameter_File>
/export/apps/rDock/src/rDock_2013.1_src/data/scripts/dock_solv.prm

>  <Rbt.Receptor>
prm/blind_docking_20.prm

>  <SCORE>
31.6488

>  <SCORE.INTER>
4.37365

>  <SCORE.INTER.CONST>
1

>  <SCORE.INTER.POLAR>
0

>  <SCORE.INTER.ROT>
6

>  <SCORE.INTER.SOLV>
28.7062

>  <SCORE.INTER.VDW>
-14.253

>  <SCORE.INTER.norm>
0.128637

>  <SCORE.INTRA>
1.94777

>  <SCORE.INTRA.DIHEDRAL>
-9.61179

>  <SCORE.INTRA.DIHEDRAL.0>
18.0069

>  <SCORE.INTRA.POLAR>
0

>  <SCORE.INTRA.POLAR.0>
0

>  <SCORE.INTRA.REPUL>
0

>  <SCORE.INTRA.REPUL.0>
0

>  <SCORE.INTRA.SOLV>
1.75164

>  <SCORE.INTRA.SOLV.lig_0>
-70.7393

>  <SCORE.INTRA.VDW>
5.87785

>  <SCORE.INTRA.VDW.0>
-3.23471

>  <SCORE.INTRA.norm>
0.0572874

>  <SCORE.RESTR>
25.3273

>  <SCORE.RESTR.CAVITY>
25.3273

>  <SCORE.RESTR.norm>
0.744921

>  <SCORE.SYSTEM>
0

>  <SCORE.SYSTEM.CONST>
0

>  <SCORE.SYSTEM.DIHEDRAL>
0

>  <SCORE.SYSTEM.SOLV>
0

>  <SCORE.SYSTEM.norm>
0

>  <SCORE.heavy>
34

>  <SCORE.norm>
0.930846

>  <RMSD>
32.358

$$$$
lig.pdb
 OpenBabel11021811503D
libRbt.so/2013.1/901 2013/11/27
 34 36  0  0  0  0  0  0  0  0999 V2000
    2.9615    4.5442    9.6719 C   0  0  2  0  0  0  0  0  0  0  0  0
    3.1895    5.2382    8.4404 O   0  0  0  0  0  0  0  0  0  0  0  0
    4.0933    3.4444    9.8476 C   0  0  2  0  0  0  0  0  0  0  0  0
    5.4456    4.0479    9.8917 N   0  0  0  0  0  0  0  0  0  0  0  0
    4.0073    2.4262    8.6828 C   0  0  1  0  0  0  0  0  0  0  0  0
    5.0154    1.4230    8.8277 O   0  0  0  0  0  0  0  0  0  0  0  0
    2.5982    1.8072    8.6761 C   0  0  2  0  0  0  0  0  0  0  0  0
    2.5063    0.8629    7.6083 O   0  0  0  0  0  0  0  0  0  0  0  0
    1.5187    2.9453    8.5154 C   0  0  2  0  0  0  0  0  0  0  0  0
    1.6304    3.9315    9.6112 O   0  0  0  0  0  0  0  0  0  0  0  0
    0.0802    2.3710    8.5199 C   0  0  2  0  0  0  0  0  0  0  0  0
   -0.8657    3.4334    8.3845 O   0  0  0  0  0  0  0  0  0  0  0  0
   -0.2097    1.6247    9.8128 C   0  0  0  0  0  0  0  0  0  0  0  0
   -0.5607    7.2808    8.1576 C   0  0  2  0  0  0  0  0  0  0  0  0
   -1.5524    8.3402    7.9561 N   0  0  0  0  0  0  0  0  0  0  0  0
    0.4801    7.8128    9.1810 C   0  0  0  0  0  0  0  0  0  0  0  0
    1.5279    6.6935    9.4266 C   0  0  2  0  0  0  0  0  0  0  0  0
    2.5338    7.1528   10.3971 N   0  0  0  0  0  0  0  0  0  0  0  0
    2.2387    6.2983    8.1043 C   0  0  2  0  0  0  0  0  0  0  0  0
    1.1688    5.8109    7.0769 C   0  0  2  0  0  0  0  0  0  0  0  0
    1.8253    5.4570    5.8521 O   0  0  0  0  0  0  0  0  0  0  0  0
    0.1421    6.9304    6.7788 C   0  0  1  0  0  0  0  0  0  0  0  0
   -0.8160    6.3966    5.8317 O   0  0  0  0  0  0  0  0  0  0  0  0
   -0.3962    6.3735    4.4472 C   0  0  2  0  0  0  0  0  0  0  0  0
    0.3100    7.7547    4.1807 C   0  0  2  0  0  0  0  0  0  0  0  0
    1.4349    7.8935    5.0342 O   0  0  0  0  0  0  0  0  0  0  0  0
   -0.7279    8.9154    4.4220 C   0  0  1  0  0  0  0  0  0  0  0  0
   -0.0962   10.2501    4.1896 N   0  0  0  0  0  0  0  0  0  0  0  0
    0.7828   10.5695    5.3350 C   0  0  0  0  0  0  0  0  0  0  0  0
   -1.9322    8.7113    3.4532 C   0  0  2  0  0  0  0  0  0  0  0  0
   -1.4535    8.7673    2.1103 O   0  0  0  0  0  0  0  0  0  0  0  0
   -2.9924    9.7953    3.6302 C   0  0  0  0  0  0  0  0  0  0  0  0
   -2.5693    7.3092    3.7166 C   0  0  0  0  0  0  0  0  0  0  0  0
   -1.5667    6.2349    3.5576 O   0  0  0  0  0  0  0  0  0  0  0  0
  1  3  1  0  0  0  0
  1  2  1  6  0  0  0
  3  5  1  0  0  0  0
  3  4  1  6  0  0  0
  5  6  1  1  0  0  0
  7  8  1  6  0  0  0
  7  5  1  0  0  0  0
  9 10  1  1  0  0  0
  9  7  1  0  0  0  0
 10  1  1  0  0  0  0
 11 13  1  1  0  0  0
 11  9  1  0  0  0  0
 12 11  1  0  0  0  0
 14 15  1  6  0  0  0
 16 14  1  0  0  0  0
 17 18  1  1  0  0  0
 17 16  1  0  0  0  0
 19  2  1  1  0  0  0
 19 20  1  0  0  0  0
 19 17  1  0  0  0  0
 20 21  1  6  0  0  0
 20 22  1  0  0  0  0
 22 23  1  6  0  0  0
 22 14  1  0  0  0  0
 24 23  1  1  0  0  0
 24 25  1  0  0  0  0
 25 27  1  0  0  0  0
 25 26  1  1  0  0  0
 27 28  1  6  0  0  0
 28 29  1  0  0  0  0
 30 31  1  6  0  0  0
 30 32  1  0  0  0  0
 30 27  1  0  0  0  0
 33 30  1  0  0  0  0
 34 33  1  0  0  0  0
 34 24  1  0  0  0  0
M  END
>  <CHROM.1>
-179.99933148,179.48296693,19.31455430,164.02420085,-42.96235119,-75.00122973
0.87091111,5.82670033,7.01144741,-0.81870637,-0.80778926,-0.12189823

>  <Name>
lig.pdb

>  <RI>
0

>  <Rbt.Current_Directory>
/home/itssahil/PROJECTS/Mol_Feturizer/New_Systems/rnas/4k32

>  <Rbt.Executable>
rbdock ($Id: //depot/dev/client3/rdock/2013.1/src/exe/rbdock.cxx#4 $)

>  <Rbt.Library>
libRbt.so (2013.1, Build901 2013/11/27)

>  <Rbt.Parameter_File>
/export/apps/rDock/src/rDock_2013.1_src/data/scripts/dock_solv.prm

>  <Rbt.Receptor>
prm/blind_docking_20.prm

>  <SCORE>
42.3813

>  <SCORE.INTER>
7.78789

>  <SCORE.INTER.CONST>
1

>  <SCORE.INTER.POLAR>
0

>  <SCORE.INTER.ROT>
6

>  <SCORE.INTER.SOLV>
24.9694

>  <SCORE.INTER.VDW>
-10.7312

>  <SCORE.INTER.norm>
0.229056

>  <SCORE.INTRA>
7.57489

>  <SCORE.INTRA.DIHEDRAL>
-9.74414

>  <SCORE.INTRA.DIHEDRAL.0>
18.0069

>  <SCORE.INTRA.POLAR>
0

>  <SCORE.INTRA.POLAR.0>
0

>  <SCORE.INTRA.REPUL>
0

>  <SCORE.INTRA.REPUL.0>
0

>  <SCORE.INTRA.SOLV>
1.38874

>  <SCORE.INTRA.SOLV.lig_0>
-70.7393

>  <SCORE.INTRA.VDW>
11.7526

>  <SCORE.INTRA.VDW.0>
-3.23471

>  <SCORE.INTRA.norm>
0.222791

>  <SCORE.RESTR>
27.0185

>  <SCORE.RESTR.CAVITY>
27.0185

>  <SCORE.RESTR.norm>
0.794662

>  <SCORE.SYSTEM>
0

>  <SCORE.SYSTEM.CONST>
0

>  <SCORE.SYSTEM.DIHEDRAL>
0

>  <SCORE.SYSTEM.SOLV>
0

>  <SCORE.SYSTEM.norm>
0

>  <SCORE.heavy>
34

>  <SCORE.norm>
1.24651

>  <RMSD>
32.406

$$$$
lig.pdb
 OpenBabel11021811503D
libRbt.so/2013.1/901 2013/11/27
 34 36  0  0  0  0  0  0  0  0999 V2000
    3.6692    4.4759    9.8722 C   0  0  2  0  0  0  0  0  0  0  0  0
    3.9737    5.2529    8.7086 O   0  0  0  0  0  0  0  0  0  0  0  0
    4.6345    3.2155    9.9034 C   0  0  2  0  0  0  0  0  0  0  0  0
    6.0599    3.6149    9.9648 N   0  0  0  0  0  0  0  0  0  0  0  0
    4.3841    2.3438    8.6471 C   0  0  1  0  0  0  0  0  0  0  0  0
    5.2403    1.1991    8.6610 O   0  0  0  0  0  0  0  0  0  0  0  0
    2.9010    1.9335    8.6231 C   0  0  2  0  0  0  0  0  0  0  0  0
    2.6569    1.1254    7.4708 O   0  0  0  0  0  0  0  0  0  0  0  0
    1.9931    3.2227    8.6090 C   0  0  2  0  0  0  0  0  0  0  0  0
    2.2632    4.0663    9.7927 O   0  0  0  0  0  0  0  0  0  0  0  0
    0.4875    2.8593    8.6014 C   0  0  2  0  0  0  0  0  0  0  0  0
   -0.2971    4.0488    8.4948 O   0  0  0  0  0  0  0  0  0  0  0  0
    0.0918    2.1293    9.8754 C   0  0  0  0  0  0  0  0  0  0  0  0
    0.2988    7.3656    8.1191 C   0  0  2  0  0  0  0  0  0  0  0  0
   -0.6625    8.4585    7.9527 N   0  0  0  0  0  0  0  0  0  0  0  0
    1.0986    7.6498    9.4203 C   0  0  0  0  0  0  0  0  0  0  0  0
    2.1078    6.4880    9.6274 C   0  0  2  0  0  0  0  0  0  0  0  0
    2.8860    6.7131   10.8556 N   0  0  0  0  0  0  0  0  0  0  0  0
    3.0793    6.3748    8.4220 C   0  0  2  0  0  0  0  0  0  0  0  0
    2.2505    6.1354    7.1206 C   0  0  2  0  0  0  0  0  0  0  0  0
    3.1483    6.0424    6.0061 O   0  0  0  0  0  0  0  0  0  0  0  0
    1.2725    7.3083    6.8676 C   0  0  1  0  0  0  0  0  0  0  0  0
    0.5385    7.0048    5.6556 O   0  0  0  0  0  0  0  0  0  0  0  0
   -0.6802    6.2431    5.8241 C   0  0  2  0  0  0  0  0  0  0  0  0
   -1.0985    5.7624    4.3849 C   0  0  2  0  0  0  0  0  0  0  0  0
   -0.0783    4.9440    3.8346 O   0  0  0  0  0  0  0  0  0  0  0  0
   -1.3591    7.0249    3.4789 C   0  0  1  0  0  0  0  0  0  0  0  0
   -1.7505    6.6149    2.0957 N   0  0  0  0  0  0  0  0  0  0  0  0
   -0.5405    6.5812    1.2462 C   0  0  0  0  0  0  0  0  0  0  0  0
   -2.4908    7.8764    4.1308 C   0  0  2  0  0  0  0  0  0  0  0  0
   -3.6754    7.0845    4.2025 O   0  0  0  0  0  0  0  0  0  0  0  0
   -2.7995    9.1290    3.3148 C   0  0  0  0  0  0  0  0  0  0  0  0
   -2.0557    8.2869    5.5742 C   0  0  0  0  0  0  0  0  0  0  0  0
   -1.7444    7.0953    6.3913 O   0  0  0  0  0  0  0  0  0  0  0  0
  1  3  1  0  0  0  0
  1  2  1  6  0  0  0
  3  5  1  0  0  0  0
  3  4  1  6  0  0  0
  5  6  1  1  0  0  0
  7  8  1  6  0  0  0
  7  5  1  0  0  0  0
  9 10  1  1  0  0  0
  9  7  1  0  0  0  0
 10  1  1  0  0  0  0
 11 13  1  1  0  0  0
 11  9  1  0  0  0  0
 12 11  1  0  0  0  0
 14 15  1  6  0  0  0
 16 14  1  0  0  0  0
 17 18  1  1  0  0  0
 17 16  1  0  0  0  0
 19  2  1  1  0  0  0
 19 20  1  0  0  0  0
 19 17  1  0  0  0  0
 20 21  1  6  0  0  0
 20 22  1  0  0  0  0
 22 23  1  6  0  0  0
 22 14  1  0  0  0  0
 24 23  1  6  0  0  0
 24 25  1  0  0  0  0
 25 27  1  0  0  0  0
 25 26  1  6  0  0  0
 27 28  1  6  0  0  0
 28 29  1  0  0  0  0
 30 31  1  1  0  0  0
 30 32  1  0  0  0  0
 30 27  1  0  0  0  0
 33 30  1  0  0  0  0
 34 33  1  0  0  0  0
 34 24  1  0  0  0  0
M  END
>  <CHROM.1>
172.99871444,-175.99457999,6.69655495,-27.21506518,-167.13684331,-93.99824506
1.04126968,5.43807614,7.08269125,0.04590492,-0.88708095,0.71046233

>  <Name>
lig.pdb

>  <RI>
0

>  <Rbt.Current_Directory>
/home/itssahil/PROJECTS/Mol_Feturizer/New_Systems/rnas/4k32

>  <Rbt.Executable>
rbdock ($Id: //depot/dev/client3/rdock/2013.1/src/exe/rbdock.cxx#4 $)

>  <Rbt.Library>
libRbt.so (2013.1, Build901 2013/11/27)

>  <Rbt.Parameter_File>
/export/apps/rDock/src/rDock_2013.1_src/data/scripts/dock_solv.prm

>  <Rbt.Receptor>
prm/blind_docking_20.prm

>  <SCORE>
49.6764

>  <SCORE.INTER>
7.94996

>  <SCORE.INTER.CONST>
1

>  <SCORE.INTER.POLAR>
0

>  <SCORE.INTER.ROT>
6

>  <SCORE.INTER.SOLV>
26.3781

>  <SCORE.INTER.VDW>
-11.0927

>  <SCORE.INTER.norm>
0.233822

>  <SCORE.INTRA>
12.0764

>  <SCORE.INTRA.DIHEDRAL>
-5.08121

>  <SCORE.INTRA.DIHEDRAL.0>
18.0069

>  <SCORE.INTRA.POLAR>
0

>  <SCORE.INTRA.POLAR.0>
0

>  <SCORE.INTRA.REPUL>
0

>  <SCORE.INTRA.REPUL.0>
0

>  <SCORE.INTRA.SOLV>
2.86367

>  <SCORE.INTRA.SOLV.lig_0>
-70.7393

>  <SCORE.INTRA.VDW>
13.1852

>  <SCORE.INTRA.VDW.0>
-3.23471

>  <SCORE.INTRA.norm>
0.355188

>  <SCORE.RESTR>
29.65

>  <SCORE.RESTR.CAVITY>
29.65

>  <SCORE.RESTR.norm>
0.87206

>  <SCORE.SYSTEM>
0

>  <SCORE.SYSTEM.CONST>
0

>  <SCORE.SYSTEM.DIHEDRAL>
0

>  <SCORE.SYSTEM.SOLV>
0

>  <SCORE.SYSTEM.norm>
0

>  <SCORE.heavy>
34

>  <SCORE.norm>
1.46107

>  <RMSD>
32.417

$$$$
lig.pdb
 OpenBabel11021811503D
libRbt.so/2013.1/901 2013/11/27
 34 36  0  0  0  0  0  0  0  0999 V2000
    4.1485    6.9084    7.8400 C   0  0  2  0  0  0  0  0  0  0  0  0
    4.1256    5.5428    8.2697 O   0  0  0  0  0  0  0  0  0  0  0  0
    2.9548    7.1351    6.8178 C   0  0  2  0  0  0  0  0  0  0  0  0
    1.6382    6.8599    7.4387 N   0  0  0  0  0  0  0  0  0  0  0  0
    3.1559    6.2239    5.5808 C   0  0  1  0  0  0  0  0  0  0  0  0
    2.0933    6.4193    4.6448 O   0  0  0  0  0  0  0  0  0  0  0  0
    4.5228    6.5468    4.9515 C   0  0  2  0  0  0  0  0  0  0  0  0
    4.7197    5.7155    3.8066 O   0  0  0  0  0  0  0  0  0  0  0  0
    5.6645    6.3193    6.0151 C   0  0  2  0  0  0  0  0  0  0  0  0
    5.4461    7.1664    7.2070 O   0  0  0  0  0  0  0  0  0  0  0  0
    7.0610    6.6482    5.4314 C   0  0  2  0  0  0  0  0  0  0  0  0
    7.0199    7.9078    4.7579 O   0  0  0  0  0  0  0  0  0  0  0  0
    7.5080    5.5831    4.4422 C   0  0  0  0  0  0  0  0  0  0  0  0
    0.9877    3.5098   10.3522 C   0  0  2  0  0  0  0  0  0  0  0  0
   -0.3388    2.9996   10.7075 N   0  0  0  0  0  0  0  0  0  0  0  0
    0.8536    5.0454   10.1576 C   0  0  0  0  0  0  0  0  0  0  0  0
    2.2564    5.6091    9.8037 C   0  0  2  0  0  0  0  0  0  0  0  0
    2.1780    7.0662    9.6153 N   0  0  0  0  0  0  0  0  0  0  0  0
    2.8063    4.9564    8.5070 C   0  0  2  0  0  0  0  0  0  0  0  0
    2.8887    3.4106    8.7103 C   0  0  2  0  0  0  0  0  0  0  0  0
    3.3859    2.8077    7.5079 O   0  0  0  0  0  0  0  0  0  0  0  0
    1.4904    2.8202    9.0145 C   0  0  1  0  0  0  0  0  0  0  0  0
    1.6554    1.3926    9.1998 O   0  0  0  0  0  0  0  0  0  0  0  0
    0.4365    0.6192    9.2993 C   0  0  2  0  0  0  0  0  0  0  0  0
    0.6650   -0.6719    8.4284 C   0  0  2  0  0  0  0  0  0  0  0  0
    1.7612   -1.4120    8.9421 O   0  0  0  0  0  0  0  0  0  0  0  0
    0.9244   -0.2428    6.9347 C   0  0  1  0  0  0  0  0  0  0  0  0
    1.1573   -1.4400    6.0706 N   0  0  0  0  0  0  0  0  0  0  0  0
    2.6017   -1.7570    6.0713 C   0  0  0  0  0  0  0  0  0  0  0  0
   -0.3140    0.5571    6.4277 C   0  0  2  0  0  0  0  0  0  0  0  0
   -1.4618   -0.2879    6.4916 O   0  0  0  0  0  0  0  0  0  0  0  0
   -0.1381    1.0192    4.9834 C   0  0  0  0  0  0  0  0  0  0  0  0
   -0.5344    1.7986    7.3504 C   0  0  0  0  0  0  0  0  0  0  0  0
   -0.7041    1.3862    8.7595 O   0  0  0  0  0  0  0  0  0  0  0  0
  1  3  1  0  0  0  0
  1  2  1  6  0  0  0
  3  5  1  0  0  0  0
  3  4  1  1  0  0  0
  5  6  1  6  0  0  0
  7  8  1  6  0  0  0
  7  5  1  0  0  0  0
  9 10  1  1  0  0  0
  9  7  1  0  0  0  0
 10  1  1  0  0  0  0
 11 13  1  6  0  0  0
 11  9  1  0  0  0  0
 12 11  1  0  0  0  0
 14 15  1  6  0  0  0
 16 14  1  0  0  0  0
 17 18  1  6  0  0  0
 17 16  1  0  0  0  0
 19  2  1  1  0  0  0
 19 20  1  0  0  0  0
 19 17  1  0  0  0  0
 20 21  1  6  0  0  0
 20 22  1  0  0  0  0
 22 23  1  1  0  0  0
 22 14  1  0  0  0  0
 24 23  1  6  0  0  0
 24 25  1  0  0  0  0
 25 27  1  0  0  0  0
 25 26  1  1  0  0  0
 27 28  1  6  0  0  0
 28 29  1  0  0  0  0
 30 31  1  1  0  0  0
 30 32  1  0  0  0  0
 30 27  1  0  0  0  0
 33 30  1  0  0  0  0
 34 33  1  0  0  0  0
 34 24  1  0  0  0  0
M  END
>  <CHROM.1>
-39.24315139,47.53922350,-71.50409961,72.72500257,137.06534749,-89.15144832
2.44998776,3.63439680,7.33256870,0.55738152,0.83990816,0.59374841

>  <Name>
lig.pdb

>  <RI>
0

>  <Rbt.Current_Directory>
/home/itssahil/PROJECTS/Mol_Feturizer/New_Systems/rnas/4k32

>  <Rbt.Executable>
rbdock ($Id: //depot/dev/client3/rdock/2013.1/src/exe/rbdock.cxx#4 $)

>  <Rbt.Library>
libRbt.so (2013.1, Build901 2013/11/27)

>  <Rbt.Parameter_File>
/export/apps/rDock/src/rDock_2013.1_src/data/scripts/dock_solv.prm

>  <Rbt.Receptor>
prm/blind_docking_20.prm

>  <SCORE>
61.7791

>  <SCORE.INTER>
25.8608

>  <SCORE.INTER.CONST>
1

>  <SCORE.INTER.POLAR>
0

>  <SCORE.INTER.ROT>
6

>  <SCORE.INTER.SOLV>
31.472

>  <SCORE.INTER.VDW>
-0.850118

>  <SCORE.INTER.norm>
0.760612

>  <SCORE.INTRA>
11.8823

>  <SCORE.INTRA.DIHEDRAL>
-7.66286

>  <SCORE.INTRA.DIHEDRAL.0>
18.0069

>  <SCORE.INTRA.POLAR>
0

>  <SCORE.INTRA.POLAR.0>
0

>  <SCORE.INTRA.REPUL>
0

>  <SCORE.INTRA.REPUL.0>
0

>  <SCORE.INTRA.SOLV>
7.26306

>  <SCORE.INTRA.SOLV.lig_0>
-70.7393

>  <SCORE.INTRA.VDW>
12.0822

>  <SCORE.INTRA.VDW.0>
-3.23471

>  <SCORE.INTRA.norm>
0.34948

>  <SCORE.RESTR>
24.036

>  <SCORE.RESTR.CAVITY>
24.036

>  <SCORE.RESTR.norm>
0.70694

>  <SCORE.SYSTEM>
0

>  <SCORE.SYSTEM.CONST>
0

>  <SCORE.SYSTEM.DIHEDRAL>
0

>  <SCORE.SYSTEM.SOLV>
0

>  <SCORE.SYSTEM.norm>
0

>  <SCORE.heavy>
34

>  <SCORE.norm>
1.81703

>  <RMSD>
32.502

$$$$
lig.pdb
 OpenBabel11021811503D
libRbt.so/2013.1/901 2013/11/27
 34 36  0  0  0  0  0  0  0  0999 V2000
    2.7040    4.7819   10.0129 C   0  0  2  0  0  0  0  0  0  0  0  0
    2.8153    5.6361    8.8691 O   0  0  0  0  0  0  0  0  0  0  0  0
    4.0927    4.0422   10.2265 C   0  0  2  0  0  0  0  0  0  0  0  0
    5.1971    5.0012   10.4620 N   0  0  0  0  0  0  0  0  0  0  0  0
    4.4073    3.1689    8.9858 C   0  0  1  0  0  0  0  0  0  0  0  0
    5.6521    2.4887    9.1628 O   0  0  0  0  0  0  0  0  0  0  0  0
    3.2504    2.1749    8.7802 C   0  0  2  0  0  0  0  0  0  0  0  0
    3.5296    1.3602    7.6406 O   0  0  0  0  0  0  0  0  0  0  0  0
    1.8989    2.9646    8.5899 C   0  0  2  0  0  0  0  0  0  0  0  0
    1.6238    3.8220    9.7626 O   0  0  0  0  0  0  0  0  0  0  0  0
    0.6998    2.0036    8.3955 C   0  0  2  0  0  0  0  0  0  0  0  0
    0.6223    1.0970    9.4972 O   0  0  0  0  0  0  0  0  0  0  0  0
    0.8430    1.1985    7.1133 C   0  0  0  0  0  0  0  0  0  0  0  0
   -0.9727    7.2449    7.6949 C   0  0  2  0  0  0  0  0  0  0  0  0
   -2.1223    8.1456    7.5790 N   0  0  0  0  0  0  0  0  0  0  0  0
   -0.7218    7.0111    9.2102 C   0  0  0  0  0  0  0  0  0  0  0  0
    0.4797    6.0380    9.3536 C   0  0  2  0  0  0  0  0  0  0  0  0
    0.7507    5.7827   10.7771 N   0  0  0  0  0  0  0  0  0  0  0  0
    1.7535    6.6267    8.6900 C   0  0  2  0  0  0  0  0  0  0  0  0
    1.4629    6.8959    7.1797 C   0  0  2  0  0  0  0  0  0  0  0  0
    2.6367    7.4504    6.5703 O   0  0  0  0  0  0  0  0  0  0  0  0
    0.3000    7.9042    7.0144 C   0  0  1  0  0  0  0  0  0  0  0  0
    0.0879    8.0894    5.5929 O   0  0  0  0  0  0  0  0  0  0  0  0
    0.7287    7.1264    4.7236 C   0  0  2  0  0  0  0  0  0  0  0  0
   -0.0565    7.1769    3.3604 C   0  0  2  0  0  0  0  0  0  0  0  0
    0.0302    8.4785    2.8022 O   0  0  0  0  0  0  0  0  0  0  0  0
   -1.5573    6.7725    3.6185 C   0  0  1  0  0  0  0  0  0  0  0  0
   -2.3455    6.8164    2.3492 N   0  0  0  0  0  0  0  0  0  0  0  0
   -1.5064    6.2995    1.2468 C   0  0  0  0  0  0  0  0  0  0  0  0
   -1.5854    5.3356    4.2228 C   0  0  2  0  0  0  0  0  0  0  0  0
   -1.0000    4.4336    3.2851 O   0  0  0  0  0  0  0  0  0  0  0  0
   -3.0101    4.8697    4.5116 C   0  0  0  0  0  0  0  0  0  0  0  0
   -0.7523    5.3195    5.5445 C   0  0  0  0  0  0  0  0  0  0  0  0
    0.6341    5.7705    5.3007 O   0  0  0  0  0  0  0  0  0  0  0  0
  1  3  1  0  0  0  0
  1  2  1  6  0  0  0
  3  5  1  0  0  0  0
  3  4  1  6  0  0  0
  5  6  1  1  0  0  0
  7  8  1  6  0  0  0
  7  5  1  0  0  0  0
  9 10  1  1  0  0  0
  9  7  1  0  0  0  0
 10  1  1  0  0  0  0
 11 13  1  6  0  0  0
 11  9  1  0  0  0  0
 12 11  1  0  0  0  0
 14 15  1  1  0  0  0
 16 14  1  0  0  0  0
 17 18  1  1  0  0  0
 17 16  1  0  0  0  0
 19  2  1  6  0  0  0
 19 20  1  0  0  0  0
 19 17  1  0  0  0  0
 20 21  1  1  0  0  0
 20 22  1  0  0  0  0
 22 23  1  6  0  0  0
 22 14  1  0  0  0  0
 24 23  1  1  0  0  0
 24 25  1  0  0  0  0
 25 27  1  0  0  0  0
 25 26  1  1  0  0  0
 27 28  1  6  0  0  0
 28 29  1  0  0  0  0
 30 31  1  6  0  0  0
 30 32  1  0  0  0  0
 30 27  1  0  0  0  0
 33 30  1  0  0  0  0
 34 33  1  0  0  0  0
 34 24  1  0  0  0  0
M  END
>  <CHROM.1>
-166.38074078,56.01791258,-27.77265945,-102.36533189,158.80673469,38.92623290
0.91371066,5.24763497,6.97398138,-0.20032830,-0.97901665,0.31485163

>  <Name>
lig.pdb

>  <RI>
0

>  <Rbt.Current_Directory>
/home/itssahil/PROJECTS/Mol_Feturizer/New_Systems/rnas/4k32

>  <Rbt.Executable>
rbdock ($Id: //depot/dev/client3/rdock/2013.1/src/exe/rbdock.cxx#4 $)

>  <Rbt.Library>
libRbt.so (2013.1, Build901 2013/11/27)

>  <Rbt.Parameter_File>
/export/apps/rDock/src/rDock_2013.1_src/data/scripts/dock_solv.prm

>  <Rbt.Receptor>
prm/blind_docking_20.prm

>  <SCORE>
68.024

>  <SCORE.INTER>
12.7863

>  <SCORE.INTER.CONST>
1

>  <SCORE.INTER.POLAR>
0

>  <SCORE.INTER.ROT>
6

>  <SCORE.INTER.SOLV>
24.7165

>  <SCORE.INTER.VDW>
-7.31462

>  <SCORE.INTER.norm>
0.376068

>  <SCORE.INTRA>
28.8952

>  <SCORE.INTRA.DIHEDRAL>
-4.97438

>  <SCORE.INTRA.DIHEDRAL.0>
18.0069

>  <SCORE.INTRA.POLAR>
0

>  <SCORE.INTRA.POLAR.0>
0

>  <SCORE.INTRA.REPUL>
0

>  <SCORE.INTRA.REPUL.0>
0

>  <SCORE.INTRA.SOLV>
1.84901

>  <SCORE.INTRA.SOLV.lig_0>
-70.7393

>  <SCORE.INTRA.VDW>
30.4579

>  <SCORE.INTRA.VDW.0>
-3.23471

>  <SCORE.INTRA.norm>
0.84986

>  <SCORE.RESTR>
26.3425

>  <SCORE.RESTR.CAVITY>
26.3425

>  <SCORE.RESTR.norm>
0.774778

>  <SCORE.SYSTEM>
0

>  <SCORE.SYSTEM.CONST>
0

>  <SCORE.SYSTEM.DIHEDRAL>
0

>  <SCORE.SYSTEM.SOLV>
0

>  <SCORE.SYSTEM.norm>
0

>  <SCORE.heavy>
34

>  <SCORE.norm>
2.00071

>  <RMSD>
32.510

$$$$
lig.pdb
 OpenBabel11021811503D
libRbt.so/2013.1/901 2013/11/27
 34 36  0  0  0  0  0  0  0  0999 V2000
    3.7324    4.5097    9.8223 C   0  0  2  0  0  0  0  0  0  0  0  0
    3.9744    5.2767    8.6377 O   0  0  0  0  0  0  0  0  0  0  0  0
    4.7151    3.2625    9.8247 C   0  0  2  0  0  0  0  0  0  0  0  0
    6.1362    3.6810    9.8180 N   0  0  0  0  0  0  0  0  0  0  0  0
    4.4210    2.3727    8.5907 C   0  0  1  0  0  0  0  0  0  0  0  0
    5.2924    1.2395    8.5793 O   0  0  0  0  0  0  0  0  0  0  0  0
    2.9440    1.9428    8.6374 C   0  0  2  0  0  0  0  0  0  0  0  0
    2.6600    1.1180    7.5063 O   0  0  0  0  0  0  0  0  0  0  0  0
    2.0190    3.2198    8.6493 C   0  0  2  0  0  0  0  0  0  0  0  0
    2.3300    4.0809    9.8102 O   0  0  0  0  0  0  0  0  0  0  0  0
    0.5195    2.8368    8.7129 C   0  0  2  0  0  0  0  0  0  0  0  0
   -0.2821    4.0195    8.7262 O   0  0  0  0  0  0  0  0  0  0  0  0
    0.2115    2.0274    9.9630 C   0  0  0  0  0  0  0  0  0  0  0  0
    0.1896    7.2197    8.1727 C   0  0  2  0  0  0  0  0  0  0  0  0
   -0.8225    8.2663    8.0097 N   0  0  0  0  0  0  0  0  0  0  0  0
    1.0573    7.6056    9.4023 C   0  0  0  0  0  0  0  0  0  0  0  0
    2.1223    6.4943    9.6065 C   0  0  2  0  0  0  0  0  0  0  0  0
    2.9662    6.8163   10.7680 N   0  0  0  0  0  0  0  0  0  0  0  0
    3.0204    6.3478    8.3489 C   0  0  2  0  0  0  0  0  0  0  0  0
    2.1221    6.0057    7.1186 C   0  0  2  0  0  0  0  0  0  0  0  0
    2.9515    5.8820    5.9553 O   0  0  0  0  0  0  0  0  0  0  0  0
    1.0848    7.1266    6.8660 C   0  0  1  0  0  0  0  0  0  0  0  0
    0.2891    6.7289    5.7221 O   0  0  0  0  0  0  0  0  0  0  0  0
   -1.0091    7.3564    5.6013 C   0  0  2  0  0  0  0  0  0  0  0  0
   -1.9404    6.3030    4.8940 C   0  0  2  0  0  0  0  0  0  0  0  0
   -2.0320    5.1307    5.6881 O   0  0  0  0  0  0  0  0  0  0  0  0
   -1.3528    5.9748    3.4693 C   0  0  1  0  0  0  0  0  0  0  0  0
   -2.2022    4.9679    2.7630 N   0  0  0  0  0  0  0  0  0  0  0  0
   -1.7630    3.6116    3.1558 C   0  0  0  0  0  0  0  0  0  0  0  0
   -1.2845    7.2970    2.6460 C   0  0  2  0  0  0  0  0  0  0  0  0
   -2.6048    7.8207    2.5114 O   0  0  0  0  0  0  0  0  0  0  0  0
   -0.7151    7.0661    1.2486 C   0  0  0  0  0  0  0  0  0  0  0  0
   -0.3943    8.3298    3.4089 C   0  0  0  0  0  0  0  0  0  0  0  0
   -0.9161    8.5735    4.7702 O   0  0  0  0  0  0  0  0  0  0  0  0
  1  3  1  0  0  0  0
  1  2  1  6  0  0  0
  3  5  1  0  0  0  0
  3  4  1  6  0  0  0
  5  6  1  1  0  0  0
  7  8  1  6  0  0  0
  7  5  1  0  0  0  0
  9 10  1  1  0  0  0
  9  7  1  0  0  0  0
 10  1  1  0  0  0  0
 11 13  1  1  0  0  0
 11  9  1  0  0  0  0
 12 11  1  0  0  0  0
 14 15  1  6  0  0  0
 16 14  1  0  0  0  0
 17 18  1  1  0  0  0
 17 16  1  0  0  0  0
 19  2  1  1  0  0  0
 19 20  1  0  0  0  0
 19 17  1  0  0  0  0
 20 21  1  6  0  0  0
 20 22  1  0  0  0  0
 22 23  1  6  0  0  0
 22 14  1  0  0  0  0
 24 23  1  6  0  0  0
 24 25  1  0  0  0  0
 25 27  1  0  0  0  0
 25 26  1  1  0  0  0
 27 28  1  6  0  0  0
 28 29  1  0  0  0  0
 30 31  1  6  0  0  0
 30 32  1  0  0  0  0
 30 27  1  0  0  0  0
 33 30  1  0  0  0  0
 34 33  1  0  0  0  0
 34 24  1  0  0  0  0
M  END
>  <CHROM.1>
170.52234022,179.81157588,9.93286570,42.42188776,-149.20144610,-86.53528743
1.08713391,5.28791704,6.95686451,-0.18503232,-0.91147196,0.31507680

>  <Name>
lig.pdb

>  <RI>
0

>  <Rbt.Current_Directory>
/home/itssahil/PROJECTS/Mol_Feturizer/New_Systems/rnas/4k32

>  <Rbt.Executable>
rbdock ($Id: //depot/dev/client3/rdock/2013.1/src/exe/rbdock.cxx#4 $)

>  <Rbt.Library>
libRbt.so (2013.1, Build901 2013/11/27)

>  <Rbt.Parameter_File>
/export/apps/rDock/src/rDock_2013.1_src/data/scripts/dock_solv.prm

>  <Rbt.Receptor>
prm/blind_docking_20.prm

>  <SCORE>
48.9488

>  <SCORE.INTER>
10.2772

>  <SCORE.INTER.CONST>
1

>  <SCORE.INTER.POLAR>
0

>  <SCORE.INTER.ROT>
6

>  <SCORE.INTER.SOLV>
25.0891

>  <SCORE.INTER.VDW>
-9.11154

>  <SCORE.INTER.norm>
0.302272

>  <SCORE.INTRA>
9.03698

>  <SCORE.INTRA.DIHEDRAL>
-5.14615

>  <SCORE.INTRA.DIHEDRAL.0>
18.0069

>  <SCORE.INTRA.POLAR>
0

>  <SCORE.INTRA.POLAR.0>
0

>  <SCORE.INTRA.REPUL>
0.00755082

>  <SCORE.INTRA.REPUL.0>
0

>  <SCORE.INTRA.SOLV>
1.69816

>  <SCORE.INTRA.SOLV.lig_0>
-70.7393

>  <SCORE.INTRA.VDW>
10.7232

>  <SCORE.INTRA.VDW.0>
-3.23471

>  <SCORE.INTRA.norm>
0.265793

>  <SCORE.RESTR>
29.6346

>  <SCORE.RESTR.CAVITY>
29.6346

>  <SCORE.RESTR.norm>
0.871605

>  <SCORE.SYSTEM>
0

>  <SCORE.SYSTEM.CONST>
0

>  <SCORE.SYSTEM.DIHEDRAL>
0

>  <SCORE.SYSTEM.SOLV>
0

>  <SCORE.SYSTEM.norm>
0

>  <SCORE.heavy>
34

>  <SCORE.norm>
1.43967

>  <RMSD>
32.547

$$$$
lig.pdb
 OpenBabel11021811503D
libRbt.so/2013.1/901 2013/11/27
 34 36  0  0  0  0  0  0  0  0999 V2000
    3.1497    4.8550   10.1983 C   0  0  2  0  0  0  0  0  0  0  0  0
    3.1750    5.6223    8.9896 O   0  0  0  0  0  0  0  0  0  0  0  0
    4.6226    4.3462   10.5031 C   0  0  2  0  0  0  0  0  0  0  0  0
    5.5685    5.4724   10.6812 N   0  0  0  0  0  0  0  0  0  0  0  0
    5.1014    3.4324    9.3470 C   0  0  1  0  0  0  0  0  0  0  0  0
    6.4247    2.9582    9.6072 O   0  0  0  0  0  0  0  0  0  0  0  0
    4.1076    2.2664    9.2003 C   0  0  2  0  0  0  0  0  0  0  0  0
    4.5396    1.4131    8.1393 O   0  0  0  0  0  0  0  0  0  0  0  0
    2.6635    2.8317    8.9155 C   0  0  2  0  0  0  0  0  0  0  0  0
    2.2283    3.7302   10.0060 O   0  0  0  0  0  0  0  0  0  0  0  0
    1.6228    1.6929    8.7763 C   0  0  2  0  0  0  0  0  0  0  0  0
    2.0654    0.7493    7.7989 O   0  0  0  0  0  0  0  0  0  0  0  0
    0.2680    2.2356    8.3488 C   0  0  0  0  0  0  0  0  0  0  0  0
   -0.6632    7.0177    7.7098 C   0  0  2  0  0  0  0  0  0  0  0  0
   -1.8593    7.8510    7.5643 N   0  0  0  0  0  0  0  0  0  0  0  0
   -0.4450    6.7868    9.2307 C   0  0  0  0  0  0  0  0  0  0  0  0
    0.8063    5.8840    9.4048 C   0  0  2  0  0  0  0  0  0  0  0  0
    1.0485    5.6335   10.8343 N   0  0  0  0  0  0  0  0  0  0  0  0
    2.0631    6.5510    8.7842 C   0  0  2  0  0  0  0  0  0  0  0  0
    1.8031    6.8149    7.2674 C   0  0  2  0  0  0  0  0  0  0  0  0
    2.9604    7.4415    6.6977 O   0  0  0  0  0  0  0  0  0  0  0  0
    0.5889    7.7552    7.0727 C   0  0  1  0  0  0  0  0  0  0  0  0
    0.4095    7.9391    5.6466 O   0  0  0  0  0  0  0  0  0  0  0  0
    0.3573    6.7315    4.8513 C   0  0  2  0  0  0  0  0  0  0  0  0
    0.4244    7.1939    3.3483 C   0  0  2  0  0  0  0  0  0  0  0  0
    1.6392    7.8876    3.1113 O   0  0  0  0  0  0  0  0  0  0  0  0
   -0.8188    8.1111    3.0387 C   0  0  1  0  0  0  0  0  0  0  0  0
   -0.7910    8.5833    1.6208 N   0  0  0  0  0  0  0  0  0  0  0  0
   -1.4411    9.9093    1.5450 C   0  0  0  0  0  0  0  0  0  0  0  0
   -2.1174    7.2924    3.3105 C   0  0  2  0  0  0  0  0  0  0  0  0
   -2.1317    6.1573    2.4463 O   0  0  0  0  0  0  0  0  0  0  0  0
   -3.3740    8.1164    3.0412 C   0  0  0  0  0  0  0  0  0  0  0  0
   -2.1171    6.8103    4.7967 C   0  0  0  0  0  0  0  0  0  0  0  0
   -0.9092    6.0115    5.0928 O   0  0  0  0  0  0  0  0  0  0  0  0
  1  3  1  0  0  0  0
  1  2  1  6  0  0  0
  3  5  1  0  0  0  0
  3  4  1  6  0  0  0
  5  6  1  1  0  0  0
  7  8  1  6  0  0  0
  7  5  1  0  0  0  0
  9 10  1  1  0  0  0
  9  7  1  0  0  0  0
 10  1  1  0  0  0  0
 11 13  1  6  0  0  0
 11  9  1  0  0  0  0
 12 11  1  0  0  0  0
 14 15  1  1  0  0  0
 16 14  1  0  0  0  0
 17 18  1  1  0  0  0
 17 16  1  0  0  0  0
 19  2  1  6  0  0  0
 19 20  1  0  0  0  0
 19 17  1  0  0  0  0
 20 21  1  1  0  0  0
 20 22  1  0  0  0  0
 22 23  1  6  0  0  0
 22 14  1  0  0  0  0
 24 23  1  1  0  0  0
 24 25  1  0  0  0  0
 25 27  1  0  0  0  0
 25 26  1  1  0  0  0
 27 28  1  6  0  0  0
 28 29  1  0  0  0  0
 30 31  1  6  0  0  0
 30 32  1  0  0  0  0
 30 27  1  0  0  0  0
 33 30  1  0  0  0  0
 34 33  1  0  0  0  0
 34 24  1  0  0  0  0
M  END
>  <CHROM.1>
-159.22799406,-53.40338892,-34.20086385,-65.17580639,-169.94889693,-149.74445857
1.21727401,5.68808806,6.93554882,-0.26841694,-0.96543898,0.31071643

>  <Name>
lig.pdb

>  <RI>
0

>  <Rbt.Current_Directory>
/home/itssahil/PROJECTS/Mol_Feturizer/New_Systems/rnas/4k32

>  <Rbt.Executable>
rbdock ($Id: //depot/dev/client3/rdock/2013.1/src/exe/rbdock.cxx#4 $)

>  <Rbt.Library>
libRbt.so (2013.1, Build901 2013/11/27)

>  <Rbt.Parameter_File>
/export/apps/rDock/src/rDock_2013.1_src/data/scripts/dock_solv.prm

>  <Rbt.Receptor>
prm/blind_docking_20.prm

>  <SCORE>
55.1251

>  <SCORE.INTER>
20.1932

>  <SCORE.INTER.CONST>
1

>  <SCORE.INTER.POLAR>
0

>  <SCORE.INTER.ROT>
6

>  <SCORE.INTER.SOLV>
28.3613

>  <SCORE.INTER.VDW>
-3.59166

>  <SCORE.INTER.norm>
0.593917

>  <SCORE.INTRA>
8.54274

>  <SCORE.INTRA.DIHEDRAL>
-11.8051

>  <SCORE.INTRA.DIHEDRAL.0>
18.0069

>  <SCORE.INTRA.POLAR>
0

>  <SCORE.INTRA.POLAR.0>
0

>  <SCORE.INTRA.REPUL>
0

>  <SCORE.INTRA.REPUL.0>
0

>  <SCORE.INTRA.SOLV>
2.30975

>  <SCORE.INTRA.SOLV.lig_0>
-70.7393

>  <SCORE.INTRA.VDW>
13.2904

>  <SCORE.INTRA.VDW.0>
-3.23471

>  <SCORE.INTRA.norm>
0.251257

>  <SCORE.RESTR>
26.3892

>  <SCORE.RESTR.CAVITY>
26.3892

>  <SCORE.RESTR.norm>
0.776152

>  <SCORE.SYSTEM>
0

>  <SCORE.SYSTEM.CONST>
0

>  <SCORE.SYSTEM.DIHEDRAL>
0

>  <SCORE.SYSTEM.SOLV>
0

>  <SCORE.SYSTEM.norm>
0

>  <SCORE.heavy>
34

>  <SCORE.norm>
1.62133

>  <RMSD>
32.550

$$$$
lig.pdb
 OpenBabel11021811503D
libRbt.so/2013.1/901 2013/11/27
 34 36  0  0  0  0  0  0  0  0999 V2000
    3.7901    4.5157    9.8327 C   0  0  2  0  0  0  0  0  0  0  0  0
    4.0167    5.2993    8.6560 O   0  0  0  0  0  0  0  0  0  0  0  0
    4.7852    3.2785    9.8137 C   0  0  2  0  0  0  0  0  0  0  0  0
    6.2020    3.7114    9.8030 N   0  0  0  0  0  0  0  0  0  0  0  0
    4.4920    2.4008    8.5709 C   0  0  1  0  0  0  0  0  0  0  0  0
    5.3745    1.2766    8.5402 O   0  0  0  0  0  0  0  0  0  0  0  0
    3.0196    1.9555    8.6219 C   0  0  2  0  0  0  0  0  0  0  0  0
    2.7365    1.1416    7.4826 O   0  0  0  0  0  0  0  0  0  0  0  0
    2.0820    3.2229    8.6551 C   0  0  2  0  0  0  0  0  0  0  0  0
    2.3919    4.0730    9.8244 O   0  0  0  0  0  0  0  0  0  0  0  0
    0.5869    2.8241    8.7237 C   0  0  2  0  0  0  0  0  0  0  0  0
   -0.2306    3.9566    8.4223 O   0  0  0  0  0  0  0  0  0  0  0  0
    0.2173    2.3130   10.1075 C   0  0  0  0  0  0  0  0  0  0  0  0
    0.1874    7.1715    8.2709 C   0  0  2  0  0  0  0  0  0  0  0  0
   -0.8463    8.1979    8.1160 N   0  0  0  0  0  0  0  0  0  0  0  0
    1.0896    7.6023    9.4602 C   0  0  0  0  0  0  0  0  0  0  0  0
    2.1787    6.5131    9.6561 C   0  0  2  0  0  0  0  0  0  0  0  0
    3.0559    6.8779   10.7796 N   0  0  0  0  0  0  0  0  0  0  0  0
    3.0363    6.3479    8.3728 C   0  0  2  0  0  0  0  0  0  0  0  0
    2.1028    5.9604    7.1828 C   0  0  2  0  0  0  0  0  0  0  0  0
    2.8945    5.8193    5.9954 O   0  0  0  0  0  0  0  0  0  0  0  0
    1.0396    7.0584    6.9373 C   0  0  1  0  0  0  0  0  0  0  0  0
    0.2124    6.6190    5.8315 O   0  0  0  0  0  0  0  0  0  0  0  0
   -0.7662    7.5709    5.3520 C   0  0  2  0  0  0  0  0  0  0  0  0
   -1.8870    6.7255    4.6404 C   0  0  2  0  0  0  0  0  0  0  0  0
   -2.4817    5.8338    5.5703 O   0  0  0  0  0  0  0  0  0  0  0  0
   -1.2472    5.9388    3.4344 C   0  0  1  0  0  0  0  0  0  0  0  0
   -2.2763    5.1119    2.7334 N   0  0  0  0  0  0  0  0  0  0  0  0
   -1.7731    3.7271    2.6079 C   0  0  0  0  0  0  0  0  0  0  0  0
   -0.6194    6.9705    2.4484 C   0  0  2  0  0  0  0  0  0  0  0  0
   -1.6517    7.8297    1.9671 O   0  0  0  0  0  0  0  0  0  0  0  0
    0.0324    6.2854    1.2500 C   0  0  0  0  0  0  0  0  0  0  0  0
    0.4482    7.8211    3.2086 C   0  0  0  0  0  0  0  0  0  0  0  0
   -0.1499    8.4958    4.3797 O   0  0  0  0  0  0  0  0  0  0  0  0
  1  3  1  0  0  0  0
  1  2  1  6  0  0  0
  3  5  1  0  0  0  0
  3  4  1  6  0  0  0
  5  6  1  1  0  0  0
  7  8  1  6  0  0  0
  7  5  1  0  0  0  0
  9 10  1  1  0  0  0
  9  7  1  0  0  0  0
 10  1  1  0  0  0  0
 11 13  1  1  0  0  0
 11  9  1  0  0  0  0
 12 11  1  0  0  0  0
 14 15  1  6  0  0  0
 16 14  1  0  0  0  0
 17 18  1  1  0  0  0
 17 16  1  0  0  0  0
 19  2  1  1  0  0  0
 19 20  1  0  0  0  0
 19 17  1  0  0  0  0
 20 21  1  6  0  0  0
 20 22  1  0  0  0  0
 22 23  1  6  0  0  0
 22 14  1  0  0  0  0
 24 23  1  6  0  0  0
 24 25  1  0  0  0  0
 25 27  1  0  0  0  0
 25 26  1  1  0  0  0
 27 28  1  6  0  0  0
 28 29  1  0  0  0  0
 30 31  1  6  0  0  0
 30 32  1  0  0  0  0
 30 27  1  0  0  0  0
 33 30  1  0  0  0  0
 34 33  1  0  0  0  0
 34 24  1  0  0  0  0
M  END
>  <CHROM.1>
169.41463345,-165.79568477,12.92562774,69.91284409,-156.64004797,-128.92253374
1.22369460,5.28746394,6.88976848,0.02889575,-0.95716105,0.53560077

>  <Name>
lig.pdb

>  <RI>
0

>  <Rbt.Current_Directory>
/home/itssahil/PROJECTS/Mol_Feturizer/New_Systems/rnas/4k32

>  <Rbt.Executable>
rbdock ($Id: //depot/dev/client3/rdock/2013.1/src/exe/rbdock.cxx#4 $)

>  <Rbt.Library>
libRbt.so (2013.1, Build901 2013/11/27)

>  <Rbt.Parameter_File>
/export/apps/rDock/src/rDock_2013.1_src/data/scripts/dock_solv.prm

>  <Rbt.Receptor>
prm/blind_docking_20.prm

>  <SCORE>
67.2729

>  <SCORE.INTER>
35.2345

>  <SCORE.INTER.CONST>
1

>  <SCORE.INTER.POLAR>
0

>  <SCORE.INTER.ROT>
6

>  <SCORE.INTER.SOLV>
26.7869

>  <SCORE.INTER.VDW>
6.96071

>  <SCORE.INTER.norm>
1.03631

>  <SCORE.INTRA>
5.00972

>  <SCORE.INTRA.DIHEDRAL>
-6.29438

>  <SCORE.INTRA.DIHEDRAL.0>
18.0069

>  <SCORE.INTRA.POLAR>
0

>  <SCORE.INTRA.POLAR.0>
0

>  <SCORE.INTRA.REPUL>
0.0102418

>  <SCORE.INTRA.REPUL.0>
0

>  <SCORE.INTRA.SOLV>
1.05381

>  <SCORE.INTRA.SOLV.lig_0>
-70.7393

>  <SCORE.INTRA.VDW>
7.57879

>  <SCORE.INTRA.VDW.0>
-3.23471

>  <SCORE.INTRA.norm>
0.147345

>  <SCORE.RESTR>
27.0287

>  <SCORE.RESTR.CAVITY>
27.0287

>  <SCORE.RESTR.norm>
0.794961

>  <SCORE.SYSTEM>
0

>  <SCORE.SYSTEM.CONST>
0

>  <SCORE.SYSTEM.DIHEDRAL>
0

>  <SCORE.SYSTEM.SOLV>
0

>  <SCORE.SYSTEM.norm>
0

>  <SCORE.heavy>
34

>  <SCORE.norm>
1.97862

>  <RMSD>
32.625

$$$$
lig.pdb
 OpenBabel11021811503D
libRbt.so/2013.1/901 2013/11/27
 34 36  0  0  0  0  0  0  0  0999 V2000
    4.4693    4.2236    9.3079 C   0  0  2  0  0  0  0  0  0  0  0  0
    4.2108    4.9521    8.1027 O   0  0  0  0  0  0  0  0  0  0  0  0
    5.4242    3.0026    8.9638 C   0  0  2  0  0  0  0  0  0  0  0  0
    6.7179    3.4563    8.4024 N   0  0  0  0  0  0  0  0  0  0  0  0
    4.7140    2.0606    7.9592 C   0  0  1  0  0  0  0  0  0  0  0  0
    5.5566    0.9501    7.6424 O   0  0  0  0  0  0  0  0  0  0  0  0
    3.3845    1.5955    8.5794 C   0  0  2  0  0  0  0  0  0  0  0  0
    2.7205    0.7225    7.6643 O   0  0  0  0  0  0  0  0  0  0  0  0
    2.4872    2.8483    8.9138 C   0  0  2  0  0  0  0  0  0  0  0  0
    3.1860    3.7594    9.8452 O   0  0  0  0  0  0  0  0  0  0  0  0
    1.1416    2.4302    9.5570 C   0  0  2  0  0  0  0  0  0  0  0  0
    0.3793    1.6586    8.6268 O   0  0  0  0  0  0  0  0  0  0  0  0
    0.3247    3.6471    9.9627 C   0  0  0  0  0  0  0  0  0  0  0  0
    0.6541    7.3197    8.3500 C   0  0  2  0  0  0  0  0  0  0  0  0
   -0.2462    8.4516    8.5832 N   0  0  0  0  0  0  0  0  0  0  0  0
    1.4802    7.1130    9.6495 C   0  0  0  0  0  0  0  0  0  0  0  0
    2.4248    5.9003    9.4304 C   0  0  2  0  0  0  0  0  0  0  0  0
    3.2254    5.6634   10.6419 N   0  0  0  0  0  0  0  0  0  0  0  0
    3.3777    6.1482    8.2303 C   0  0  2  0  0  0  0  0  0  0  0  0
    2.5253    6.3986    6.9464 C   0  0  2  0  0  0  0  0  0  0  0  0
    3.4064    6.6388    5.8408 O   0  0  0  0  0  0  0  0  0  0  0  0
    1.6119    7.6356    7.1250 C   0  0  1  0  0  0  0  0  0  0  0  0
    0.8513    7.7910    5.9014 O   0  0  0  0  0  0  0  0  0  0  0  0
    0.3915    6.5685    5.2789 C   0  0  2  0  0  0  0  0  0  0  0  0
    0.2216    6.8937    3.7483 C   0  0  2  0  0  0  0  0  0  0  0  0
    1.4686    7.2878    3.1980 O   0  0  0  0  0  0  0  0  0  0  0  0
   -0.8535    8.0337    3.5832 C   0  0  1  0  0  0  0  0  0  0  0  0
   -1.0407    8.3831    2.1419 N   0  0  0  0  0  0  0  0  0  0  0  0
   -1.4771    9.7926    2.0440 C   0  0  0  0  0  0  0  0  0  0  0  0
   -2.1978    7.5386    4.1983 C   0  0  2  0  0  0  0  0  0  0  0  0
   -2.6219    6.3733    3.4927 O   0  0  0  0  0  0  0  0  0  0  0  0
   -3.2953    8.5936    4.0861 C   0  0  0  0  0  0  0  0  0  0  0  0
   -1.9710    7.1783    5.7016 C   0  0  0  0  0  0  0  0  0  0  0  0
   -0.9092    6.1604    5.8467 O   0  0  0  0  0  0  0  0  0  0  0  0
  1  3  1  0  0  0  0
  1  2  1  6  0  0  0
  3  5  1  0  0  0  0
  3  4  1  6  0  0  0
  5  6  1  1  0  0  0
  7  8  1  6  0  0  0
  7  5  1  0  0  0  0
  9 10  1  1  0  0  0
  9  7  1  0  0  0  0
 10  1  1  0  0  0  0
 11 13  1  6  0  0  0
 11  9  1  0  0  0  0
 12 11  1  0  0  0  0
 14 15  1  1  0  0  0
 16 14  1  0  0  0  0
 17 18  1  1  0  0  0
 17 16  1  0  0  0  0
 19  2  1  6  0  0  0
 19 20  1  0  0  0  0
 19 17  1  0  0  0  0
 20 21  1  6  0  0  0
 20 22  1  0  0  0  0
 22 23  1  6  0  0  0
 22 14  1  0  0  0  0
 24 23  1  1  0  0  0
 24 25  1  0  0  0  0
 25 27  1  0  0  0  0
 25 26  1  1  0  0  0
 27 28  1  6  0  0  0
 28 29  1  0  0  0  0
 30 31  1  6  0  0  0
 30 32  1  0  0  0  0
 30 27  1  0  0  0  0
 33 30  1  0  0  0  0
 34 33  1  0  0  0  0
 34 24  1  0  0  0  0
M  END
>  <CHROM.1>
-178.03966764,-63.65746059,-29.22348391,-77.30135528,-154.34141460,-152.28177308
1.50858076,5.48468305,6.95591761,0.49414059,-0.84264208,1.42698500

>  <Name>
lig.pdb

>  <RI>
0

>  <Rbt.Current_Directory>
/home/itssahil/PROJECTS/Mol_Feturizer/New_Systems/rnas/4k32

>  <Rbt.Executable>
rbdock ($Id: //depot/dev/client3/rdock/2013.1/src/exe/rbdock.cxx#4 $)

>  <Rbt.Library>
libRbt.so (2013.1, Build901 2013/11/27)

>  <Rbt.Parameter_File>
/export/apps/rDock/src/rDock_2013.1_src/data/scripts/dock_solv.prm

>  <Rbt.Receptor>
prm/blind_docking_20.prm

>  <SCORE>
66.5361

>  <SCORE.INTER>
15.2536

>  <SCORE.INTER.CONST>
1

>  <SCORE.INTER.POLAR>
0

>  <SCORE.INTER.ROT>
6

>  <SCORE.INTER.SOLV>
29.8574

>  <SCORE.INTER.VDW>
-7.38338

>  <SCORE.INTER.norm>
0.448637

>  <SCORE.INTRA>
26.342

>  <SCORE.INTRA.DIHEDRAL>
-9.45661

>  <SCORE.INTRA.DIHEDRAL.0>
18.0069

>  <SCORE.INTRA.POLAR>
0

>  <SCORE.INTRA.POLAR.0>
0

>  <SCORE.INTRA.REPUL>
0

>  <SCORE.INTRA.REPUL.0>
0

>  <SCORE.INTRA.SOLV>
2.54108

>  <SCORE.INTRA.SOLV.lig_0>
-70.7393

>  <SCORE.INTRA.VDW>
29.7998

>  <SCORE.INTRA.VDW.0>
-3.23471

>  <SCORE.INTRA.norm>
0.774765

>  <SCORE.RESTR>
24.9404

>  <SCORE.RESTR.CAVITY>
24.9404

>  <SCORE.RESTR.norm>
0.733542

>  <SCORE.SYSTEM>
0

>  <SCORE.SYSTEM.CONST>
0

>  <SCORE.SYSTEM.DIHEDRAL>
0

>  <SCORE.SYSTEM.SOLV>
0

>  <SCORE.SYSTEM.norm>
0

>  <SCORE.heavy>
34

>  <SCORE.norm>
1.95694

>  <RMSD>
32.638

$$$$
lig.pdb
 OpenBabel11021811503D
libRbt.so/2013.1/901 2013/11/27
 34 36  0  0  0  0  0  0  0  0999 V2000
    2.3489    3.8634   10.3204 C   0  0  2  0  0  0  0  0  0  0  0  0
    2.0365    4.9907    9.4947 O   0  0  0  0  0  0  0  0  0  0  0  0
    3.6050    3.1165    9.6995 C   0  0  2  0  0  0  0  0  0  0  0  0
    4.7945    3.9976    9.6375 N   0  0  0  0  0  0  0  0  0  0  0  0
    3.2511    2.6068    8.2797 C   0  0  1  0  0  0  0  0  0  0  0  0
    4.3689    1.9246    7.7064 O   0  0  0  0  0  0  0  0  0  0  0  0
    2.0241    1.6833    8.3824 C   0  0  2  0  0  0  0  0  0  0  0  0
    1.6890    1.2027    7.0796 O   0  0  0  0  0  0  0  0  0  0  0  0
    0.8167    2.4728    9.0189 C   0  0  2  0  0  0  0  0  0  0  0  0
    1.1745    2.9858   10.3586 O   0  0  0  0  0  0  0  0  0  0  0  0
   -0.4395    1.5774    9.1582 C   0  0  2  0  0  0  0  0  0  0  0  0
   -0.0511    0.2514    9.5221 O   0  0  0  0  0  0  0  0  0  0  0  0
   -1.2172    1.5146    7.8529 C   0  0  0  0  0  0  0  0  0  0  0  0
    3.3592    6.5072    5.7175 C   0  0  2  0  0  0  0  0  0  0  0  0
    3.9983    6.5896    4.4019 N   0  0  0  0  0  0  0  0  0  0  0  0
    4.4396    6.0261    6.7251 C   0  0  0  0  0  0  0  0  0  0  0  0
    3.7869    5.9556    8.1322 C   0  0  2  0  0  0  0  0  0  0  0  0
    4.7785    5.5082    9.1228 N   0  0  0  0  0  0  0  0  0  0  0  0
    2.5831    4.9756    8.1376 C   0  0  2  0  0  0  0  0  0  0  0  0
    1.5326    5.4535    7.0860 C   0  0  2  0  0  0  0  0  0  0  0  0
    0.4262    4.5410    7.0837 O   0  0  0  0  0  0  0  0  0  0  0  0
    2.1491    5.4823    5.6663 C   0  0  1  0  0  0  0  0  0  0  0  0
    1.1191    5.9442    4.7576 O   0  0  0  0  0  0  0  0  0  0  0  0
    1.1971    7.3337    4.3615 C   0  0  2  0  0  0  0  0  0  0  0  0
    0.6767    8.1690    5.5898 C   0  0  2  0  0  0  0  0  0  0  0  0
    1.5028    7.9316    6.7188 O   0  0  0  0  0  0  0  0  0  0  0  0
   -0.8166    7.7646    5.8884 C   0  0  1  0  0  0  0  0  0  0  0  0
   -1.3504    8.5280    7.0574 N   0  0  0  0  0  0  0  0  0  0  0  0
   -0.8610    7.8996    8.3032 C   0  0  0  0  0  0  0  0  0  0  0  0
   -1.6712    8.0550    4.6172 C   0  0  2  0  0  0  0  0  0  0  0  0
   -1.6007    9.4503    4.3277 O   0  0  0  0  0  0  0  0  0  0  0  0
   -3.1370    7.6808    4.8218 C   0  0  0  0  0  0  0  0  0  0  0  0
   -1.0887    7.2474    3.4132 C   0  0  0  0  0  0  0  0  0  0  0  0
    0.3333    7.5833    3.1901 O   0  0  0  0  0  0  0  0  0  0  0  0
  1  3  1  0  0  0  0
  1  2  1  6  0  0  0
  3  5  1  0  0  0  0
  3  4  1  6  0  0  0
  5  6  1  1  0  0  0
  7  8  1  6  0  0  0
  7  5  1  0  0  0  0
  9 10  1  1  0  0  0
  9  7  1  0  0  0  0
 10  1  1  0  0  0  0
 11 13  1  6  0  0  0
 11  9  1  0  0  0  0
 12 11  1  0  0  0  0
 14 15  1  6  0  0  0
 16 14  1  0  0  0  0
 17 18  1  1  0  0  0
 17 16  1  0  0  0  0
 19  2  1  1  0  0  0
 19 20  1  0  0  0  0
 19 17  1  0  0  0  0
 20 21  1  6  0  0  0
 20 22  1  0  0  0  0
 22 23  1  6  0  0  0
 22 14  1  0  0  0  0
 24 23  1  1  0  0  0
 24 25  1  0  0  0  0
 25 27  1  0  0  0  0
 25 26  1  1  0  0  0
 27 28  1  1  0  0  0
 28 29  1  0  0  0  0
 30 31  1  6  0  0  0
 30 32  1  0  0  0  0
 30 27  1  0  0  0  0
 33 30  1  0  0  0  0
 34 33  1  0  0  0  0
 34 24  1  0  0  0  0
M  END
>  <CHROM.1>
18.66503469,37.42982207,-103.64274012,-15.37971560,-76.08824977,-79.57210076
1.31372074,5.18243715,7.10060020,-1.18256930,-0.14302701,-0.59109260

>  <Name>
lig.pdb

>  <RI>
0

>  <Rbt.Current_Directory>
/home/itssahil/PROJECTS/Mol_Feturizer/New_Systems/rnas/4k32

>  <Rbt.Executable>
rbdock ($Id: //depot/dev/client3/rdock/2013.1/src/exe/rbdock.cxx#4 $)

>  <Rbt.Library>
libRbt.so (2013.1, Build901 2013/11/27)

>  <Rbt.Parameter_File>
/export/apps/rDock/src/rDock_2013.1_src/data/scripts/dock_solv.prm

>  <Rbt.Receptor>
prm/blind_docking_20.prm

>  <SCORE>
67.187

>  <SCORE.INTER>
10.1835

>  <SCORE.INTER.CONST>
1

>  <SCORE.INTER.POLAR>
0

>  <SCORE.INTER.ROT>
6

>  <SCORE.INTER.SOLV>
27.8169

>  <SCORE.INTER.VDW>
-10.0833

>  <SCORE.INTER.norm>
0.299515

>  <SCORE.INTRA>
37.4123

>  <SCORE.INTRA.DIHEDRAL>
2.77263

>  <SCORE.INTRA.DIHEDRAL.0>
18.0069

>  <SCORE.INTRA.POLAR>
0

>  <SCORE.INTRA.POLAR.0>
0

>  <SCORE.INTRA.REPUL>
0.00401066

>  <SCORE.INTRA.REPUL.0>
0

>  <SCORE.INTRA.SOLV>
9.53663

>  <SCORE.INTRA.SOLV.lig_0>
-70.7393

>  <SCORE.INTRA.VDW>
31.2376

>  <SCORE.INTRA.VDW.0>
-3.23471

>  <SCORE.INTRA.norm>
1.10036

>  <SCORE.RESTR>
19.5912

>  <SCORE.RESTR.CAVITY>
19.5912

>  <SCORE.RESTR.norm>
0.576212

>  <SCORE.SYSTEM>
0

>  <SCORE.SYSTEM.CONST>
0

>  <SCORE.SYSTEM.DIHEDRAL>
0

>  <SCORE.SYSTEM.SOLV>
0

>  <SCORE.SYSTEM.norm>
0

>  <SCORE.heavy>
34

>  <SCORE.norm>
1.97609

>  <RMSD>
32.641

$$$$
lig.pdb
 OpenBabel11021811503D
libRbt.so/2013.1/901 2013/11/27
 34 36  0  0  0  0  0  0  0  0999 V2000
    1.4926    1.3220    9.0457 C   0  0  2  0  0  0  0  0  0  0  0  0
    2.5568    1.6742    8.1548 O   0  0  0  0  0  0  0  0  0  0  0  0
    0.8853   -0.0693    8.5804 C   0  0  2  0  0  0  0  0  0  0  0  0
    1.8987   -1.1496    8.6086 N   0  0  0  0  0  0  0  0  0  0  0  0
    0.3062    0.0740    7.1504 C   0  0  1  0  0  0  0  0  0  0  0  0
   -0.2521   -1.1684    6.7163 O   0  0  0  0  0  0  0  0  0  0  0  0
   -0.7529    1.1907    7.1603 C   0  0  2  0  0  0  0  0  0  0  0  0
   -1.2982    1.3309    5.8475 O   0  0  0  0  0  0  0  0  0  0  0  0
   -0.0972    2.5405    7.6445 C   0  0  2  0  0  0  0  0  0  0  0  0
    0.4839    2.3854    8.9952 O   0  0  0  0  0  0  0  0  0  0  0  0
   -1.1310    3.6931    7.6870 C   0  0  2  0  0  0  0  0  0  0  0  0
   -1.2633    4.2730    6.3878 O   0  0  0  0  0  0  0  0  0  0  0  0
   -0.7037    4.7791    8.6621 C   0  0  0  0  0  0  0  0  0  0  0  0
    3.0328    5.6377    9.6976 C   0  0  2  0  0  0  0  0  0  0  0  0
    3.6003    6.9588    9.9786 N   0  0  0  0  0  0  0  0  0  0  0  0
    4.1184    4.5849   10.0541 C   0  0  0  0  0  0  0  0  0  0  0  0
    3.5264    3.1747    9.7856 C   0  0  2  0  0  0  0  0  0  0  0  0
    4.5214    2.1424   10.1158 N   0  0  0  0  0  0  0  0  0  0  0  0
    3.1078    3.0220    8.2986 C   0  0  2  0  0  0  0  0  0  0  0  0
    2.0517    4.1183    7.9516 C   0  0  2  0  0  0  0  0  0  0  0  0
    1.6743    3.9835    6.5747 O   0  0  0  0  0  0  0  0  0  0  0  0
    2.6389    5.5348    8.1640 C   0  0  1  0  0  0  0  0  0  0  0  0
    1.5985    6.4876    7.8329 O   0  0  0  0  0  0  0  0  0  0  0  0
    1.9516    7.5040    6.8654 C   0  0  2  0  0  0  0  0  0  0  0  0
    0.6108    8.2407    6.4954 C   0  0  2  0  0  0  0  0  0  0  0  0
    0.0528    8.8376    7.6554 O   0  0  0  0  0  0  0  0  0  0  0  0
   -0.3874    7.1996    5.8609 C   0  0  1  0  0  0  0  0  0  0  0  0
   -1.6820    7.8550    5.5023 N   0  0  0  0  0  0  0  0  0  0  0  0
   -2.7050    7.4708    6.4985 C   0  0  0  0  0  0  0  0  0  0  0  0
    0.2782    6.5867    4.5913 C   0  0  2  0  0  0  0  0  0  0  0  0
    0.5351    7.6351    3.6583 O   0  0  0  0  0  0  0  0  0  0  0  0
   -0.6254    5.5565    3.9187 C   0  0  0  0  0  0  0  0  0  0  0  0
    1.6285    5.9127    4.9958 C   0  0  0  0  0  0  0  0  0  0  0  0
    2.5270    6.8836    5.6552 O   0  0  0  0  0  0  0  0  0  0  0  0
  1  3  1  0  0  0  0
  1  2  1  6  0  0  0
  3  5  1  0  0  0  0
  3  4  1  6  0  0  0
  5  6  1  1  0  0  0
  7  8  1  6  0  0  0
  7  5  1  0  0  0  0
  9 10  1  1  0  0  0
  9  7  1  0  0  0  0
 10  1  1  0  0  0  0
 11 13  1  1  0  0  0
 11  9  1  0  0  0  0
 12 11  1  0  0  0  0
 14 15  1  6  0  0  0
 16 14  1  0  0  0  0
 17 18  1  6  0  0  0
 17 16  1  0  0  0  0
 19  2  1  1  0  0  0
 19 20  1  0  0  0  0
 19 17  1  0  0  0  0
 20 21  1  6  0  0  0
 20 22  1  0  0  0  0
 22 23  1  1  0  0  0
 22 14  1  0  0  0  0
 24 23  1  1  0  0  0
 24 25  1  0  0  0  0
 25 27  1  0  0  0  0
 25 26  1  1  0  0  0
 27 28  1  6  0  0  0
 28 29  1  0  0  0  0
 30 31  1  6  0  0  0
 30 32  1  0  0  0  0
 30 27  1  0  0  0  0
 33 30  1  0  0  0  0
 34 33  1  0  0  0  0
 34 24  1  0  0  0  0
M  END
>  <CHROM.1>
171.01540677,-83.76364401,54.43765743,117.18850193,170.43947470,-104.64638164
0.97281645,4.31269444,7.34079037,-1.35043220,-0.68346703,-0.20296821

>  <Name>
lig.pdb

>  <RI>
0

>  <Rbt.Current_Directory>
/home/itssahil/PROJECTS/Mol_Feturizer/New_Systems/rnas/4k32

>  <Rbt.Executable>
rbdock ($Id: //depot/dev/client3/rdock/2013.1/src/exe/rbdock.cxx#4 $)

>  <Rbt.Library>
libRbt.so (2013.1, Build901 2013/11/27)

>  <Rbt.Parameter_File>
/export/apps/rDock/src/rDock_2013.1_src/data/scripts/dock_solv.prm

>  <Rbt.Receptor>
prm/blind_docking_20.prm

>  <SCORE>
60.2968

>  <SCORE.INTER>
29.5256

>  <SCORE.INTER.CONST>
1

>  <SCORE.INTER.POLAR>
0

>  <SCORE.INTER.ROT>
6

>  <SCORE.INTER.SOLV>
34.5897

>  <SCORE.INTER.VDW>
0.553838

>  <SCORE.INTER.norm>
0.8684

>  <SCORE.INTRA>
6.70549

>  <SCORE.INTRA.DIHEDRAL>
-7.07309

>  <SCORE.INTRA.DIHEDRAL.0>
18.0069

>  <SCORE.INTRA.POLAR>
0

>  <SCORE.INTRA.POLAR.0>
0

>  <SCORE.INTRA.REPUL>
0

>  <SCORE.INTRA.REPUL.0>
0

>  <SCORE.INTRA.SOLV>
0.479212

>  <SCORE.INTRA.SOLV.lig_0>
-70.7393

>  <SCORE.INTRA.VDW>
10.0024

>  <SCORE.INTRA.VDW.0>
-3.23471

>  <SCORE.INTRA.norm>
0.19722

>  <SCORE.RESTR>
24.0657

>  <SCORE.RESTR.CAVITY>
24.0657

>  <SCORE.RESTR.norm>
0.707815

>  <SCORE.SYSTEM>
0

>  <SCORE.SYSTEM.CONST>
0

>  <SCORE.SYSTEM.DIHEDRAL>
0

>  <SCORE.SYSTEM.SOLV>
0

>  <SCORE.SYSTEM.norm>
0

>  <SCORE.heavy>
34

>  <SCORE.norm>
1.77344

>  <RMSD>
32.665

$$$$
lig.pdb
 OpenBabel11021811503D
libRbt.so/2013.1/901 2013/11/27
 34 36  0  0  0  0  0  0  0  0999 V2000
    2.2914    3.8564   10.3090 C   0  0  2  0  0  0  0  0  0  0  0  0
    1.9817    4.9803    9.4777 O   0  0  0  0  0  0  0  0  0  0  0  0
    3.5553    3.1125    9.7004 C   0  0  2  0  0  0  0  0  0  0  0  0
    4.7420    3.9978    9.6457 N   0  0  0  0  0  0  0  0  0  0  0  0
    3.2149    2.5975    8.2792 C   0  0  1  0  0  0  0  0  0  0  0  0
    4.3399    1.9179    7.7170 O   0  0  0  0  0  0  0  0  0  0  0  0
    1.9906    1.6697    8.3744 C   0  0  2  0  0  0  0  0  0  0  0  0
    1.6680    1.1844    7.0703 O   0  0  0  0  0  0  0  0  0  0  0  0
    0.7751    2.4565    8.9989 C   0  0  2  0  0  0  0  0  0  0  0  0
    1.1200    2.9745   10.3400 O   0  0  0  0  0  0  0  0  0  0  0  0
   -0.4789    1.5568    9.1304 C   0  0  2  0  0  0  0  0  0  0  0  0
   -0.0873    0.2291    9.4846 O   0  0  0  0  0  0  0  0  0  0  0  0
   -1.2554    1.5018    7.8240 C   0  0  0  0  0  0  0  0  0  0  0  0
    3.3655    6.5125    5.7288 C   0  0  2  0  0  0  0  0  0  0  0  0
    4.0277    6.6011    4.4251 N   0  0  0  0  0  0  0  0  0  0  0  0
    4.4297    6.0332    6.7543 C   0  0  0  0  0  0  0  0  0  0  0  0
    3.7521    5.9562    8.1493 C   0  0  2  0  0  0  0  0  0  0  0  0
    4.7277    5.5103    9.1564 N   0  0  0  0  0  0  0  0  0  0  0  0
    2.5526    4.9711    8.1305 C   0  0  2  0  0  0  0  0  0  0  0  0
    1.5191    5.4473    7.0615 C   0  0  2  0  0  0  0  0  0  0  0  0
    0.4169    4.5302    7.0369 O   0  0  0  0  0  0  0  0  0  0  0  0
    2.1608    5.4826    5.6532 C   0  0  1  0  0  0  0  0  0  0  0  0
    1.1454    5.9425    4.7273 O   0  0  0  0  0  0  0  0  0  0  0  0
    1.2141    7.3377    4.3499 C   0  0  2  0  0  0  0  0  0  0  0  0
    0.6740    8.1521    5.5838 C   0  0  2  0  0  0  0  0  0  0  0  0
    1.4914    7.9078    6.7176 O   0  0  0  0  0  0  0  0  0  0  0  0
   -0.8183    7.7299    5.8625 C   0  0  1  0  0  0  0  0  0  0  0  0
   -1.3705    8.4731    7.0360 N   0  0  0  0  0  0  0  0  0  0  0  0
   -0.9215    9.8803    6.9656 C   0  0  0  0  0  0  0  0  0  0  0  0
   -1.6633    8.0288    4.5869 C   0  0  2  0  0  0  0  0  0  0  0  0
   -1.6032    9.4283    4.3161 O   0  0  0  0  0  0  0  0  0  0  0  0
   -3.1274    7.6383    4.7723 C   0  0  0  0  0  0  0  0  0  0  0  0
   -1.0616    7.2424    3.3783 C   0  0  0  0  0  0  0  0  0  0  0  0
    0.3592    7.5944    3.1735 O   0  0  0  0  0  0  0  0  0  0  0  0
  1  3  1  0  0  0  0
  1  2  1  6  0  0  0
  3  5  1  0  0  0  0
  3  4  1  6  0  0  0
  5  6  1  1  0  0  0
  7  8  1  6  0  0  0
  7  5  1  0  0  0  0
  9 10  1  1  0  0  0
  9  7  1  0  0  0  0
 10  1  1  0  0  0  0
 11 13  1  6  0  0  0
 11  9  1  0  0  0  0
 12 11  1  0  0  0  0
 14 15  1  6  0  0  0
 16 14  1  0  0  0  0
 17 18  1  1  0  0  0
 17 16  1  0  0  0  0
 19  2  1  1  0  0  0
 19 20  1  0  0  0  0
 19 17  1  0  0  0  0
 20 21  1  6  0  0  0
 20 22  1  0  0  0  0
 22 23  1  6  0  0  0
 22 14  1  0  0  0  0
 24 23  1  1  0  0  0
 24 25  1  0  0  0  0
 25 27  1  0  0  0  0
 25 26  1  1  0  0  0
 27 28  1  1  0  0  0
 28 29  1  0  0  0  0
 30 31  1  6  0  0  0
 30 32  1  0  0  0  0
 30 27  1  0  0  0  0
 33 30  1  0  0  0  0
 34 33  1  0  0  0  0
 34 24  1  0  0  0  0
M  END
>  <CHROM.1>
17.95705833,36.70063637,-103.23430278,-16.16092243,-75.33768453,41.13982506
1.29517180,5.23338081,7.04760443,-1.19139464,-0.18029650,-0.55449904

>  <Name>
lig.pdb

>  <RI>
0

>  <Rbt.Current_Directory>
/home/itssahil/PROJECTS/Mol_Feturizer/New_Systems/rnas/4k32

>  <Rbt.Executable>
rbdock ($Id: //depot/dev/client3/rdock/2013.1/src/exe/rbdock.cxx#4 $)

>  <Rbt.Library>
libRbt.so (2013.1, Build901 2013/11/27)

>  <Rbt.Parameter_File>
/export/apps/rDock/src/rDock_2013.1_src/data/scripts/dock_solv.prm

>  <Rbt.Receptor>
prm/blind_docking_20.prm

>  <SCORE>
72.832

>  <SCORE.INTER>
10.0851

>  <SCORE.INTER.CONST>
1

>  <SCORE.INTER.POLAR>
0

>  <SCORE.INTER.ROT>
6

>  <SCORE.INTER.SOLV>
27.7393

>  <SCORE.INTER.VDW>
-10.1231

>  <SCORE.INTER.norm>
0.29662

>  <SCORE.INTRA>
42.6564

>  <SCORE.INTRA.DIHEDRAL>
2.68931

>  <SCORE.INTRA.DIHEDRAL.0>
18.0069

>  <SCORE.INTRA.POLAR>
0

>  <SCORE.INTRA.POLAR.0>
0

>  <SCORE.INTRA.REPUL>
0.00181789

>  <SCORE.INTRA.REPUL.0>
0

>  <SCORE.INTRA.SOLV>
9.60538

>  <SCORE.INTRA.SOLV.lig_0>
-70.7393

>  <SCORE.INTRA.VDW>
36.5

>  <SCORE.INTRA.VDW.0>
-3.23471

>  <SCORE.INTRA.norm>
1.2546

>  <SCORE.RESTR>
20.0905

>  <SCORE.RESTR.CAVITY>
20.0905

>  <SCORE.RESTR.norm>
0.590896

>  <SCORE.SYSTEM>
0

>  <SCORE.SYSTEM.CONST>
0

>  <SCORE.SYSTEM.DIHEDRAL>
0

>  <SCORE.SYSTEM.SOLV>
0

>  <SCORE.SYSTEM.norm>
0

>  <SCORE.heavy>
34

>  <SCORE.norm>
2.14212

>  <RMSD>
32.688

$$$$
lig.pdb
 OpenBabel11021811503D
libRbt.so/2013.1/901 2013/11/27
 34 36  0  0  0  0  0  0  0  0999 V2000
    1.3866    1.4603    8.9612 C   0  0  2  0  0  0  0  0  0  0  0  0
    2.5712    1.8133    8.2386 O   0  0  0  0  0  0  0  0  0  0  0  0
    0.9299    0.0103    8.5026 C   0  0  2  0  0  0  0  0  0  0  0  0
    1.9700   -1.0079    8.7792 N   0  0  0  0  0  0  0  0  0  0  0  0
    0.5989    0.0291    6.9890 C   0  0  1  0  0  0  0  0  0  0  0  0
    0.1786   -1.2676    6.5587 O   0  0  0  0  0  0  0  0  0  0  0  0
   -0.4942    1.0834    6.7396 C   0  0  2  0  0  0  0  0  0  0  0  0
   -0.8119    1.1087    5.3472 O   0  0  0  0  0  0  0  0  0  0  0  0
    0.0086    2.4959    7.2279 C   0  0  2  0  0  0  0  0  0  0  0  0
    0.3556    2.4604    8.6646 O   0  0  0  0  0  0  0  0  0  0  0  0
   -1.0668    3.5896    7.0121 C   0  0  2  0  0  0  0  0  0  0  0  0
   -0.5082    4.8773    7.2791 O   0  0  0  0  0  0  0  0  0  0  0  0
   -2.2590    3.3772    7.9320 C   0  0  0  0  0  0  0  0  0  0  0  0
    2.7753    5.7985    9.7857 C   0  0  2  0  0  0  0  0  0  0  0  0
    3.2717    7.1389   10.1068 N   0  0  0  0  0  0  0  0  0  0  0  0
    3.8562    4.7836   10.2498 C   0  0  0  0  0  0  0  0  0  0  0  0
    3.3370    3.3534    9.9395 C   0  0  2  0  0  0  0  0  0  0  0  0
    4.3297    2.3559   10.3689 N   0  0  0  0  0  0  0  0  0  0  0  0
    3.0632    3.1791    8.4215 C   0  0  2  0  0  0  0  0  0  0  0  0
    2.0093    4.2386    7.9692 C   0  0  2  0  0  0  0  0  0  0  0  0
    1.7656    4.0841    6.5644 O   0  0  0  0  0  0  0  0  0  0  0  0
    2.5286    5.6746    8.2231 C   0  0  1  0  0  0  0  0  0  0  0  0
    1.4935    6.5912    7.7893 O   0  0  0  0  0  0  0  0  0  0  0  0
    1.8805    7.5580    6.7848 C   0  0  2  0  0  0  0  0  0  0  0  0
    0.5691    8.3393    6.4009 C   0  0  2  0  0  0  0  0  0  0  0  0
    0.0488    8.9986    7.5445 O   0  0  0  0  0  0  0  0  0  0  0  0
   -0.4791    7.3216    5.8108 C   0  0  1  0  0  0  0  0  0  0  0  0
   -1.7478    8.0201    5.4407 N   0  0  0  0  0  0  0  0  0  0  0  0
   -2.7332    7.8297    6.5267 C   0  0  0  0  0  0  0  0  0  0  0  0
    0.1470    6.6379    4.5574 C   0  0  2  0  0  0  0  0  0  0  0  0
    0.4397    7.6420    3.5869 O   0  0  0  0  0  0  0  0  0  0  0  0
   -0.8067    5.6257    3.9278 C   0  0  0  0  0  0  0  0  0  0  0  0
    1.4709    5.9200    4.9734 C   0  0  0  0  0  0  0  0  0  0  0  0
    2.4168    6.8727    5.5917 O   0  0  0  0  0  0  0  0  0  0  0  0
  1  3  1  0  0  0  0
  1  2  1  6  0  0  0
  3  5  1  0  0  0  0
  3  4  1  6  0  0  0
  5  6  1  1  0  0  0
  7  8  1  6  0  0  0
  7  5  1  0  0  0  0
  9 10  1  1  0  0  0
  9  7  1  0  0  0  0
 10  1  1  0  0  0  0
 11 13  1  1  0  0  0
 11  9  1  0  0  0  0
 12 11  1  0  0  0  0
 14 15  1  6  0  0  0
 16 14  1  0  0  0  0
 17 18  1  6  0  0  0
 17 16  1  0  0  0  0
 19  2  1  1  0  0  0
 19 20  1  0  0  0  0
 19 17  1  0  0  0  0
 20 21  1  6  0  0  0
 20 22  1  0  0  0  0
 22 23  1  1  0  0  0
 22 14  1  0  0  0  0
 24 23  1  1  0  0  0
 24 25  1  0  0  0  0
 25 27  1  0  0  0  0
 25 26  1  1  0  0  0
 27 28  1  6  0  0  0
 28 29  1  0  0  0  0
 30 31  1  6  0  0  0
 30 32  1  0  0  0  0
 30 27  1  0  0  0  0
 33 30  1  0  0  0  0
 34 33  1  0  0  0  0
 34 24  1  0  0  0  0
M  END
>  <CHROM.1>
173.64193557,-171.47882506,58.57251490,121.08236821,175.28205490,-98.86853192
0.92668152,4.36390319,7.28367079,-1.32553217,-0.74885703,-0.15196675

>  <Name>
lig.pdb

>  <RI>
0

>  <Rbt.Current_Directory>
/home/itssahil/PROJECTS/Mol_Feturizer/New_Systems/rnas/4k32

>  <Rbt.Executable>
rbdock ($Id: //depot/dev/client3/rdock/2013.1/src/exe/rbdock.cxx#4 $)

>  <Rbt.Library>
libRbt.so (2013.1, Build901 2013/11/27)

>  <Rbt.Parameter_File>
/export/apps/rDock/src/rDock_2013.1_src/data/scripts/dock_solv.prm

>  <Rbt.Receptor>
prm/blind_docking_20.prm

>  <SCORE>
60.9117

>  <SCORE.INTER>
29.1706

>  <SCORE.INTER.CONST>
1

>  <SCORE.INTER.POLAR>
0

>  <SCORE.INTER.ROT>
6

>  <SCORE.INTER.SOLV>
36.947

>  <SCORE.INTER.VDW>
-0.468598

>  <SCORE.INTER.norm>
0.857958

>  <SCORE.INTRA>
7.48195

>  <SCORE.INTRA.DIHEDRAL>
-9.38088

>  <SCORE.INTRA.DIHEDRAL.0>
18.0069

>  <SCORE.INTRA.POLAR>
0

>  <SCORE.INTRA.POLAR.0>
0

>  <SCORE.INTRA.REPUL>
0.331128

>  <SCORE.INTRA.REPUL.0>
0

>  <SCORE.INTRA.SOLV>
0.503058

>  <SCORE.INTRA.SOLV.lig_0>
-70.7393

>  <SCORE.INTRA.VDW>
10.2652

>  <SCORE.INTRA.VDW.0>
-3.23471

>  <SCORE.INTRA.norm>
0.220057

>  <SCORE.RESTR>
24.2592

>  <SCORE.RESTR.CAVITY>
24.2592

>  <SCORE.RESTR.norm>
0.713506

>  <SCORE.SYSTEM>
0

>  <SCORE.SYSTEM.CONST>
0

>  <SCORE.SYSTEM.DIHEDRAL>
0

>  <SCORE.SYSTEM.SOLV>
0

>  <SCORE.SYSTEM.norm>
0

>  <SCORE.heavy>
34

>  <SCORE.norm>
1.79152

>  <RMSD>
32.689

$$$$
lig.pdb
 OpenBabel11021811503D
libRbt.so/2013.1/901 2013/11/27
 34 36  0  0  0  0  0  0  0  0999 V2000
   -0.1504    3.5854    9.6233 C   0  0  2  0  0  0  0  0  0  0  0  0
   -0.2744    4.1851    8.3290 O   0  0  0  0  0  0  0  0  0  0  0  0
    1.3713    3.6620   10.0705 C   0  0  2  0  0  0  0  0  0  0  0  0
    1.8513    5.0611   10.1530 N   0  0  0  0  0  0  0  0  0  0  0  0
    2.2432    2.8628    9.0695 C   0  0  1  0  0  0  0  0  0  0  0  0
    3.6173    2.9144    9.4600 O   0  0  0  0  0  0  0  0  0  0  0  0
    1.7290    1.4130    9.0207 C   0  0  2  0  0  0  0  0  0  0  0  0
    2.5272    0.6634    8.1034 O   0  0  0  0  0  0  0  0  0  0  0  0
    0.2129    1.4012    8.5875 C   0  0  2  0  0  0  0  0  0  0  0  0
   -0.6066    2.1948    9.5279 O   0  0  0  0  0  0  0  0  0  0  0  0
   -0.3551   -0.0390    8.5401 C   0  0  2  0  0  0  0  0  0  0  0  0
   -1.4196   -0.1087    7.5896 O   0  0  0  0  0  0  0  0  0  0  0  0
   -0.8890   -0.4643    9.8991 C   0  0  0  0  0  0  0  0  0  0  0  0
    0.6793    7.9129    6.4554 C   0  0  2  0  0  0  0  0  0  0  0  0
    1.0065    9.3286    6.2685 N   0  0  0  0  0  0  0  0  0  0  0  0
   -0.6014    7.8482    7.3326 C   0  0  0  0  0  0  0  0  0  0  0  0
   -0.9789    6.3540    7.5221 C   0  0  2  0  0  0  0  0  0  0  0  0
   -2.1936    6.2445    8.3450 N   0  0  0  0  0  0  0  0  0  0  0  0
    0.1737    5.5728    8.2083 C   0  0  2  0  0  0  0  0  0  0  0  0
    1.4609    5.6905    7.3325 C   0  0  2  0  0  0  0  0  0  0  0  0
    2.5279    4.9780    7.9731 O   0  0  0  0  0  0  0  0  0  0  0  0
    1.8843    7.1708    7.1729 C   0  0  1  0  0  0  0  0  0  0  0  0
    3.0721    7.1931    6.3432 O   0  0  0  0  0  0  0  0  0  0  0  0
    3.5937    5.9036    5.9447 C   0  0  2  0  0  0  0  0  0  0  0  0
    5.0203    5.7871    6.5993 C   0  0  2  0  0  0  0  0  0  0  0  0
    4.9095    5.8584    8.0121 O   0  0  0  0  0  0  0  0  0  0  0  0
    5.9339    6.9455    6.0460 C   0  0  1  0  0  0  0  0  0  0  0  0
    7.2996    6.8799    6.6501 N   0  0  0  0  0  0  0  0  0  0  0  0
    7.8811    8.2394    6.6672 C   0  0  0  0  0  0  0  0  0  0  0  0
    6.0215    6.8083    4.4955 C   0  0  2  0  0  0  0  0  0  0  0  0
    6.6050    5.5451    4.1803 O   0  0  0  0  0  0  0  0  0  0  0  0
    6.8864    7.9039    3.8773 C   0  0  0  0  0  0  0  0  0  0  0  0
    4.5815    6.8771    3.8932 C   0  0  0  0  0  0  0  0  0  0  0  0
    3.7150    5.8304    4.4747 O   0  0  0  0  0  0  0  0  0  0  0  0
  1  3  1  0  0  0  0
  1  2  1  6  0  0  0
  3  5  1  0  0  0  0
  3  4  1  6  0  0  0
  5  6  1  1  0  0  0
  7  8  1  6  0  0  0
  7  5  1  0  0  0  0
  9 10  1  1  0  0  0
  9  7  1  0  0  0  0
 10  1  1  0  0  0  0
 11 13  1  1  0  0  0
 11  9  1  0  0  0  0
 12 11  1  0  0  0  0
 14 15  1  1  0  0  0
 16 14  1  0  0  0  0
 17 18  1  1  0  0  0
 17 16  1  0  0  0  0
 19  2  1  6  0  0  0
 19 20  1  0  0  0  0
 19 17  1  0  0  0  0
 20 21  1  1  0  0  0
 20 22  1  0  0  0  0
 22 23  1  6  0  0  0
 22 14  1  0  0  0  0
 24 23  1  6  0  0  0
 24 25  1  0  0  0  0
 25 27  1  0  0  0  0
 25 26  1  1  0  0  0
 27 28  1  1  0  0  0
 28 29  1  0  0  0  0
 30 31  1  6  0  0  0
 30 32  1  0  0  0  0
 30 27  1  0  0  0  0
 33 30  1  0  0  0  0
 34 33  1  0  0  0  0
 34 24  1  0  0  0  0
M  END
>  <CHROM.1>
-57.41456225,-152.32944433,-129.62823516,-119.19685143,-116.23624851,-152.54580751
2.35842004,4.90963488,7.39946018,2.34646858,-0.28099533,2.81926450

>  <Name>
lig.pdb

>  <RI>
0

>  <Rbt.Current_Directory>
/home/itssahil/PROJECTS/Mol_Feturizer/New_Systems/rnas/4k32

>  <Rbt.Executable>
rbdock ($Id: //depot/dev/client3/rdock/2013.1/src/exe/rbdock.cxx#4 $)

>  <Rbt.Library>
libRbt.so (2013.1, Build901 2013/11/27)

>  <Rbt.Parameter_File>
/export/apps/rDock/src/rDock_2013.1_src/data/scripts/dock_solv.prm

>  <Rbt.Receptor>
prm/blind_docking_20.prm

>  <SCORE>
110.041

>  <SCORE.INTER>
61.3351

>  <SCORE.INTER.CONST>
1

>  <SCORE.INTER.POLAR>
0

>  <SCORE.INTER.ROT>
6

>  <SCORE.INTER.SOLV>
28.9083

>  <SCORE.INTER.VDW>
23.654

>  <SCORE.INTER.norm>
1.80397

>  <SCORE.INTRA>
22.8198

>  <SCORE.INTRA.DIHEDRAL>
5.96923

>  <SCORE.INTRA.DIHEDRAL.0>
18.0069

>  <SCORE.INTRA.POLAR>
0

>  <SCORE.INTRA.POLAR.0>
0

>  <SCORE.INTRA.REPUL>
0

>  <SCORE.INTRA.REPUL.0>
0

>  <SCORE.INTRA.SOLV>
2.1853

>  <SCORE.INTRA.SOLV.lig_0>
-70.7393

>  <SCORE.INTRA.VDW>
18.7426

>  <SCORE.INTRA.VDW.0>
-3.23471

>  <SCORE.INTRA.norm>
0.671171

>  <SCORE.RESTR>
25.8856

>  <SCORE.RESTR.CAVITY>
25.8856

>  <SCORE.RESTR.norm>
0.761342

>  <SCORE.SYSTEM>
0

>  <SCORE.SYSTEM.CONST>
0

>  <SCORE.SYSTEM.DIHEDRAL>
0

>  <SCORE.SYSTEM.SOLV>
0

>  <SCORE.SYSTEM.norm>
0

>  <SCORE.heavy>
34

>  <SCORE.norm>
3.23649

>  <RMSD>
32.789

$$$$
lig.pdb
 OpenBabel11021811503D
libRbt.so/2013.1/901 2013/11/27
 34 36  0  0  0  0  0  0  0  0999 V2000
    2.5078    2.9045   10.4122 C   0  0  2  0  0  0  0  0  0  0  0  0
    2.3993    4.2474    9.9274 O   0  0  0  0  0  0  0  0  0  0  0  0
    2.8453    1.9522    9.1872 C   0  0  2  0  0  0  0  0  0  0  0  0
    4.1246    2.3222    8.5381 N   0  0  0  0  0  0  0  0  0  0  0  0
    1.6920    2.0136    8.1542 C   0  0  1  0  0  0  0  0  0  0  0  0
    1.9750    1.1562    7.0459 O   0  0  0  0  0  0  0  0  0  0  0  0
    0.3836    1.6082    8.8559 C   0  0  2  0  0  0  0  0  0  0  0  0
   -0.6883    1.6569    7.9130 O   0  0  0  0  0  0  0  0  0  0  0  0
    0.1097    2.5766   10.0698 C   0  0  2  0  0  0  0  0  0  0  0  0
    1.2306    2.5385   11.0332 O   0  0  0  0  0  0  0  0  0  0  0  0
   -1.1916    2.1969   10.8193 C   0  0  2  0  0  0  0  0  0  0  0  0
   -1.3595    3.0441   11.9576 O   0  0  0  0  0  0  0  0  0  0  0  0
   -1.1525    0.7518   11.2911 C   0  0  0  0  0  0  0  0  0  0  0  0
    3.4354    6.3907    6.3708 C   0  0  2  0  0  0  0  0  0  0  0  0
    3.9105    6.6853    5.0167 N   0  0  0  0  0  0  0  0  0  0  0  0
    4.5570    5.5901    7.0884 C   0  0  0  0  0  0  0  0  0  0  0  0
    4.0815    5.2888    8.5356 C   0  0  2  0  0  0  0  0  0  0  0  0
    5.1183    4.5341    9.2568 N   0  0  0  0  0  0  0  0  0  0  0  0
    2.7650    4.4663    8.5277 C   0  0  2  0  0  0  0  0  0  0  0  0
    1.6669    5.2700    7.7623 C   0  0  2  0  0  0  0  0  0  0  0  0
    0.4545    4.5042    7.7457 O   0  0  0  0  0  0  0  0  0  0  0  0
    2.0995    5.5375    6.3002 C   0  0  1  0  0  0  0  0  0  0  0  0
    1.0372    6.2927    5.6669 O   0  0  0  0  0  0  0  0  0  0  0  0
    0.6532    5.8603    4.3405 C   0  0  2  0  0  0  0  0  0  0  0  0
    0.4830    7.1706    3.4851 C   0  0  2  0  0  0  0  0  0  0  0  0
    1.7124    7.8773    3.4362 O   0  0  0  0  0  0  0  0  0  0  0  0
   -0.6519    8.0564    4.1255 C   0  0  1  0  0  0  0  0  0  0  0  0
   -0.8417    9.3198    3.3495 N   0  0  0  0  0  0  0  0  0  0  0  0
    0.1232   10.3295    3.8354 C   0  0  0  0  0  0  0  0  0  0  0  0
   -1.9735    7.2296    4.1440 C   0  0  2  0  0  0  0  0  0  0  0  0
   -2.3241    6.8977    2.8015 O   0  0  0  0  0  0  0  0  0  0  0  0
   -3.1266    8.0175    4.7604 C   0  0  0  0  0  0  0  0  0  0  0  0
   -1.7442    5.9158    4.9580 C   0  0  0  0  0  0  0  0  0  0  0  0
   -0.6292    5.1297    4.3893 O   0  0  0  0  0  0  0  0  0  0  0  0
  1  3  1  0  0  0  0
  1  2  1  6  0  0  0
  3  5  1  0  0  0  0
  3  4  1  6  0  0  0
  5  6  1  6  0  0  0
  7  8  1  6  0  0  0
  7  5  1  0  0  0  0
  9 10  1  1  0  0  0
  9  7  1  0  0  0  0
 10  1  1  0  0  0  0
 11 13  1  1  0  0  0
 11  9  1  0  0  0  0
 12 11  1  0  0  0  0
 14 15  1  6  0  0  0
 16 14  1  0  0  0  0
 17 18  1  6  0  0  0
 17 16  1  0  0  0  0
 19  2  1  1  0  0  0
 19 20  1  0  0  0  0
 19 17  1  0  0  0  0
 20 21  1  6  0  0  0
 20 22  1  0  0  0  0
 22 23  1  6  0  0  0
 22 14  1  0  0  0  0
 24 23  1  1  0  0  0
 24 25  1  0  0  0  0
 25 27  1  0  0  0  0
 25 26  1  1  0  0  0
 27 28  1  6  0  0  0
 28 29  1  0  0  0  0
 30 31  1  6  0  0  0
 30 32  1  0  0  0  0
 30 27  1  0  0  0  0
 33 30  1  0  0  0  0
 34 33  1  0  0  0  0
 34 24  1  0  0  0  0
M  END
>  <CHROM.1>
-7.02517817,176.44757466,-110.71871713,108.64134409,-136.74510121,-85.61561183
0.94830254,4.85471631,7.08881111,-1.36535707,-0.10713863,-0.81765313

>  <Name>
lig.pdb

>  <RI>
0

>  <Rbt.Current_Directory>
/home/itssahil/PROJECTS/Mol_Feturizer/New_Systems/rnas/4k32

>  <Rbt.Executable>
rbdock ($Id: //depot/dev/client3/rdock/2013.1/src/exe/rbdock.cxx#4 $)

>  <Rbt.Library>
libRbt.so (2013.1, Build901 2013/11/27)

>  <Rbt.Parameter_File>
/export/apps/rDock/src/rDock_2013.1_src/data/scripts/dock_solv.prm

>  <Rbt.Receptor>
prm/blind_docking_20.prm

>  <SCORE>
74.8914

>  <SCORE.INTER>
30.3238

>  <SCORE.INTER.CONST>
1

>  <SCORE.INTER.POLAR>
0

>  <SCORE.INTER.ROT>
6

>  <SCORE.INTER.SOLV>
27.8765

>  <SCORE.INTER.VDW>
3.32366

>  <SCORE.INTER.norm>
0.891875

>  <SCORE.INTRA>
14.9607

>  <SCORE.INTRA.DIHEDRAL>
8.68684

>  <SCORE.INTRA.DIHEDRAL.0>
18.0069

>  <SCORE.INTRA.POLAR>
0

>  <SCORE.INTRA.POLAR.0>
0

>  <SCORE.INTRA.REPUL>
0

>  <SCORE.INTRA.REPUL.0>
0

>  <SCORE.INTRA.SOLV>
5.88125

>  <SCORE.INTRA.SOLV.lig_0>
-70.7393

>  <SCORE.INTRA.VDW>
7.67666

>  <SCORE.INTRA.VDW.0>
-3.23471

>  <SCORE.INTRA.norm>
0.440021

>  <SCORE.RESTR>
29.6069

>  <SCORE.RESTR.CAVITY>
29.6069

>  <SCORE.RESTR.norm>
0.870792

>  <SCORE.SYSTEM>
0

>  <SCORE.SYSTEM.CONST>
0

>  <SCORE.SYSTEM.DIHEDRAL>
0

>  <SCORE.SYSTEM.SOLV>
0

>  <SCORE.SYSTEM.norm>
0

>  <SCORE.heavy>
34

>  <SCORE.norm>
2.20269

>  <RMSD>
32.850

$$$$
lig.pdb
 OpenBabel11021811503D
libRbt.so/2013.1/901 2013/11/27
 34 36  0  0  0  0  0  0  0  0999 V2000
    4.7157    6.9230    3.7405 C   0  0  2  0  0  0  0  0  0  0  0  0
    3.7612    5.8628    3.8643 O   0  0  0  0  0  0  0  0  0  0  0  0
    5.6850    6.5894    2.5279 C   0  0  2  0  0  0  0  0  0  0  0  0
    4.9464    6.4704    1.2491 N   0  0  0  0  0  0  0  0  0  0  0  0
    6.4448    5.2717    2.8233 C   0  0  1  0  0  0  0  0  0  0  0  0
    7.3287    4.9582    1.7444 O   0  0  0  0  0  0  0  0  0  0  0  0
    7.2128    5.4352    4.1469 C   0  0  2  0  0  0  0  0  0  0  0  0
    7.9216    4.2276    4.4296 O   0  0  0  0  0  0  0  0  0  0  0  0
    6.2032    5.7802    5.3079 C   0  0  2  0  0  0  0  0  0  0  0  0
    5.4572    7.0195    5.0021 O   0  0  0  0  0  0  0  0  0  0  0  0
    6.9336    5.9709    6.6604 C   0  0  2  0  0  0  0  0  0  0  0  0
    6.0858    6.6691    7.5744 O   0  0  0  0  0  0  0  0  0  0  0  0
    8.2174    6.7669    6.4843 C   0  0  0  0  0  0  0  0  0  0  0  0
    1.2762    7.9069    6.6862 C   0  0  2  0  0  0  0  0  0  0  0  0
    0.1589    8.2196    7.5806 N   0  0  0  0  0  0  0  0  0  0  0  0
    0.6726    7.5766    5.2932 C   0  0  0  0  0  0  0  0  0  0  0  0
    1.8447    7.2655    4.3233 C   0  0  2  0  0  0  0  0  0  0  0  0
    1.3183    6.9515    2.9857 N   0  0  0  0  0  0  0  0  0  0  0  0
    2.6852    6.0650    4.8350 C   0  0  2  0  0  0  0  0  0  0  0  0
    3.2427    6.4015    6.2541 C   0  0  2  0  0  0  0  0  0  0  0  0
    4.0095    5.2873    6.7305 O   0  0  0  0  0  0  0  0  0  0  0  0
    2.0878    6.6657    7.2505 C   0  0  1  0  0  0  0  0  0  0  0  0
    2.6866    6.9796    8.5322 O   0  0  0  0  0  0  0  0  0  0  0  0
    1.9911    6.4798    9.6984 C   0  0  2  0  0  0  0  0  0  0  0  0
    3.0428    5.6308   10.5050 C   0  0  2  0  0  0  0  0  0  0  0  0
    4.1299    6.4549   10.8953 O   0  0  0  0  0  0  0  0  0  0  0  0
    3.5357    4.4360    9.6038 C   0  0  1  0  0  0  0  0  0  0  0  0
    4.5464    3.6061   10.3278 N   0  0  0  0  0  0  0  0  0  0  0  0
    5.6547    3.2866    9.4024 C   0  0  0  0  0  0  0  0  0  0  0  0
    2.3008    3.5671    9.2157 C   0  0  2  0  0  0  0  0  0  0  0  0
    1.7083    3.0557   10.4086 O   0  0  0  0  0  0  0  0  0  0  0  0
    2.6936    2.3868    8.3308 C   0  0  0  0  0  0  0  0  0  0  0  0
    1.2620    4.4604    8.4647 C   0  0  0  0  0  0  0  0  0  0  0  0
    0.8629    5.6173    9.2935 O   0  0  0  0  0  0  0  0  0  0  0  0
  1  3  1  0  0  0  0
  1  2  1  1  0  0  0
  3  5  1  0  0  0  0
  3  4  1  6  0  0  0
  5  6  1  6  0  0  0
  7  8  1  1  0  0  0
  7  5  1  0  0  0  0
  9 10  1  6  0  0  0
  9  7  1  0  0  0  0
 10  1  1  0  0  0  0
 11 13  1  6  0  0  0
 11  9  1  0  0  0  0
 12 11  1  0  0  0  0
 14 15  1  1  0  0  0
 16 14  1  0  0  0  0
 17 18  1  6  0  0  0
 17 16  1  0  0  0  0
 19  2  1  6  0  0  0
 19 20  1  0  0  0  0
 19 17  1  0  0  0  0
 20 21  1  1  0  0  0
 20 22  1  0  0  0  0
 22 23  1  1  0  0  0
 22 14  1  0  0  0  0
 24 23  1  6  0  0  0
 24 25  1  0  0  0  0
 25 27  1  0  0  0  0
 25 26  1  6  0  0  0
 27 28  1  1  0  0  0
 28 29  1  0  0  0  0
 30 31  1  1  0  0  0
 30 32  1  0  0  0  0
 30 27  1  0  0  0  0
 33 30  1  0  0  0  0
 34 33  1  0  0  0  0
 34 24  1  0  0  0  0
M  END
>  <CHROM.1>
-173.27469587,162.24165043,64.62548302,100.59498633,124.62499951,-136.46425132
3.93311383,5.75184972,6.56071168,1.01348356,0.33167221,-1.22544263

>  <Name>
lig.pdb

>  <RI>
0

>  <Rbt.Current_Directory>
/home/itssahil/PROJECTS/Mol_Feturizer/New_Systems/rnas/4k32

>  <Rbt.Executable>
rbdock ($Id: //depot/dev/client3/rdock/2013.1/src/exe/rbdock.cxx#4 $)

>  <Rbt.Library>
libRbt.so (2013.1, Build901 2013/11/27)

>  <Rbt.Parameter_File>
/export/apps/rDock/src/rDock_2013.1_src/data/scripts/dock_solv.prm

>  <Rbt.Receptor>
prm/blind_docking_20.prm

>  <SCORE>
117.471

>  <SCORE.INTER>
92.8924

>  <SCORE.INTER.CONST>
1

>  <SCORE.INTER.POLAR>
0

>  <SCORE.INTER.ROT>
6

>  <SCORE.INTER.SOLV>
36.6071

>  <SCORE.INTER.VDW>
42.1259

>  <SCORE.INTER.norm>
2.73213

>  <SCORE.INTRA>
8.6614

>  <SCORE.INTRA.DIHEDRAL>
-3.05548

>  <SCORE.INTRA.DIHEDRAL.0>
18.0069

>  <SCORE.INTRA.POLAR>
0

>  <SCORE.INTRA.POLAR.0>
0

>  <SCORE.INTRA.REPUL>
0.432539

>  <SCORE.INTRA.REPUL.0>
0

>  <SCORE.INTRA.SOLV>
1.34601

>  <SCORE.INTRA.SOLV.lig_0>
-70.7393

>  <SCORE.INTRA.VDW>
7.35344

>  <SCORE.INTRA.VDW.0>
-3.23471

>  <SCORE.INTRA.norm>
0.254747

>  <SCORE.RESTR>
15.9171

>  <SCORE.RESTR.CAVITY>
15.9171

>  <SCORE.RESTR.norm>
0.468151

>  <SCORE.SYSTEM>
0

>  <SCORE.SYSTEM.CONST>
0

>  <SCORE.SYSTEM.DIHEDRAL>
0

>  <SCORE.SYSTEM.SOLV>
0

>  <SCORE.SYSTEM.norm>
0

>  <SCORE.heavy>
34

>  <SCORE.norm>
3.45503

>  <RMSD>
32.933

$$$$
lig.pdb
 OpenBabel11021811503D
libRbt.so/2013.1/901 2013/11/27
 34 36  0  0  0  0  0  0  0  0999 V2000
    2.7878    3.6005   10.4935 C   0  0  2  0  0  0  0  0  0  0  0  0
    2.4837    4.7741    9.7316 O   0  0  0  0  0  0  0  0  0  0  0  0
    3.9848    2.8354    9.7843 C   0  0  2  0  0  0  0  0  0  0  0  0
    5.2041    3.6733    9.7050 N   0  0  0  0  0  0  0  0  0  0  0  0
    3.5485    2.4024    8.3619 C   0  0  1  0  0  0  0  0  0  0  0  0
    4.6121    1.7049    7.7094 O   0  0  0  0  0  0  0  0  0  0  0  0
    2.2920    1.5218    8.4817 C   0  0  2  0  0  0  0  0  0  0  0  0
    1.8808    1.1121    7.1765 O   0  0  0  0  0  0  0  0  0  0  0  0
    1.1459    2.3269    9.2060 C   0  0  2  0  0  0  0  0  0  0  0  0
    1.5827    2.7666   10.5483 O   0  0  0  0  0  0  0  0  0  0  0  0
   -0.1371    1.4739    9.3649 C   0  0  2  0  0  0  0  0  0  0  0  0
   -0.4077    0.7750    8.1483 O   0  0  0  0  0  0  0  0  0  0  0  0
   -1.3377    2.3443    9.7020 C   0  0  0  0  0  0  0  0  0  0  0  0
    3.8840    6.5170    6.0822 C   0  0  2  0  0  0  0  0  0  0  0  0
    4.5429    6.6762    4.7835 N   0  0  0  0  0  0  0  0  0  0  0  0
    4.9422    5.9513    7.0692 C   0  0  0  0  0  0  0  0  0  0  0  0
    4.2685    5.7981    8.4598 C   0  0  2  0  0  0  0  0  0  0  0  0
    5.2387    5.2686    9.4310 N   0  0  0  0  0  0  0  0  0  0  0  0
    3.0491    4.8404    8.3837 C   0  0  2  0  0  0  0  0  0  0  0  0
    2.0215    5.4053    7.3529 C   0  0  2  0  0  0  0  0  0  0  0  0
    0.9008    4.5139    7.2750 O   0  0  0  0  0  0  0  0  0  0  0  0
    2.6584    5.5184    5.9465 C   0  0  1  0  0  0  0  0  0  0  0  0
    1.6490    6.0575    5.0575 O   0  0  0  0  0  0  0  0  0  0  0  0
    0.3159    6.1773    5.6072 C   0  0  2  0  0  0  0  0  0  0  0  0
   -0.6421    6.4230    4.3828 C   0  0  2  0  0  0  0  0  0  0  0  0
   -0.5747    5.3224    3.4897 O   0  0  0  0  0  0  0  0  0  0  0  0
   -0.2211    7.7600    3.6633 C   0  0  1  0  0  0  0  0  0  0  0  0
   -1.1001    8.0289    2.4846 N   0  0  0  0  0  0  0  0  0  0  0  0
   -0.3631    7.6849    1.2496 C   0  0  0  0  0  0  0  0  0  0  0  0
   -0.3227    8.9279    4.6911 C   0  0  2  0  0  0  0  0  0  0  0  0
   -1.6742    9.0282    5.1372 O   0  0  0  0  0  0  0  0  0  0  0  0
    0.0788   10.2644    4.0722 C   0  0  0  0  0  0  0  0  0  0  0  0
    0.6025    8.6180    5.9113 C   0  0  0  0  0  0  0  0  0  0  0  0
    0.2430    7.3259    6.5324 O   0  0  0  0  0  0  0  0  0  0  0  0
  1  3  1  0  0  0  0
  1  2  1  6  0  0  0
  3  5  1  0  0  0  0
  3  4  1  6  0  0  0
  5  6  1  1  0  0  0
  7  8  1  6  0  0  0
  7  5  1  0  0  0  0
  9 10  1  1  0  0  0
  9  7  1  0  0  0  0
 10  1  1  0  0  0  0
 11 13  1  6  0  0  0
 11  9  1  0  0  0  0
 12 11  1  0  0  0  0
 14 15  1  6  0  0  0
 16 14  1  0  0  0  0
 17 18  1  1  0  0  0
 17 16  1  0  0  0  0
 19  2  1  1  0  0  0
 19 20  1  0  0  0  0
 19 17  1  0  0  0  0
 20 21  1  6  0  0  0
 20 22  1  0  0  0  0
 22 23  1  6  0  0  0
 22 14  1  0  0  0  0
 24 23  1  6  0  0  0
 24 25  1  0  0  0  0
 25 27  1  0  0  0  0
 25 26  1  6  0  0  0
 27 28  1  6  0  0  0
 28 29  1  0  0  0  0
 30 31  1  1  0  0  0
 30 32  1  0  0  0  0
 30 27  1  0  0  0  0
 33 30  1  0  0  0  0
 34 33  1  0  0  0  0
 34 24  1  0  0  0  0
M  END
>  <CHROM.1>
14.44533818,-44.12988103,-102.46582609,-124.09084925,-165.97398060,-103.20887204
1.63841242,5.08210754,6.91151391,-1.19108751,-0.33996793,-0.64162526

>  <Name>
lig.pdb

>  <RI>
0

>  <Rbt.Current_Directory>
/home/itssahil/PROJECTS/Mol_Feturizer/New_Systems/rnas/4k32

>  <Rbt.Executable>
rbdock ($Id: //depot/dev/client3/rdock/2013.1/src/exe/rbdock.cxx#4 $)

>  <Rbt.Library>
libRbt.so (2013.1, Build901 2013/11/27)

>  <Rbt.Parameter_File>
/export/apps/rDock/src/rDock_2013.1_src/data/scripts/dock_solv.prm

>  <Rbt.Receptor>
prm/blind_docking_20.prm

>  <SCORE>
73.3499

>  <SCORE.INTER>
17.4681

>  <SCORE.INTER.CONST>
1

>  <SCORE.INTER.POLAR>
0

>  <SCORE.INTER.ROT>
6

>  <SCORE.INTER.SOLV>
28.4669

>  <SCORE.INTER.VDW>
-5.4436

>  <SCORE.INTER.norm>
0.513767

>  <SCORE.INTRA>
37.3152

>  <SCORE.INTRA.DIHEDRAL>
3.88542

>  <SCORE.INTRA.DIHEDRAL.0>
18.0069

>  <SCORE.INTRA.POLAR>
0

>  <SCORE.INTRA.POLAR.0>
0

>  <SCORE.INTRA.REPUL>
0

>  <SCORE.INTRA.REPUL.0>
0

>  <SCORE.INTRA.SOLV>
6.40077

>  <SCORE.INTRA.SOLV.lig_0>
-70.7393

>  <SCORE.INTRA.VDW>
32.1721

>  <SCORE.INTRA.VDW.0>
-3.23471

>  <SCORE.INTRA.norm>
1.09751

>  <SCORE.RESTR>
18.5666

>  <SCORE.RESTR.CAVITY>
18.5666

>  <SCORE.RESTR.norm>
0.546077

>  <SCORE.SYSTEM>
0

>  <SCORE.SYSTEM.CONST>
0

>  <SCORE.SYSTEM.DIHEDRAL>
0

>  <SCORE.SYSTEM.SOLV>
0

>  <SCORE.SYSTEM.norm>
0

>  <SCORE.heavy>
34

>  <SCORE.norm>
2.15735

>  <RMSD>
32.969

$$$$
lig.pdb
 OpenBabel11021811503D
libRbt.so/2013.1/901 2013/11/27
 34 36  0  0  0  0  0  0  0  0999 V2000
    2.9345    4.4782    9.6625 C   0  0  2  0  0  0  0  0  0  0  0  0
    3.2202    5.1603    8.4364 O   0  0  0  0  0  0  0  0  0  0  0  0
    4.0484    3.3707    9.8945 C   0  0  2  0  0  0  0  0  0  0  0  0
    5.4027    3.9635    9.9911 N   0  0  0  0  0  0  0  0  0  0  0  0
    4.0031    2.3438    8.7350 C   0  0  1  0  0  0  0  0  0  0  0  0
    4.9956    1.3336    8.9303 O   0  0  0  0  0  0  0  0  0  0  0  0
    2.5904    1.7363    8.6735 C   0  0  2  0  0  0  0  0  0  0  0  0
    2.5357    0.7841    7.6101 O   0  0  0  0  0  0  0  0  0  0  0  0
    1.5283    2.8818    8.4584 C   0  0  2  0  0  0  0  0  0  0  0  0
    1.6020    3.8759    9.5503 O   0  0  0  0  0  0  0  0  0  0  0  0
    0.0861    2.3193    8.4064 C   0  0  2  0  0  0  0  0  0  0  0  0
   -0.1087    1.3867    9.4713 O   0  0  0  0  0  0  0  0  0  0  0  0
   -0.1808    1.6121    7.0868 C   0  0  0  0  0  0  0  0  0  0  0  0
    0.0198    7.8872    7.6374 C   0  0  2  0  0  0  0  0  0  0  0  0
   -0.7519    9.1276    7.5280 N   0  0  0  0  0  0  0  0  0  0  0  0
    0.5586    7.8068    9.0924 C   0  0  0  0  0  0  0  0  0  0  0  0
    1.3604    6.4847    9.2354 C   0  0  2  0  0  0  0  0  0  0  0  0
    1.8866    6.3633   10.6041 N   0  0  0  0  0  0  0  0  0  0  0  0
    2.5418    6.4400    8.2294 C   0  0  2  0  0  0  0  0  0  0  0  0
    1.9802    6.5686    6.7783 C   0  0  2  0  0  0  0  0  0  0  0  0
    3.0733    6.5387    5.8505 O   0  0  0  0  0  0  0  0  0  0  0  0
    1.2195    7.9048    6.5990 C   0  0  1  0  0  0  0  0  0  0  0  0
    0.7238    7.9402    5.2378 O   0  0  0  0  0  0  0  0  0  0  0  0
   -0.5872    7.3668    5.0233 C   0  0  2  0  0  0  0  0  0  0  0  0
   -0.4755    6.4951    3.7175 C   0  0  2  0  0  0  0  0  0  0  0  0
    0.4864    5.4689    3.9040 O   0  0  0  0  0  0  0  0  0  0  0  0
   -0.0786    7.4280    2.5114 C   0  0  1  0  0  0  0  0  0  0  0  0
    0.0491    6.6386    1.2485 N   0  0  0  0  0  0  0  0  0  0  0  0
    1.4464    6.1737    1.1140 C   0  0  0  0  0  0  0  0  0  0  0  0
   -1.1741    8.5261    2.3541 C   0  0  2  0  0  0  0  0  0  0  0  0
   -2.4218    7.8912    2.0791 O   0  0  0  0  0  0  0  0  0  0  0  0
   -0.8585    9.4815    1.2060 C   0  0  0  0  0  0  0  0  0  0  0  0
   -1.2871    9.3314    3.6882 C   0  0  0  0  0  0  0  0  0  0  0  0
   -1.5883    8.4339    4.8233 O   0  0  0  0  0  0  0  0  0  0  0  0
  1  3  1  0  0  0  0
  1  2  1  6  0  0  0
  3  5  1  0  0  0  0
  3  4  1  6  0  0  0
  5  6  1  1  0  0  0
  7  8  1  6  0  0  0
  7  5  1  0  0  0  0
  9 10  1  1  0  0  0
  9  7  1  0  0  0  0
 10  1  1  0  0  0  0
 11 13  1  6  0  0  0
 11  9  1  0  0  0  0
 12 11  1  0  0  0  0
 14 15  1  1  0  0  0
 16 14  1  0  0  0  0
 17 18  1  1  0  0  0
 17 16  1  0  0  0  0
 19  2  1  6  0  0  0
 19 20  1  0  0  0  0
 19 17  1  0  0  0  0
 20 21  1  6  0  0  0
 20 22  1  0  0  0  0
 22 23  1  6  0  0  0
 22 14  1  0  0  0  0
 24 23  1  6  0  0  0
 24 25  1  0  0  0  0
 25 27  1  0  0  0  0
 25 26  1  1  0  0  0
 27 28  1  6  0  0  0
 28 29  1  0  0  0  0
 30 31  1  6  0  0  0
 30 32  1  0  0  0  0
 30 27  1  0  0  0  0
 33 30  1  0  0  0  0
 34 33  1  0  0  0  0
 34 24  1  0  0  0  0
M  END
>  <CHROM.1>
-163.62959068,45.90995984,-16.95775068,-26.80772578,-135.86550877,-90.41938871
1.13756636,5.60225177,6.54226434,-0.01096278,-1.16005263,0.68472199

>  <Name>
lig.pdb

>  <RI>
0

>  <Rbt.Current_Directory>
/home/itssahil/PROJECTS/Mol_Feturizer/New_Systems/rnas/4k32

>  <Rbt.Executable>
rbdock ($Id: //depot/dev/client3/rdock/2013.1/src/exe/rbdock.cxx#4 $)

>  <Rbt.Library>
libRbt.so (2013.1, Build901 2013/11/27)

>  <Rbt.Parameter_File>
/export/apps/rDock/src/rDock_2013.1_src/data/scripts/dock_solv.prm

>  <Rbt.Receptor>
prm/blind_docking_20.prm

>  <SCORE>
65.0496

>  <SCORE.INTER>
28.7253

>  <SCORE.INTER.CONST>
1

>  <SCORE.INTER.POLAR>
0

>  <SCORE.INTER.ROT>
6

>  <SCORE.INTER.SOLV>
26.738

>  <SCORE.INTER.VDW>
2.63756

>  <SCORE.INTER.norm>
0.844863

>  <SCORE.INTRA>
13.2277

>  <SCORE.INTRA.DIHEDRAL>
0.627743

>  <SCORE.INTRA.DIHEDRAL.0>
18.0069

>  <SCORE.INTRA.POLAR>
0

>  <SCORE.INTRA.POLAR.0>
0

>  <SCORE.INTRA.REPUL>
0

>  <SCORE.INTRA.REPUL.0>
0

>  <SCORE.INTRA.SOLV>
1.87297

>  <SCORE.INTRA.SOLV.lig_0>
-70.7393

>  <SCORE.INTRA.VDW>
11.9774

>  <SCORE.INTRA.VDW.0>
-3.23471

>  <SCORE.INTRA.norm>
0.38905

>  <SCORE.RESTR>
23.0966

>  <SCORE.RESTR.CAVITY>
23.0966

>  <SCORE.RESTR.norm>
0.679312

>  <SCORE.SYSTEM>
0

>  <SCORE.SYSTEM.CONST>
0

>  <SCORE.SYSTEM.DIHEDRAL>
0

>  <SCORE.SYSTEM.SOLV>
0

>  <SCORE.SYSTEM.norm>
0

>  <SCORE.heavy>
34

>  <SCORE.norm>
1.91322

>  <RMSD>
32.977

$$$$
lig.pdb
 OpenBabel11021811503D
libRbt.so/2013.1/901 2013/11/27
 34 36  0  0  0  0  0  0  0  0999 V2000
    2.9241    4.4314    9.4767 C   0  0  2  0  0  0  0  0  0  0  0  0
    3.0291    5.0817    8.2053 O   0  0  0  0  0  0  0  0  0  0  0  0
    4.1025    3.3744    9.6009 C   0  0  2  0  0  0  0  0  0  0  0  0
    5.4330    4.0199    9.5118 N   0  0  0  0  0  0  0  0  0  0  0  0
    3.9574    2.3079    8.4863 C   0  0  1  0  0  0  0  0  0  0  0  0
    5.0068    1.3423    8.5863 O   0  0  0  0  0  0  0  0  0  0  0  0
    2.5738    1.6467    8.6179 C   0  0  2  0  0  0  0  0  0  0  0  0
    2.4281    0.6577    7.5976 O   0  0  0  0  0  0  0  0  0  0  0  0
    1.4474    2.7442    8.5029 C   0  0  2  0  0  0  0  0  0  0  0  0
    1.6137    3.7767    9.5479 O   0  0  0  0  0  0  0  0  0  0  0  0
    0.0339    2.1273    8.6463 C   0  0  2  0  0  0  0  0  0  0  0  0
    0.0160    1.2065    9.7388 O   0  0  0  0  0  0  0  0  0  0  0  0
   -0.3741    1.3880    7.3815 C   0  0  0  0  0  0  0  0  0  0  0  0
   -0.0268    8.0342    7.6941 C   0  0  2  0  0  0  0  0  0  0  0  0
   -0.7254    9.3218    7.6880 N   0  0  0  0  0  0  0  0  0  0  0  0
    0.5582    7.8343    9.1196 C   0  0  0  0  0  0  0  0  0  0  0  0
    1.2829    6.4615    9.1533 C   0  0  2  0  0  0  0  0  0  0  0  0
    1.8496    6.2267   10.4906 N   0  0  0  0  0  0  0  0  0  0  0  0
    2.4225    6.4091    8.1005 C   0  0  2  0  0  0  0  0  0  0  0  0
    1.8179    6.6580    6.6827 C   0  0  2  0  0  0  0  0  0  0  0  0
    2.8731    6.6207    5.7123 O   0  0  0  0  0  0  0  0  0  0  0  0
    1.1336    8.0447    6.6120 C   0  0  1  0  0  0  0  0  0  0  0  0
    0.5924    8.1916    5.2758 O   0  0  0  0  0  0  0  0  0  0  0  0
   -0.5609    7.3754    4.9636 C   0  0  2  0  0  0  0  0  0  0  0  0
   -0.1849    6.5632    3.6689 C   0  0  2  0  0  0  0  0  0  0  0  0
    0.9441    5.7429    3.9255 O   0  0  0  0  0  0  0  0  0  0  0  0
    0.1074    7.5747    2.4966 C   0  0  1  0  0  0  0  0  0  0  0  0
    0.4797    6.8456    1.2460 N   0  0  0  0  0  0  0  0  0  0  0  0
    1.9098    7.0880    0.9584 C   0  0  0  0  0  0  0  0  0  0  0  0
   -1.1685    8.4386    2.2593 C   0  0  2  0  0  0  0  0  0  0  0  0
   -2.2434    7.5756    1.8914 O   0  0  0  0  0  0  0  0  0  0  0  0
   -0.9645    9.4553    1.1390 C   0  0  0  0  0  0  0  0  0  0  0  0
   -1.5348    9.1851    3.5821 C   0  0  0  0  0  0  0  0  0  0  0  0
   -1.7352    8.2282    4.6907 O   0  0  0  0  0  0  0  0  0  0  0  0
  1  3  1  0  0  0  0
  1  2  1  6  0  0  0
  3  5  1  0  0  0  0
  3  4  1  6  0  0  0
  5  6  1  1  0  0  0
  7  8  1  6  0  0  0
  7  5  1  0  0  0  0
  9 10  1  1  0  0  0
  9  7  1  0  0  0  0
 10  1  1  0  0  0  0
 11 13  1  6  0  0  0
 11  9  1  0  0  0  0
 12 11  1  0  0  0  0
 14 15  1  1  0  0  0
 16 14  1  0  0  0  0
 17 18  1  1  0  0  0
 17 16  1  0  0  0  0
 19  2  1  6  0  0  0
 19 20  1  0  0  0  0
 19 17  1  0  0  0  0
 20 21  1  6  0  0  0
 20 22  1  0  0  0  0
 22 23  1  6  0  0  0
 22 14  1  0  0  0  0
 24 23  1  6  0  0  0
 24 25  1  0  0  0  0
 25 27  1  0  0  0  0
 25 26  1  1  0  0  0
 27 28  1  6  0  0  0
 28 29  1  0  0  0  0
 30 31  1  6  0  0  0
 30 32  1  0  0  0  0
 30 27  1  0  0  0  0
 33 30  1  0  0  0  0
 34 33  1  0  0  0  0
 34 24  1  0  0  0  0
M  END
>  <CHROM.1>
-156.02734439,44.86872953,-26.43881649,-44.73940659,-124.98918461,-110.81270701
1.14510450,5.61497339,6.48023927,0.18335243,-1.18714074,0.92118598

>  <Name>
lig.pdb

>  <RI>
0

>  <Rbt.Current_Directory>
/home/itssahil/PROJECTS/Mol_Feturizer/New_Systems/rnas/4k32

>  <Rbt.Executable>
rbdock ($Id: //depot/dev/client3/rdock/2013.1/src/exe/rbdock.cxx#4 $)

>  <Rbt.Library>
libRbt.so (2013.1, Build901 2013/11/27)

>  <Rbt.Parameter_File>
/export/apps/rDock/src/rDock_2013.1_src/data/scripts/dock_solv.prm

>  <Rbt.Receptor>
prm/blind_docking_20.prm

>  <SCORE>
65.5238

>  <SCORE.INTER>
32.028

>  <SCORE.INTER.CONST>
1

>  <SCORE.INTER.POLAR>
0

>  <SCORE.INTER.ROT>
6

>  <SCORE.INTER.SOLV>
25.2393

>  <SCORE.INTER.VDW>
5.33891

>  <SCORE.INTER.norm>
0.942001

>  <SCORE.INTRA>
10.9626

>  <SCORE.INTRA.DIHEDRAL>
-1.13544

>  <SCORE.INTRA.DIHEDRAL.0>
18.0069

>  <SCORE.INTRA.POLAR>
0

>  <SCORE.INTRA.POLAR.0>
0

>  <SCORE.INTRA.REPUL>
0

>  <SCORE.INTRA.REPUL.0>
0

>  <SCORE.INTRA.SOLV>
1.60507

>  <SCORE.INTRA.SOLV.lig_0>
-70.7393

>  <SCORE.INTRA.VDW>
10.7278

>  <SCORE.INTRA.VDW.0>
-3.23471

>  <SCORE.INTRA.norm>
0.322431

>  <SCORE.RESTR>
22.5332

>  <SCORE.RESTR.CAVITY>
22.5332

>  <SCORE.RESTR.norm>
0.66274

>  <SCORE.SYSTEM>
0

>  <SCORE.SYSTEM.CONST>
0

>  <SCORE.SYSTEM.DIHEDRAL>
0

>  <SCORE.SYSTEM.SOLV>
0

>  <SCORE.SYSTEM.norm>
0

>  <SCORE.heavy>
34

>  <SCORE.norm>
1.92717

>  <RMSD>
33.050

$$$$
lig.pdb
 OpenBabel11021811503D
libRbt.so/2013.1/901 2013/11/27
 34 36  0  0  0  0  0  0  0  0999 V2000
   -0.0059    3.4153    8.0928 C   0  0  2  0  0  0  0  0  0  0  0  0
   -0.1026    4.7922    8.4735 O   0  0  0  0  0  0  0  0  0  0  0  0
   -0.2829    2.5178    9.3731 C   0  0  2  0  0  0  0  0  0  0  0  0
   -1.6341    2.7571    9.9315 N   0  0  0  0  0  0  0  0  0  0  0  0
    0.7926    2.8101   10.4496 C   0  0  1  0  0  0  0  0  0  0  0  0
    0.5635    2.0053   11.6086 O   0  0  0  0  0  0  0  0  0  0  0  0
    2.1802    2.5361    9.8429 C   0  0  2  0  0  0  0  0  0  0  0  0
    3.1819    2.7983   10.8269 O   0  0  0  0  0  0  0  0  0  0  0  0
    2.3916    3.4416    8.5694 C   0  0  2  0  0  0  0  0  0  0  0  0
    1.3412    3.1817    7.5619 O   0  0  0  0  0  0  0  0  0  0  0  0
    3.7714    3.1884    7.9128 C   0  0  2  0  0  0  0  0  0  0  0  0
    3.8446    1.8407    7.4438 O   0  0  0  0  0  0  0  0  0  0  0  0
    4.9021    3.4199    8.9031 C   0  0  0  0  0  0  0  0  0  0  0  0
    1.7241    6.3374    4.9249 C   0  0  2  0  0  0  0  0  0  0  0  0
    2.0751    7.2377    3.8238 N   0  0  0  0  0  0  0  0  0  0  0  0
    0.1744    6.2299    4.9558 C   0  0  0  0  0  0  0  0  0  0  0  0
   -0.2171    5.2593    6.1028 C   0  0  2  0  0  0  0  0  0  0  0  0
   -1.6807    5.1224    6.1658 N   0  0  0  0  0  0  0  0  0  0  0  0
    0.3058    5.7757    7.4701 C   0  0  2  0  0  0  0  0  0  0  0  0
    1.8590    5.9193    7.4001 C   0  0  2  0  0  0  0  0  0  0  0  0
    2.3397    6.4073    8.6600 O   0  0  0  0  0  0  0  0  0  0  0  0
    2.2696    6.9227    6.2952 C   0  0  1  0  0  0  0  0  0  0  0  0
    3.7171    6.9893    6.2886 O   0  0  0  0  0  0  0  0  0  0  0  0
    4.4050    5.8219    5.7810 C   0  0  2  0  0  0  0  0  0  0  0  0
    5.8193    5.8124    6.4717 C   0  0  2  0  0  0  0  0  0  0  0  0
    5.6675    5.7214    7.8796 O   0  0  0  0  0  0  0  0  0  0  0  0
    6.5935    7.1251    6.0715 C   0  0  1  0  0  0  0  0  0  0  0  0
    7.9422    7.1638    6.7148 N   0  0  0  0  0  0  0  0  0  0  0  0
    8.2637    8.5632    7.0684 C   0  0  0  0  0  0  0  0  0  0  0  0
    6.7338    7.1627    4.5192 C   0  0  2  0  0  0  0  0  0  0  0  0
    7.4778    6.0200    4.0995 O   0  0  0  0  0  0  0  0  0  0  0  0
    7.4690    8.4142    4.0465 C   0  0  0  0  0  0  0  0  0  0  0  0
    5.3109    7.1178    3.8753 C   0  0  0  0  0  0  0  0  0  0  0  0
    4.5688    5.9182    4.3166 O   0  0  0  0  0  0  0  0  0  0  0  0
  1  3  1  0  0  0  0
  1  2  1  1  0  0  0
  3  5  1  0  0  0  0
  3  4  1  1  0  0  0
  5  6  1  1  0  0  0
  7  8  1  1  0  0  0
  7  5  1  0  0  0  0
  9 10  1  6  0  0  0
  9  7  1  0  0  0  0
 10  1  1  0  0  0  0
 11 13  1  1  0  0  0
 11  9  1  0  0  0  0
 12 11  1  0  0  0  0
 14 15  1  6  0  0  0
 16 14  1  0  0  0  0
 17 18  1  1  0  0  0
 17 16  1  0  0  0  0
 19  2  1  1  0  0  0
 19 20  1  0  0  0  0
 19 17  1  0  0  0  0
 20 21  1  1  0  0  0
 20 22  1  0  0  0  0
 22 23  1  6  0  0  0
 22 14  1  0  0  0  0
 24 23  1  1  0  0  0
 24 25  1  0  0  0  0
 25 27  1  0  0  0  0
 25 26  1  1  0  0  0
 27 28  1  1  0  0  0
 28 29  1  0  0  0  0
 30 31  1  6  0  0  0
 30 32  1  0  0  0  0
 30 27  1  0  0  0  0
 33 30  1  0  0  0  0
 34 33  1  0  0  0  0
 34 24  1  0  0  0  0
M  END
>  <CHROM.1>
171.70035595,63.20522198,39.83070240,-44.97722840,-153.63774188,-144.43929558
3.09231648,5.15771258,7.13724530,2.40565642,0.10749833,2.23220690

>  <Name>
lig.pdb

>  <RI>
0

>  <Rbt.Current_Directory>
/home/itssahil/PROJECTS/Mol_Feturizer/New_Systems/rnas/4k32

>  <Rbt.Executable>
rbdock ($Id: //depot/dev/client3/rdock/2013.1/src/exe/rbdock.cxx#4 $)

>  <Rbt.Library>
libRbt.so (2013.1, Build901 2013/11/27)

>  <Rbt.Parameter_File>
/export/apps/rDock/src/rDock_2013.1_src/data/scripts/dock_solv.prm

>  <Rbt.Receptor>
prm/blind_docking_20.prm

>  <SCORE>
92.8296

>  <SCORE.INTER>
61.4908

>  <SCORE.INTER.CONST>
1

>  <SCORE.INTER.POLAR>
0

>  <SCORE.INTER.ROT>
6

>  <SCORE.INTER.SOLV>
28.8883

>  <SCORE.INTER.VDW>
23.7644

>  <SCORE.INTER.norm>
1.80855

>  <SCORE.INTRA>
3.80781

>  <SCORE.INTRA.DIHEDRAL>
-11.0036

>  <SCORE.INTRA.DIHEDRAL.0>
18.0069

>  <SCORE.INTRA.POLAR>
0

>  <SCORE.INTRA.POLAR.0>
0

>  <SCORE.INTRA.REPUL>
0

>  <SCORE.INTRA.REPUL.0>
0

>  <SCORE.INTRA.SOLV>
1.57686

>  <SCORE.INTRA.SOLV.lig_0>
-70.7393

>  <SCORE.INTRA.VDW>
8.5212

>  <SCORE.INTRA.VDW.0>
-3.23471

>  <SCORE.INTRA.norm>
0.111994

>  <SCORE.RESTR>
27.5311

>  <SCORE.RESTR.CAVITY>
27.5311

>  <SCORE.RESTR.norm>
0.809737

>  <SCORE.SYSTEM>
0

>  <SCORE.SYSTEM.CONST>
0

>  <SCORE.SYSTEM.DIHEDRAL>
0

>  <SCORE.SYSTEM.SOLV>
0

>  <SCORE.SYSTEM.norm>
0

>  <SCORE.heavy>
34

>  <SCORE.norm>
2.73028

>  <RMSD>
33.078

$$$$
lig.pdb
 OpenBabel11021811503D
libRbt.so/2013.1/901 2013/11/27
 34 36  0  0  0  0  0  0  0  0999 V2000
    4.9757    6.9281    3.7678 C   0  0  2  0  0  0  0  0  0  0  0  0
    4.0904    5.8109    3.9031 O   0  0  0  0  0  0  0  0  0  0  0  0
    5.8821    6.7003    2.4841 C   0  0  2  0  0  0  0  0  0  0  0  0
    5.0707    6.5915    1.2493 N   0  0  0  0  0  0  0  0  0  0  0  0
    6.7300    5.4173    2.6734 C   0  0  1  0  0  0  0  0  0  0  0  0
    7.5588    5.1992    1.5292 O   0  0  0  0  0  0  0  0  0  0  0  0
    7.5712    5.5703    3.9531 C   0  0  2  0  0  0  0  0  0  0  0  0
    8.3614    4.3948    4.1378 O   0  0  0  0  0  0  0  0  0  0  0  0
    6.6207    5.8093    5.1883 C   0  0  2  0  0  0  0  0  0  0  0  0
    5.7901    7.0153    4.9843 O   0  0  0  0  0  0  0  0  0  0  0  0
    7.4247    5.9862    6.5003 C   0  0  2  0  0  0  0  0  0  0  0  0
    8.3636    7.0532    6.3528 O   0  0  0  0  0  0  0  0  0  0  0  0
    8.1839    4.7171    6.8551 C   0  0  0  0  0  0  0  0  0  0  0  0
    1.2765    7.8444    6.4058 C   0  0  2  0  0  0  0  0  0  0  0  0
    0.0820    8.1292    7.2047 N   0  0  0  0  0  0  0  0  0  0  0  0
    0.7932    7.3683    5.0081 C   0  0  0  0  0  0  0  0  0  0  0  0
    2.0470    7.0841    4.1374 C   0  0  2  0  0  0  0  0  0  0  0  0
    1.6356    6.6343    2.7982 N   0  0  0  0  0  0  0  0  0  0  0  0
    2.9403    5.9945    4.7888 C   0  0  2  0  0  0  0  0  0  0  0  0
    3.3755    6.4750    6.2092 C   0  0  2  0  0  0  0  0  0  0  0  0
    4.1913    5.4628    6.8146 O   0  0  0  0  0  0  0  0  0  0  0  0
    2.1406    6.7158    7.1110 C   0  0  1  0  0  0  0  0  0  0  0  0
    2.6278    7.1673    8.3989 O   0  0  0  0  0  0  0  0  0  0  0  0
    1.9506    6.6297    9.5590 C   0  0  2  0  0  0  0  0  0  0  0  0
    3.0587    5.9209   10.4234 C   0  0  2  0  0  0  0  0  0  0  0  0
    4.0391    6.8669   10.8198 O   0  0  0  0  0  0  0  0  0  0  0  0
    3.7048    4.7602    9.5760 C   0  0  1  0  0  0  0  0  0  0  0  0
    4.7729    4.0637   10.3560 N   0  0  0  0  0  0  0  0  0  0  0  0
    5.7841    3.5345    9.4158 C   0  0  0  0  0  0  0  0  0  0  0  0
    2.5822    3.7540    9.1788 C   0  0  2  0  0  0  0  0  0  0  0  0
    2.0077    3.2165   10.3690 O   0  0  0  0  0  0  0  0  0  0  0  0
    3.1266    2.5976    8.3441 C   0  0  0  0  0  0  0  0  0  0  0  0
    1.4803    4.5097    8.3689 C   0  0  0  0  0  0  0  0  0  0  0  0
    0.9339    5.6406    9.1481 O   0  0  0  0  0  0  0  0  0  0  0  0
  1  3  1  0  0  0  0
  1  2  1  1  0  0  0
  3  5  1  0  0  0  0
  3  4  1  6  0  0  0
  5  6  1  6  0  0  0
  7  8  1  1  0  0  0
  7  5  1  0  0  0  0
  9 10  1  6  0  0  0
  9  7  1  0  0  0  0
 10  1  1  0  0  0  0
 11 13  1  6  0  0  0
 11  9  1  0  0  0  0
 12 11  1  0  0  0  0
 14 15  1  1  0  0  0
 16 14  1  0  0  0  0
 17 18  1  6  0  0  0
 17 16  1  0  0  0  0
 19  2  1  6  0  0  0
 19 20  1  0  0  0  0
 19 17  1  0  0  0  0
 20 21  1  1  0  0  0
 20 22  1  0  0  0  0
 22 23  1  1  0  0  0
 22 14  1  0  0  0  0
 24 23  1  6  0  0  0
 24 25  1  0  0  0  0
 25 27  1  0  0  0  0
 25 26  1  6  0  0  0
 27 28  1  1  0  0  0
 28 29  1  0  0  0  0
 30 31  1  1  0  0  0
 30 32  1  0  0  0  0
 30 27  1  0  0  0  0
 33 30  1  0  0  0  0
 34 33  1  0  0  0  0
 34 24  1  0  0  0  0
M  END
>  <CHROM.1>
-163.64467052,56.05890689,65.26373631,104.42753834,122.39239512,-150.66246709
4.19162041,5.79078237,6.43613694,0.93839586,0.29344088,-1.26214765

>  <Name>
lig.pdb

>  <RI>
0

>  <Rbt.Current_Directory>
/home/itssahil/PROJECTS/Mol_Feturizer/New_Systems/rnas/4k32

>  <Rbt.Executable>
rbdock ($Id: //depot/dev/client3/rdock/2013.1/src/exe/rbdock.cxx#4 $)

>  <Rbt.Library>
libRbt.so (2013.1, Build901 2013/11/27)

>  <Rbt.Parameter_File>
/export/apps/rDock/src/rDock_2013.1_src/data/scripts/dock_solv.prm

>  <Rbt.Receptor>
prm/blind_docking_20.prm

>  <SCORE>
137.24

>  <SCORE.INTER>
111.938

>  <SCORE.INTER.CONST>
1

>  <SCORE.INTER.POLAR>
0

>  <SCORE.INTER.ROT>
6

>  <SCORE.INTER.SOLV>
35.749

>  <SCORE.INTER.VDW>
55.1093

>  <SCORE.INTER.norm>
3.29231

>  <SCORE.INTRA>
7.53978

>  <SCORE.INTRA.DIHEDRAL>
-2.78341

>  <SCORE.INTRA.DIHEDRAL.0>
18.0069

>  <SCORE.INTRA.POLAR>
0

>  <SCORE.INTRA.POLAR.0>
0

>  <SCORE.INTRA.REPUL>
0

>  <SCORE.INTRA.REPUL.0>
0

>  <SCORE.INTRA.SOLV>
1.17706

>  <SCORE.INTRA.SOLV.lig_0>
-70.7393

>  <SCORE.INTRA.VDW>
8.34296

>  <SCORE.INTRA.VDW.0>
-3.23471

>  <SCORE.INTRA.norm>
0.221758

>  <SCORE.RESTR>
17.7614

>  <SCORE.RESTR.CAVITY>
17.7614

>  <SCORE.RESTR.norm>
0.522396

>  <SCORE.SYSTEM>
0

>  <SCORE.SYSTEM.CONST>
0

>  <SCORE.SYSTEM.DIHEDRAL>
0

>  <SCORE.SYSTEM.SOLV>
0

>  <SCORE.SYSTEM.norm>
0

>  <SCORE.heavy>
34

>  <SCORE.norm>
4.03646

>  <RMSD>
33.105

$$$$
lig.pdb
 OpenBabel11021811503D
libRbt.so/2013.1/901 2013/11/27
 34 36  0  0  0  0  0  0  0  0999 V2000
    0.5801    5.3959    9.2438 C   0  0  2  0  0  0  0  0  0  0  0  0
    0.6604    4.9824    7.8753 O   0  0  0  0  0  0  0  0  0  0  0  0
    2.0088    5.9202    9.6966 C   0  0  2  0  0  0  0  0  0  0  0  0
    2.4553    7.0746    8.8824 N   0  0  0  0  0  0  0  0  0  0  0  0
    3.0387    4.7676    9.5877 C   0  0  1  0  0  0  0  0  0  0  0  0
    4.3313    5.2193    9.9984 O   0  0  0  0  0  0  0  0  0  0  0  0
    2.5537    3.5935   10.4566 C   0  0  2  0  0  0  0  0  0  0  0  0
    3.4969    2.5243   10.3683 O   0  0  0  0  0  0  0  0  0  0  0  0
    1.1275    3.1274    9.9718 C   0  0  2  0  0  0  0  0  0  0  0  0
    0.1591    4.2422   10.0455 O   0  0  0  0  0  0  0  0  0  0  0  0
    0.5891    1.9551   10.8292 C   0  0  2  0  0  0  0  0  0  0  0  0
   -0.0498    0.9932    9.9876 O   0  0  0  0  0  0  0  0  0  0  0  0
   -0.4177    2.4443   11.8587 C   0  0  0  0  0  0  0  0  0  0  0  0
    1.7991    6.6662    4.1091 C   0  0  2  0  0  0  0  0  0  0  0  0
    2.1518    7.6420    3.0748 N   0  0  0  0  0  0  0  0  0  0  0  0
    0.4475    7.1186    4.7274 C   0  0  0  0  0  0  0  0  0  0  0  0
    0.0440    6.0821    5.8108 C   0  0  2  0  0  0  0  0  0  0  0  0
   -1.2376    6.4687    6.4215 N   0  0  0  0  0  0  0  0  0  0  0  0
    1.1276    5.9855    6.9181 C   0  0  2  0  0  0  0  0  0  0  0  0
    2.4859    5.5747    6.2670 C   0  0  2  0  0  0  0  0  0  0  0  0
    3.4888    5.4970    7.2891 O   0  0  0  0  0  0  0  0  0  0  0  0
    2.9327    6.6222    5.2184 C   0  0  1  0  0  0  0  0  0  0  0  0
    4.1873    6.1634    4.6570 O   0  0  0  0  0  0  0  0  0  0  0  0
    5.3881    6.6536    5.2986 C   0  0  2  0  0  0  0  0  0  0  0  0
    6.3015    7.2157    4.1466 C   0  0  2  0  0  0  0  0  0  0  0  0
    5.6348    8.2733    3.4756 O   0  0  0  0  0  0  0  0  0  0  0  0
    6.6482    6.0452    3.1505 C   0  0  1  0  0  0  0  0  0  0  0  0
    7.5085    6.5368    2.0313 N   0  0  0  0  0  0  0  0  0  0  0  0
    6.6404    6.9716    0.9159 C   0  0  0  0  0  0  0  0  0  0  0  0
    7.3828    4.9219    3.9437 C   0  0  2  0  0  0  0  0  0  0  0  0
    8.5864    5.4597    4.4894 O   0  0  0  0  0  0  0  0  0  0  0  0
    7.7478    3.7410    3.0479 C   0  0  0  0  0  0  0  0  0  0  0  0
    6.4625    4.4308    5.1069 C   0  0  0  0  0  0  0  0  0  0  0  0
    6.0860    5.5526    5.9925 O   0  0  0  0  0  0  0  0  0  0  0  0
  1  3  1  0  0  0  0
  1  2  1  6  0  0  0
  3  5  1  0  0  0  0
  3  4  1  6  0  0  0
  5  6  1  1  0  0  0
  7  8  1  6  0  0  0
  7  5  1  0  0  0  0
  9 10  1  1  0  0  0
  9  7  1  0  0  0  0
 10  1  1  0  0  0  0
 11 13  1  1  0  0  0
 11  9  1  0  0  0  0
 12 11  1  0  0  0  0
 14 15  1  6  0  0  0
 16 14  1  0  0  0  0
 17 18  1  1  0  0  0
 17 16  1  0  0  0  0
 19  2  1  1  0  0  0
 19 20  1  0  0  0  0
 19 17  1  0  0  0  0
 20 21  1  1  0  0  0
 20 22  1  0  0  0  0
 22 23  1  6  0  0  0
 22 14  1  0  0  0  0
 24 23  1  6  0  0  0
 24 25  1  0  0  0  0
 25 27  1  0  0  0  0
 25 26  1  6  0  0  0
 27 28  1  6  0  0  0
 28 29  1  0  0  0  0
 30 31  1  1  0  0  0
 30 32  1  0  0  0  0
 30 27  1  0  0  0  0
 33 30  1  0  0  0  0
 34 33  1  0  0  0  0
 34 24  1  0  0  0  0
M  END
>  <CHROM.1>
-56.51329578,-138.95752480,-125.41235953,151.39522926,-129.66214179,-90.92364697
3.33041912,5.32418954,6.63342974,2.26438702,-0.26964628,2.16348129

>  <Name>
lig.pdb

>  <RI>
0

>  <Rbt.Current_Directory>
/home/itssahil/PROJECTS/Mol_Feturizer/New_Systems/rnas/4k32

>  <Rbt.Executable>
rbdock ($Id: //depot/dev/client3/rdock/2013.1/src/exe/rbdock.cxx#4 $)

>  <Rbt.Library>
libRbt.so (2013.1, Build901 2013/11/27)

>  <Rbt.Parameter_File>
/export/apps/rDock/src/rDock_2013.1_src/data/scripts/dock_solv.prm

>  <Rbt.Receptor>
prm/blind_docking_20.prm

>  <SCORE>
94.9357

>  <SCORE.INTER>
63.3996

>  <SCORE.INTER.CONST>
1

>  <SCORE.INTER.POLAR>
0

>  <SCORE.INTER.ROT>
6

>  <SCORE.INTER.SOLV>
33.6574

>  <SCORE.INTER.VDW>
23.4473

>  <SCORE.INTER.norm>
1.86469

>  <SCORE.INTRA>
9.74828

>  <SCORE.INTRA.DIHEDRAL>
4.01456

>  <SCORE.INTRA.DIHEDRAL.0>
18.0069

>  <SCORE.INTRA.POLAR>
0

>  <SCORE.INTRA.POLAR.0>
0

>  <SCORE.INTRA.REPUL>
0

>  <SCORE.INTRA.REPUL.0>
0

>  <SCORE.INTRA.SOLV>
2.02831

>  <SCORE.INTRA.SOLV.lig_0>
-70.7393

>  <SCORE.INTRA.VDW>
6.72684

>  <SCORE.INTRA.VDW.0>
-3.23471

>  <SCORE.INTRA.norm>
0.286714

>  <SCORE.RESTR>
21.7878

>  <SCORE.RESTR.CAVITY>
21.7878

>  <SCORE.RESTR.norm>
0.640818

>  <SCORE.SYSTEM>
0

>  <SCORE.SYSTEM.CONST>
0

>  <SCORE.SYSTEM.DIHEDRAL>
0

>  <SCORE.SYSTEM.SOLV>
0

>  <SCORE.SYSTEM.norm>
0

>  <SCORE.heavy>
34

>  <SCORE.norm>
2.79223

>  <RMSD>
33.578

$$$$
lig.pdb
 OpenBabel11021811503D
libRbt.so/2013.1/901 2013/11/27
 34 36  0  0  0  0  0  0  0  0999 V2000
    0.7201    5.4432    9.2469 C   0  0  2  0  0  0  0  0  0  0  0  0
    0.8164    5.0164    7.8835 O   0  0  0  0  0  0  0  0  0  0  0  0
    2.1511    5.9417    9.7212 C   0  0  2  0  0  0  0  0  0  0  0  0
    2.6360    7.0796    8.9058 N   0  0  0  0  0  0  0  0  0  0  0  0
    3.1586    4.7673    9.6406 C   0  0  1  0  0  0  0  0  0  0  0  0
    4.4527    5.1956   10.0709 O   0  0  0  0  0  0  0  0  0  0  0  0
    2.6337    3.6109   10.5101 C   0  0  2  0  0  0  0  0  0  0  0  0
    3.5558    2.5218   10.4477 O   0  0  0  0  0  0  0  0  0  0  0  0
    1.2070    3.1702   10.0033 C   0  0  2  0  0  0  0  0  0  0  0  0
    0.2609    4.3054   10.0503 O   0  0  0  0  0  0  0  0  0  0  0  0
    0.6290    2.0168   10.8604 C   0  0  2  0  0  0  0  0  0  0  0  0
    0.0402    1.0303   10.0108 O   0  0  0  0  0  0  0  0  0  0  0  0
   -0.4334    2.5258   11.8222 C   0  0  0  0  0  0  0  0  0  0  0  0
    2.1392    6.6162    4.1409 C   0  0  2  0  0  0  0  0  0  0  0  0
    2.5462    7.5686    3.1048 N   0  0  0  0  0  0  0  0  0  0  0  0
    0.7641    7.0899    4.6873 C   0  0  0  0  0  0  0  0  0  0  0  0
    0.3036    6.0781    5.7714 C   0  0  2  0  0  0  0  0  0  0  0  0
   -1.0017    6.4854    6.3147 N   0  0  0  0  0  0  0  0  0  0  0  0
    1.3346    5.9969    6.9290 C   0  0  2  0  0  0  0  0  0  0  0  0
    2.7182    5.5641    6.3494 C   0  0  2  0  0  0  0  0  0  0  0  0
    3.6725    5.5005    7.4179 O   0  0  0  0  0  0  0  0  0  0  0  0
    3.2203    6.5873    5.3019 C   0  0  1  0  0  0  0  0  0  0  0  0
    4.4959    6.1090    4.8080 O   0  0  0  0  0  0  0  0  0  0  0  0
    5.6696    6.7789    5.3250 C   0  0  2  0  0  0  0  0  0  0  0  0
    6.3912    7.4197    4.0816 C   0  0  2  0  0  0  0  0  0  0  0  0
    5.5282    8.3537    3.4521 O   0  0  0  0  0  0  0  0  0  0  0  0
    6.8063    6.2735    3.0834 C   0  0  1  0  0  0  0  0  0  0  0  0
    7.4881    6.8385    1.8791 N   0  0  0  0  0  0  0  0  0  0  0  0
    6.4824    7.0529    0.8164 C   0  0  0  0  0  0  0  0  0  0  0  0
    7.7562    5.2879    3.8297 C   0  0  2  0  0  0  0  0  0  0  0  0
    8.9177    6.0020    4.2499 O   0  0  0  0  0  0  0  0  0  0  0  0
    8.1998    4.1372    2.9299 C   0  0  0  0  0  0  0  0  0  0  0  0
    7.0191    4.7167    5.0833 C   0  0  0  0  0  0  0  0  0  0  0  0
    6.5714    5.8069    5.9753 O   0  0  0  0  0  0  0  0  0  0  0  0
  1  3  1  0  0  0  0
  1  2  1  6  0  0  0
  3  5  1  0  0  0  0
  3  4  1  6  0  0  0
  5  6  1  1  0  0  0
  7  8  1  6  0  0  0
  7  5  1  0  0  0  0
  9 10  1  1  0  0  0
  9  7  1  0  0  0  0
 10  1  1  0  0  0  0
 11 13  1  1  0  0  0
 11  9  1  0  0  0  0
 12 11  1  0  0  0  0
 14 15  1  6  0  0  0
 16 14  1  0  0  0  0
 17 18  1  1  0  0  0
 17 16  1  0  0  0  0
 19  2  1  1  0  0  0
 19 20  1  0  0  0  0
 19 17  1  0  0  0  0
 20 21  1  1  0  0  0
 20 22  1  0  0  0  0
 22 23  1  6  0  0  0
 22 14  1  0  0  0  0
 24 23  1  6  0  0  0
 24 25  1  0  0  0  0
 25 27  1  0  0  0  0
 25 26  1  6  0  0  0
 27 28  1  6  0  0  0
 28 29  1  0  0  0  0
 30 31  1  1  0  0  0
 30 32  1  0  0  0  0
 30 27  1  0  0  0  0
 33 30  1  0  0  0  0
 34 33  1  0  0  0  0
 34 24  1  0  0  0  0
M  END
>  <CHROM.1>
-55.90542663,-136.27407559,-127.50285981,140.65668310,-118.83763235,-93.59643459
3.52002783,5.41406109,6.62810575,2.25530420,-0.22462945,2.14287283

>  <Name>
lig.pdb

>  <RI>
0

>  <Rbt.Current_Directory>
/home/itssahil/PROJECTS/Mol_Feturizer/New_Systems/rnas/4k32

>  <Rbt.Executable>
rbdock ($Id: //depot/dev/client3/rdock/2013.1/src/exe/rbdock.cxx#4 $)

>  <Rbt.Library>
libRbt.so (2013.1, Build901 2013/11/27)

>  <Rbt.Parameter_File>
/export/apps/rDock/src/rDock_2013.1_src/data/scripts/dock_solv.prm

>  <Rbt.Receptor>
prm/blind_docking_20.prm

>  <SCORE>
96.0043

>  <SCORE.INTER>
60.8103

>  <SCORE.INTER.CONST>
1

>  <SCORE.INTER.POLAR>
0

>  <SCORE.INTER.ROT>
6

>  <SCORE.INTER.SOLV>
33.0923

>  <SCORE.INTER.VDW>
21.9094

>  <SCORE.INTER.norm>
1.78854

>  <SCORE.INTRA>
13.2099

>  <SCORE.INTRA.DIHEDRAL>
6.65957

>  <SCORE.INTRA.DIHEDRAL.0>
18.0069

>  <SCORE.INTRA.POLAR>
0

>  <SCORE.INTRA.POLAR.0>
0

>  <SCORE.INTRA.REPUL>
0

>  <SCORE.INTRA.REPUL.0>
0

>  <SCORE.INTRA.SOLV>
2.91007

>  <SCORE.INTRA.SOLV.lig_0>
-70.7393

>  <SCORE.INTRA.VDW>
8.42508

>  <SCORE.INTRA.VDW.0>
-3.23471

>  <SCORE.INTRA.norm>
0.388527

>  <SCORE.RESTR>
21.9841

>  <SCORE.RESTR.CAVITY>
21.9841

>  <SCORE.RESTR.norm>
0.646591

>  <SCORE.SYSTEM>
0

>  <SCORE.SYSTEM.CONST>
0

>  <SCORE.SYSTEM.DIHEDRAL>
0

>  <SCORE.SYSTEM.SOLV>
0

>  <SCORE.SYSTEM.norm>
0

>  <SCORE.heavy>
34

>  <SCORE.norm>
2.82365

>  <RMSD>
33.617

$$$$
lig.pdb
 OpenBabel11021811503D
libRbt.so/2013.1/901 2013/11/27
 34 36  0  0  0  0  0  0  0  0999 V2000
    0.0672    4.8593    8.0407 C   0  0  2  0  0  0  0  0  0  0  0  0
    0.7623    6.0763    8.3341 O   0  0  0  0  0  0  0  0  0  0  0  0
   -0.6334    4.3460    9.3700 C   0  0  2  0  0  0  0  0  0  0  0  0
   -1.6094    5.3301    9.8934 N   0  0  0  0  0  0  0  0  0  0  0  0
    0.4468    4.0528   10.4414 C   0  0  1  0  0  0  0  0  0  0  0  0
   -0.1652    3.5823   11.6446 O   0  0  0  0  0  0  0  0  0  0  0  0
    1.4326    3.0168    9.8725 C   0  0  2  0  0  0  0  0  0  0  0  0
    2.4327    2.7341   10.8524 O   0  0  0  0  0  0  0  0  0  0  0  0
    2.0834    3.5737    8.5486 C   0  0  2  0  0  0  0  0  0  0  0  0
    1.0436    3.8840    7.5443 O   0  0  0  0  0  0  0  0  0  0  0  0
    3.0732    2.5564    7.9284 C   0  0  2  0  0  0  0  0  0  0  0  0
    2.5076    1.2449    7.9677 O   0  0  0  0  0  0  0  0  0  0  0  0
    4.3912    2.5396    8.6869 C   0  0  0  0  0  0  0  0  0  0  0  0
    2.9426    6.2496    4.6555 C   0  0  2  0  0  0  0  0  0  0  0  0
    3.6404    6.7744    3.4791 N   0  0  0  0  0  0  0  0  0  0  0  0
    1.5466    6.9296    4.7044 C   0  0  0  0  0  0  0  0  0  0  0  0
    0.7811    6.3673    5.9328 C   0  0  2  0  0  0  0  0  0  0  0  0
   -0.5534    6.9815    6.0158 N   0  0  0  0  0  0  0  0  0  0  0  0
    1.5557    6.6516    7.2477 C   0  0  2  0  0  0  0  0  0  0  0  0
    2.9708    5.9982    7.1566 C   0  0  2  0  0  0  0  0  0  0  0  0
    3.6896    6.2712    8.3671 O   0  0  0  0  0  0  0  0  0  0  0  0
    3.7710    6.5824    5.9672 C   0  0  1  0  0  0  0  0  0  0  0  0
    5.0594    5.9194    5.9465 O   0  0  0  0  0  0  0  0  0  0  0  0
    6.2195    6.7821    6.0078 C   0  0  2  0  0  0  0  0  0  0  0  0
    6.6144    7.0913    4.5158 C   0  0  2  0  0  0  0  0  0  0  0  0
    5.5432    7.7521    3.8608 O   0  0  0  0  0  0  0  0  0  0  0  0
    6.9715    5.7392    3.7899 C   0  0  1  0  0  0  0  0  0  0  0  0
    7.3440    5.9842    2.3632 N   0  0  0  0  0  0  0  0  0  0  0  0
    8.1358    7.2305    2.2825 C   0  0  0  0  0  0  0  0  0  0  0  0
    8.1553    5.0674    4.5500 C   0  0  2  0  0  0  0  0  0  0  0  0
    9.2801    5.9443    4.5112 O   0  0  0  0  0  0  0  0  0  0  0  0
    8.5590    3.7407    3.9118 C   0  0  0  0  0  0  0  0  0  0  0  0
    7.7387    4.8269    6.0365 C   0  0  0  0  0  0  0  0  0  0  0  0
    7.3369    6.0933    6.6842 O   0  0  0  0  0  0  0  0  0  0  0  0
  1  3  1  0  0  0  0
  1  2  1  1  0  0  0
  3  5  1  0  0  0  0
  3  4  1  1  0  0  0
  5  6  1  1  0  0  0
  7  8  1  1  0  0  0
  7  5  1  0  0  0  0
  9 10  1  6  0  0  0
  9  7  1  0  0  0  0
 10  1  1  0  0  0  0
 11 13  1  1  0  0  0
 11  9  1  0  0  0  0
 12 11  1  0  0  0  0
 14 15  1  6  0  0  0
 16 14  1  0  0  0  0
 17 18  1  1  0  0  0
 17 16  1  0  0  0  0
 19  2  1  1  0  0  0
 19 20  1  0  0  0  0
 19 17  1  0  0  0  0
 20 21  1  1  0  0  0
 20 22  1  0  0  0  0
 22 23  1  6  0  0  0
 22 14  1  0  0  0  0
 24 23  1  6  0  0  0
 24 25  1  0  0  0  0
 25 27  1  0  0  0  0
 25 26  1  6  0  0  0
 27 28  1  6  0  0  0
 28 29  1  0  0  0  0
 30 31  1  6  0  0  0
 30 32  1  0  0  0  0
 30 27  1  0  0  0  0
 33 30  1  0  0  0  0
 34 33  1  0  0  0  0
 34 24  1  0  0  0  0
M  END
>  <CHROM.1>
175.64794157,43.43260122,35.44167823,120.18570202,-91.63105007,38.52710180
3.65531131,5.24086832,6.70203983,2.51938240,-0.30748985,2.32090705

>  <Name>
lig.pdb

>  <RI>
0

>  <Rbt.Current_Directory>
/home/itssahil/PROJECTS/Mol_Feturizer/New_Systems/rnas/4k32

>  <Rbt.Executable>
rbdock ($Id: //depot/dev/client3/rdock/2013.1/src/exe/rbdock.cxx#4 $)

>  <Rbt.Library>
libRbt.so (2013.1, Build901 2013/11/27)

>  <Rbt.Parameter_File>
/export/apps/rDock/src/rDock_2013.1_src/data/scripts/dock_solv.prm

>  <Rbt.Receptor>
prm/blind_docking_20.prm

>  <SCORE>
67.7809

>  <SCORE.INTER>
29.0925

>  <SCORE.INTER.CONST>
1

>  <SCORE.INTER.POLAR>
0

>  <SCORE.INTER.ROT>
6

>  <SCORE.INTER.SOLV>
28.6426

>  <SCORE.INTER.VDW>
2.24747

>  <SCORE.INTER.norm>
0.855662

>  <SCORE.INTRA>
12.3432

>  <SCORE.INTRA.DIHEDRAL>
-2.98508

>  <SCORE.INTRA.DIHEDRAL.0>
18.0069

>  <SCORE.INTRA.POLAR>
0

>  <SCORE.INTRA.POLAR.0>
0

>  <SCORE.INTRA.REPUL>
0

>  <SCORE.INTRA.REPUL.0>
0

>  <SCORE.INTRA.SOLV>
2.55748

>  <SCORE.INTRA.SOLV.lig_0>
-70.7393

>  <SCORE.INTRA.VDW>
12.557

>  <SCORE.INTRA.VDW.0>
-3.23471

>  <SCORE.INTRA.norm>
0.363035

>  <SCORE.RESTR>
26.3452

>  <SCORE.RESTR.CAVITY>
26.3452

>  <SCORE.RESTR.norm>
0.774858

>  <SCORE.SYSTEM>
0

>  <SCORE.SYSTEM.CONST>
0

>  <SCORE.SYSTEM.DIHEDRAL>
0

>  <SCORE.SYSTEM.SOLV>
0

>  <SCORE.SYSTEM.norm>
0

>  <SCORE.heavy>
34

>  <SCORE.norm>
1.99355

>  <RMSD>
33.625

$$$$
lig.pdb
 OpenBabel11021811503D
libRbt.so/2013.1/901 2013/11/27
 34 36  0  0  0  0  0  0  0  0999 V2000
   -0.0473    6.5747    7.6116 C   0  0  2  0  0  0  0  0  0  0  0  0
    1.1657    7.3183    7.7721 O   0  0  0  0  0  0  0  0  0  0  0  0
    0.2474    5.3250    6.6775 C   0  0  2  0  0  0  0  0  0  0  0  0
    1.2732    4.4301    7.2623 N   0  0  0  0  0  0  0  0  0  0  0  0
    0.7115    5.8209    5.2849 C   0  0  1  0  0  0  0  0  0  0  0  0
    0.9752    4.7086    4.4266 O   0  0  0  0  0  0  0  0  0  0  0  0
   -0.3820    6.7325    4.7000 C   0  0  2  0  0  0  0  0  0  0  0  0
    0.0316    7.1942    3.4131 O   0  0  0  0  0  0  0  0  0  0  0  0
   -0.6421    7.9436    5.6757 C   0  0  2  0  0  0  0  0  0  0  0  0
   -1.0504    7.4610    7.0122 O   0  0  0  0  0  0  0  0  0  0  0  0
   -1.7496    8.8824    5.1361 C   0  0  2  0  0  0  0  0  0  0  0  0
   -2.9291    8.1272    4.8529 O   0  0  0  0  0  0  0  0  0  0  0  0
   -1.3039    9.5827    3.8618 C   0  0  0  0  0  0  0  0  0  0  0  0
    5.2877    6.4917    8.5736 C   0  0  2  0  0  0  0  0  0  0  0  0
    6.5297    5.7645    8.8474 N   0  0  0  0  0  0  0  0  0  0  0  0
    4.2365    6.0160    9.6140 C   0  0  0  0  0  0  0  0  0  0  0  0
    2.9181    6.7944    9.3552 C   0  0  2  0  0  0  0  0  0  0  0  0
    1.8921    6.3786   10.3244 N   0  0  0  0  0  0  0  0  0  0  0  0
    2.3944    6.5371    7.9167 C   0  0  2  0  0  0  0  0  0  0  0  0
    3.4850    6.9798    6.8909 C   0  0  2  0  0  0  0  0  0  0  0  0
    3.0048    6.7310    5.5627 O   0  0  0  0  0  0  0  0  0  0  0  0
    4.7934    6.1790    7.0987 C   0  0  1  0  0  0  0  0  0  0  0  0
    5.7511    6.6552    6.1210 O   0  0  0  0  0  0  0  0  0  0  0  0
    5.5397    6.2174    4.7582 C   0  0  2  0  0  0  0  0  0  0  0  0
    6.8530    5.4615    4.3325 C   0  0  2  0  0  0  0  0  0  0  0  0
    7.0628    4.3444    5.1817 O   0  0  0  0  0  0  0  0  0  0  0  0
    8.0673    6.4629    4.4070 C   0  0  1  0  0  0  0  0  0  0  0  0
    9.3411    5.7834    4.0197 N   0  0  0  0  0  0  0  0  0  0  0  0
    9.0942    4.9498    2.8235 C   0  0  0  0  0  0  0  0  0  0  0  0
    7.7805    7.6600    3.4503 C   0  0  2  0  0  0  0  0  0  0  0  0
    7.6510    7.1613    2.1199 O   0  0  0  0  0  0  0  0  0  0  0  0
    8.9113    8.6853    3.4704 C   0  0  0  0  0  0  0  0  0  0  0  0
    6.4440    8.3475    3.8768 C   0  0  0  0  0  0  0  0  0  0  0  0
    5.3269    7.3796    3.8723 O   0  0  0  0  0  0  0  0  0  0  0  0
  1  3  1  0  0  0  0
  1  2  1  6  0  0  0
  3  5  1  0  0  0  0
  3  4  1  1  0  0  0
  5  6  1  6  0  0  0
  7  8  1  6  0  0  0
  7  5  1  0  0  0  0
  9 10  1  1  0  0  0
  9  7  1  0  0  0  0
 10  1  1  0  0  0  0
 11 13  1  6  0  0  0
 11  9  1  0  0  0  0
 12 11  1  0  0  0  0
 14 15  1  1  0  0  0
 16 14  1  0  0  0  0
 17 18  1  1  0  0  0
 17 16  1  0  0  0  0
 19  2  1  6  0  0  0
 19 20  1  0  0  0  0
 19 17  1  0  0  0  0
 20 21  1  6  0  0  0
 20 22  1  0  0  0  0
 22 23  1  6  0  0  0
 22 14  1  0  0  0  0
 24 23  1  1  0  0  0
 24 25  1  0  0  0  0
 25 27  1  0  0  0  0
 25 26  1  1  0  0  0
 27 28  1  6  0  0  0
 28 29  1  0  0  0  0
 30 31  1  6  0  0  0
 30 32  1  0  0  0  0
 30 27  1  0  0  0  0
 33 30  1  0  0  0  0
 34 33  1  0  0  0  0
 34 24  1  0  0  0  0
M  END
>  <CHROM.1>
-39.06419704,53.76444802,-113.94802910,169.06840464,-121.73854284,43.61650386
3.47648195,6.68508380,5.72205279,-2.95711779,0.15040512,-1.30103185

>  <Name>
lig.pdb

>  <RI>
0

>  <Rbt.Current_Directory>
/home/itssahil/PROJECTS/Mol_Feturizer/New_Systems/rnas/4k32

>  <Rbt.Executable>
rbdock ($Id: //depot/dev/client3/rdock/2013.1/src/exe/rbdock.cxx#4 $)

>  <Rbt.Library>
libRbt.so (2013.1, Build901 2013/11/27)

>  <Rbt.Parameter_File>
/export/apps/rDock/src/rDock_2013.1_src/data/scripts/dock_solv.prm

>  <Rbt.Receptor>
prm/blind_docking_20.prm

>  <SCORE>
57.149

>  <SCORE.INTER>
13.4209

>  <SCORE.INTER.CONST>
1

>  <SCORE.INTER.POLAR>
0

>  <SCORE.INTER.ROT>
6

>  <SCORE.INTER.SOLV>
23.9344

>  <SCORE.INTER.VDW>
-6.63084

>  <SCORE.INTER.norm>
0.394733

>  <SCORE.INTRA>
13.6138

>  <SCORE.INTRA.DIHEDRAL>
-0.885648

>  <SCORE.INTRA.DIHEDRAL.0>
18.0069

>  <SCORE.INTRA.POLAR>
0

>  <SCORE.INTRA.POLAR.0>
0

>  <SCORE.INTRA.REPUL>
0

>  <SCORE.INTRA.REPUL.0>
0

>  <SCORE.INTRA.SOLV>
3.25557

>  <SCORE.INTRA.SOLV.lig_0>
-70.7393

>  <SCORE.INTRA.VDW>
12.4289

>  <SCORE.INTRA.VDW.0>
-3.23471

>  <SCORE.INTRA.norm>
0.400407

>  <SCORE.RESTR>
30.1143

>  <SCORE.RESTR.CAVITY>
30.1143

>  <SCORE.RESTR.norm>
0.885715

>  <SCORE.SYSTEM>
0

>  <SCORE.SYSTEM.CONST>
0

>  <SCORE.SYSTEM.DIHEDRAL>
0

>  <SCORE.SYSTEM.SOLV>
0

>  <SCORE.SYSTEM.norm>
0

>  <SCORE.heavy>
34

>  <SCORE.norm>
1.68085

>  <RMSD>
33.851

$$$$
lig.pdb
 OpenBabel11021811503D
libRbt.so/2013.1/901 2013/11/27
 34 36  0  0  0  0  0  0  0  0999 V2000
    0.3470    4.5243    8.8618 C   0  0  2  0  0  0  0  0  0  0  0  0
    0.3892    4.5295    7.4306 O   0  0  0  0  0  0  0  0  0  0  0  0
    1.8356    4.5903    9.4102 C   0  0  2  0  0  0  0  0  0  0  0  0
    2.5326    5.8195    8.9651 N   0  0  0  0  0  0  0  0  0  0  0  0
    2.6159    3.3392    8.9338 C   0  0  1  0  0  0  0  0  0  0  0  0
    3.9581    3.3774    9.4241 O   0  0  0  0  0  0  0  0  0  0  0  0
    1.8754    2.0831    9.4262 C   0  0  2  0  0  0  0  0  0  0  0  0
    2.5868    0.9212    8.9968 O   0  0  0  0  0  0  0  0  0  0  0  0
    0.4020    2.0804    8.8646 C   0  0  2  0  0  0  0  0  0  0  0  0
   -0.3244    3.2943    9.2945 O   0  0  0  0  0  0  0  0  0  0  0  0
   -0.3900    0.8403    9.3481 C   0  0  2  0  0  0  0  0  0  0  0  0
   -0.3742    0.7820   10.7757 O   0  0  0  0  0  0  0  0  0  0  0  0
    0.2141   -0.4445    8.8031 C   0  0  0  0  0  0  0  0  0  0  0  0
    1.9233    7.0270    4.3121 C   0  0  2  0  0  0  0  0  0  0  0  0
    2.4302    8.2007    3.5967 N   0  0  0  0  0  0  0  0  0  0  0  0
    0.5792    7.4367    4.9749 C   0  0  0  0  0  0  0  0  0  0  0  0
    0.0131    6.1970    5.7190 C   0  0  2  0  0  0  0  0  0  0  0  0
   -1.2668    6.5383    6.3595 N   0  0  0  0  0  0  0  0  0  0  0  0
    1.0072    5.6970    6.8013 C   0  0  2  0  0  0  0  0  0  0  0  0
    2.3639    5.3352    6.1185 C   0  0  2  0  0  0  0  0  0  0  0  0
    3.2851    4.8843    7.1208 O   0  0  0  0  0  0  0  0  0  0  0  0
    2.9716    6.5717    5.4127 C   0  0  1  0  0  0  0  0  0  0  0  0
    4.2150    6.1508    4.7989 O   0  0  0  0  0  0  0  0  0  0  0  0
    5.4273    6.6473    5.4132 C   0  0  2  0  0  0  0  0  0  0  0  0
    6.3263    7.1827    4.2373 C   0  0  2  0  0  0  0  0  0  0  0  0
    5.6547    8.2304    3.5557 O   0  0  0  0  0  0  0  0  0  0  0  0
    6.6528    5.9914    3.2590 C   0  0  1  0  0  0  0  0  0  0  0  0
    7.4987    6.4572    2.1181 N   0  0  0  0  0  0  0  0  0  0  0  0
    8.5569    7.3487    2.6397 C   0  0  0  0  0  0  0  0  0  0  0  0
    7.3938    4.8801    4.0630 C   0  0  2  0  0  0  0  0  0  0  0  0
    8.6078    5.4223    4.5805 O   0  0  0  0  0  0  0  0  0  0  0  0
    7.7400    3.6803    3.1850 C   0  0  0  0  0  0  0  0  0  0  0  0
    6.4884    4.4160    5.2488 C   0  0  0  0  0  0  0  0  0  0  0  0
    6.1302    5.5565    6.1180 O   0  0  0  0  0  0  0  0  0  0  0  0
  1  3  1  0  0  0  0
  1  2  1  6  0  0  0
  3  5  1  0  0  0  0
  3  4  1  6  0  0  0
  5  6  1  1  0  0  0
  7  8  1  6  0  0  0
  7  5  1  0  0  0  0
  9 10  1  1  0  0  0
  9  7  1  0  0  0  0
 10  1  1  0  0  0  0
 11 13  1  6  0  0  0
 11  9  1  0  0  0  0
 12 11  1  0  0  0  0
 14 15  1  1  0  0  0
 16 14  1  0  0  0  0
 17 18  1  1  0  0  0
 17 16  1  0  0  0  0
 19  2  1  6  0  0  0
 19 20  1  0  0  0  0
 19 17  1  0  0  0  0
 20 21  1  1  0  0  0
 20 22  1  0  0  0  0
 22 23  1  6  0  0  0
 22 14  1  0  0  0  0
 24 23  1  6  0  0  0
 24 25  1  0  0  0  0
 25 27  1  0  0  0  0
 25 26  1  6  0  0  0
 27 28  1  6  0  0  0
 28 29  1  0  0  0  0
 30 31  1  1  0  0  0
 30 32  1  0  0  0  0
 30 27  1  0  0  0  0
 33 30  1  0  0  0  0
 34 33  1  0  0  0  0
 34 24  1  0  0  0  0
M  END
>  <CHROM.1>
-60.20407419,55.87044534,-130.01900148,134.94544621,-132.73399634,43.48616204
3.25464876,4.83898972,6.43630775,2.36458264,-0.30856968,2.49917892

>  <Name>
lig.pdb

>  <RI>
0

>  <Rbt.Current_Directory>
/home/itssahil/PROJECTS/Mol_Feturizer/New_Systems/rnas/4k32

>  <Rbt.Executable>
rbdock ($Id: //depot/dev/client3/rdock/2013.1/src/exe/rbdock.cxx#4 $)

>  <Rbt.Library>
libRbt.so (2013.1, Build901 2013/11/27)

>  <Rbt.Parameter_File>
/export/apps/rDock/src/rDock_2013.1_src/data/scripts/dock_solv.prm

>  <Rbt.Receptor>
prm/blind_docking_20.prm

>  <SCORE>
133.097

>  <SCORE.INTER>
94.7666

>  <SCORE.INTER.CONST>
1

>  <SCORE.INTER.POLAR>
0

>  <SCORE.INTER.ROT>
6

>  <SCORE.INTER.SOLV>
30.0932

>  <SCORE.INTER.VDW>
45.5466

>  <SCORE.INTER.norm>
2.78725

>  <SCORE.INTRA>
16.6745

>  <SCORE.INTRA.DIHEDRAL>
1.52945

>  <SCORE.INTRA.DIHEDRAL.0>
18.0069

>  <SCORE.INTRA.POLAR>
0

>  <SCORE.INTRA.POLAR.0>
0

>  <SCORE.INTRA.REPUL>
0

>  <SCORE.INTRA.REPUL.0>
0

>  <SCORE.INTRA.SOLV>
3.24227

>  <SCORE.INTRA.SOLV.lig_0>
-70.7393

>  <SCORE.INTRA.VDW>
14.2887

>  <SCORE.INTRA.VDW.0>
-3.23471

>  <SCORE.INTRA.norm>
0.490427

>  <SCORE.RESTR>
21.6559

>  <SCORE.RESTR.CAVITY>
21.6559

>  <SCORE.RESTR.norm>
0.636937

>  <SCORE.SYSTEM>
0

>  <SCORE.SYSTEM.CONST>
0

>  <SCORE.SYSTEM.DIHEDRAL>
0

>  <SCORE.SYSTEM.SOLV>
0

>  <SCORE.SYSTEM.norm>
0

>  <SCORE.heavy>
34

>  <SCORE.norm>
3.91462

>  <RMSD>
33.929

$$$$
lig.pdb
 OpenBabel11021811503D
libRbt.so/2013.1/901 2013/11/27
 34 36  0  0  0  0  0  0  0  0999 V2000
   10.8051   13.8634   -1.2917 C   0  0  2  0  0  0  0  0  0  0  0  0
    9.8418   13.6156   -0.2618 O   0  0  0  0  0  0  0  0  0  0  0  0
   12.0109   14.6860   -0.6667 C   0  0  2  0  0  0  0  0  0  0  0  0
   12.6753   13.9426    0.4291 N   0  0  0  0  0  0  0  0  0  0  0  0
   11.4883   16.0465   -0.1405 C   0  0  1  0  0  0  0  0  0  0  0  0
   12.5622   16.8052    0.4204 O   0  0  0  0  0  0  0  0  0  0  0  0
   10.8202   16.7984   -1.3054 C   0  0  2  0  0  0  0  0  0  0  0  0
   10.3367   18.0574   -0.8346 O   0  0  0  0  0  0  0  0  0  0  0  0
    9.6443   15.9286   -1.8945 C   0  0  2  0  0  0  0  0  0  0  0  0
   10.1454   14.6185   -2.3620 O   0  0  0  0  0  0  0  0  0  0  0  0
    8.9504   16.6387   -3.0833 C   0  0  2  0  0  0  0  0  0  0  0  0
    8.5807   17.9661   -2.7055 O   0  0  0  0  0  0  0  0  0  0  0  0
    7.6989   15.8906   -3.5158 C   0  0  0  0  0  0  0  0  0  0  0  0
    9.0693    9.9268    1.7661 C   0  0  2  0  0  0  0  0  0  0  0  0
    8.5722    8.5793    2.0546 N   0  0  0  0  0  0  0  0  0  0  0  0
    7.8495   10.7839    1.3290 C   0  0  0  0  0  0  0  0  0  0  0  0
    8.3528   12.2245    1.0417 C   0  0  2  0  0  0  0  0  0  0  0  0
    7.2262   13.0758    0.6283 N   0  0  0  0  0  0  0  0  0  0  0  0
    9.4287   12.2241   -0.0772 C   0  0  2  0  0  0  0  0  0  0  0  0
   10.6228   11.3205    0.3648 C   0  0  2  0  0  0  0  0  0  0  0  0
   11.6110   11.3118   -0.6745 O   0  0  0  0  0  0  0  0  0  0  0  0
   10.1518    9.8660    0.6076 C   0  0  1  0  0  0  0  0  0  0  0  0
   11.3101    9.1006    1.0225 O   0  0  0  0  0  0  0  0  0  0  0  0
   12.3565    9.8429    1.6915 C   0  0  2  0  0  0  0  0  0  0  0  0
   13.6044    8.8855    1.7489 C   0  0  2  0  0  0  0  0  0  0  0  0
   14.0087    8.5413    0.4330 O   0  0  0  0  0  0  0  0  0  0  0  0
   13.2258    7.5997    2.5772 C   0  0  1  0  0  0  0  0  0  0  0  0
   14.3815    6.6545    2.6494 N   0  0  0  0  0  0  0  0  0  0  0  0
   13.8648    5.2702    2.7063 C   0  0  0  0  0  0  0  0  0  0  0  0
   12.7990    8.0422    4.0098 C   0  0  2  0  0  0  0  0  0  0  0  0
   13.8991    8.7058    4.6303 O   0  0  0  0  0  0  0  0  0  0  0  0
   12.4062    6.8497    4.8782 C   0  0  0  0  0  0  0  0  0  0  0  0
   11.5934    9.0303    3.9027 C   0  0  0  0  0  0  0  0  0  0  0  0
   11.9392   10.1966    3.0632 O   0  0  0  0  0  0  0  0  0  0  0  0
  1  3  1  0  0  0  0
  1  2  1  1  0  0  0
  3  5  1  0  0  0  0
  3  4  1  1  0  0  0
  5  6  1  6  0  0  0
  7  8  1  1  0  0  0
  7  5  1  0  0  0  0
  9 10  1  6  0  0  0
  9  7  1  0  0  0  0
 10  1  1  0  0  0  0
 11 13  1  1  0  0  0
 11  9  1  0  0  0  0
 12 11  1  0  0  0  0
 14 15  1  6  0  0  0
 16 14  1  0  0  0  0
 17 18  1  6  0  0  0
 17 16  1  0  0  0  0
 19  2  1  1  0  0  0
 19 20  1  0  0  0  0
 19 17  1  0  0  0  0
 20 21  1  6  0  0  0
 20 22  1  0  0  0  0
 22 23  1  1  0  0  0
 22 14  1  0  0  0  0
 24 23  1  1  0  0  0
 24 25  1  0  0  0  0
 25 27  1  0  0  0  0
 25 26  1  6  0  0  0
 27 28  1  1  0  0  0
 28 29  1  0  0  0  0
 30 31  1  1  0  0  0
 30 32  1  0  0  0  0
 30 27  1  0  0  0  0
 33 30  1  0  0  0  0
 34 33  1  0  0  0  0
 34 24  1  0  0  0  0
M  END
>  <CHROM.1>
-127.42652969,-51.63195884,-177.79054058,-88.59859097,-167.79494233,-148.38218948
11.01424184,11.87183929,0.67128186,-1.88187443,0.18569557,2.69980342

>  <Name>
lig.pdb

>  <RI>
0

>  <Rbt.Current_Directory>
/home/itssahil/PROJECTS/Mol_Feturizer/New_Systems/rnas/4k32

>  <Rbt.Executable>
rbdock ($Id: //depot/dev/client3/rdock/2013.1/src/exe/rbdock.cxx#4 $)

>  <Rbt.Library>
libRbt.so (2013.1, Build901 2013/11/27)

>  <Rbt.Parameter_File>
/export/apps/rDock/src/rDock_2013.1_src/data/scripts/dock_solv.prm

>  <Rbt.Receptor>
prm/blind_docking_40.prm

>  <SCORE>
10.5045

>  <SCORE.INTER>
-0.380027

>  <SCORE.INTER.CONST>
1

>  <SCORE.INTER.POLAR>
0

>  <SCORE.INTER.ROT>
6

>  <SCORE.INTER.SOLV>
30.0579

>  <SCORE.INTER.VDW>
-17.8727

>  <SCORE.INTER.norm>
-0.0111773

>  <SCORE.INTRA>
1.71272

>  <SCORE.INTRA.DIHEDRAL>
-6.06872

>  <SCORE.INTRA.DIHEDRAL.0>
18.0069

>  <SCORE.INTRA.POLAR>
0

>  <SCORE.INTRA.POLAR.0>
0

>  <SCORE.INTRA.REPUL>
0

>  <SCORE.INTRA.REPUL.0>
0

>  <SCORE.INTRA.SOLV>
-0.0748176

>  <SCORE.INTRA.SOLV.lig_0>
-70.7393

>  <SCORE.INTRA.VDW>
4.78449

>  <SCORE.INTRA.VDW.0>
-3.23471

>  <SCORE.INTRA.norm>
0.0503741

>  <SCORE.RESTR>
9.17186

>  <SCORE.RESTR.CAVITY>
9.17186

>  <SCORE.RESTR.norm>
0.26976

>  <SCORE.SYSTEM>
0

>  <SCORE.SYSTEM.CONST>
0

>  <SCORE.SYSTEM.DIHEDRAL>
0

>  <SCORE.SYSTEM.SOLV>
0

>  <SCORE.SYSTEM.norm>
0

>  <SCORE.heavy>
34

>  <SCORE.norm>
0.308957

>  <RMSD>
39.295

$$$$
lig.pdb
 OpenBabel11021811503D
libRbt.so/2013.1/901 2013/11/27
 34 36  0  0  0  0  0  0  0  0999 V2000
   10.6719   14.0419   -1.2370 C   0  0  2  0  0  0  0  0  0  0  0  0
    9.5788   13.8409   -0.3342 O   0  0  0  0  0  0  0  0  0  0  0  0
   11.8164   14.8350   -0.4739 C   0  0  2  0  0  0  0  0  0  0  0  0
   12.3122   14.0876    0.7053 N   0  0  0  0  0  0  0  0  0  0  0  0
   11.2779   16.2194   -0.0332 C   0  0  1  0  0  0  0  0  0  0  0  0
   12.2976   16.9518    0.6503 O   0  0  0  0  0  0  0  0  0  0  0  0
   10.7874   16.9743   -1.2815 C   0  0  2  0  0  0  0  0  0  0  0  0
   10.2912   18.2552   -0.8896 O   0  0  0  0  0  0  0  0  0  0  0  0
    9.6664   16.1336   -2.0046 C   0  0  2  0  0  0  0  0  0  0  0  0
   10.1780   14.8012   -2.3904 O   0  0  0  0  0  0  0  0  0  0  0  0
    9.1519   16.8472   -3.2794 C   0  0  2  0  0  0  0  0  0  0  0  0
   10.2412   17.0891   -4.1719 O   0  0  0  0  0  0  0  0  0  0  0  0
    8.4986   18.1776   -2.9389 C   0  0  0  0  0  0  0  0  0  0  0  0
    8.5467   10.2362    1.7292 C   0  0  2  0  0  0  0  0  0  0  0  0
    8.0079    8.9030    2.0093 N   0  0  0  0  0  0  0  0  0  0  0  0
    7.3926   11.0814    1.1231 C   0  0  0  0  0  0  0  0  0  0  0  0
    7.9382   12.5076    0.8415 C   0  0  2  0  0  0  0  0  0  0  0  0
    6.8739   13.3475    0.2700 N   0  0  0  0  0  0  0  0  0  0  0  0
    9.1350   12.4594   -0.1459 C   0  0  2  0  0  0  0  0  0  0  0  0
   10.2626   11.5680    0.4636 C   0  0  2  0  0  0  0  0  0  0  0  0
   11.3630   11.5148   -0.4545 O   0  0  0  0  0  0  0  0  0  0  0  0
    9.7540   10.1261    0.7054 C   0  0  1  0  0  0  0  0  0  0  0  0
   10.8504    9.3718    1.2789 O   0  0  0  0  0  0  0  0  0  0  0  0
   11.7301   10.1028    2.1650 C   0  0  2  0  0  0  0  0  0  0  0  0
   13.1834    9.5727    1.8744 C   0  0  2  0  0  0  0  0  0  0  0  0
   13.5268    9.8251    0.5210 O   0  0  0  0  0  0  0  0  0  0  0  0
   13.2390    8.0304    2.1924 C   0  0  1  0  0  0  0  0  0  0  0  0
   14.6020    7.4805    1.9203 N   0  0  0  0  0  0  0  0  0  0  0  0
   14.5099    6.4947    0.8219 C   0  0  0  0  0  0  0  0  0  0  0  0
   12.8603    7.8203    3.6900 C   0  0  2  0  0  0  0  0  0  0  0  0
   13.8073    8.5121    4.5026 O   0  0  0  0  0  0  0  0  0  0  0  0
   12.8822    6.3442    4.0787 C   0  0  0  0  0  0  0  0  0  0  0  0
   11.4348    8.4067    3.9449 C   0  0  0  0  0  0  0  0  0  0  0  0
   11.3774    9.8363    3.5740 O   0  0  0  0  0  0  0  0  0  0  0  0
  1  3  1  0  0  0  0
  1  2  1  1  0  0  0
  3  5  1  0  0  0  0
  3  4  1  1  0  0  0
  5  6  1  6  0  0  0
  7  8  1  1  0  0  0
  7  5  1  0  0  0  0
  9 10  1  6  0  0  0
  9  7  1  0  0  0  0
 10  1  1  0  0  0  0
 11 13  1  1  0  0  0
 11  9  1  0  0  0  0
 12 11  1  0  0  0  0
 14 15  1  6  0  0  0
 16 14  1  0  0  0  0
 17 18  1  6  0  0  0
 17 16  1  0  0  0  0
 19  2  1  1  0  0  0
 19 20  1  0  0  0  0
 19 17  1  0  0  0  0
 20 21  1  6  0  0  0
 20 22  1  0  0  0  0
 22 23  1  1  0  0  0
 22 14  1  0  0  0  0
 24 23  1  6  0  0  0
 24 25  1  0  0  0  0
 25 27  1  0  0  0  0
 25 26  1  6  0  0  0
 27 28  1  1  0  0  0
 28 29  1  0  0  0  0
 30 31  1  1  0  0  0
 30 32  1  0  0  0  0
 30 27  1  0  0  0  0
 33 30  1  0  0  0  0
 34 33  1  0  0  0  0
 34 24  1  0  0  0  0
M  END
>  <CHROM.1>
-125.00219133,57.46515222,-178.89881013,-81.48555970,-141.85860162,-115.83222039
10.91226632,12.13386638,0.55831467,-1.84553805,0.02721634,2.65756196

>  <Name>
lig.pdb

>  <RI>
0

>  <Rbt.Current_Directory>
/home/itssahil/PROJECTS/Mol_Feturizer/New_Systems/rnas/4k32

>  <Rbt.Executable>
rbdock ($Id: //depot/dev/client3/rdock/2013.1/src/exe/rbdock.cxx#4 $)

>  <Rbt.Library>
libRbt.so (2013.1, Build901 2013/11/27)

>  <Rbt.Parameter_File>
/export/apps/rDock/src/rDock_2013.1_src/data/scripts/dock_solv.prm

>  <Rbt.Receptor>
prm/blind_docking_40.prm

>  <SCORE>
12.4567

>  <SCORE.INTER>
2.35089

>  <SCORE.INTER.CONST>
1

>  <SCORE.INTER.POLAR>
0

>  <SCORE.INTER.ROT>
6

>  <SCORE.INTER.SOLV>
33.1617

>  <SCORE.INTER.VDW>
-17.0866

>  <SCORE.INTER.norm>
0.0691439

>  <SCORE.INTRA>
2.64222

>  <SCORE.INTRA.DIHEDRAL>
-2.55014

>  <SCORE.INTRA.DIHEDRAL.0>
18.0069

>  <SCORE.INTRA.POLAR>
0

>  <SCORE.INTRA.POLAR.0>
0

>  <SCORE.INTRA.REPUL>
0

>  <SCORE.INTRA.REPUL.0>
0

>  <SCORE.INTRA.SOLV>
0.182784

>  <SCORE.INTRA.SOLV.lig_0>
-70.7393

>  <SCORE.INTRA.VDW>
3.8259

>  <SCORE.INTRA.VDW.0>
-3.23471

>  <SCORE.INTRA.norm>
0.0777123

>  <SCORE.RESTR>
7.46354

>  <SCORE.RESTR.CAVITY>
7.46354

>  <SCORE.RESTR.norm>
0.219516

>  <SCORE.SYSTEM>
0

>  <SCORE.SYSTEM.CONST>
0

>  <SCORE.SYSTEM.DIHEDRAL>
0

>  <SCORE.SYSTEM.SOLV>
0

>  <SCORE.SYSTEM.norm>
0

>  <SCORE.heavy>
34

>  <SCORE.norm>
0.366372

>  <RMSD>
39.320

$$$$
lig.pdb
 OpenBabel11021811503D
libRbt.so/2013.1/901 2013/11/27
 34 36  0  0  0  0  0  0  0  0999 V2000
   11.3954   13.3631   -1.0545 C   0  0  2  0  0  0  0  0  0  0  0  0
   10.5943   13.1472    0.1124 O   0  0  0  0  0  0  0  0  0  0  0  0
   12.5839   14.3454   -0.6751 C   0  0  2  0  0  0  0  0  0  0  0  0
   13.4463   13.7812    0.3892 N   0  0  0  0  0  0  0  0  0  0  0  0
   12.0012   15.7059   -0.2165 C   0  0  1  0  0  0  0  0  0  0  0  0
   13.0577   16.6070    0.1230 O   0  0  0  0  0  0  0  0  0  0  0  0
   11.1258   16.2708   -1.3493 C   0  0  2  0  0  0  0  0  0  0  0  0
   10.5847   17.5281   -0.9408 O   0  0  0  0  0  0  0  0  0  0  0  0
    9.9758   15.2481   -1.6926 C   0  0  2  0  0  0  0  0  0  0  0  0
   10.5396   13.9420   -2.0954 O   0  0  0  0  0  0  0  0  0  0  0  0
    9.0760   15.7669   -2.8417 C   0  0  2  0  0  0  0  0  0  0  0  0
    8.6769   17.1125   -2.5743 O   0  0  0  0  0  0  0  0  0  0  0  0
    7.8279   14.9110   -2.9917 C   0  0  0  0  0  0  0  0  0  0  0  0
    9.0511    9.6988    2.1234 C   0  0  2  0  0  0  0  0  0  0  0  0
    8.3896    8.4147    2.3674 N   0  0  0  0  0  0  0  0  0  0  0  0
    8.0489   10.5919    1.3411 C   0  0  0  0  0  0  0  0  0  0  0  0
    8.7238   11.9682    1.0937 C   0  0  2  0  0  0  0  0  0  0  0  0
    7.8055   12.8516    0.3580 N   0  0  0  0  0  0  0  0  0  0  0  0
   10.0356   11.8053    0.2799 C   0  0  2  0  0  0  0  0  0  0  0  0
   11.0079   10.8680    1.0634 C   0  0  2  0  0  0  0  0  0  0  0  0
   12.2148   10.7089    0.3053 O   0  0  0  0  0  0  0  0  0  0  0  0
   10.3738    9.4720    1.2768 C   0  0  1  0  0  0  0  0  0  0  0  0
   11.3295    8.6721    2.0162 O   0  0  0  0  0  0  0  0  0  0  0  0
   12.6222    8.4883    1.3927 C   0  0  2  0  0  0  0  0  0  0  0  0
   12.8288    6.9333    1.2636 C   0  0  2  0  0  0  0  0  0  0  0  0
   11.8067    6.3771    0.4517 O   0  0  0  0  0  0  0  0  0  0  0  0
   12.8161    6.2937    2.7036 C   0  0  1  0  0  0  0  0  0  0  0  0
   12.9994    4.8121    2.6287 N   0  0  0  0  0  0  0  0  0  0  0  0
   12.1184    4.1698    3.6277 C   0  0  0  0  0  0  0  0  0  0  0  0
   13.9619    6.9385    3.5413 C   0  0  2  0  0  0  0  0  0  0  0  0
   15.2074    6.6597    2.9035 O   0  0  0  0  0  0  0  0  0  0  0  0
   14.0128    6.3764    4.9597 C   0  0  0  0  0  0  0  0  0  0  0  0
   13.7460    8.4848    3.5993 C   0  0  0  0  0  0  0  0  0  0  0  0
   13.6874    9.0616    2.2397 O   0  0  0  0  0  0  0  0  0  0  0  0
  1  3  1  0  0  0  0
  1  2  1  1  0  0  0
  3  5  1  0  0  0  0
  3  4  1  1  0  0  0
  5  6  1  6  0  0  0
  7  8  1  1  0  0  0
  7  5  1  0  0  0  0
  9 10  1  6  0  0  0
  9  7  1  0  0  0  0
 10  1  1  0  0  0  0
 11 13  1  1  0  0  0
 11  9  1  0  0  0  0
 12 11  1  0  0  0  0
 14 15  1  6  0  0  0
 16 14  1  0  0  0  0
 17 18  1  6  0  0  0
 17 16  1  0  0  0  0
 19  2  1  1  0  0  0
 19 20  1  0  0  0  0
 19 17  1  0  0  0  0
 20 21  1  6  0  0  0
 20 22  1  0  0  0  0
 22 23  1  1  0  0  0
 22 14  1  0  0  0  0
 24 23  1  1  0  0  0
 24 25  1  0  0  0  0
 25 27  1  0  0  0  0
 25 26  1  6  0  0  0
 27 28  1  6  0  0  0
 28 29  1  0  0  0  0
 30 31  1  6  0  0  0
 30 32  1  0  0  0  0
 30 27  1  0  0  0  0
 33 30  1  0  0  0  0
 34 33  1  0  0  0  0
 34 24  1  0  0  0  0
M  END
>  <CHROM.1>
-143.71665732,-49.11763666,-151.89642009,-175.09078089,-122.83474769,-140.60571711
11.30257453,11.11388952,0.74650726,-1.84287152,0.22061553,2.76177103

>  <Name>
lig.pdb

>  <RI>
0

>  <Rbt.Current_Directory>
/home/itssahil/PROJECTS/Mol_Feturizer/New_Systems/rnas/4k32

>  <Rbt.Executable>
rbdock ($Id: //depot/dev/client3/rdock/2013.1/src/exe/rbdock.cxx#4 $)

>  <Rbt.Library>
libRbt.so (2013.1, Build901 2013/11/27)

>  <Rbt.Parameter_File>
/export/apps/rDock/src/rDock_2013.1_src/data/scripts/dock_solv.prm

>  <Rbt.Receptor>
prm/blind_docking_40.prm

>  <SCORE>
15.3956

>  <SCORE.INTER>
1.2269

>  <SCORE.INTER.CONST>
1

>  <SCORE.INTER.POLAR>
0

>  <SCORE.INTER.ROT>
6

>  <SCORE.INTER.SOLV>
25.3009

>  <SCORE.INTER.VDW>
-15.2157

>  <SCORE.INTER.norm>
0.0360852

>  <SCORE.INTRA>
2.11597

>  <SCORE.INTRA.DIHEDRAL>
-1.34564

>  <SCORE.INTRA.DIHEDRAL.0>
18.0069

>  <SCORE.INTRA.POLAR>
0

>  <SCORE.INTRA.POLAR.0>
0

>  <SCORE.INTRA.REPUL>
0

>  <SCORE.INTRA.REPUL.0>
0

>  <SCORE.INTRA.SOLV>
-0.762107

>  <SCORE.INTRA.SOLV.lig_0>
-70.7393

>  <SCORE.INTRA.VDW>
3.16984

>  <SCORE.INTRA.VDW.0>
-3.23471

>  <SCORE.INTRA.norm>
0.0622345

>  <SCORE.RESTR>
12.0527

>  <SCORE.RESTR.CAVITY>
12.0527

>  <SCORE.RESTR.norm>
0.354492

>  <SCORE.SYSTEM>
0

>  <SCORE.SYSTEM.CONST>
0

>  <SCORE.SYSTEM.DIHEDRAL>
0

>  <SCORE.SYSTEM.SOLV>
0

>  <SCORE.SYSTEM.norm>
0

>  <SCORE.heavy>
34

>  <SCORE.norm>
0.452812

>  <RMSD>
39.393

$$$$
lig.pdb
 OpenBabel11021811503D
libRbt.so/2013.1/901 2013/11/27
 34 36  0  0  0  0  0  0  0  0999 V2000
   10.0824   14.8560   -1.1609 C   0  0  2  0  0  0  0  0  0  0  0  0
   10.0485   14.1457    0.0819 O   0  0  0  0  0  0  0  0  0  0  0  0
   10.1918   13.8003   -2.3419 C   0  0  2  0  0  0  0  0  0  0  0  0
    9.0356   12.8741   -2.3614 N   0  0  0  0  0  0  0  0  0  0  0  0
   11.5089   12.9976   -2.1949 C   0  0  1  0  0  0  0  0  0  0  0  0
   11.6285   12.0456   -3.2546 O   0  0  0  0  0  0  0  0  0  0  0  0
   12.6881   13.9866   -2.1950 C   0  0  2  0  0  0  0  0  0  0  0  0
   13.9101   13.2588   -2.0637 O   0  0  0  0  0  0  0  0  0  0  0  0
   12.5172   15.0172   -1.0139 C   0  0  2  0  0  0  0  0  0  0  0  0
   11.2418   15.7540   -1.1422 O   0  0  0  0  0  0  0  0  0  0  0  0
   13.6747   16.0460   -0.9833 C   0  0  2  0  0  0  0  0  0  0  0  0
   13.4484   16.9987    0.0573 O   0  0  0  0  0  0  0  0  0  0  0  0
   13.7851   16.7887   -2.3058 C   0  0  0  0  0  0  0  0  0  0  0  0
    8.5616   10.4001    1.5225 C   0  0  2  0  0  0  0  0  0  0  0  0
    7.9403    9.0738    1.5558 N   0  0  0  0  0  0  0  0  0  0  0  0
    7.5568   11.3621    0.8305 C   0  0  0  0  0  0  0  0  0  0  0  0
    8.1880   12.7805    0.8073 C   0  0  2  0  0  0  0  0  0  0  0  0
    7.2656   13.7290    0.1636 N   0  0  0  0  0  0  0  0  0  0  0  0
    9.5351   12.7764    0.0359 C   0  0  2  0  0  0  0  0  0  0  0  0
   10.5116   11.7695    0.7216 C   0  0  2  0  0  0  0  0  0  0  0  0
   11.7517   11.7580    0.0014 O   0  0  0  0  0  0  0  0  0  0  0  0
    9.9232   10.3378    0.7102 C   0  0  1  0  0  0  0  0  0  0  0  0
   10.8796    9.4725    1.3709 O   0  0  0  0  0  0  0  0  0  0  0  0
   11.7558   10.1089    2.3306 C   0  0  2  0  0  0  0  0  0  0  0  0
   13.2110    9.6161    1.9887 C   0  0  2  0  0  0  0  0  0  0  0  0
   13.5559   10.0100    0.6700 O   0  0  0  0  0  0  0  0  0  0  0  0
   13.2706    8.0491    2.1432 C   0  0  1  0  0  0  0  0  0  0  0  0
   14.6357    7.5345    1.8176 N   0  0  0  0  0  0  0  0  0  0  0  0
   14.5027    6.3043    1.0080 C   0  0  0  0  0  0  0  0  0  0  0  0
   12.8901    7.6820    3.6099 C   0  0  2  0  0  0  0  0  0  0  0  0
   13.8337    8.2873    4.4924 O   0  0  0  0  0  0  0  0  0  0  0  0
   12.9156    6.1733    3.8416 C   0  0  0  0  0  0  0  0  0  0  0  0
   11.4624    8.2346    3.9221 C   0  0  0  0  0  0  0  0  0  0  0  0
   11.4015    9.6951    3.7031 O   0  0  0  0  0  0  0  0  0  0  0  0
  1  3  1  0  0  0  0
  1  2  1  1  0  0  0
  3  5  1  0  0  0  0
  3  4  1  1  0  0  0
  5  6  1  6  0  0  0
  7  8  1  1  0  0  0
  7  5  1  0  0  0  0
  9 10  1  6  0  0  0
  9  7  1  0  0  0  0
 10  1  1  0  0  0  0
 11 13  1  6  0  0  0
 11  9  1  0  0  0  0
 12 11  1  0  0  0  0
 14 15  1  6  0  0  0
 16 14  1  0  0  0  0
 17 18  1  6  0  0  0
 17 16  1  0  0  0  0
 19  2  1  1  0  0  0
 19 20  1  0  0  0  0
 19 17  1  0  0  0  0
 20 21  1  6  0  0  0
 20 22  1  0  0  0  0
 22 23  1  1  0  0  0
 22 14  1  0  0  0  0
 24 23  1  6  0  0  0
 24 25  1  0  0  0  0
 25 27  1  0  0  0  0
 25 26  1  6  0  0  0
 27 28  1  1  0  0  0
 28 29  1  0  0  0  0
 30 31  1  1  0  0  0
 30 32  1  0  0  0  0
 30 27  1  0  0  0  0
 33 30  1  0  0  0  0
 34 33  1  0  0  0  0
 34 24  1  0  0  0  0
M  END
>  <CHROM.1>
-26.05727599,177.16698294,-112.12126757,-90.42499372,-131.87465208,-137.80374360
11.49799205,11.58632345,0.48032012,1.70797726,0.06433353,-0.55968566

>  <Name>
lig.pdb

>  <RI>
0

>  <Rbt.Current_Directory>
/home/itssahil/PROJECTS/Mol_Feturizer/New_Systems/rnas/4k32

>  <Rbt.Executable>
rbdock ($Id: //depot/dev/client3/rdock/2013.1/src/exe/rbdock.cxx#4 $)

>  <Rbt.Library>
libRbt.so (2013.1, Build901 2013/11/27)

>  <Rbt.Parameter_File>
/export/apps/rDock/src/rDock_2013.1_src/data/scripts/dock_solv.prm

>  <Rbt.Receptor>
prm/blind_docking_40.prm

>  <SCORE>
24.6308

>  <SCORE.INTER>
2.66516

>  <SCORE.INTER.CONST>
1

>  <SCORE.INTER.POLAR>
0

>  <SCORE.INTER.ROT>
6

>  <SCORE.INTER.SOLV>
23.3579

>  <SCORE.INTER.VDW>
-13.6092

>  <SCORE.INTER.norm>
0.0783871

>  <SCORE.INTRA>
14.7112

>  <SCORE.INTRA.DIHEDRAL>
4.4211

>  <SCORE.INTRA.DIHEDRAL.0>
18.0069

>  <SCORE.INTRA.POLAR>
0

>  <SCORE.INTRA.POLAR.0>
0

>  <SCORE.INTRA.REPUL>
0

>  <SCORE.INTRA.REPUL.0>
0

>  <SCORE.INTRA.SOLV>
3.9545

>  <SCORE.INTRA.SOLV.lig_0>
-70.7393

>  <SCORE.INTRA.VDW>
10.5234

>  <SCORE.INTRA.VDW.0>
-3.23471

>  <SCORE.INTRA.norm>
0.432683

>  <SCORE.RESTR>
7.25445

>  <SCORE.RESTR.CAVITY>
7.25445

>  <SCORE.RESTR.norm>
0.213366

>  <SCORE.SYSTEM>
0

>  <SCORE.SYSTEM.CONST>
0

>  <SCORE.SYSTEM.DIHEDRAL>
0

>  <SCORE.SYSTEM.SOLV>
0

>  <SCORE.SYSTEM.norm>
0

>  <SCORE.heavy>
34

>  <SCORE.norm>
0.724436

>  <RMSD>
39.646

$$$$
lig.pdb
 OpenBabel11021811503D
libRbt.so/2013.1/901 2013/11/27
 34 36  0  0  0  0  0  0  0  0999 V2000
    9.8007   14.8174   -0.6093 C   0  0  2  0  0  0  0  0  0  0  0  0
    9.2789   13.8356   -1.5117 O   0  0  0  0  0  0  0  0  0  0  0  0
   10.2609   16.0822   -1.4518 C   0  0  2  0  0  0  0  0  0  0  0  0
    9.1337   16.6846   -2.2012 N   0  0  0  0  0  0  0  0  0  0  0  0
   11.3850   15.6658   -2.4336 C   0  0  1  0  0  0  0  0  0  0  0  0
   11.8177   16.7943   -3.1970 O   0  0  0  0  0  0  0  0  0  0  0  0
   12.5445   15.0605   -1.6226 C   0  0  2  0  0  0  0  0  0  0  0  0
   13.5903   14.6754   -2.5161 O   0  0  0  0  0  0  0  0  0  0  0  0
   12.0254   13.8218   -0.7965 C   0  0  2  0  0  0  0  0  0  0  0  0
   10.9294   14.2205    0.1122 O   0  0  0  0  0  0  0  0  0  0  0  0
   13.1562   13.1875    0.0509 C   0  0  2  0  0  0  0  0  0  0  0  0
   14.1307   14.1798    0.3782 O   0  0  0  0  0  0  0  0  0  0  0  0
   13.8445   12.0619   -0.7054 C   0  0  0  0  0  0  0  0  0  0  0  0
    8.7925   10.7850    1.4503 C   0  0  2  0  0  0  0  0  0  0  0  0
    8.2990    9.5967    2.1507 N   0  0  0  0  0  0  0  0  0  0  0  0
    7.5568   11.6586    1.0985 C   0  0  0  0  0  0  0  0  0  0  0  0
    8.0622   12.9367    0.3759 C   0  0  2  0  0  0  0  0  0  0  0  0
    6.9222   13.7993    0.0276 N   0  0  0  0  0  0  0  0  0  0  0  0
    8.8397   12.5728   -0.9174 C   0  0  2  0  0  0  0  0  0  0  0  0
   10.0488   11.6580   -0.5445 C   0  0  2  0  0  0  0  0  0  0  0  0
   10.7596   11.3131   -1.7413 O   0  0  0  0  0  0  0  0  0  0  0  0
    9.5633   10.3532    0.1324 C   0  0  1  0  0  0  0  0  0  0  0  0
   10.7395    9.5706    0.4548 O   0  0  0  0  0  0  0  0  0  0  0  0
   11.7706   10.2526    1.2067 C   0  0  2  0  0  0  0  0  0  0  0  0
   13.0869    9.4136    1.0050 C   0  0  2  0  0  0  0  0  0  0  0  0
   13.4266    9.3734   -0.3721 O   0  0  0  0  0  0  0  0  0  0  0  0
   12.8607    7.9614    1.5729 C   0  0  1  0  0  0  0  0  0  0  0  0
   14.0855    7.1235    1.3930 N   0  0  0  0  0  0  0  0  0  0  0  0
   14.0429    6.4949    0.0552 C   0  0  0  0  0  0  0  0  0  0  0  0
   12.4993    8.0726    3.0854 C   0  0  2  0  0  0  0  0  0  0  0  0
   13.5864    8.6919    3.7711 O   0  0  0  0  0  0  0  0  0  0  0  0
   12.2549    6.7023    3.7122 C   0  0  0  0  0  0  0  0  0  0  0  0
   11.2195    8.9550    3.2425 C   0  0  0  0  0  0  0  0  0  0  0  0
   11.4210   10.2900    2.6410 O   0  0  0  0  0  0  0  0  0  0  0  0
  1  3  1  0  0  0  0
  1  2  1  6  0  0  0
  3  5  1  0  0  0  0
  3  4  1  6  0  0  0
  5  6  1  1  0  0  0
  7  8  1  6  0  0  0
  7  5  1  0  0  0  0
  9 10  1  1  0  0  0
  9  7  1  0  0  0  0
 10  1  1  0  0  0  0
 11 13  1  6  0  0  0
 11  9  1  0  0  0  0
 12 11  1  0  0  0  0
 14 15  1  6  0  0  0
 16 14  1  0  0  0  0
 17 18  1  6  0  0  0
 17 16  1  0  0  0  0
 19  2  1  1  0  0  0
 19 20  1  0  0  0  0
 19 17  1  0  0  0  0
 20 21  1  6  0  0  0
 20 22  1  0  0  0  0
 22 23  1  1  0  0  0
 22 14  1  0  0  0  0
 24 23  1  6  0  0  0
 24 25  1  0  0  0  0
 25 27  1  0  0  0  0
 25 26  1  6  0  0  0
 27 28  1  1  0  0  0
 28 29  1  0  0  0  0
 30 31  1  1  0  0  0
 30 32  1  0  0  0  0
 30 27  1  0  0  0  0
 33 30  1  0  0  0  0
 34 33  1  0  0  0  0
 34 24  1  0  0  0  0
M  END
>  <CHROM.1>
178.14700553,27.66146156,42.67189658,-63.81228357,-161.03089078,-87.06823420
11.27658085,11.72141281,0.20244374,1.81099815,0.18394878,-0.53119638

>  <Name>
lig.pdb

>  <RI>
0

>  <Rbt.Current_Directory>
/home/itssahil/PROJECTS/Mol_Feturizer/New_Systems/rnas/4k32

>  <Rbt.Executable>
rbdock ($Id: //depot/dev/client3/rdock/2013.1/src/exe/rbdock.cxx#4 $)

>  <Rbt.Library>
libRbt.so (2013.1, Build901 2013/11/27)

>  <Rbt.Parameter_File>
/export/apps/rDock/src/rDock_2013.1_src/data/scripts/dock_solv.prm

>  <Rbt.Receptor>
prm/blind_docking_40.prm

>  <SCORE>
11.8792

>  <SCORE.INTER>
6.61602

>  <SCORE.INTER.CONST>
1

>  <SCORE.INTER.POLAR>
0

>  <SCORE.INTER.ROT>
6

>  <SCORE.INTER.SOLV>
26.475

>  <SCORE.INTER.VDW>
-12.0143

>  <SCORE.INTER.norm>
0.194589

>  <SCORE.INTRA>
-1.48367

>  <SCORE.INTRA.DIHEDRAL>
-11.3356

>  <SCORE.INTRA.DIHEDRAL.0>
18.0069

>  <SCORE.INTRA.POLAR>
0

>  <SCORE.INTRA.POLAR.0>
0

>  <SCORE.INTRA.REPUL>
0

>  <SCORE.INTRA.REPUL.0>
0

>  <SCORE.INTRA.SOLV>
1.3076

>  <SCORE.INTRA.SOLV.lig_0>
-70.7393

>  <SCORE.INTRA.VDW>
3.53032

>  <SCORE.INTRA.VDW.0>
-3.23471

>  <SCORE.INTRA.norm>
-0.0436374

>  <SCORE.RESTR>
6.74682

>  <SCORE.RESTR.CAVITY>
6.74682

>  <SCORE.RESTR.norm>
0.198436

>  <SCORE.SYSTEM>
0

>  <SCORE.SYSTEM.CONST>
0

>  <SCORE.SYSTEM.DIHEDRAL>
0

>  <SCORE.SYSTEM.SOLV>
0

>  <SCORE.SYSTEM.norm>
0

>  <SCORE.heavy>
34

>  <SCORE.norm>
0.349388

>  <RMSD>
39.823

$$$$
lig.pdb
 OpenBabel11021811503D
libRbt.so/2013.1/901 2013/11/27
 34 36  0  0  0  0  0  0  0  0999 V2000
    9.6611   15.2537   -0.8756 C   0  0  2  0  0  0  0  0  0  0  0  0
    9.4977   14.2297   -1.8630 O   0  0  0  0  0  0  0  0  0  0  0  0
    9.7851   16.6528   -1.6162 C   0  0  2  0  0  0  0  0  0  0  0  0
    8.5775   16.9608   -2.4173 N   0  0  0  0  0  0  0  0  0  0  0  0
   11.0363   16.6427   -2.5301 C   0  0  1  0  0  0  0  0  0  0  0  0
   11.1688   17.8981   -3.2008 O   0  0  0  0  0  0  0  0  0  0  0  0
   12.2722   16.3368   -1.6653 C   0  0  2  0  0  0  0  0  0  0  0  0
   13.4345   16.3282   -2.4955 O   0  0  0  0  0  0  0  0  0  0  0  0
   12.0853   14.9470   -0.9442 C   0  0  2  0  0  0  0  0  0  0  0  0
   10.8702   14.9533   -0.1019 O   0  0  0  0  0  0  0  0  0  0  0  0
   13.2999   14.6027   -0.0468 C   0  0  2  0  0  0  0  0  0  0  0  0
   14.4469   15.3350   -0.4825 O   0  0  0  0  0  0  0  0  0  0  0  0
   13.6218   13.1175   -0.1036 C   0  0  0  0  0  0  0  0  0  0  0  0
    8.9925   11.0243    0.9275 C   0  0  2  0  0  0  0  0  0  0  0  0
    8.5649    9.7547    1.5202 N   0  0  0  0  0  0  0  0  0  0  0  0
    7.7165   11.7438    0.4098 C   0  0  0  0  0  0  0  0  0  0  0  0
    8.1469   13.1048   -0.2013 C   0  0  2  0  0  0  0  0  0  0  0  0
    6.9656   13.8257   -0.7011 N   0  0  0  0  0  0  0  0  0  0  0  0
    9.1490   12.8975   -1.3685 C   0  0  2  0  0  0  0  0  0  0  0  0
   10.4014   12.1329   -0.8348 C   0  0  2  0  0  0  0  0  0  0  0  0
   11.3213   11.9319   -1.9164 O   0  0  0  0  0  0  0  0  0  0  0  0
   10.0008   10.7498   -0.2665 C   0  0  1  0  0  0  0  0  0  0  0  0
   11.2106   10.1140    0.2149 O   0  0  0  0  0  0  0  0  0  0  0  0
   11.8198   10.7095    1.3845 C   0  0  2  0  0  0  0  0  0  0  0  0
   13.2561   10.0764    1.5004 C   0  0  2  0  0  0  0  0  0  0  0  0
   14.0132   10.3836    0.3403 O   0  0  0  0  0  0  0  0  0  0  0  0
   13.1155    8.5180    1.6859 C   0  0  1  0  0  0  0  0  0  0  0  0
   14.4593    7.8718    1.7906 N   0  0  0  0  0  0  0  0  0  0  0  0
   14.4259    6.5793    1.0729 C   0  0  0  0  0  0  0  0  0  0  0  0
   12.2832    8.2467    2.9760 C   0  0  2  0  0  0  0  0  0  0  0  0
   12.9763    8.8021    4.0926 O   0  0  0  0  0  0  0  0  0  0  0  0
   12.0930    6.7525    3.2243 C   0  0  0  0  0  0  0  0  0  0  0  0
   10.8876    8.9357    2.8394 C   0  0  0  0  0  0  0  0  0  0  0  0
   11.0359   10.3855    2.5934 O   0  0  0  0  0  0  0  0  0  0  0  0
  1  3  1  0  0  0  0
  1  2  1  6  0  0  0
  3  5  1  0  0  0  0
  3  4  1  6  0  0  0
  5  6  1  1  0  0  0
  7  8  1  6  0  0  0
  7  5  1  0  0  0  0
  9 10  1  1  0  0  0
  9  7  1  0  0  0  0
 10  1  1  0  0  0  0
 11 13  1  6  0  0  0
 11  9  1  0  0  0  0
 12 11  1  0  0  0  0
 14 15  1  6  0  0  0
 16 14  1  0  0  0  0
 17 18  1  6  0  0  0
 17 16  1  0  0  0  0
 19  2  1  1  0  0  0
 19 20  1  0  0  0  0
 19 17  1  0  0  0  0
 20 21  1  6  0  0  0
 20 22  1  0  0  0  0
 22 23  1  1  0  0  0
 22 14  1  0  0  0  0
 24 23  1  6  0  0  0
 24 25  1  0  0  0  0
 25 27  1  0  0  0  0
 25 26  1  6  0  0  0
 27 28  1  1  0  0  0
 28 29  1  0  0  0  0
 30 31  1  1  0  0  0
 30 32  1  0  0  0  0
 30 27  1  0  0  0  0
 33 30  1  0  0  0  0
 34 33  1  0  0  0  0
 34 24  1  0  0  0  0
M  END
>  <CHROM.1>
-170.37869521,-22.02678266,38.87475017,-47.35425878,-166.98077013,-141.72584901
11.30181330,12.28967345,0.08027818,1.78228963,-0.01250934,-0.48925493

>  <Name>
lig.pdb

>  <RI>
0

>  <Rbt.Current_Directory>
/home/itssahil/PROJECTS/Mol_Feturizer/New_Systems/rnas/4k32

>  <Rbt.Executable>
rbdock ($Id: //depot/dev/client3/rdock/2013.1/src/exe/rbdock.cxx#4 $)

>  <Rbt.Library>
libRbt.so (2013.1, Build901 2013/11/27)

>  <Rbt.Parameter_File>
/export/apps/rDock/src/rDock_2013.1_src/data/scripts/dock_solv.prm

>  <Rbt.Receptor>
prm/blind_docking_40.prm

>  <SCORE>
17.1791

>  <SCORE.INTER>
9.69067

>  <SCORE.INTER.CONST>
1

>  <SCORE.INTER.POLAR>
0

>  <SCORE.INTER.ROT>
6

>  <SCORE.INTER.SOLV>
26.2342

>  <SCORE.INTER.VDW>
-9.88429

>  <SCORE.INTER.norm>
0.28502

>  <SCORE.INTRA>
1.70477

>  <SCORE.INTRA.DIHEDRAL>
-9.29448

>  <SCORE.INTRA.DIHEDRAL.0>
18.0069

>  <SCORE.INTRA.POLAR>
0

>  <SCORE.INTRA.POLAR.0>
0

>  <SCORE.INTRA.REPUL>
0

>  <SCORE.INTRA.REPUL.0>
0

>  <SCORE.INTRA.SOLV>
2.12029

>  <SCORE.INTRA.SOLV.lig_0>
-70.7393

>  <SCORE.INTRA.VDW>
5.29186

>  <SCORE.INTRA.VDW.0>
-3.23471

>  <SCORE.INTRA.norm>
0.0501402

>  <SCORE.RESTR>
5.7837

>  <SCORE.RESTR.CAVITY>
5.7837

>  <SCORE.RESTR.norm>
0.170109

>  <SCORE.SYSTEM>
0

>  <SCORE.SYSTEM.CONST>
0

>  <SCORE.SYSTEM.DIHEDRAL>
0

>  <SCORE.SYSTEM.SOLV>
0

>  <SCORE.SYSTEM.norm>
0

>  <SCORE.heavy>
34

>  <SCORE.norm>
0.505269

>  <RMSD>
39.900

$$$$
lig.pdb
 OpenBabel11021811503D
libRbt.so/2013.1/901 2013/11/27
 34 36  0  0  0  0  0  0  0  0999 V2000
   11.9595   13.5670   -2.4705 C   0  0  2  0  0  0  0  0  0  0  0  0
   11.8939   13.3811   -1.0523 O   0  0  0  0  0  0  0  0  0  0  0  0
   13.4642   13.8811   -2.8686 C   0  0  2  0  0  0  0  0  0  0  0  0
   14.3749   12.7730   -2.4973 N   0  0  0  0  0  0  0  0  0  0  0  0
   13.9173   15.1913   -2.1765 C   0  0  1  0  0  0  0  0  0  0  0  0
   15.2691   15.4946   -2.5289 O   0  0  0  0  0  0  0  0  0  0  0  0
   12.9620   16.3226   -2.5960 C   0  0  2  0  0  0  0  0  0  0  0  0
   13.3709   17.5384   -1.9674 O   0  0  0  0  0  0  0  0  0  0  0  0
   11.4848   15.9485   -2.1904 C   0  0  2  0  0  0  0  0  0  0  0  0
   11.0726   14.6793   -2.8268 O   0  0  0  0  0  0  0  0  0  0  0  0
   10.4821   17.0527   -2.6082 C   0  0  2  0  0  0  0  0  0  0  0  0
   10.4938   18.1073   -1.6442 O   0  0  0  0  0  0  0  0  0  0  0  0
    9.0681   16.5018   -2.7080 C   0  0  0  0  0  0  0  0  0  0  0  0
    9.3957   11.2301    1.6770 C   0  0  2  0  0  0  0  0  0  0  0  0
    8.3929   10.3006    2.2029 N   0  0  0  0  0  0  0  0  0  0  0  0
    8.7041   12.0785    0.5744 C   0  0  0  0  0  0  0  0  0  0  0  0
    9.7458   13.0880    0.0207 C   0  0  2  0  0  0  0  0  0  0  0  0
    9.1309   13.9193   -1.0260 N   0  0  0  0  0  0  0  0  0  0  0  0
   10.9750   12.3485   -0.5724 C   0  0  2  0  0  0  0  0  0  0  0  0
   11.6255   11.4678    0.5407 C   0  0  2  0  0  0  0  0  0  0  0  0
   12.7541   10.7763   -0.0113 O   0  0  0  0  0  0  0  0  0  0  0  0
   10.6181   10.4194    1.0718 C   0  0  1  0  0  0  0  0  0  0  0  0
   11.2924    9.6559    2.1024 O   0  0  0  0  0  0  0  0  0  0  0  0
   10.8621    8.2836    2.2614 C   0  0  2  0  0  0  0  0  0  0  0  0
   11.6017    7.7381    3.5392 C   0  0  2  0  0  0  0  0  0  0  0  0
   11.2318    8.5049    4.6743 O   0  0  0  0  0  0  0  0  0  0  0  0
   13.1574    7.8029    3.2973 C   0  0  1  0  0  0  0  0  0  0  0  0
   13.9025    7.3025    4.4926 N   0  0  0  0  0  0  0  0  0  0  0  0
   13.8593    8.3351    5.5502 C   0  0  0  0  0  0  0  0  0  0  0  0
   13.4996    6.9382    2.0460 C   0  0  2  0  0  0  0  0  0  0  0  0
   13.1095    5.5898    2.3012 O   0  0  0  0  0  0  0  0  0  0  0  0
   14.9945    6.9549    1.7368 C   0  0  0  0  0  0  0  0  0  0  0  0
   12.7053    7.4816    0.8152 C   0  0  0  0  0  0  0  0  0  0  0  0
   11.2517    7.4832    1.0832 O   0  0  0  0  0  0  0  0  0  0  0  0
  1  3  1  0  0  0  0
  1  2  1  1  0  0  0
  3  5  1  0  0  0  0
  3  4  1  1  0  0  0
  5  6  1  6  0  0  0
  7  8  1  1  0  0  0
  7  5  1  0  0  0  0
  9 10  1  6  0  0  0
  9  7  1  0  0  0  0
 10  1  1  0  0  0  0
 11 13  1  1  0  0  0
 11  9  1  0  0  0  0
 12 11  1  0  0  0  0
 14 15  1  6  0  0  0
 16 14  1  0  0  0  0
 17 18  1  6  0  0  0
 17 16  1  0  0  0  0
 19  2  1  1  0  0  0
 19 20  1  0  0  0  0
 19 17  1  0  0  0  0
 20 21  1  6  0  0  0
 20 22  1  0  0  0  0
 22 23  1  1  0  0  0
 22 14  1  0  0  0  0
 24 23  1  6  0  0  0
 24 25  1  0  0  0  0
 25 27  1  0  0  0  0
 25 26  1  1  0  0  0
 27 28  1  1  0  0  0
 28 29  1  0  0  0  0
 30 31  1  1  0  0  0
 30 32  1  0  0  0  0
 30 27  1  0  0  0  0
 33 30  1  0  0  0  0
 34 33  1  0  0  0  0
 34 24  1  0  0  0  0
M  END
>  <CHROM.1>
-142.72008413,-81.19003646,-105.22936916,93.89271186,-173.02897864,-75.25611772
11.86092855,11.71806339,0.24696235,-1.64873003,-0.25629218,2.55705415

>  <Name>
lig.pdb

>  <RI>
0

>  <Rbt.Current_Directory>
/home/itssahil/PROJECTS/Mol_Feturizer/New_Systems/rnas/4k32

>  <Rbt.Executable>
rbdock ($Id: //depot/dev/client3/rdock/2013.1/src/exe/rbdock.cxx#4 $)

>  <Rbt.Library>
libRbt.so (2013.1, Build901 2013/11/27)

>  <Rbt.Parameter_File>
/export/apps/rDock/src/rDock_2013.1_src/data/scripts/dock_solv.prm

>  <Rbt.Receptor>
prm/blind_docking_40.prm

>  <SCORE>
17.515

>  <SCORE.INTER>
5.66591

>  <SCORE.INTER.CONST>
1

>  <SCORE.INTER.POLAR>
0

>  <SCORE.INTER.ROT>
6

>  <SCORE.INTER.SOLV>
18.3074

>  <SCORE.INTER.VDW>
-9.9252

>  <SCORE.INTER.norm>
0.166644

>  <SCORE.INTRA>
2.24486

>  <SCORE.INTRA.DIHEDRAL>
-0.673089

>  <SCORE.INTRA.DIHEDRAL.0>
18.0069

>  <SCORE.INTRA.POLAR>
0

>  <SCORE.INTRA.POLAR.0>
0

>  <SCORE.INTRA.REPUL>
0

>  <SCORE.INTRA.REPUL.0>
0

>  <SCORE.INTRA.SOLV>
1.73804

>  <SCORE.INTRA.SOLV.lig_0>
-70.7393

>  <SCORE.INTRA.VDW>
1.71238

>  <SCORE.INTRA.VDW.0>
-3.23471

>  <SCORE.INTRA.norm>
0.0660252

>  <SCORE.RESTR>
9.60427

>  <SCORE.RESTR.CAVITY>
9.60427

>  <SCORE.RESTR.norm>
0.282479

>  <SCORE.SYSTEM>
0

>  <SCORE.SYSTEM.CONST>
0

>  <SCORE.SYSTEM.DIHEDRAL>
0

>  <SCORE.SYSTEM.SOLV>
0

>  <SCORE.SYSTEM.norm>
0

>  <SCORE.heavy>
34

>  <SCORE.norm>
0.515148

>  <RMSD>
39.913

$$$$
lig.pdb
 OpenBabel11021811503D
libRbt.so/2013.1/901 2013/11/27
 34 36  0  0  0  0  0  0  0  0999 V2000
    9.6752   15.2487   -0.9136 C   0  0  2  0  0  0  0  0  0  0  0  0
    9.5351   14.2155   -1.8950 O   0  0  0  0  0  0  0  0  0  0  0  0
    9.7691   16.6457   -1.6625 C   0  0  2  0  0  0  0  0  0  0  0  0
    8.5556   16.9224   -2.4661 N   0  0  0  0  0  0  0  0  0  0  0  0
   11.0209   16.6576   -2.5755 C   0  0  1  0  0  0  0  0  0  0  0  0
   11.1263   17.9116   -3.2536 O   0  0  0  0  0  0  0  0  0  0  0  0
   12.2625   16.3841   -1.7081 C   0  0  2  0  0  0  0  0  0  0  0  0
   13.4254   16.3960   -2.5375 O   0  0  0  0  0  0  0  0  0  0  0  0
   12.1056   14.9949   -0.9788 C   0  0  2  0  0  0  0  0  0  0  0  0
   10.8901   14.9795   -0.1373 O   0  0  0  0  0  0  0  0  0  0  0  0
   13.3268   14.6826   -0.0786 C   0  0  2  0  0  0  0  0  0  0  0  0
   14.4821   15.3590   -0.5781 O   0  0  0  0  0  0  0  0  0  0  0  0
   13.6158   13.1900   -0.0426 C   0  0  0  0  0  0  0  0  0  0  0  0
    8.9802   11.0304    0.9093 C   0  0  2  0  0  0  0  0  0  0  0  0
    8.5395    9.7664    1.5046 N   0  0  0  0  0  0  0  0  0  0  0  0
    7.7141   11.7520    0.3707 C   0  0  0  0  0  0  0  0  0  0  0  0
    8.1583   13.1072   -0.2435 C   0  0  2  0  0  0  0  0  0  0  0  0
    6.9866   13.8299   -0.7630 N   0  0  0  0  0  0  0  0  0  0  0  0
    9.1743   12.8880   -1.3964 C   0  0  2  0  0  0  0  0  0  0  0  0
   10.4163   12.1215   -0.8419 C   0  0  2  0  0  0  0  0  0  0  0  0
   11.3491   11.9095   -1.9104 O   0  0  0  0  0  0  0  0  0  0  0  0
   10.0025   10.7439   -0.2699 C   0  0  1  0  0  0  0  0  0  0  0  0
   11.2033   10.1059    0.2310 O   0  0  0  0  0  0  0  0  0  0  0  0
   11.8121   10.7190    1.3917 C   0  0  2  0  0  0  0  0  0  0  0  0
   13.2548   10.1004    1.5074 C   0  0  2  0  0  0  0  0  0  0  0  0
   14.0037   10.4028    0.3408 O   0  0  0  0  0  0  0  0  0  0  0  0
   13.1295    8.5428    1.7094 C   0  0  1  0  0  0  0  0  0  0  0  0
   14.4797    7.9102    1.8144 N   0  0  0  0  0  0  0  0  0  0  0  0
   14.4595    6.6173    1.0970 C   0  0  0  0  0  0  0  0  0  0  0  0
   12.3057    8.2770    3.0060 C   0  0  2  0  0  0  0  0  0  0  0  0
   12.9986    8.8502    4.1137 O   0  0  0  0  0  0  0  0  0  0  0  0
   12.1305    6.7837    3.2703 C   0  0  0  0  0  0  0  0  0  0  0  0
   10.9031    8.9515    2.8688 C   0  0  0  0  0  0  0  0  0  0  0  0
   11.0367   10.4001    2.6074 O   0  0  0  0  0  0  0  0  0  0  0  0
  1  3  1  0  0  0  0
  1  2  1  6  0  0  0
  3  5  1  0  0  0  0
  3  4  1  6  0  0  0
  5  6  1  1  0  0  0
  7  8  1  6  0  0  0
  7  5  1  0  0  0  0
  9 10  1  1  0  0  0
  9  7  1  0  0  0  0
 10  1  1  0  0  0  0
 11 13  1  6  0  0  0
 11  9  1  0  0  0  0
 12 11  1  0  0  0  0
 14 15  1  6  0  0  0
 16 14  1  0  0  0  0
 17 18  1  6  0  0  0
 17 16  1  0  0  0  0
 19  2  1  1  0  0  0
 19 20  1  0  0  0  0
 19 17  1  0  0  0  0
 20 21  1  6  0  0  0
 20 22  1  0  0  0  0
 22 23  1  1  0  0  0
 22 14  1  0  0  0  0
 24 23  1  6  0  0  0
 24 25  1  0  0  0  0
 25 27  1  0  0  0  0
 25 26  1  6  0  0  0
 27 28  1  1  0  0  0
 28 29  1  0  0  0  0
 30 31  1  1  0  0  0
 30 32  1  0  0  0  0
 30 27  1  0  0  0  0
 33 30  1  0  0  0  0
 34 33  1  0  0  0  0
 34 24  1  0  0  0  0
M  END
>  <CHROM.1>
-168.53216949,-26.36001298,38.17672684,-48.30867169,-165.60652431,-141.08797256
11.30887672,12.30743831,0.06714417,1.78179336,-0.02096184,-0.49494575

>  <Name>
lig.pdb

>  <RI>
0

>  <Rbt.Current_Directory>
/home/itssahil/PROJECTS/Mol_Feturizer/New_Systems/rnas/4k32

>  <Rbt.Executable>
rbdock ($Id: //depot/dev/client3/rdock/2013.1/src/exe/rbdock.cxx#4 $)

>  <Rbt.Library>
libRbt.so (2013.1, Build901 2013/11/27)

>  <Rbt.Parameter_File>
/export/apps/rDock/src/rDock_2013.1_src/data/scripts/dock_solv.prm

>  <Rbt.Receptor>
prm/blind_docking_40.prm

>  <SCORE>
16.7623

>  <SCORE.INTER>
9.95965

>  <SCORE.INTER.CONST>
1

>  <SCORE.INTER.POLAR>
0

>  <SCORE.INTER.ROT>
6

>  <SCORE.INTER.SOLV>
25.9226

>  <SCORE.INTER.VDW>
-9.60109

>  <SCORE.INTER.norm>
0.292931

>  <SCORE.INTRA>
0.988073

>  <SCORE.INTRA.DIHEDRAL>
-9.48998

>  <SCORE.INTRA.DIHEDRAL.0>
18.0069

>  <SCORE.INTRA.POLAR>
0

>  <SCORE.INTRA.POLAR.0>
0

>  <SCORE.INTRA.REPUL>
0

>  <SCORE.INTRA.REPUL.0>
0

>  <SCORE.INTRA.SOLV>
2.09289

>  <SCORE.INTRA.SOLV.lig_0>
-70.7393

>  <SCORE.INTRA.VDW>
4.68662

>  <SCORE.INTRA.VDW.0>
-3.23471

>  <SCORE.INTRA.norm>
0.029061

>  <SCORE.RESTR>
5.81462

>  <SCORE.RESTR.CAVITY>
5.81462

>  <SCORE.RESTR.norm>
0.171018

>  <SCORE.SYSTEM>
0

>  <SCORE.SYSTEM.CONST>
0

>  <SCORE.SYSTEM.DIHEDRAL>
0

>  <SCORE.SYSTEM.SOLV>
0

>  <SCORE.SYSTEM.norm>
0

>  <SCORE.heavy>
34

>  <SCORE.norm>
0.49301

>  <RMSD>
39.914

$$$$
lig.pdb
 OpenBabel11021811503D
libRbt.so/2013.1/901 2013/11/27
 34 36  0  0  0  0  0  0  0  0999 V2000
   11.5638   13.1801   -2.3611 C   0  0  2  0  0  0  0  0  0  0  0  0
   11.5130   13.0107   -0.9402 O   0  0  0  0  0  0  0  0  0  0  0  0
   13.0511   13.5555   -2.7711 C   0  0  2  0  0  0  0  0  0  0  0  0
   14.0121   12.4943   -2.3897 N   0  0  0  0  0  0  0  0  0  0  0  0
   13.4485   14.8939   -2.0988 C   0  0  1  0  0  0  0  0  0  0  0  0
   14.7838   15.2523   -2.4623 O   0  0  0  0  0  0  0  0  0  0  0  0
   12.4417   15.9758   -2.5284 C   0  0  2  0  0  0  0  0  0  0  0  0
   12.7988   17.2169   -1.9182 O   0  0  0  0  0  0  0  0  0  0  0  0
   10.9846   15.5417   -2.1102 C   0  0  2  0  0  0  0  0  0  0  0  0
   10.6265   14.2469   -2.7276 O   0  0  0  0  0  0  0  0  0  0  0  0
    9.9317   16.5944   -2.5375 C   0  0  2  0  0  0  0  0  0  0  0  0
   10.1321   16.9517   -3.9063 O   0  0  0  0  0  0  0  0  0  0  0  0
   10.0348   17.8512   -1.6875 C   0  0  0  0  0  0  0  0  0  0  0  0
    9.3492   10.6508    1.8997 C   0  0  2  0  0  0  0  0  0  0  0  0
    8.3644    9.7338    2.4789 N   0  0  0  0  0  0  0  0  0  0  0  0
    8.5629   11.7266    1.1009 C   0  0  0  0  0  0  0  0  0  0  0  0
    9.5897   12.7235    0.4985 C   0  0  2  0  0  0  0  0  0  0  0  0
    8.8869   13.7668   -0.2646 N   0  0  0  0  0  0  0  0  0  0  0  0
   10.5893   11.9931   -0.4380 C   0  0  2  0  0  0  0  0  0  0  0  0
   11.3337   10.8873    0.3748 C   0  0  2  0  0  0  0  0  0  0  0  0
   12.2486   10.2056   -0.4941 O   0  0  0  0  0  0  0  0  0  0  0  0
   10.3316    9.8530    0.9425 C   0  0  1  0  0  0  0  0  0  0  0  0
   11.0970    8.8740    1.6878 O   0  0  0  0  0  0  0  0  0  0  0  0
   12.3886    9.3113    2.1720 C   0  0  2  0  0  0  0  0  0  0  0  0
   13.4192    8.2078    1.7276 C   0  0  2  0  0  0  0  0  0  0  0  0
   13.4333    8.1034    0.3126 O   0  0  0  0  0  0  0  0  0  0  0  0
   13.0183    6.8358    2.3906 C   0  0  1  0  0  0  0  0  0  0  0  0
   13.9667    5.7533    1.9870 N   0  0  0  0  0  0  0  0  0  0  0  0
   15.3518    6.2379    2.1694 C   0  0  0  0  0  0  0  0  0  0  0  0
   13.0282    7.0135    3.9394 C   0  0  2  0  0  0  0  0  0  0  0  0
   14.3452    7.3778    4.3496 O   0  0  0  0  0  0  0  0  0  0  0  0
   12.6402    5.7251    4.6605 C   0  0  0  0  0  0  0  0  0  0  0  0
   12.0318    8.1516    4.3306 C   0  0  0  0  0  0  0  0  0  0  0  0
   12.3769    9.4148    3.6450 O   0  0  0  0  0  0  0  0  0  0  0  0
  1  3  1  0  0  0  0
  1  2  1  1  0  0  0
  3  5  1  0  0  0  0
  3  4  1  1  0  0  0
  5  6  1  6  0  0  0
  7  8  1  1  0  0  0
  7  5  1  0  0  0  0
  9 10  1  6  0  0  0
  9  7  1  0  0  0  0
 10  1  1  0  0  0  0
 11 13  1  1  0  0  0
 11  9  1  0  0  0  0
 12 11  1  0  0  0  0
 14 15  1  6  0  0  0
 16 14  1  0  0  0  0
 17 18  1  6  0  0  0
 17 16  1  0  0  0  0
 19  2  1  1  0  0  0
 19 20  1  0  0  0  0
 19 17  1  0  0  0  0
 20 21  1  6  0  0  0
 20 22  1  0  0  0  0
 22 23  1  1  0  0  0
 22 14  1  0  0  0  0
 24 23  1  1  0  0  0
 24 25  1  0  0  0  0
 25 27  1  0  0  0  0
 25 26  1  6  0  0  0
 27 28  1  1  0  0  0
 28 29  1  0  0  0  0
 30 31  1  1  0  0  0
 30 32  1  0  0  0  0
 30 27  1  0  0  0  0
 33 30  1  0  0  0  0
 34 33  1  0  0  0  0
 34 24  1  0  0  0  0
M  END
>  <CHROM.1>
-145.89723531,48.72000116,-120.72473202,-92.87809402,-129.78537348,48.42103108
11.84393985,11.46403375,0.25634304,-1.73335237,-0.32674761,2.52053698

>  <Name>
lig.pdb

>  <RI>
0

>  <Rbt.Current_Directory>
/home/itssahil/PROJECTS/Mol_Feturizer/New_Systems/rnas/4k32

>  <Rbt.Executable>
rbdock ($Id: //depot/dev/client3/rdock/2013.1/src/exe/rbdock.cxx#4 $)

>  <Rbt.Library>
libRbt.so (2013.1, Build901 2013/11/27)

>  <Rbt.Parameter_File>
/export/apps/rDock/src/rDock_2013.1_src/data/scripts/dock_solv.prm

>  <Rbt.Receptor>
prm/blind_docking_40.prm

>  <SCORE>
25.9578

>  <SCORE.INTER>
4.70149

>  <SCORE.INTER.CONST>
1

>  <SCORE.INTER.POLAR>
0

>  <SCORE.INTER.ROT>
6

>  <SCORE.INTER.SOLV>
18.2104

>  <SCORE.INTER.VDW>
-10.5358

>  <SCORE.INTER.norm>
0.138279

>  <SCORE.INTRA>
12.4281

>  <SCORE.INTRA.DIHEDRAL>
4.97917

>  <SCORE.INTRA.DIHEDRAL.0>
18.0069

>  <SCORE.INTRA.POLAR>
0

>  <SCORE.INTRA.POLAR.0>
0

>  <SCORE.INTRA.REPUL>
0

>  <SCORE.INTRA.REPUL.0>
0

>  <SCORE.INTRA.SOLV>
1.25464

>  <SCORE.INTRA.SOLV.lig_0>
-70.7393

>  <SCORE.INTRA.VDW>
9.31117

>  <SCORE.INTRA.VDW.0>
-3.23471

>  <SCORE.INTRA.norm>
0.365531

>  <SCORE.RESTR>
8.82822

>  <SCORE.RESTR.CAVITY>
8.82822

>  <SCORE.RESTR.norm>
0.259653

>  <SCORE.SYSTEM>
0

>  <SCORE.SYSTEM.CONST>
0

>  <SCORE.SYSTEM.DIHEDRAL>
0

>  <SCORE.SYSTEM.SOLV>
0

>  <SCORE.SYSTEM.norm>
0

>  <SCORE.heavy>
34

>  <SCORE.norm>
0.763464

>  <RMSD>
39.959

$$$$
lig.pdb
 OpenBabel11021811503D
libRbt.so/2013.1/901 2013/11/27
 34 36  0  0  0  0  0  0  0  0999 V2000
    9.9282   14.9445   -1.0940 C   0  0  2  0  0  0  0  0  0  0  0  0
   10.0164   13.7607   -1.8947 O   0  0  0  0  0  0  0  0  0  0  0  0
    9.4207   16.1369   -2.0115 C   0  0  2  0  0  0  0  0  0  0  0  0
    8.0844   15.8585   -2.5873 N   0  0  0  0  0  0  0  0  0  0  0  0
   10.4443   16.3838   -3.1483 C   0  0  1  0  0  0  0  0  0  0  0  0
   10.0075   17.4598   -3.9818 O   0  0  0  0  0  0  0  0  0  0  0  0
   11.8148   16.6857   -2.5164 C   0  0  2  0  0  0  0  0  0  0  0  0
   12.7681   16.9192   -3.5543 O   0  0  0  0  0  0  0  0  0  0  0  0
   12.2584   15.4767   -1.6065 C   0  0  2  0  0  0  0  0  0  0  0  0
   11.2593   15.2254   -0.5460 O   0  0  0  0  0  0  0  0  0  0  0  0
   13.6282   15.7422   -0.9340 C   0  0  2  0  0  0  0  0  0  0  0  0
   13.5535   16.9227   -0.1325 O   0  0  0  0  0  0  0  0  0  0  0  0
   14.7234   15.9289   -1.9724 C   0  0  0  0  0  0  0  0  0  0  0  0
    8.9405   10.9361    1.1352 C   0  0  2  0  0  0  0  0  0  0  0  0
    8.3233    9.7908    1.8088 N   0  0  0  0  0  0  0  0  0  0  0  0
    7.7987   11.7400    0.4540 C   0  0  0  0  0  0  0  0  0  0  0  0
    8.4311   12.9733   -0.2460 C   0  0  2  0  0  0  0  0  0  0  0  0
    7.3821   13.7695   -0.9021 N   0  0  0  0  0  0  0  0  0  0  0  0
    9.4763   12.5346   -1.3066 C   0  0  2  0  0  0  0  0  0  0  0  0
   10.5881   11.6905   -0.6072 C   0  0  2  0  0  0  0  0  0  0  0  0
   11.5469   11.2762   -1.5898 O   0  0  0  0  0  0  0  0  0  0  0  0
    9.9855   10.4276    0.0548 C   0  0  1  0  0  0  0  0  0  0  0  0
   11.0743    9.7102    0.6870 O   0  0  0  0  0  0  0  0  0  0  0  0
   11.7666   10.4107    1.7471 C   0  0  2  0  0  0  0  0  0  0  0  0
   13.2419    9.8622    1.7436 C   0  0  2  0  0  0  0  0  0  0  0  0
   13.8539   10.1334    0.4925 O   0  0  0  0  0  0  0  0  0  0  0  0
   13.2134    8.3138    2.0339 C   0  0  1  0  0  0  0  0  0  0  0  0
   14.5964    7.7467    2.0300 N   0  0  0  0  0  0  0  0  0  0  0  0
   14.5704    6.4267    1.3640 C   0  0  0  0  0  0  0  0  0  0  0  0
   12.5383    8.0829    3.4200 C   0  0  2  0  0  0  0  0  0  0  0  0
   13.3107    8.7444    4.4208 O   0  0  0  0  0  0  0  0  0  0  0  0
   12.4633    6.5998    3.7742 C   0  0  0  0  0  0  0  0  0  0  0  0
   11.0979    8.6878    3.3953 C   0  0  0  0  0  0  0  0  0  0  0  0
   11.1341   10.1246    3.0505 O   0  0  0  0  0  0  0  0  0  0  0  0
  1  3  1  0  0  0  0
  1  2  1  6  0  0  0
  3  5  1  0  0  0  0
  3  4  1  6  0  0  0
  5  6  1  1  0  0  0
  7  8  1  6  0  0  0
  7  5  1  0  0  0  0
  9 10  1  1  0  0  0
  9  7  1  0  0  0  0
 10  1  1  0  0  0  0
 11 13  1  6  0  0  0
 11  9  1  0  0  0  0
 12 11  1  0  0  0  0
 14 15  1  6  0  0  0
 16 14  1  0  0  0  0
 17 18  1  6  0  0  0
 17 16  1  0  0  0  0
 19  2  1  1  0  0  0
 19 20  1  0  0  0  0
 19 17  1  0  0  0  0
 20 21  1  6  0  0  0
 20 22  1  0  0  0  0
 22 23  1  1  0  0  0
 22 14  1  0  0  0  0
 24 23  1  6  0  0  0
 24 25  1  0  0  0  0
 25 27  1  0  0  0  0
 25 26  1  6  0  0  0
 27 28  1  1  0  0  0
 28 29  1  0  0  0  0
 30 31  1  1  0  0  0
 30 32  1  0  0  0  0
 30 27  1  0  0  0  0
 33 30  1  0  0  0  0
 34 33  1  0  0  0  0
 34 24  1  0  0  0  0
M  END
>  <CHROM.1>
-135.17561064,59.10452005,23.84959631,-53.81386786,-150.85791170,-140.20922399
11.31676877,12.28685618,0.02240767,1.74423411,-0.05359548,-0.54771122

>  <Name>
lig.pdb

>  <RI>
0

>  <Rbt.Current_Directory>
/home/itssahil/PROJECTS/Mol_Feturizer/New_Systems/rnas/4k32

>  <Rbt.Executable>
rbdock ($Id: //depot/dev/client3/rdock/2013.1/src/exe/rbdock.cxx#4 $)

>  <Rbt.Library>
libRbt.so (2013.1, Build901 2013/11/27)

>  <Rbt.Parameter_File>
/export/apps/rDock/src/rDock_2013.1_src/data/scripts/dock_solv.prm

>  <Rbt.Receptor>
prm/blind_docking_40.prm

>  <SCORE>
20.4633

>  <SCORE.INTER>
5.2417

>  <SCORE.INTER.CONST>
1

>  <SCORE.INTER.POLAR>
0

>  <SCORE.INTER.ROT>
6

>  <SCORE.INTER.SOLV>
22.7268

>  <SCORE.INTER.VDW>
-11.6811

>  <SCORE.INTER.norm>
0.154168

>  <SCORE.INTRA>
6.73028

>  <SCORE.INTRA.DIHEDRAL>
-2.56757

>  <SCORE.INTRA.DIHEDRAL.0>
18.0069

>  <SCORE.INTRA.POLAR>
0

>  <SCORE.INTRA.POLAR.0>
0

>  <SCORE.INTRA.REPUL>
0

>  <SCORE.INTRA.REPUL.0>
0

>  <SCORE.INTRA.SOLV>
3.09162

>  <SCORE.INTRA.SOLV.lig_0>
-70.7393

>  <SCORE.INTRA.VDW>
6.46826

>  <SCORE.INTRA.VDW.0>
-3.23471

>  <SCORE.INTRA.norm>
0.19795

>  <SCORE.RESTR>
8.49136

>  <SCORE.RESTR.CAVITY>
8.49136

>  <SCORE.RESTR.norm>
0.249746

>  <SCORE.SYSTEM>
0

>  <SCORE.SYSTEM.CONST>
0

>  <SCORE.SYSTEM.DIHEDRAL>
0

>  <SCORE.SYSTEM.SOLV>
0

>  <SCORE.SYSTEM.norm>
0

>  <SCORE.heavy>
34

>  <SCORE.norm>
0.601863

>  <RMSD>
39.960

$$$$
lig.pdb
 OpenBabel11021811503D
libRbt.so/2013.1/901 2013/11/27
 34 36  0  0  0  0  0  0  0  0999 V2000
   11.8994   14.4401   -0.6470 C   0  0  2  0  0  0  0  0  0  0  0  0
   11.2558   13.7429   -1.7193 O   0  0  0  0  0  0  0  0  0  0  0  0
   11.0969   15.7807   -0.3640 C   0  0  2  0  0  0  0  0  0  0  0  0
    9.6935   15.5106    0.0265 N   0  0  0  0  0  0  0  0  0  0  0  0
   11.1301   16.6773   -1.6274 C   0  0  1  0  0  0  0  0  0  0  0  0
   10.4177   17.8935   -1.3893 O   0  0  0  0  0  0  0  0  0  0  0  0
   12.5992   16.9516   -1.9951 C   0  0  2  0  0  0  0  0  0  0  0  0
   12.6443   17.7810   -3.1571 O   0  0  0  0  0  0  0  0  0  0  0  0
   13.3473   15.5868   -2.2483 C   0  0  2  0  0  0  0  0  0  0  0  0
   13.2808   14.7231   -1.0502 O   0  0  0  0  0  0  0  0  0  0  0  0
   14.8374   15.8116   -2.6063 C   0  0  2  0  0  0  0  0  0  0  0  0
   15.3901   16.8253   -1.7644 O   0  0  0  0  0  0  0  0  0  0  0  0
   14.9952   16.2448   -4.0554 C   0  0  0  0  0  0  0  0  0  0  0  0
    8.8963   11.2130    0.8004 C   0  0  2  0  0  0  0  0  0  0  0  0
    7.9323   10.2005    1.2385 N   0  0  0  0  0  0  0  0  0  0  0  0
    8.1504   12.1695   -0.1704 C   0  0  0  0  0  0  0  0  0  0  0  0
    9.1505   13.2657   -0.6276 C   0  0  2  0  0  0  0  0  0  0  0  0
    8.4835   14.2006   -1.5473 N   0  0  0  0  0  0  0  0  0  0  0  0
   10.3766   12.6359   -1.3417 C   0  0  2  0  0  0  0  0  0  0  0  0
   11.0824   11.6450   -0.3631 C   0  0  2  0  0  0  0  0  0  0  0  0
   12.2081   11.0553   -1.0277 O   0  0  0  0  0  0  0  0  0  0  0  0
   10.1167   10.5138    0.0659 C   0  0  1  0  0  0  0  0  0  0  0  0
   10.8410    9.6497    0.9761 O   0  0  0  0  0  0  0  0  0  0  0  0
   11.6424   10.3139    1.9812 C   0  0  2  0  0  0  0  0  0  0  0  0
   13.0943    9.7216    1.8452 C   0  0  2  0  0  0  0  0  0  0  0  0
   13.6057    9.9923    0.5496 O   0  0  0  0  0  0  0  0  0  0  0  0
   13.0425    8.1708    2.1187 C   0  0  1  0  0  0  0  0  0  0  0  0
   14.4019    7.5627    1.9899 N   0  0  0  0  0  0  0  0  0  0  0  0
   14.4231    6.6858    0.7995 C   0  0  0  0  0  0  0  0  0  0  0  0
   12.4811    7.9404    3.5547 C   0  0  2  0  0  0  0  0  0  0  0  0
   13.3559    8.5641    4.4934 O   0  0  0  0  0  0  0  0  0  0  0  0
   12.3905    6.4553    3.8966 C   0  0  0  0  0  0  0  0  0  0  0  0
   11.0633    8.5884    3.6602 C   0  0  0  0  0  0  0  0  0  0  0  0
   11.1146   10.0282    3.3305 O   0  0  0  0  0  0  0  0  0  0  0  0
  1  3  1  0  0  0  0
  1  2  1  6  0  0  0
  3  5  1  0  0  0  0
  3  4  1  6  0  0  0
  5  6  1  1  0  0  0
  7  8  1  6  0  0  0
  7  5  1  0  0  0  0
  9 10  1  1  0  0  0
  9  7  1  0  0  0  0
 10  1  1  0  0  0  0
 11 13  1  6  0  0  0
 11  9  1  0  0  0  0
 12 11  1  0  0  0  0
 14 15  1  6  0  0  0
 16 14  1  0  0  0  0
 17 18  1  6  0  0  0
 17 16  1  0  0  0  0
 19  2  1  1  0  0  0
 19 20  1  0  0  0  0
 19 17  1  0  0  0  0
 20 21  1  6  0  0  0
 20 22  1  0  0  0  0
 22 23  1  1  0  0  0
 22 14  1  0  0  0  0
 24 23  1  6  0  0  0
 24 25  1  0  0  0  0
 25 27  1  0  0  0  0
 25 26  1  6  0  0  0
 27 28  1  1  0  0  0
 28 29  1  0  0  0  0
 30 31  1  1  0  0  0
 30 32  1  0  0  0  0
 30 27  1  0  0  0  0
 33 30  1  0  0  0  0
 34 33  1  0  0  0  0
 34 24  1  0  0  0  0
M  END
>  <CHROM.1>
-100.02071164,42.03188122,68.49087033,-72.34831883,-126.14926386,-111.79872133
11.81973788,12.32015981,0.09897507,-1.56019769,-0.12313397,2.61885639

>  <Name>
lig.pdb

>  <RI>
0

>  <Rbt.Current_Directory>
/home/itssahil/PROJECTS/Mol_Feturizer/New_Systems/rnas/4k32

>  <Rbt.Executable>
rbdock ($Id: //depot/dev/client3/rdock/2013.1/src/exe/rbdock.cxx#4 $)

>  <Rbt.Library>
libRbt.so (2013.1, Build901 2013/11/27)

>  <Rbt.Parameter_File>
/export/apps/rDock/src/rDock_2013.1_src/data/scripts/dock_solv.prm

>  <Rbt.Receptor>
prm/blind_docking_40.prm

>  <SCORE>
21.0183

>  <SCORE.INTER>
4.70638

>  <SCORE.INTER.CONST>
1

>  <SCORE.INTER.POLAR>
0

>  <SCORE.INTER.ROT>
6

>  <SCORE.INTER.SOLV>
22.1451

>  <SCORE.INTER.VDW>
-11.8441

>  <SCORE.INTER.norm>
0.138423

>  <SCORE.INTRA>
9.90662

>  <SCORE.INTRA.DIHEDRAL>
-2.23587

>  <SCORE.INTRA.DIHEDRAL.0>
18.0069

>  <SCORE.INTRA.POLAR>
0

>  <SCORE.INTRA.POLAR.0>
0

>  <SCORE.INTRA.REPUL>
0

>  <SCORE.INTRA.REPUL.0>
0

>  <SCORE.INTRA.SOLV>
4.9264

>  <SCORE.INTRA.SOLV.lig_0>
-70.7393

>  <SCORE.INTRA.VDW>
8.56136

>  <SCORE.INTRA.VDW.0>
-3.23471

>  <SCORE.INTRA.norm>
0.291371

>  <SCORE.RESTR>
6.40533

>  <SCORE.RESTR.CAVITY>
6.40533

>  <SCORE.RESTR.norm>
0.188392

>  <SCORE.SYSTEM>
0

>  <SCORE.SYSTEM.CONST>
0

>  <SCORE.SYSTEM.DIHEDRAL>
0

>  <SCORE.SYSTEM.SOLV>
0

>  <SCORE.SYSTEM.norm>
0

>  <SCORE.heavy>
34

>  <SCORE.norm>
0.618186

>  <RMSD>
40.027

$$$$
lig.pdb
 OpenBabel11021811503D
libRbt.so/2013.1/901 2013/11/27
 34 36  0  0  0  0  0  0  0  0999 V2000
   12.0800   15.3952   -1.4632 C   0  0  2  0  0  0  0  0  0  0  0  0
   12.4393   14.5018   -0.4035 O   0  0  0  0  0  0  0  0  0  0  0  0
   12.2639   14.6368   -2.8460 C   0  0  2  0  0  0  0  0  0  0  0  0
   11.4031   13.4341   -2.9332 N   0  0  0  0  0  0  0  0  0  0  0  0
   13.7504   14.2358   -3.0198 C   0  0  1  0  0  0  0  0  0  0  0  0
   13.9372   13.5570   -4.2639 O   0  0  0  0  0  0  0  0  0  0  0  0
   14.6134   15.5077   -2.9408 C   0  0  2  0  0  0  0  0  0  0  0  0
   15.9874   15.1526   -3.1034 O   0  0  0  0  0  0  0  0  0  0  0  0
   14.3775   16.2248   -1.5564 C   0  0  2  0  0  0  0  0  0  0  0  0
   12.9510   16.5724   -1.3831 O   0  0  0  0  0  0  0  0  0  0  0  0
   15.2146   17.5225   -1.4369 C   0  0  2  0  0  0  0  0  0  0  0  0
   15.0088   18.1149   -0.1529 O   0  0  0  0  0  0  0  0  0  0  0  0
   14.8212   18.5307   -2.5053 C   0  0  0  0  0  0  0  0  0  0  0  0
   10.0614   11.3037    1.1568 C   0  0  2  0  0  0  0  0  0  0  0  0
    9.2459   10.0890    1.2309 N   0  0  0  0  0  0  0  0  0  0  0  0
    9.4255   12.2202    0.0753 C   0  0  0  0  0  0  0  0  0  0  0  0
   10.2630   13.5255   -0.0012 C   0  0  2  0  0  0  0  0  0  0  0  0
    9.6918   14.4288   -1.0124 N   0  0  0  0  0  0  0  0  0  0  0  0
   11.7393   13.2174   -0.3687 C   0  0  2  0  0  0  0  0  0  0  0  0
   12.3426   12.2593    0.7063 C   0  0  2  0  0  0  0  0  0  0  0  0
   13.7029   11.9662    0.3595 O   0  0  0  0  0  0  0  0  0  0  0  0
   11.5524   10.9294    0.7636 C   0  0  1  0  0  0  0  0  0  0  0  0
   12.1653   10.1066    1.7869 O   0  0  0  0  0  0  0  0  0  0  0  0
   11.4437    8.9078    2.1557 C   0  0  2  0  0  0  0  0  0  0  0  0
   12.0908    8.4032    3.4988 C   0  0  2  0  0  0  0  0  0  0  0  0
   11.9474    9.3935    4.5048 O   0  0  0  0  0  0  0  0  0  0  0  0
   13.6105    8.0744    3.2434 C   0  0  1  0  0  0  0  0  0  0  0  0
   14.2698    7.5997    4.4980 N   0  0  0  0  0  0  0  0  0  0  0  0
   13.4550    6.5146    5.0858 C   0  0  0  0  0  0  0  0  0  0  0  0
   13.7003    6.9790    2.1377 C   0  0  2  0  0  0  0  0  0  0  0  0
   13.0270    5.8083    2.5978 O   0  0  0  0  0  0  0  0  0  0  0  0
   15.1474    6.6080    1.8234 C   0  0  0  0  0  0  0  0  0  0  0  0
   13.0014    7.5012    0.8416 C   0  0  0  0  0  0  0  0  0  0  0  0
   11.5970    7.8743    1.1122 O   0  0  0  0  0  0  0  0  0  0  0  0
  1  3  1  0  0  0  0
  1  2  1  1  0  0  0
  3  5  1  0  0  0  0
  3  4  1  1  0  0  0
  5  6  1  6  0  0  0
  7  8  1  1  0  0  0
  7  5  1  0  0  0  0
  9 10  1  6  0  0  0
  9  7  1  0  0  0  0
 10  1  1  0  0  0  0
 11 13  1  6  0  0  0
 11  9  1  0  0  0  0
 12 11  1  0  0  0  0
 14 15  1  6  0  0  0
 16 14  1  0  0  0  0
 17 18  1  6  0  0  0
 17 16  1  0  0  0  0
 19  2  1  1  0  0  0
 19 20  1  0  0  0  0
 19 17  1  0  0  0  0
 20 21  1  6  0  0  0
 20 22  1  0  0  0  0
 22 23  1  1  0  0  0
 22 14  1  0  0  0  0
 24 23  1  6  0  0  0
 24 25  1  0  0  0  0
 25 27  1  0  0  0  0
 25 26  1  1  0  0  0
 27 28  1  1  0  0  0
 28 29  1  0  0  0  0
 30 31  1  1  0  0  0
 30 32  1  0  0  0  0
 30 27  1  0  0  0  0
 33 30  1  0  0  0  0
 34 33  1  0  0  0  0
 34 24  1  0  0  0  0
M  END
>  <CHROM.1>
-55.20390509,-177.96199195,-68.47521633,54.03167136,-165.76513020,50.89232327
12.75102675,11.97288254,0.24644563,1.47226062,0.01919878,-0.53373536

>  <Name>
lig.pdb

>  <RI>
0

>  <Rbt.Current_Directory>
/home/itssahil/PROJECTS/Mol_Feturizer/New_Systems/rnas/4k32

>  <Rbt.Executable>
rbdock ($Id: //depot/dev/client3/rdock/2013.1/src/exe/rbdock.cxx#4 $)

>  <Rbt.Library>
libRbt.so (2013.1, Build901 2013/11/27)

>  <Rbt.Parameter_File>
/export/apps/rDock/src/rDock_2013.1_src/data/scripts/dock_solv.prm

>  <Rbt.Receptor>
prm/blind_docking_40.prm

>  <SCORE>
13.5634

>  <SCORE.INTER>
-1.60511

>  <SCORE.INTER.CONST>
1

>  <SCORE.INTER.POLAR>
0

>  <SCORE.INTER.ROT>
6

>  <SCORE.INTER.SOLV>
18.5973

>  <SCORE.INTER.VDW>
-14.8692

>  <SCORE.INTER.norm>
-0.047209

>  <SCORE.INTRA>
4.67602

>  <SCORE.INTRA.DIHEDRAL>
-16.2642

>  <SCORE.INTRA.DIHEDRAL.0>
18.0069

>  <SCORE.INTRA.POLAR>
0

>  <SCORE.INTRA.POLAR.0>
0

>  <SCORE.INTRA.REPUL>
0

>  <SCORE.INTRA.REPUL.0>
0

>  <SCORE.INTRA.SOLV>
4.69601

>  <SCORE.INTRA.SOLV.lig_0>
-70.7393

>  <SCORE.INTRA.VDW>
10.4601

>  <SCORE.INTRA.VDW.0>
-3.23471

>  <SCORE.INTRA.norm>
0.13753

>  <SCORE.RESTR>
10.4925

>  <SCORE.RESTR.CAVITY>
10.4925

>  <SCORE.RESTR.norm>
0.308604

>  <SCORE.SYSTEM>
0

>  <SCORE.SYSTEM.CONST>
0

>  <SCORE.SYSTEM.DIHEDRAL>
0

>  <SCORE.SYSTEM.SOLV>
0

>  <SCORE.SYSTEM.norm>
0

>  <SCORE.heavy>
34

>  <SCORE.norm>
0.398925

>  <RMSD>
40.223

$$$$
lig.pdb
 OpenBabel11021811503D
libRbt.so/2013.1/901 2013/11/27
 34 36  0  0  0  0  0  0  0  0999 V2000
   13.0379   13.4091   -1.4853 C   0  0  2  0  0  0  0  0  0  0  0  0
   11.7651   13.4363   -2.1406 O   0  0  0  0  0  0  0  0  0  0  0  0
   12.9669   14.3486   -0.2072 C   0  0  2  0  0  0  0  0  0  0  0  0
   11.9342   13.8948    0.7532 N   0  0  0  0  0  0  0  0  0  0  0  0
   12.6709   15.8028   -0.6527 C   0  0  1  0  0  0  0  0  0  0  0  0
   12.6101   16.6659    0.4853 O   0  0  0  0  0  0  0  0  0  0  0  0
   13.7694   16.2476   -1.6347 C   0  0  2  0  0  0  0  0  0  0  0  0
   13.5105   17.5893   -2.0509 O   0  0  0  0  0  0  0  0  0  0  0  0
   13.8030   15.2710   -2.8722 C   0  0  2  0  0  0  0  0  0  0  0  0
   14.0509   13.8805   -2.4354 O   0  0  0  0  0  0  0  0  0  0  0  0
   14.9069   15.6696   -3.8830 C   0  0  2  0  0  0  0  0  0  0  0  0
   15.1355   14.5967   -4.7985 O   0  0  0  0  0  0  0  0  0  0  0  0
   16.2133   15.9884   -3.1727 C   0  0  0  0  0  0  0  0  0  0  0  0
    9.2939   11.7869    0.9399 C   0  0  2  0  0  0  0  0  0  0  0  0
    8.1855   11.1073    1.6151 N   0  0  0  0  0  0  0  0  0  0  0  0
    8.6747   12.8712    0.0154 C   0  0  0  0  0  0  0  0  0  0  0  0
    9.8366   13.6200   -0.6919 C   0  0  2  0  0  0  0  0  0  0  0  0
    9.2952   14.6636   -1.5766 N   0  0  0  0  0  0  0  0  0  0  0  0
   10.7007   12.6396   -1.5296 C   0  0  2  0  0  0  0  0  0  0  0  0
   11.2741   11.5340   -0.5881 C   0  0  2  0  0  0  0  0  0  0  0  0
   12.0628   10.6223   -1.3649 O   0  0  0  0  0  0  0  0  0  0  0  0
   10.1303   10.7406    0.0893 C   0  0  1  0  0  0  0  0  0  0  0  0
   10.7434    9.7484    0.9492 O   0  0  0  0  0  0  0  0  0  0  0  0
   11.6264   10.2559    1.9769 C   0  0  2  0  0  0  0  0  0  0  0  0
   13.0356    9.6113    1.7009 C   0  0  2  0  0  0  0  0  0  0  0  0
   13.4997    9.9989    0.4172 O   0  0  0  0  0  0  0  0  0  0  0  0
   12.9114    8.0441    1.8064 C   0  0  1  0  0  0  0  0  0  0  0  0
   14.2277    7.3875    1.5407 N   0  0  0  0  0  0  0  0  0  0  0  0
   14.1292    6.6073    0.2884 C   0  0  0  0  0  0  0  0  0  0  0  0
   12.4061    7.6832    3.2364 C   0  0  2  0  0  0  0  0  0  0  0  0
   13.3571    8.1544    4.1899 O   0  0  0  0  0  0  0  0  0  0  0  0
   12.2500    6.1757    3.4190 C   0  0  0  0  0  0  0  0  0  0  0  0
   11.0327    8.3849    3.4865 C   0  0  0  0  0  0  0  0  0  0  0  0
   11.1476    9.8483    3.3130 O   0  0  0  0  0  0  0  0  0  0  0  0
  1  3  1  0  0  0  0
  1  2  1  6  0  0  0
  3  5  1  0  0  0  0
  3  4  1  1  0  0  0
  5  6  1  1  0  0  0
  7  8  1  6  0  0  0
  7  5  1  0  0  0  0
  9 10  1  1  0  0  0
  9  7  1  0  0  0  0
 10  1  1  0  0  0  0
 11 13  1  1  0  0  0
 11  9  1  0  0  0  0
 12 11  1  0  0  0  0
 14 15  1  6  0  0  0
 16 14  1  0  0  0  0
 17 18  1  6  0  0  0
 17 16  1  0  0  0  0
 19  2  1  1  0  0  0
 19 20  1  0  0  0  0
 19 17  1  0  0  0  0
 20 21  1  6  0  0  0
 20 22  1  0  0  0  0
 22 23  1  1  0  0  0
 22 14  1  0  0  0  0
 24 23  1  6  0  0  0
 24 25  1  0  0  0  0
 25 27  1  0  0  0  0
 25 26  1  6  0  0  0
 27 28  1  1  0  0  0
 28 29  1  0  0  0  0
 30 31  1  1  0  0  0
 30 32  1  0  0  0  0
 30 27  1  0  0  0  0
 33 30  1  0  0  0  0
 34 33  1  0  0  0  0
 34 24  1  0  0  0  0
M  END
>  <CHROM.1>
-77.22469300,165.42233279,98.87285351,-57.81966378,-120.11488293,-113.89479018
12.27808167,12.00689982,-0.03683676,-1.39743208,-0.37247129,2.62924925

>  <Name>
lig.pdb

>  <RI>
0

>  <Rbt.Current_Directory>
/home/itssahil/PROJECTS/Mol_Feturizer/New_Systems/rnas/4k32

>  <Rbt.Executable>
rbdock ($Id: //depot/dev/client3/rdock/2013.1/src/exe/rbdock.cxx#4 $)

>  <Rbt.Library>
libRbt.so (2013.1, Build901 2013/11/27)

>  <Rbt.Parameter_File>
/export/apps/rDock/src/rDock_2013.1_src/data/scripts/dock_solv.prm

>  <Rbt.Receptor>
prm/blind_docking_40.prm

>  <SCORE>
20.088

>  <SCORE.INTER>
2.79218

>  <SCORE.INTER.CONST>
1

>  <SCORE.INTER.POLAR>
0

>  <SCORE.INTER.ROT>
6

>  <SCORE.INTER.SOLV>
21.7397

>  <SCORE.INTER.VDW>
-12.9851

>  <SCORE.INTER.norm>
0.0821228

>  <SCORE.INTRA>
7.73157

>  <SCORE.INTRA.DIHEDRAL>
-2.25087

>  <SCORE.INTRA.DIHEDRAL.0>
18.0069

>  <SCORE.INTRA.POLAR>
0

>  <SCORE.INTRA.POLAR.0>
0

>  <SCORE.INTRA.REPUL>
0

>  <SCORE.INTRA.REPUL.0>
0

>  <SCORE.INTRA.SOLV>
5.41055

>  <SCORE.INTRA.SOLV.lig_0>
-70.7393

>  <SCORE.INTRA.VDW>
6.15173

>  <SCORE.INTRA.VDW.0>
-3.23471

>  <SCORE.INTRA.norm>
0.227399

>  <SCORE.RESTR>
9.56427

>  <SCORE.RESTR.CAVITY>
9.56427

>  <SCORE.RESTR.norm>
0.281302

>  <SCORE.SYSTEM>
0

>  <SCORE.SYSTEM.CONST>
0

>  <SCORE.SYSTEM.DIHEDRAL>
0

>  <SCORE.SYSTEM.SOLV>
0

>  <SCORE.SYSTEM.norm>
0

>  <SCORE.heavy>
34

>  <SCORE.norm>
0.590824

>  <RMSD>
40.299

$$$$
lig.pdb
 OpenBabel11021811503D
libRbt.so/2013.1/901 2013/11/27
 34 36  0  0  0  0  0  0  0  0999 V2000
   10.8759    8.1875    1.4569 C   0  0  2  0  0  0  0  0  0  0  0  0
   11.2811    9.3842    0.7831 O   0  0  0  0  0  0  0  0  0  0  0  0
   10.8172    8.4822    3.0160 C   0  0  2  0  0  0  0  0  0  0  0  0
    9.8465    9.5542    3.3377 N   0  0  0  0  0  0  0  0  0  0  0  0
   12.2281    8.8794    3.5186 C   0  0  1  0  0  0  0  0  0  0  0  0
   12.1966    9.1422    4.9234 O   0  0  0  0  0  0  0  0  0  0  0  0
   13.2063    7.7393    3.1840 C   0  0  2  0  0  0  0  0  0  0  0  0
   14.5115    8.0911    3.6457 O   0  0  0  0  0  0  0  0  0  0  0  0
   13.2101    7.4819    1.6283 C   0  0  2  0  0  0  0  0  0  0  0  0
   11.8536    7.1379    1.1512 O   0  0  0  0  0  0  0  0  0  0  0  0
   14.1701    6.3287    1.2439 C   0  0  2  0  0  0  0  0  0  0  0  0
   15.4590    6.5608    1.8152 O   0  0  0  0  0  0  0  0  0  0  0  0
   14.3207    6.2191   -0.2654 C   0  0  0  0  0  0  0  0  0  0  0  0
    8.5416   12.5031   -0.2583 C   0  0  2  0  0  0  0  0  0  0  0  0
    7.5755   13.5981   -0.1411 N   0  0  0  0  0  0  0  0  0  0  0  0
    8.0059   11.3225    0.5979 C   0  0  0  0  0  0  0  0  0  0  0  0
    9.0056   10.1416    0.4669 C   0  0  2  0  0  0  0  0  0  0  0  0
    8.5340    8.9955    1.2599 N   0  0  0  0  0  0  0  0  0  0  0  0
   10.4194   10.5538    0.9578 C   0  0  2  0  0  0  0  0  0  0  0  0
   10.9171   11.7696    0.1141 C   0  0  2  0  0  0  0  0  0  0  0  0
   12.2184   12.1567    0.5761 O   0  0  0  0  0  0  0  0  0  0  0  0
    9.9605   12.9766    0.2709 C   0  0  1  0  0  0  0  0  0  0  0  0
   10.4844   14.0518   -0.5471 O   0  0  0  0  0  0  0  0  0  0  0  0
   11.5907   14.7967    0.0141 C   0  0  2  0  0  0  0  0  0  0  0  0
   11.3825   16.2919   -0.4314 C   0  0  2  0  0  0  0  0  0  0  0  0
   10.1514   16.7797    0.0783 O   0  0  0  0  0  0  0  0  0  0  0  0
   11.4107   16.3661   -2.0050 C   0  0  1  0  0  0  0  0  0  0  0  0
   11.2061   17.7704   -2.4746 N   0  0  0  0  0  0  0  0  0  0  0  0
    9.7546   18.0400   -2.5591 C   0  0  0  0  0  0  0  0  0  0  0  0
   12.7862   15.8252   -2.5011 C   0  0  2  0  0  0  0  0  0  0  0  0
   13.8215   16.6466   -1.9634 O   0  0  0  0  0  0  0  0  0  0  0  0
   12.8916   15.8554   -4.0237 C   0  0  0  0  0  0  0  0  0  0  0  0
   12.9733   14.3595   -1.9932 C   0  0  0  0  0  0  0  0  0  0  0  0
   12.8723   14.2938   -0.5201 O   0  0  0  0  0  0  0  0  0  0  0  0
  1  3  1  0  0  0  0
  1  2  1  6  0  0  0
  3  5  1  0  0  0  0
  3  4  1  6  0  0  0
  5  6  1  1  0  0  0
  7  8  1  6  0  0  0
  7  5  1  0  0  0  0
  9 10  1  1  0  0  0
  9  7  1  0  0  0  0
 10  1  1  0  0  0  0
 11 13  1  6  0  0  0
 11  9  1  0  0  0  0
 12 11  1  0  0  0  0
 14 15  1  1  0  0  0
 16 14  1  0  0  0  0
 17 18  1  1  0  0  0
 17 16  1  0  0  0  0
 19  2  1  6  0  0  0
 19 20  1  0  0  0  0
 19 17  1  0  0  0  0
 20 21  1  1  0  0  0
 20 22  1  0  0  0  0
 22 23  1  6  0  0  0
 22 14  1  0  0  0  0
 24 23  1  6  0  0  0
 24 25  1  0  0  0  0
 25 27  1  0  0  0  0
 25 26  1  6  0  0  0
 27 28  1  1  0  0  0
 28 29  1  0  0  0  0
 30 31  1  1  0  0  0
 30 32  1  0  0  0  0
 30 27  1  0  0  0  0
 33 30  1  0  0  0  0
 34 33  1  0  0  0  0
 34 24  1  0  0  0  0
M  END
>  <CHROM.1>
-59.67596312,-51.58401475,-57.71052714,164.84311045,-143.61740874,-85.65533266
11.53205972,11.71946296,0.42571184,1.41961425,-0.24275724,2.66945244

>  <Name>
lig.pdb

>  <RI>
0

>  <Rbt.Current_Directory>
/home/itssahil/PROJECTS/Mol_Feturizer/New_Systems/rnas/4k32

>  <Rbt.Executable>
rbdock ($Id: //depot/dev/client3/rdock/2013.1/src/exe/rbdock.cxx#4 $)

>  <Rbt.Library>
libRbt.so (2013.1, Build901 2013/11/27)

>  <Rbt.Parameter_File>
/export/apps/rDock/src/rDock_2013.1_src/data/scripts/dock_solv.prm

>  <Rbt.Receptor>
prm/blind_docking_40.prm

>  <SCORE>
16.444

>  <SCORE.INTER>
7.02998

>  <SCORE.INTER.CONST>
1

>  <SCORE.INTER.POLAR>
0

>  <SCORE.INTER.ROT>
6

>  <SCORE.INTER.SOLV>
24.2235

>  <SCORE.INTER.VDW>
-10.9878

>  <SCORE.INTER.norm>
0.206764

>  <SCORE.INTRA>
2.79514

>  <SCORE.INTRA.DIHEDRAL>
-11.3421

>  <SCORE.INTRA.DIHEDRAL.0>
18.0069

>  <SCORE.INTRA.POLAR>
0

>  <SCORE.INTRA.POLAR.0>
0

>  <SCORE.INTRA.REPUL>
0

>  <SCORE.INTRA.REPUL.0>
0

>  <SCORE.INTRA.SOLV>
3.93025

>  <SCORE.INTRA.SOLV.lig_0>
-70.7393

>  <SCORE.INTRA.VDW>
6.50109

>  <SCORE.INTRA.VDW.0>
-3.23471

>  <SCORE.INTRA.norm>
0.0822101

>  <SCORE.RESTR>
6.61886

>  <SCORE.RESTR.CAVITY>
6.61886

>  <SCORE.RESTR.norm>
0.194672

>  <SCORE.SYSTEM>
0

>  <SCORE.SYSTEM.CONST>
0

>  <SCORE.SYSTEM.DIHEDRAL>
0

>  <SCORE.SYSTEM.SOLV>
0

>  <SCORE.SYSTEM.norm>
0

>  <SCORE.heavy>
34

>  <SCORE.norm>
0.483647

>  <RMSD>
40.306

$$$$
lig.pdb
 OpenBabel11021811503D
libRbt.so/2013.1/901 2013/11/27
 34 36  0  0  0  0  0  0  0  0999 V2000
   11.2575    8.3733    1.6971 C   0  0  2  0  0  0  0  0  0  0  0  0
   12.0164    9.3868    1.0284 O   0  0  0  0  0  0  0  0  0  0  0  0
   10.7775    8.9453    3.0984 C   0  0  2  0  0  0  0  0  0  0  0  0
    9.9226   10.1449    2.9400 N   0  0  0  0  0  0  0  0  0  0  0  0
   12.0147    9.2896    3.9653 C   0  0  1  0  0  0  0  0  0  0  0  0
   11.6021    9.8002    5.2352 O   0  0  0  0  0  0  0  0  0  0  0  0
   12.8707    8.0203    4.1235 C   0  0  2  0  0  0  0  0  0  0  0  0
   14.0139    8.3230    4.9246 O   0  0  0  0  0  0  0  0  0  0  0  0
   13.3032    7.4907    2.7027 C   0  0  2  0  0  0  0  0  0  0  0  0
   12.1174    7.1979    1.8697 O   0  0  0  0  0  0  0  0  0  0  0  0
   14.1550    6.2015    2.8102 C   0  0  2  0  0  0  0  0  0  0  0  0
   15.0487    6.3027    3.9205 O   0  0  0  0  0  0  0  0  0  0  0  0
   14.9726    5.9760    1.5479 C   0  0  0  0  0  0  0  0  0  0  0  0
   10.2316   12.6839   -1.0355 C   0  0  2  0  0  0  0  0  0  0  0  0
    9.4736   13.9092   -1.3005 N   0  0  0  0  0  0  0  0  0  0  0  0
    9.2930   11.7208   -0.2576 C   0  0  0  0  0  0  0  0  0  0  0  0
   10.0717   10.4047    0.0119 C   0  0  2  0  0  0  0  0  0  0  0  0
    9.2166    9.4575    0.7443 N   0  0  0  0  0  0  0  0  0  0  0  0
   11.3552   10.6785    0.8408 C   0  0  2  0  0  0  0  0  0  0  0  0
   12.2606   11.6833    0.0607 C   0  0  2  0  0  0  0  0  0  0  0  0
   13.4407   11.9444    0.8326 O   0  0  0  0  0  0  0  0  0  0  0  0
   11.5206   13.0225   -0.1744 C   0  0  1  0  0  0  0  0  0  0  0  0
   12.4196   13.8894   -0.9092 O   0  0  0  0  0  0  0  0  0  0  0  0
   12.9471   15.0229   -0.1807 C   0  0  2  0  0  0  0  0  0  0  0  0
   12.0285   16.2465   -0.5499 C   0  0  2  0  0  0  0  0  0  0  0  0
   10.6923   15.9835   -0.1516 O   0  0  0  0  0  0  0  0  0  0  0  0
   12.1146   16.5015   -2.1024 C   0  0  1  0  0  0  0  0  0  0  0  0
   11.2474   17.6519   -2.5010 N   0  0  0  0  0  0  0  0  0  0  0  0
    9.8709   17.1592   -2.7226 C   0  0  0  0  0  0  0  0  0  0  0  0
   13.6008   16.7905   -2.4744 C   0  0  2  0  0  0  0  0  0  0  0  0
   14.0297   17.9561   -1.7723 O   0  0  0  0  0  0  0  0  0  0  0  0
   13.7724   17.0411   -3.9705 C   0  0  0  0  0  0  0  0  0  0  0  0
   14.4822   15.5744   -2.0438 C   0  0  0  0  0  0  0  0  0  0  0  0
   14.3358   15.3012   -0.5986 O   0  0  0  0  0  0  0  0  0  0  0  0
  1  3  1  0  0  0  0
  1  2  1  1  0  0  0
  3  5  1  0  0  0  0
  3  4  1  6  0  0  0
  5  6  1  1  0  0  0
  7  8  1  1  0  0  0
  7  5  1  0  0  0  0
  9 10  1  6  0  0  0
  9  7  1  0  0  0  0
 10  1  1  0  0  0  0
 11 13  1  6  0  0  0
 11  9  1  0  0  0  0
 12 11  1  0  0  0  0
 14 15  1  1  0  0  0
 16 14  1  0  0  0  0
 17 18  1  1  0  0  0
 17 16  1  0  0  0  0
 19  2  1  6  0  0  0
 19 20  1  0  0  0  0
 19 17  1  0  0  0  0
 20 21  1  1  0  0  0
 20 22  1  0  0  0  0
 22 23  1  6  0  0  0
 22 14  1  0  0  0  0
 24 23  1  6  0  0  0
 24 25  1  0  0  0  0
 25 27  1  0  0  0  0
 25 26  1  6  0  0  0
 27 28  1  1  0  0  0
 28 29  1  0  0  0  0
 30 31  1  1  0  0  0
 30 32  1  0  0  0  0
 30 27  1  0  0  0  0
 33 30  1  0  0  0  0
 34 33  1  0  0  0  0
 34 24  1  0  0  0  0
M  END
>  <CHROM.1>
-55.35064973,-39.29333170,-59.04603748,133.70693842,-96.63909782,-85.31570659
12.17094102,11.94479639,0.59537275,1.51897392,0.04575334,2.61640793

>  <Name>
lig.pdb

>  <RI>
0

>  <Rbt.Current_Directory>
/home/itssahil/PROJECTS/Mol_Feturizer/New_Systems/rnas/4k32

>  <Rbt.Executable>
rbdock ($Id: //depot/dev/client3/rdock/2013.1/src/exe/rbdock.cxx#4 $)

>  <Rbt.Library>
libRbt.so (2013.1, Build901 2013/11/27)

>  <Rbt.Parameter_File>
/export/apps/rDock/src/rDock_2013.1_src/data/scripts/dock_solv.prm

>  <Rbt.Receptor>
prm/blind_docking_40.prm

>  <SCORE>
17.8133

>  <SCORE.INTER>
3.30861

>  <SCORE.INTER.CONST>
1

>  <SCORE.INTER.POLAR>
0

>  <SCORE.INTER.ROT>
6

>  <SCORE.INTER.SOLV>
19.848

>  <SCORE.INTER.VDW>
-12.0102

>  <SCORE.INTER.norm>
0.0973121

>  <SCORE.INTRA>
7.69806

>  <SCORE.INTRA.DIHEDRAL>
-4.87188

>  <SCORE.INTRA.DIHEDRAL.0>
18.0069

>  <SCORE.INTRA.POLAR>
0

>  <SCORE.INTRA.POLAR.0>
0

>  <SCORE.INTRA.REPUL>
0

>  <SCORE.INTRA.REPUL.0>
0

>  <SCORE.INTRA.SOLV>
7.19269

>  <SCORE.INTRA.SOLV.lig_0>
-70.7393

>  <SCORE.INTRA.VDW>
6.53766

>  <SCORE.INTRA.VDW.0>
-3.23471

>  <SCORE.INTRA.norm>
0.226413

>  <SCORE.RESTR>
6.80661

>  <SCORE.RESTR.CAVITY>
6.80661

>  <SCORE.RESTR.norm>
0.200194

>  <SCORE.SYSTEM>
0

>  <SCORE.SYSTEM.CONST>
0

>  <SCORE.SYSTEM.DIHEDRAL>
0

>  <SCORE.SYSTEM.SOLV>
0

>  <SCORE.SYSTEM.norm>
0

>  <SCORE.heavy>
34

>  <SCORE.norm>
0.52392

>  <RMSD>
40.472

$$$$
lig.pdb
 OpenBabel11021811503D
libRbt.so/2013.1/901 2013/11/27
 34 36  0  0  0  0  0  0  0  0999 V2000
   11.1502    8.2483    1.5643 C   0  0  2  0  0  0  0  0  0  0  0  0
   11.8455    9.2844    0.8619 O   0  0  0  0  0  0  0  0  0  0  0  0
   10.9344    8.7152    3.0665 C   0  0  2  0  0  0  0  0  0  0  0  0
   10.1318    9.9579    3.1472 N   0  0  0  0  0  0  0  0  0  0  0  0
   12.3122    8.9319    3.7416 C   0  0  1  0  0  0  0  0  0  0  0  0
   12.1381    9.3463    5.0986 O   0  0  0  0  0  0  0  0  0  0  0  0
   13.1119    7.6198    3.6550 C   0  0  2  0  0  0  0  0  0  0  0  0
   14.3842    7.8045    4.2776 O   0  0  0  0  0  0  0  0  0  0  0  0
   13.2802    7.1987    2.1448 C   0  0  2  0  0  0  0  0  0  0  0  0
   11.9614    7.0283    1.4986 O   0  0  0  0  0  0  0  0  0  0  0  0
   14.0666    5.8714    2.0075 C   0  0  2  0  0  0  0  0  0  0  0  0
   13.5897    4.9246    2.9655 O   0  0  0  0  0  0  0  0  0  0  0  0
   15.5542    6.0875    2.2375 C   0  0  0  0  0  0  0  0  0  0  0  0
    9.9006   12.7095   -0.8122 C   0  0  2  0  0  0  0  0  0  0  0  0
    9.1411   13.9571   -0.9254 N   0  0  0  0  0  0  0  0  0  0  0  0
    9.0387   11.7194    0.0188 C   0  0  0  0  0  0  0  0  0  0  0  0
    9.8173   10.3805    0.1294 C   0  0  2  0  0  0  0  0  0  0  0  0
    9.0334    9.4076    0.9065 N   0  0  0  0  0  0  0  0  0  0  0  0
   11.1924   10.5930    0.8176 C   0  0  2  0  0  0  0  0  0  0  0  0
   12.0219   11.6253   -0.0096 C   0  0  2  0  0  0  0  0  0  0  0  0
   13.2874   11.8294    0.6334 O   0  0  0  0  0  0  0  0  0  0  0  0
   11.2860   12.9848   -0.0894 C   0  0  1  0  0  0  0  0  0  0  0  0
   12.1117   13.8771   -0.8780 O   0  0  0  0  0  0  0  0  0  0  0  0
   12.7436   14.9614   -0.1579 C   0  0  2  0  0  0  0  0  0  0  0  0
   11.9313   16.2599   -0.5205 C   0  0  2  0  0  0  0  0  0  0  0  0
   10.5816   16.1150   -0.1076 O   0  0  0  0  0  0  0  0  0  0  0  0
   12.0227   16.5039   -2.0745 C   0  0  1  0  0  0  0  0  0  0  0  0
   11.2549   17.7248   -2.4669 N   0  0  0  0  0  0  0  0  0  0  0  0
    9.8327   17.3599   -2.6423 C   0  0  0  0  0  0  0  0  0  0  0  0
   13.5244   16.6616   -2.4628 C   0  0  2  0  0  0  0  0  0  0  0  0
   14.0606   17.7866   -1.7682 O   0  0  0  0  0  0  0  0  0  0  0  0
   13.7012   16.8940   -3.9612 C   0  0  0  0  0  0  0  0  0  0  0  0
   14.3010   15.3741   -2.0384 C   0  0  0  0  0  0  0  0  0  0  0  0
   14.1468   15.1170   -0.5910 O   0  0  0  0  0  0  0  0  0  0  0  0
  1  3  1  0  0  0  0
  1  2  1  6  0  0  0
  3  5  1  0  0  0  0
  3  4  1  6  0  0  0
  5  6  1  1  0  0  0
  7  8  1  6  0  0  0
  7  5  1  0  0  0  0
  9 10  1  1  0  0  0
  9  7  1  0  0  0  0
 10  1  1  0  0  0  0
 11 13  1  1  0  0  0
 11  9  1  0  0  0  0
 12 11  1  0  0  0  0
 14 15  1  1  0  0  0
 16 14  1  0  0  0  0
 17 18  1  1  0  0  0
 17 16  1  0  0  0  0
 19  2  1  6  0  0  0
 19 20  1  0  0  0  0
 19 17  1  0  0  0  0
 20 21  1  1  0  0  0
 20 22  1  0  0  0  0
 22 23  1  6  0  0  0
 22 14  1  0  0  0  0
 24 23  1  6  0  0  0
 24 25  1  0  0  0  0
 25 27  1  0  0  0  0
 25 26  1  6  0  0  0
 27 28  1  1  0  0  0
 28 29  1  0  0  0  0
 30 31  1  1  0  0  0
 30 32  1  0  0  0  0
 30 27  1  0  0  0  0
 33 30  1  0  0  0  0
 34 33  1  0  0  0  0
 34 24  1  0  0  0  0
M  END
>  <CHROM.1>
-59.07893385,44.34898624,-59.20808703,133.85421961,-104.57081833,-84.02010843
12.07854192,11.78634915,0.52296078,1.50852134,-0.02096025,2.66328743

>  <Name>
lig.pdb

>  <RI>
0

>  <Rbt.Current_Directory>
/home/itssahil/PROJECTS/Mol_Feturizer/New_Systems/rnas/4k32

>  <Rbt.Executable>
rbdock ($Id: //depot/dev/client3/rdock/2013.1/src/exe/rbdock.cxx#4 $)

>  <Rbt.Library>
libRbt.so (2013.1, Build901 2013/11/27)

>  <Rbt.Parameter_File>
/export/apps/rDock/src/rDock_2013.1_src/data/scripts/dock_solv.prm

>  <Rbt.Receptor>
prm/blind_docking_40.prm

>  <SCORE>
13.0828

>  <SCORE.INTER>
0.721884

>  <SCORE.INTER.CONST>
1

>  <SCORE.INTER.POLAR>
0

>  <SCORE.INTER.ROT>
6

>  <SCORE.INTER.SOLV>
19.7268

>  <SCORE.INTER.VDW>
-13.6943

>  <SCORE.INTER.norm>
0.0212319

>  <SCORE.INTRA>
6.01398

>  <SCORE.INTRA.DIHEDRAL>
-4.39429

>  <SCORE.INTRA.DIHEDRAL.0>
18.0069

>  <SCORE.INTRA.POLAR>
0

>  <SCORE.INTRA.POLAR.0>
0

>  <SCORE.INTRA.REPUL>
0

>  <SCORE.INTRA.REPUL.0>
0

>  <SCORE.INTRA.SOLV>
6.3598

>  <SCORE.INTRA.SOLV.lig_0>
-70.7393

>  <SCORE.INTRA.VDW>
5.03122

>  <SCORE.INTRA.VDW.0>
-3.23471

>  <SCORE.INTRA.norm>
0.176882

>  <SCORE.RESTR>
6.3469

>  <SCORE.RESTR.CAVITY>
6.3469

>  <SCORE.RESTR.norm>
0.186673

>  <SCORE.SYSTEM>
0

>  <SCORE.SYSTEM.CONST>
0

>  <SCORE.SYSTEM.DIHEDRAL>
0

>  <SCORE.SYSTEM.SOLV>
0

>  <SCORE.SYSTEM.norm>
0

>  <SCORE.heavy>
34

>  <SCORE.norm>
0.384787

>  <RMSD>
40.513

$$$$
lig.pdb
 OpenBabel11021811503D
libRbt.so/2013.1/901 2013/11/27
 34 36  0  0  0  0  0  0  0  0999 V2000
   11.0469    8.7206    1.9039 C   0  0  2  0  0  0  0  0  0  0  0  0
   11.4158    9.8774    1.1450 O   0  0  0  0  0  0  0  0  0  0  0  0
   11.7678    8.7939    3.3168 C   0  0  2  0  0  0  0  0  0  0  0  0
   11.3687   10.0014    4.0767 N   0  0  0  0  0  0  0  0  0  0  0  0
   13.3037    8.7823    3.1126 C   0  0  1  0  0  0  0  0  0  0  0  0
   13.9708    8.8407    4.3755 O   0  0  0  0  0  0  0  0  0  0  0  0
   13.6852    7.5094    2.3362 C   0  0  2  0  0  0  0  0  0  0  0  0
   15.1004    7.4841    2.1441 O   0  0  0  0  0  0  0  0  0  0  0  0
   12.9289    7.4840    0.9528 C   0  0  2  0  0  0  0  0  0  0  0  0
   11.4651    7.5308    1.1553 O   0  0  0  0  0  0  0  0  0  0  0  0
   13.2692    6.2098    0.1405 C   0  0  2  0  0  0  0  0  0  0  0  0
   14.6742    5.9573    0.2019 O   0  0  0  0  0  0  0  0  0  0  0  0
   12.8669    6.3640   -1.3179 C   0  0  0  0  0  0  0  0  0  0  0  0
    8.4483   12.5996   -0.3042 C   0  0  2  0  0  0  0  0  0  0  0  0
    7.4039   13.6264   -0.3353 N   0  0  0  0  0  0  0  0  0  0  0  0
    8.0050   11.5228    0.7244 C   0  0  0  0  0  0  0  0  0  0  0  0
    9.0892   10.4117    0.7541 C   0  0  2  0  0  0  0  0  0  0  0  0
    8.7070    9.3642    1.7141 N   0  0  0  0  0  0  0  0  0  0  0  0
   10.4703   10.9939    1.1581 C   0  0  2  0  0  0  0  0  0  0  0  0
   10.8731   12.1045    0.1373 C   0  0  2  0  0  0  0  0  0  0  0  0
   12.1437   12.6496    0.5181 O   0  0  0  0  0  0  0  0  0  0  0  0
    9.8301   13.2484    0.1286 C   0  0  1  0  0  0  0  0  0  0  0  0
   10.2695   14.2261   -0.8464 O   0  0  0  0  0  0  0  0  0  0  0  0
   10.6960   15.5038   -0.3180 C   0  0  2  0  0  0  0  0  0  0  0  0
   10.8033   16.4743   -1.5526 C   0  0  2  0  0  0  0  0  0  0  0  0
    9.5364   16.5986   -2.1793 O   0  0  0  0  0  0  0  0  0  0  0  0
   11.8767   15.9080   -2.5574 C   0  0  1  0  0  0  0  0  0  0  0  0
   12.0051   16.7951   -3.7537 N   0  0  0  0  0  0  0  0  0  0  0  0
   12.0646   18.2019   -3.3020 C   0  0  0  0  0  0  0  0  0  0  0  0
   13.2429   15.8022   -1.8139 C   0  0  2  0  0  0  0  0  0  0  0  0
   13.6307   17.1055   -1.3819 O   0  0  0  0  0  0  0  0  0  0  0  0
   14.3406   15.2508   -2.7202 C   0  0  0  0  0  0  0  0  0  0  0  0
   13.0775   14.8731   -0.5686 C   0  0  0  0  0  0  0  0  0  0  0  0
   12.0172   15.3769    0.3294 O   0  0  0  0  0  0  0  0  0  0  0  0
  1  3  1  0  0  0  0
  1  2  1  6  0  0  0
  3  5  1  0  0  0  0
  3  4  1  6  0  0  0
  5  6  1  1  0  0  0
  7  8  1  6  0  0  0
  7  5  1  0  0  0  0
  9 10  1  1  0  0  0
  9  7  1  0  0  0  0
 10  1  1  0  0  0  0
 11 13  1  6  0  0  0
 11  9  1  0  0  0  0
 12 11  1  0  0  0  0
 14 15  1  1  0  0  0
 16 14  1  0  0  0  0
 17 18  1  1  0  0  0
 17 16  1  0  0  0  0
 19  2  1  6  0  0  0
 19 20  1  0  0  0  0
 19 17  1  0  0  0  0
 20 21  1  1  0  0  0
 20 22  1  0  0  0  0
 22 23  1  6  0  0  0
 22 14  1  0  0  0  0
 24 23  1  6  0  0  0
 24 25  1  0  0  0  0
 25 27  1  0  0  0  0
 25 26  1  6  0  0  0
 27 28  1  6  0  0  0
 28 29  1  0  0  0  0
 30 31  1  1  0  0  0
 30 32  1  0  0  0  0
 30 27  1  0  0  0  0
 33 30  1  0  0  0  0
 34 33  1  0  0  0  0
 34 24  1  0  0  0  0
M  END
>  <CHROM.1>
-97.36599220,-43.82413723,-52.53775994,131.92464622,-167.45899262,45.09057228
11.67416461,11.83343273,0.20922520,1.43227846,-0.21840634,2.70755876

>  <Name>
lig.pdb

>  <RI>
0

>  <Rbt.Current_Directory>
/home/itssahil/PROJECTS/Mol_Feturizer/New_Systems/rnas/4k32

>  <Rbt.Executable>
rbdock ($Id: //depot/dev/client3/rdock/2013.1/src/exe/rbdock.cxx#4 $)

>  <Rbt.Library>
libRbt.so (2013.1, Build901 2013/11/27)

>  <Rbt.Parameter_File>
/export/apps/rDock/src/rDock_2013.1_src/data/scripts/dock_solv.prm

>  <Rbt.Receptor>
prm/blind_docking_40.prm

>  <SCORE>
20.5246

>  <SCORE.INTER>
3.66741

>  <SCORE.INTER.CONST>
1

>  <SCORE.INTER.POLAR>
0

>  <SCORE.INTER.ROT>
6

>  <SCORE.INTER.SOLV>
26.1566

>  <SCORE.INTER.VDW>
-13.8739

>  <SCORE.INTER.norm>
0.107865

>  <SCORE.INTRA>
9.40266

>  <SCORE.INTRA.DIHEDRAL>
-4.43298

>  <SCORE.INTRA.DIHEDRAL.0>
18.0069

>  <SCORE.INTRA.POLAR>
0

>  <SCORE.INTRA.POLAR.0>
0

>  <SCORE.INTRA.REPUL>
0

>  <SCORE.INTRA.REPUL.0>
0

>  <SCORE.INTRA.SOLV>
1.36396

>  <SCORE.INTRA.SOLV.lig_0>
-70.7393

>  <SCORE.INTRA.VDW>
10.9372

>  <SCORE.INTRA.VDW.0>
-3.23471

>  <SCORE.INTRA.norm>
0.276549

>  <SCORE.RESTR>
7.45455

>  <SCORE.RESTR.CAVITY>
7.45455

>  <SCORE.RESTR.norm>
0.219252

>  <SCORE.SYSTEM>
0

>  <SCORE.SYSTEM.CONST>
0

>  <SCORE.SYSTEM.DIHEDRAL>
0

>  <SCORE.SYSTEM.SOLV>
0

>  <SCORE.SYSTEM.norm>
0

>  <SCORE.heavy>
34

>  <SCORE.norm>
0.603665

>  <RMSD>
40.520

$$$$
lig.pdb
 OpenBabel11021811503D
libRbt.so/2013.1/901 2013/11/27
 34 36  0  0  0  0  0  0  0  0999 V2000
   12.6872    9.8964    1.9588 C   0  0  2  0  0  0  0  0  0  0  0  0
   11.3529    9.5428    1.5784 O   0  0  0  0  0  0  0  0  0  0  0  0
   13.6254    9.7684    0.6842 C   0  0  2  0  0  0  0  0  0  0  0  0
   13.1942   10.6697   -0.4098 N   0  0  0  0  0  0  0  0  0  0  0  0
   13.6248    8.3000    0.1896 C   0  0  1  0  0  0  0  0  0  0  0  0
   14.4705    8.1634   -0.9547 O   0  0  0  0  0  0  0  0  0  0  0  0
   14.0925    7.3944    1.3428 C   0  0  2  0  0  0  0  0  0  0  0  0
   14.1002    6.0367    0.8988 O   0  0  0  0  0  0  0  0  0  0  0  0
   13.1351    7.5757    2.5826 C   0  0  2  0  0  0  0  0  0  0  0  0
   13.1143    8.9859    3.0263 O   0  0  0  0  0  0  0  0  0  0  0  0
   13.5767    6.6942    3.7772 C   0  0  2  0  0  0  0  0  0  0  0  0
   14.9484    6.9487    4.0858 O   0  0  0  0  0  0  0  0  0  0  0  0
   13.4170    5.2159    3.4582 C   0  0  0  0  0  0  0  0  0  0  0  0
    8.5876   12.2249   -0.2861 C   0  0  2  0  0  0  0  0  0  0  0  0
    7.5423   13.2349   -0.4685 N   0  0  0  0  0  0  0  0  0  0  0  0
    8.0149   11.1355    0.6621 C   0  0  0  0  0  0  0  0  0  0  0  0
    9.1012   10.0418    0.8487 C   0  0  2  0  0  0  0  0  0  0  0  0
    8.5987    8.9829    1.7382 N   0  0  0  0  0  0  0  0  0  0  0  0
   10.3973   10.6439    1.4547 C   0  0  2  0  0  0  0  0  0  0  0  0
   10.9282   11.7665    0.5084 C   0  0  2  0  0  0  0  0  0  0  0  0
   12.1191   12.3299    1.0749 O   0  0  0  0  0  0  0  0  0  0  0  0
    9.8790   12.8935    0.3487 C   0  0  1  0  0  0  0  0  0  0  0  0
   10.4416   13.8835   -0.5474 O   0  0  0  0  0  0  0  0  0  0  0  0
   11.5452   14.6600   -0.0250 C   0  0  2  0  0  0  0  0  0  0  0  0
   11.2631   16.1530   -0.4356 C   0  0  2  0  0  0  0  0  0  0  0  0
   10.0401   16.5877    0.1377 O   0  0  0  0  0  0  0  0  0  0  0  0
   11.2158   16.2517   -2.0075 C   0  0  1  0  0  0  0  0  0  0  0  0
   10.9394   17.6544   -2.4439 N   0  0  0  0  0  0  0  0  0  0  0  0
    9.4780   17.8338   -2.5809 C   0  0  0  0  0  0  0  0  0  0  0  0
   12.5854   15.7691   -2.5747 C   0  0  2  0  0  0  0  0  0  0  0  0
   13.6143   16.6197   -2.0713 O   0  0  0  0  0  0  0  0  0  0  0  0
   12.6193   15.8258   -4.0998 C   0  0  0  0  0  0  0  0  0  0  0  0
   12.8484   14.3038   -2.1003 C   0  0  0  0  0  0  0  0  0  0  0  0
   12.8179   14.2124   -0.6254 O   0  0  0  0  0  0  0  0  0  0  0  0
  1  3  1  0  0  0  0
  1  2  1  6  0  0  0
  3  5  1  0  0  0  0
  3  4  1  6  0  0  0
  5  6  1  6  0  0  0
  7  8  1  6  0  0  0
  7  5  1  0  0  0  0
  9 10  1  1  0  0  0
  9  7  1  0  0  0  0
 10  1  1  0  0  0  0
 11 13  1  6  0  0  0
 11  9  1  0  0  0  0
 12 11  1  0  0  0  0
 14 15  1  1  0  0  0
 16 14  1  0  0  0  0
 17 18  1  1  0  0  0
 17 16  1  0  0  0  0
 19  2  1  6  0  0  0
 19 20  1  0  0  0  0
 19 17  1  0  0  0  0
 20 21  1  1  0  0  0
 20 22  1  0  0  0  0
 22 23  1  6  0  0  0
 22 14  1  0  0  0  0
 24 23  1  6  0  0  0
 24 25  1  0  0  0  0
 25 27  1  0  0  0  0
 25 26  1  1  0  0  0
 27 28  1  1  0  0  0
 28 29  1  0  0  0  0
 30 31  1  1  0  0  0
 30 32  1  0  0  0  0
 30 27  1  0  0  0  0
 33 30  1  0  0  0  0
 34 33  1  0  0  0  0
 34 24  1  0  0  0  0
M  END
>  <CHROM.1>
-106.23414346,53.75399622,172.25458610,173.98830714,-135.70984521,-90.94468637
11.80001359,11.70721642,0.26137111,-1.33047325,0.23409519,-0.48623475

>  <Name>
lig.pdb

>  <RI>
0

>  <Rbt.Current_Directory>
/home/itssahil/PROJECTS/Mol_Feturizer/New_Systems/rnas/4k32

>  <Rbt.Executable>
rbdock ($Id: //depot/dev/client3/rdock/2013.1/src/exe/rbdock.cxx#4 $)

>  <Rbt.Library>
libRbt.so (2013.1, Build901 2013/11/27)

>  <Rbt.Parameter_File>
/export/apps/rDock/src/rDock_2013.1_src/data/scripts/dock_solv.prm

>  <Rbt.Receptor>
prm/blind_docking_40.prm

>  <SCORE>
8.42307

>  <SCORE.INTER>
-0.317695

>  <SCORE.INTER.CONST>
1

>  <SCORE.INTER.POLAR>
0

>  <SCORE.INTER.ROT>
6

>  <SCORE.INTER.SOLV>
21.3721

>  <SCORE.INTER.VDW>
-14.9358

>  <SCORE.INTER.norm>
-0.00934396

>  <SCORE.INTRA>
3.29311

>  <SCORE.INTRA.DIHEDRAL>
-4.36446

>  <SCORE.INTRA.DIHEDRAL.0>
18.0069

>  <SCORE.INTRA.POLAR>
0

>  <SCORE.INTRA.POLAR.0>
0

>  <SCORE.INTRA.REPUL>
0

>  <SCORE.INTRA.REPUL.0>
0

>  <SCORE.INTRA.SOLV>
1.06654

>  <SCORE.INTRA.SOLV.lig_0>
-70.7393

>  <SCORE.INTRA.VDW>
4.94207

>  <SCORE.INTRA.VDW.0>
-3.23471

>  <SCORE.INTRA.norm>
0.0968563

>  <SCORE.RESTR>
5.44765

>  <SCORE.RESTR.CAVITY>
5.44765

>  <SCORE.RESTR.norm>
0.160225

>  <SCORE.SYSTEM>
0

>  <SCORE.SYSTEM.CONST>
0

>  <SCORE.SYSTEM.DIHEDRAL>
0

>  <SCORE.SYSTEM.SOLV>
0

>  <SCORE.SYSTEM.norm>
0

>  <SCORE.heavy>
34

>  <SCORE.norm>
0.247737

>  <RMSD>
40.531

$$$$
lig.pdb
 OpenBabel11021811503D
libRbt.so/2013.1/901 2013/11/27
 34 36  0  0  0  0  0  0  0  0999 V2000
   12.6956    9.9234    1.9711 C   0  0  2  0  0  0  0  0  0  0  0  0
   11.3592    9.5822    1.5869 O   0  0  0  0  0  0  0  0  0  0  0  0
   13.6379    9.7772    0.7015 C   0  0  2  0  0  0  0  0  0  0  0  0
   13.2215   10.6763   -0.3999 N   0  0  0  0  0  0  0  0  0  0  0  0
   13.6233    8.3058    0.2159 C   0  0  1  0  0  0  0  0  0  0  0  0
   14.4725    8.1528   -0.9238 O   0  0  0  0  0  0  0  0  0  0  0  0
   14.0759    7.4023    1.3768 C   0  0  2  0  0  0  0  0  0  0  0  0
   14.0706    6.0419    0.9412 O   0  0  0  0  0  0  0  0  0  0  0  0
   13.1152    7.6018    2.6111 C   0  0  2  0  0  0  0  0  0  0  0  0
   13.1079    9.0149    3.0460 O   0  0  0  0  0  0  0  0  0  0  0  0
   13.5417    6.7230    3.8131 C   0  0  2  0  0  0  0  0  0  0  0  0
   14.9284    6.9249    4.0927 O   0  0  0  0  0  0  0  0  0  0  0  0
   13.3147    5.2475    3.5232 C   0  0  0  0  0  0  0  0  0  0  0  0
    8.6324   12.2834   -0.3063 C   0  0  2  0  0  0  0  0  0  0  0  0
    7.5991   13.3038   -0.4996 N   0  0  0  0  0  0  0  0  0  0  0  0
    8.0433   11.2059    0.6453 C   0  0  0  0  0  0  0  0  0  0  0  0
    9.1166   10.1014    0.8435 C   0  0  2  0  0  0  0  0  0  0  0  0
    8.5982    9.0534    1.7366 N   0  0  0  0  0  0  0  0  0  0  0  0
   10.4163   10.6929    1.4523 C   0  0  2  0  0  0  0  0  0  0  0  0
   10.9640   11.8041    0.5021 C   0  0  2  0  0  0  0  0  0  0  0  0
   12.1583   12.3577    1.0711 O   0  0  0  0  0  0  0  0  0  0  0  0
    9.9280   12.9415    0.3309 C   0  0  1  0  0  0  0  0  0  0  0  0
   10.5056   13.9201   -0.5682 O   0  0  0  0  0  0  0  0  0  0  0  0
   11.5859   14.7184   -0.0301 C   0  0  2  0  0  0  0  0  0  0  0  0
   11.2813   16.2052   -0.4472 C   0  0  2  0  0  0  0  0  0  0  0  0
   10.0415   16.6168    0.1068 O   0  0  0  0  0  0  0  0  0  0  0  0
   11.2562   16.3012   -2.0197 C   0  0  1  0  0  0  0  0  0  0  0  0
   10.9594   17.6977   -2.4624 N   0  0  0  0  0  0  0  0  0  0  0  0
    9.4941   17.8646   -2.5694 C   0  0  0  0  0  0  0  0  0  0  0  0
   12.6434   15.8444   -2.5652 C   0  0  2  0  0  0  0  0  0  0  0  0
   13.6478   16.7155   -2.0474 O   0  0  0  0  0  0  0  0  0  0  0  0
   12.6995   15.9001   -4.0898 C   0  0  0  0  0  0  0  0  0  0  0  0
   12.9273   14.3851   -2.0847 C   0  0  0  0  0  0  0  0  0  0  0  0
   12.8761   14.2949   -0.6103 O   0  0  0  0  0  0  0  0  0  0  0  0
  1  3  1  0  0  0  0
  1  2  1  6  0  0  0
  3  5  1  0  0  0  0
  3  4  1  6  0  0  0
  5  6  1  6  0  0  0
  7  8  1  6  0  0  0
  7  5  1  0  0  0  0
  9 10  1  1  0  0  0
  9  7  1  0  0  0  0
 10  1  1  0  0  0  0
 11 13  1  6  0  0  0
 11  9  1  0  0  0  0
 12 11  1  0  0  0  0
 14 15  1  1  0  0  0
 16 14  1  0  0  0  0
 17 18  1  1  0  0  0
 17 16  1  0  0  0  0
 19  2  1  6  0  0  0
 19 20  1  0  0  0  0
 19 17  1  0  0  0  0
 20 21  1  1  0  0  0
 20 22  1  0  0  0  0
 22 23  1  6  0  0  0
 22 14  1  0  0  0  0
 24 23  1  6  0  0  0
 24 25  1  0  0  0  0
 25 27  1  0  0  0  0
 25 26  1  1  0  0  0
 27 28  1  1  0  0  0
 28 29  1  0  0  0  0
 30 31  1  1  0  0  0
 30 32  1  0  0  0  0
 30 27  1  0  0  0  0
 33 30  1  0  0  0  0
 34 33  1  0  0  0  0
 34 24  1  0  0  0  0
M  END
>  <CHROM.1>
-106.23823455,51.47126100,172.22470715,171.99997006,-134.33365648,-88.69234830
11.81798664,11.74743207,0.26807231,-1.33906013,0.23073393,-0.48464931

>  <Name>
lig.pdb

>  <RI>
0

>  <Rbt.Current_Directory>
/home/itssahil/PROJECTS/Mol_Feturizer/New_Systems/rnas/4k32

>  <Rbt.Executable>
rbdock ($Id: //depot/dev/client3/rdock/2013.1/src/exe/rbdock.cxx#4 $)

>  <Rbt.Library>
libRbt.so (2013.1, Build901 2013/11/27)

>  <Rbt.Parameter_File>
/export/apps/rDock/src/rDock_2013.1_src/data/scripts/dock_solv.prm

>  <Rbt.Receptor>
prm/blind_docking_40.prm

>  <SCORE>
7.99403

>  <SCORE.INTER>
-0.651869

>  <SCORE.INTER.CONST>
1

>  <SCORE.INTER.POLAR>
0

>  <SCORE.INTER.ROT>
6

>  <SCORE.INTER.SOLV>
21.4855

>  <SCORE.INTER.VDW>
-15.1964

>  <SCORE.INTER.norm>
-0.0191726

>  <SCORE.INTRA>
3.1085

>  <SCORE.INTRA.DIHEDRAL>
-3.99842

>  <SCORE.INTRA.DIHEDRAL.0>
18.0069

>  <SCORE.INTRA.POLAR>
0

>  <SCORE.INTRA.POLAR.0>
0

>  <SCORE.INTRA.REPUL>
0

>  <SCORE.INTRA.REPUL.0>
0

>  <SCORE.INTRA.SOLV>
1.03275

>  <SCORE.INTRA.SOLV.lig_0>
-70.7393

>  <SCORE.INTRA.VDW>
4.59134

>  <SCORE.INTRA.VDW.0>
-3.23471

>  <SCORE.INTRA.norm>
0.0914264

>  <SCORE.RESTR>
5.5374

>  <SCORE.RESTR.CAVITY>
5.5374

>  <SCORE.RESTR.norm>
0.162865

>  <SCORE.SYSTEM>
0

>  <SCORE.SYSTEM.CONST>
0

>  <SCORE.SYSTEM.DIHEDRAL>
0

>  <SCORE.SYSTEM.SOLV>
0

>  <SCORE.SYSTEM.norm>
0

>  <SCORE.heavy>
34

>  <SCORE.norm>
0.235118

>  <RMSD>
40.532

$$$$
lig.pdb
 OpenBabel11021811503D
libRbt.so/2013.1/901 2013/11/27
 34 36  0  0  0  0  0  0  0  0999 V2000
   11.0521    8.7516    1.9216 C   0  0  2  0  0  0  0  0  0  0  0  0
   11.4485    9.9193    1.1938 O   0  0  0  0  0  0  0  0  0  0  0  0
   11.7719    8.7714    3.3368 C   0  0  2  0  0  0  0  0  0  0  0  0
   11.3989    9.9672    4.1278 N   0  0  0  0  0  0  0  0  0  0  0  0
   13.3075    8.7304    3.1342 C   0  0  1  0  0  0  0  0  0  0  0  0
   13.9735    8.7404    4.3991 O   0  0  0  0  0  0  0  0  0  0  0  0
   13.6615    7.4699    2.3250 C   0  0  2  0  0  0  0  0  0  0  0  0
   15.0761    7.4176    2.1340 O   0  0  0  0  0  0  0  0  0  0  0  0
   12.9073    7.4981    0.9405 C   0  0  2  0  0  0  0  0  0  0  0  0
   11.4446    7.5727    1.1425 O   0  0  0  0  0  0  0  0  0  0  0  0
   13.2201    6.2383    0.0954 C   0  0  2  0  0  0  0  0  0  0  0  0
   14.6321    6.0244    0.0495 O   0  0  0  0  0  0  0  0  0  0  0  0
   12.7054    6.3894   -1.3276 C   0  0  0  0  0  0  0  0  0  0  0  0
    8.5847   12.6329   -0.4650 C   0  0  2  0  0  0  0  0  0  0  0  0
    7.5259   13.6399   -0.5706 N   0  0  0  0  0  0  0  0  0  0  0  0
    8.0625   11.5126    0.4763 C   0  0  0  0  0  0  0  0  0  0  0  0
    9.1629   10.4221    0.5817 C   0  0  2  0  0  0  0  0  0  0  0  0
    8.7079    9.3346    1.4622 N   0  0  0  0  0  0  0  0  0  0  0  0
   10.4815   11.0163    1.1455 C   0  0  2  0  0  0  0  0  0  0  0  0
   10.9618   12.1695    0.2089 C   0  0  2  0  0  0  0  0  0  0  0  0
   12.1738   12.7253    0.7368 O   0  0  0  0  0  0  0  0  0  0  0  0
    9.8995   13.2926    0.1296 C   0  0  1  0  0  0  0  0  0  0  0  0
   10.4146   14.3121   -0.7621 O   0  0  0  0  0  0  0  0  0  0  0  0
   10.8984   15.5219   -0.1329 C   0  0  2  0  0  0  0  0  0  0  0  0
   10.9941   16.6010   -1.2747 C   0  0  2  0  0  0  0  0  0  0  0  0
    9.7112   16.8192   -1.8404 O   0  0  0  0  0  0  0  0  0  0  0  0
   12.0147   16.1023   -2.3666 C   0  0  1  0  0  0  0  0  0  0  0  0
   12.1301   17.0942   -3.4789 N   0  0  0  0  0  0  0  0  0  0  0  0
   11.4533   16.5513   -4.6764 C   0  0  0  0  0  0  0  0  0  0  0  0
   13.4013   15.8888   -1.6867 C   0  0  2  0  0  0  0  0  0  0  0  0
   13.8439   17.1343   -1.1496 O   0  0  0  0  0  0  0  0  0  0  0  0
   14.4499   15.3948   -2.6801 C   0  0  0  0  0  0  0  0  0  0  0  0
   13.2492   14.8515   -0.5282 C   0  0  0  0  0  0  0  0  0  0  0  0
   12.2361   15.2978    0.4511 O   0  0  0  0  0  0  0  0  0  0  0  0
  1  3  1  0  0  0  0
  1  2  1  6  0  0  0
  3  5  1  0  0  0  0
  3  4  1  6  0  0  0
  5  6  1  1  0  0  0
  7  8  1  6  0  0  0
  7  5  1  0  0  0  0
  9 10  1  1  0  0  0
  9  7  1  0  0  0  0
 10  1  1  0  0  0  0
 11 13  1  6  0  0  0
 11  9  1  0  0  0  0
 12 11  1  0  0  0  0
 14 15  1  1  0  0  0
 16 14  1  0  0  0  0
 17 18  1  1  0  0  0
 17 16  1  0  0  0  0
 19  2  1  6  0  0  0
 19 20  1  0  0  0  0
 19 17  1  0  0  0  0
 20 21  1  1  0  0  0
 20 22  1  0  0  0  0
 22 23  1  6  0  0  0
 22 14  1  0  0  0  0
 24 23  1  6  0  0  0
 24 25  1  0  0  0  0
 25 27  1  0  0  0  0
 25 26  1  6  0  0  0
 27 28  1  6  0  0  0
 28 29  1  0  0  0  0
 30 31  1  1  0  0  0
 30 32  1  0  0  0  0
 30 27  1  0  0  0  0
 33 30  1  0  0  0  0
 34 33  1  0  0  0  0
 34 24  1  0  0  0  0
M  END
>  <CHROM.1>
-102.12873903,-49.18550795,-55.14846127,138.75761350,-163.70024192,-107.49569332
11.71867953,11.81902011,0.19944131,1.43980382,-0.18179274,2.70924522

>  <Name>
lig.pdb

>  <RI>
0

>  <Rbt.Current_Directory>
/home/itssahil/PROJECTS/Mol_Feturizer/New_Systems/rnas/4k32

>  <Rbt.Executable>
rbdock ($Id: //depot/dev/client3/rdock/2013.1/src/exe/rbdock.cxx#4 $)

>  <Rbt.Library>
libRbt.so (2013.1, Build901 2013/11/27)

>  <Rbt.Parameter_File>
/export/apps/rDock/src/rDock_2013.1_src/data/scripts/dock_solv.prm

>  <Rbt.Receptor>
prm/blind_docking_40.prm

>  <SCORE>
14.4965

>  <SCORE.INTER>
3.05115

>  <SCORE.INTER.CONST>
1

>  <SCORE.INTER.POLAR>
0

>  <SCORE.INTER.ROT>
6

>  <SCORE.INTER.SOLV>
25.2294

>  <SCORE.INTER.VDW>
-13.9757

>  <SCORE.INTER.norm>
0.0897398

>  <SCORE.INTRA>
2.98708

>  <SCORE.INTRA.DIHEDRAL>
-3.82485

>  <SCORE.INTRA.DIHEDRAL.0>
18.0069

>  <SCORE.INTRA.POLAR>
0

>  <SCORE.INTRA.POLAR.0>
0

>  <SCORE.INTRA.REPUL>
0

>  <SCORE.INTRA.REPUL.0>
0

>  <SCORE.INTRA.SOLV>
0.638941

>  <SCORE.INTRA.SOLV.lig_0>
-70.7393

>  <SCORE.INTRA.VDW>
4.58003

>  <SCORE.INTRA.VDW.0>
-3.23471

>  <SCORE.INTRA.norm>
0.0878554

>  <SCORE.RESTR>
8.45826

>  <SCORE.RESTR.CAVITY>
8.45826

>  <SCORE.RESTR.norm>
0.248772

>  <SCORE.SYSTEM>
0

>  <SCORE.SYSTEM.CONST>
0

>  <SCORE.SYSTEM.DIHEDRAL>
0

>  <SCORE.SYSTEM.SOLV>
0

>  <SCORE.SYSTEM.norm>
0

>  <SCORE.heavy>
34

>  <SCORE.norm>
0.426368

>  <RMSD>
40.548

$$$$
lig.pdb
 OpenBabel11021811503D
libRbt.so/2013.1/901 2013/11/27
 34 36  0  0  0  0  0  0  0  0999 V2000
   13.2862    9.5990    0.9945 C   0  0  2  0  0  0  0  0  0  0  0  0
   11.9596    9.4646    0.4729 O   0  0  0  0  0  0  0  0  0  0  0  0
   14.2019    8.4805    0.3375 C   0  0  2  0  0  0  0  0  0  0  0  0
   14.2611    8.6132   -1.1369 N   0  0  0  0  0  0  0  0  0  0  0  0
   13.6594    7.0804    0.7201 C   0  0  1  0  0  0  0  0  0  0  0  0
   14.4760    6.0591    0.1427 O   0  0  0  0  0  0  0  0  0  0  0  0
   13.6268    6.9703    2.2549 C   0  0  2  0  0  0  0  0  0  0  0  0
   13.1316    5.6817    2.6218 O   0  0  0  0  0  0  0  0  0  0  0  0
   12.7178    8.1130    2.8504 C   0  0  2  0  0  0  0  0  0  0  0  0
   13.2219    9.4444    2.4516 O   0  0  0  0  0  0  0  0  0  0  0  0
   12.6673    8.0531    4.3973 C   0  0  2  0  0  0  0  0  0  0  0  0
   11.9543    9.1835    4.9026 O   0  0  0  0  0  0  0  0  0  0  0  0
   14.0664    8.0554    4.9934 C   0  0  0  0  0  0  0  0  0  0  0  0
    8.9188   12.3971   -0.2129 C   0  0  2  0  0  0  0  0  0  0  0  0
    7.8869   13.4089    0.0276 N   0  0  0  0  0  0  0  0  0  0  0  0
    8.5453   11.1484    0.6327 C   0  0  0  0  0  0  0  0  0  0  0  0
    9.6157   10.0542    0.3722 C   0  0  2  0  0  0  0  0  0  0  0  0
    9.2982    8.8469    1.1511 N   0  0  0  0  0  0  0  0  0  0  0  0
   11.0308   10.5567    0.7654 C   0  0  2  0  0  0  0  0  0  0  0  0
   11.3649   11.8372   -0.0631 C   0  0  2  0  0  0  0  0  0  0  0  0
   12.6676   12.3072    0.3092 O   0  0  0  0  0  0  0  0  0  0  0  0
   10.3375   12.9599    0.2207 C   0  0  1  0  0  0  0  0  0  0  0  0
   10.7102   14.1014   -0.5903 O   0  0  0  0  0  0  0  0  0  0  0  0
   11.7673   14.9375   -0.0638 C   0  0  2  0  0  0  0  0  0  0  0  0
   11.3779   16.4180   -0.4298 C   0  0  2  0  0  0  0  0  0  0  0  0
   10.1380   16.7533    0.1733 O   0  0  0  0  0  0  0  0  0  0  0  0
   11.2977   16.5538   -1.9975 C   0  0  1  0  0  0  0  0  0  0  0  0
   10.9197   17.9451   -2.3919 N   0  0  0  0  0  0  0  0  0  0  0  0
    9.4523   18.0123   -2.5623 C   0  0  0  0  0  0  0  0  0  0  0  0
   12.6872   16.1804   -2.5980 C   0  0  2  0  0  0  0  0  0  0  0  0
   13.6643   17.0859   -2.0874 O   0  0  0  0  0  0  0  0  0  0  0  0
   12.6915   16.2787   -4.1214 C   0  0  0  0  0  0  0  0  0  0  0  0
   13.0567   14.7247   -2.1671 C   0  0  0  0  0  0  0  0  0  0  0  0
   13.0572   14.5934   -0.6949 O   0  0  0  0  0  0  0  0  0  0  0  0
  1  3  1  0  0  0  0
  1  2  1  6  0  0  0
  3  5  1  0  0  0  0
  3  4  1  6  0  0  0
  5  6  1  6  0  0  0
  7  8  1  6  0  0  0
  7  5  1  0  0  0  0
  9 10  1  1  0  0  0
  9  7  1  0  0  0  0
 10  1  1  0  0  0  0
 11 13  1  1  0  0  0
 11  9  1  0  0  0  0
 12 11  1  0  0  0  0
 14 15  1  1  0  0  0
 16 14  1  0  0  0  0
 17 18  1  1  0  0  0
 17 16  1  0  0  0  0
 19  2  1  6  0  0  0
 19 20  1  0  0  0  0
 19 17  1  0  0  0  0
 20 21  1  1  0  0  0
 20 22  1  0  0  0  0
 22 23  1  6  0  0  0
 22 14  1  0  0  0  0
 24 23  1  6  0  0  0
 24 25  1  0  0  0  0
 25 27  1  0  0  0  0
 25 26  1  1  0  0  0
 27 28  1  1  0  0  0
 28 29  1  0  0  0  0
 30 31  1  1  0  0  0
 30 32  1  0  0  0  0
 30 27  1  0  0  0  0
 33 30  1  0  0  0  0
 34 33  1  0  0  0  0
 34 24  1  0  0  0  0
M  END
>  <CHROM.1>
-168.90282862,173.86417163,-168.20339893,162.62255371,-142.58255271,-93.50152398
11.89827903,11.82620331,0.29837867,-1.37226619,0.41381707,-0.51775245

>  <Name>
lig.pdb

>  <RI>
0

>  <Rbt.Current_Directory>
/home/itssahil/PROJECTS/Mol_Feturizer/New_Systems/rnas/4k32

>  <Rbt.Executable>
rbdock ($Id: //depot/dev/client3/rdock/2013.1/src/exe/rbdock.cxx#4 $)

>  <Rbt.Library>
libRbt.so (2013.1, Build901 2013/11/27)

>  <Rbt.Parameter_File>
/export/apps/rDock/src/rDock_2013.1_src/data/scripts/dock_solv.prm

>  <Rbt.Receptor>
prm/blind_docking_40.prm

>  <SCORE>
-0.662566

>  <SCORE.INTER>
-3.13603

>  <SCORE.INTER.CONST>
1

>  <SCORE.INTER.POLAR>
0

>  <SCORE.INTER.ROT>
6

>  <SCORE.INTER.SOLV>
22.908

>  <SCORE.INTER.VDW>
-17.3267

>  <SCORE.INTER.norm>
-0.0922361

>  <SCORE.INTRA>
-4.40057

>  <SCORE.INTRA.DIHEDRAL>
-9.5153

>  <SCORE.INTRA.DIHEDRAL.0>
18.0069

>  <SCORE.INTRA.POLAR>
0

>  <SCORE.INTRA.POLAR.0>
0

>  <SCORE.INTRA.REPUL>
0

>  <SCORE.INTRA.REPUL.0>
0

>  <SCORE.INTRA.SOLV>
-2.5714

>  <SCORE.INTRA.SOLV.lig_0>
-70.7393

>  <SCORE.INTRA.VDW>
1.64278

>  <SCORE.INTRA.VDW.0>
-3.23471

>  <SCORE.INTRA.norm>
-0.129428

>  <SCORE.RESTR>
6.87403

>  <SCORE.RESTR.CAVITY>
6.87403

>  <SCORE.RESTR.norm>
0.202177

>  <SCORE.SYSTEM>
0

>  <SCORE.SYSTEM.CONST>
0

>  <SCORE.SYSTEM.DIHEDRAL>
0

>  <SCORE.SYSTEM.SOLV>
0

>  <SCORE.SYSTEM.norm>
0

>  <SCORE.heavy>
34

>  <SCORE.norm>
-0.0194872

>  <RMSD>
40.555

$$$$
lig.pdb
 OpenBabel11021811503D
libRbt.so/2013.1/901 2013/11/27
 34 36  0  0  0  0  0  0  0  0999 V2000
   11.0444    8.7719    1.9242 C   0  0  2  0  0  0  0  0  0  0  0  0
   11.4541    9.9299    1.1884 O   0  0  0  0  0  0  0  0  0  0  0  0
   11.7656    8.7923    3.3386 C   0  0  2  0  0  0  0  0  0  0  0  0
   11.4075    9.9977    4.1220 N   0  0  0  0  0  0  0  0  0  0  0  0
   13.3004    8.7316    3.1351 C   0  0  1  0  0  0  0  0  0  0  0  0
   13.9675    8.7419    4.3994 O   0  0  0  0  0  0  0  0  0  0  0  0
   13.6386    7.4617    2.3340 C   0  0  2  0  0  0  0  0  0  0  0  0
   15.0523    7.3912    2.1423 O   0  0  0  0  0  0  0  0  0  0  0  0
   12.8837    7.4898    0.9500 C   0  0  2  0  0  0  0  0  0  0  0  0
   11.4221    7.5833    1.1525 O   0  0  0  0  0  0  0  0  0  0  0  0
   13.1806    6.2209    0.1129 C   0  0  2  0  0  0  0  0  0  0  0  0
   14.5928    6.0375   -0.0041 O   0  0  0  0  0  0  0  0  0  0  0  0
   12.5882    6.3323   -1.2833 C   0  0  0  0  0  0  0  0  0  0  0  0
    8.6448   12.6674   -0.5235 C   0  0  2  0  0  0  0  0  0  0  0  0
    7.5949   13.6813   -0.6488 N   0  0  0  0  0  0  0  0  0  0  0  0
    8.0948   11.5466    0.4012 C   0  0  0  0  0  0  0  0  0  0  0  0
    9.1859   10.4491    0.5270 C   0  0  2  0  0  0  0  0  0  0  0  0
    8.7047    9.3609    1.3926 N   0  0  0  0  0  0  0  0  0  0  0  0
   10.4950   11.0330    1.1227 C   0  0  2  0  0  0  0  0  0  0  0  0
   11.0033   12.1868    0.2019 C   0  0  2  0  0  0  0  0  0  0  0  0
   12.2064   12.7331    0.7593 O   0  0  0  0  0  0  0  0  0  0  0  0
    9.9499   13.3168    0.1033 C   0  0  1  0  0  0  0  0  0  0  0  0
   10.4911   14.3365   -0.7725 O   0  0  0  0  0  0  0  0  0  0  0  0
   10.9861   15.5327   -0.1260 C   0  0  2  0  0  0  0  0  0  0  0  0
   11.0821   16.6301   -1.2502 C   0  0  2  0  0  0  0  0  0  0  0  0
    9.7975   16.8657   -1.8047 O   0  0  0  0  0  0  0  0  0  0  0  0
   12.0934   16.1433   -2.3561 C   0  0  1  0  0  0  0  0  0  0  0  0
   12.2088   17.1529   -3.4523 N   0  0  0  0  0  0  0  0  0  0  0  0
   11.3382   16.7422   -4.5748 C   0  0  0  0  0  0  0  0  0  0  0  0
   13.4824   15.9098   -1.6878 C   0  0  2  0  0  0  0  0  0  0  0  0
   13.9360   17.1434   -1.1326 O   0  0  0  0  0  0  0  0  0  0  0  0
   14.5223   15.4260   -2.6953 C   0  0  0  0  0  0  0  0  0  0  0  0
   13.3303   14.8543   -0.5459 C   0  0  0  0  0  0  0  0  0  0  0  0
   12.3256   15.2904    0.4465 O   0  0  0  0  0  0  0  0  0  0  0  0
  1  3  1  0  0  0  0
  1  2  1  6  0  0  0
  3  5  1  0  0  0  0
  3  4  1  6  0  0  0
  5  6  1  1  0  0  0
  7  8  1  6  0  0  0
  7  5  1  0  0  0  0
  9 10  1  1  0  0  0
  9  7  1  0  0  0  0
 10  1  1  0  0  0  0
 11 13  1  6  0  0  0
 11  9  1  0  0  0  0
 12 11  1  0  0  0  0
 14 15  1  1  0  0  0
 16 14  1  0  0  0  0
 17 18  1  1  0  0  0
 17 16  1  0  0  0  0
 19  2  1  6  0  0  0
 19 20  1  0  0  0  0
 19 17  1  0  0  0  0
 20 21  1  1  0  0  0
 20 22  1  0  0  0  0
 22 23  1  6  0  0  0
 22 14  1  0  0  0  0
 24 23  1  6  0  0  0
 24 25  1  0  0  0  0
 25 27  1  0  0  0  0
 25 26  1  6  0  0  0
 27 28  1  6  0  0  0
 28 29  1  0  0  0  0
 30 31  1  1  0  0  0
 30 32  1  0  0  0  0
 30 27  1  0  0  0  0
 33 30  1  0  0  0  0
 34 33  1  0  0  0  0
 34 24  1  0  0  0  0
M  END
>  <CHROM.1>
-102.69998692,-52.84897961,-56.31166825,139.64291785,-162.50278429,-98.16751501
11.74213555,11.83889075,0.19544296,1.45120071,-0.14724720,2.71909553

>  <Name>
lig.pdb

>  <RI>
0

>  <Rbt.Current_Directory>
/home/itssahil/PROJECTS/Mol_Feturizer/New_Systems/rnas/4k32

>  <Rbt.Executable>
rbdock ($Id: //depot/dev/client3/rdock/2013.1/src/exe/rbdock.cxx#4 $)

>  <Rbt.Library>
libRbt.so (2013.1, Build901 2013/11/27)

>  <Rbt.Parameter_File>
/export/apps/rDock/src/rDock_2013.1_src/data/scripts/dock_solv.prm

>  <Rbt.Receptor>
prm/blind_docking_40.prm

>  <SCORE>
13.889

>  <SCORE.INTER>
2.87726

>  <SCORE.INTER.CONST>
1

>  <SCORE.INTER.POLAR>
0

>  <SCORE.INTER.ROT>
6

>  <SCORE.INTER.SOLV>
24.9011

>  <SCORE.INTER.VDW>
-13.9822

>  <SCORE.INTER.norm>
0.0846254

>  <SCORE.INTRA>
2.38631

>  <SCORE.INTRA.DIHEDRAL>
-4.21736

>  <SCORE.INTRA.DIHEDRAL.0>
18.0069

>  <SCORE.INTRA.POLAR>
0

>  <SCORE.INTRA.POLAR.0>
0

>  <SCORE.INTRA.REPUL>
0

>  <SCORE.INTRA.REPUL.0>
0

>  <SCORE.INTRA.SOLV>
0.549818

>  <SCORE.INTRA.SOLV.lig_0>
-70.7393

>  <SCORE.INTRA.VDW>
4.22008

>  <SCORE.INTRA.VDW.0>
-3.23471

>  <SCORE.INTRA.norm>
0.0701857

>  <SCORE.RESTR>
8.62545

>  <SCORE.RESTR.CAVITY>
8.62545

>  <SCORE.RESTR.norm>
0.25369

>  <SCORE.SYSTEM>
0

>  <SCORE.SYSTEM.CONST>
0

>  <SCORE.SYSTEM.DIHEDRAL>
0

>  <SCORE.SYSTEM.SOLV>
0

>  <SCORE.SYSTEM.norm>
0

>  <SCORE.heavy>
34

>  <SCORE.norm>
0.408501

>  <RMSD>
40.564

$$$$
lig.pdb
 OpenBabel11021811503D
libRbt.so/2013.1/901 2013/11/27
 34 36  0  0  0  0  0  0  0  0999 V2000
   12.9166    9.9566    1.8046 C   0  0  2  0  0  0  0  0  0  0  0  0
   11.5662    9.5555    1.5481 O   0  0  0  0  0  0  0  0  0  0  0  0
   13.7514    9.8031    0.4627 C   0  0  2  0  0  0  0  0  0  0  0  0
   13.2079   10.6507   -0.6241 N   0  0  0  0  0  0  0  0  0  0  0  0
   13.7517    8.3172    0.0234 C   0  0  1  0  0  0  0  0  0  0  0  0
   14.5053    8.1579   -1.1808 O   0  0  0  0  0  0  0  0  0  0  0  0
   14.3365    7.4685    1.1663 C   0  0  2  0  0  0  0  0  0  0  0  0
   14.3461    6.0954    0.7727 O   0  0  0  0  0  0  0  0  0  0  0  0
   13.4783    7.6733    2.4731 C   0  0  2  0  0  0  0  0  0  0  0  0
   13.4541    9.0985    2.8656 O   0  0  0  0  0  0  0  0  0  0  0  0
   14.0397    6.8497    3.6587 C   0  0  2  0  0  0  0  0  0  0  0  0
   13.9258    5.4538    3.3754 O   0  0  0  0  0  0  0  0  0  0  0  0
   13.2818    7.1479    4.9429 C   0  0  0  0  0  0  0  0  0  0  0  0
    8.7221   12.1640   -0.3023 C   0  0  2  0  0  0  0  0  0  0  0  0
    7.6479   13.1442   -0.4794 N   0  0  0  0  0  0  0  0  0  0  0  0
    8.1824   11.0548    0.6423 C   0  0  0  0  0  0  0  0  0  0  0  0
    9.3000    9.9921    0.8232 C   0  0  2  0  0  0  0  0  0  0  0  0
    8.8295    8.9158    1.7091 N   0  0  0  0  0  0  0  0  0  0  0  0
   10.5790   10.6291    1.4300 C   0  0  2  0  0  0  0  0  0  0  0  0
   11.0760   11.7702    0.4874 C   0  0  2  0  0  0  0  0  0  0  0  0
   12.2510   12.3655    1.0547 O   0  0  0  0  0  0  0  0  0  0  0  0
    9.9945   12.8670    0.3336 C   0  0  1  0  0  0  0  0  0  0  0  0
   10.5271   13.8764   -0.5594 O   0  0  0  0  0  0  0  0  0  0  0  0
   11.5939   14.6967   -0.0277 C   0  0  2  0  0  0  0  0  0  0  0  0
   11.2548   16.1773   -0.4403 C   0  0  2  0  0  0  0  0  0  0  0  0
   10.0105   16.5616    0.1231 O   0  0  0  0  0  0  0  0  0  0  0  0
   11.2165   16.2749   -2.0124 C   0  0  1  0  0  0  0  0  0  0  0  0
   10.8870   17.6654   -2.4508 N   0  0  0  0  0  0  0  0  0  0  0  0
    9.4184   17.7960   -2.5644 C   0  0  0  0  0  0  0  0  0  0  0  0
   12.6092   15.8486   -2.5684 C   0  0  2  0  0  0  0  0  0  0  0  0
   13.5985   16.7401   -2.0564 O   0  0  0  0  0  0  0  0  0  0  0  0
   12.6533   15.9076   -4.0932 C   0  0  0  0  0  0  0  0  0  0  0  0
   12.9275   14.3950   -2.0922 C   0  0  0  0  0  0  0  0  0  0  0  0
   12.8887   14.3016   -0.6176 O   0  0  0  0  0  0  0  0  0  0  0  0
  1  3  1  0  0  0  0
  1  2  1  6  0  0  0
  3  5  1  0  0  0  0
  3  4  1  6  0  0  0
  5  6  1  6  0  0  0
  7  8  1  6  0  0  0
  7  5  1  0  0  0  0
  9 10  1  1  0  0  0
  9  7  1  0  0  0  0
 10  1  1  0  0  0  0
 11 13  1  1  0  0  0
 11  9  1  0  0  0  0
 12 11  1  0  0  0  0
 14 15  1  1  0  0  0
 16 14  1  0  0  0  0
 17 18  1  1  0  0  0
 17 16  1  0  0  0  0
 19  2  1  6  0  0  0
 19 20  1  0  0  0  0
 19 17  1  0  0  0  0
 20 21  1  1  0  0  0
 20 22  1  0  0  0  0
 22 23  1  6  0  0  0
 22 14  1  0  0  0  0
 24 23  1  6  0  0  0
 24 25  1  0  0  0  0
 25 27  1  0  0  0  0
 25 26  1  1  0  0  0
 27 28  1  1  0  0  0
 28 29  1  0  0  0  0
 30 31  1  1  0  0  0
 30 32  1  0  0  0  0
 30 27  1  0  0  0  0
 33 30  1  0  0  0  0
 34 33  1  0  0  0  0
 34 24  1  0  0  0  0
M  END
>  <CHROM.1>
-104.74463599,-64.79812630,166.58419493,173.02300857,-135.49473739,-89.42811230
11.87650771,11.73968502,0.22963995,-1.32675889,0.29163961,-0.50198921

>  <Name>
lig.pdb

>  <RI>
0

>  <Rbt.Current_Directory>
/home/itssahil/PROJECTS/Mol_Feturizer/New_Systems/rnas/4k32

>  <Rbt.Executable>
rbdock ($Id: //depot/dev/client3/rdock/2013.1/src/exe/rbdock.cxx#4 $)

>  <Rbt.Library>
libRbt.so (2013.1, Build901 2013/11/27)

>  <Rbt.Parameter_File>
/export/apps/rDock/src/rDock_2013.1_src/data/scripts/dock_solv.prm

>  <Rbt.Receptor>
prm/blind_docking_40.prm

>  <SCORE>
5.73381

>  <SCORE.INTER>
-3.25591

>  <SCORE.INTER.CONST>
1

>  <SCORE.INTER.POLAR>
0

>  <SCORE.INTER.ROT>
6

>  <SCORE.INTER.SOLV>
20.2105

>  <SCORE.INTER.VDW>
-16.5074

>  <SCORE.INTER.norm>
-0.0957622

>  <SCORE.INTRA>
2.56953

>  <SCORE.INTRA.DIHEDRAL>
-4.01233

>  <SCORE.INTRA.DIHEDRAL.0>
18.0069

>  <SCORE.INTRA.POLAR>
0

>  <SCORE.INTRA.POLAR.0>
0

>  <SCORE.INTRA.REPUL>
0

>  <SCORE.INTRA.REPUL.0>
0

>  <SCORE.INTRA.SOLV>
0.886428

>  <SCORE.INTRA.SOLV.lig_0>
-70.7393

>  <SCORE.INTRA.VDW>
4.13248

>  <SCORE.INTRA.VDW.0>
-3.23471

>  <SCORE.INTRA.norm>
0.0755745

>  <SCORE.RESTR>
6.42019

>  <SCORE.RESTR.CAVITY>
6.42019

>  <SCORE.RESTR.norm>
0.188829

>  <SCORE.SYSTEM>
0

>  <SCORE.SYSTEM.CONST>
0

>  <SCORE.SYSTEM.DIHEDRAL>
0

>  <SCORE.SYSTEM.SOLV>
0

>  <SCORE.SYSTEM.norm>
0

>  <SCORE.heavy>
34

>  <SCORE.norm>
0.168641

>  <RMSD>
40.581

$$$$
lig.pdb
 OpenBabel11021811503D
libRbt.so/2013.1/901 2013/11/27
 34 36  0  0  0  0  0  0  0  0999 V2000
   13.3010    9.6063    0.9632 C   0  0  2  0  0  0  0  0  0  0  0  0
   11.9715    9.4665    0.4502 O   0  0  0  0  0  0  0  0  0  0  0  0
   14.2221    8.5068    0.2822 C   0  0  2  0  0  0  0  0  0  0  0  0
   14.2680    8.6621   -1.1905 N   0  0  0  0  0  0  0  0  0  0  0  0
   13.6965    7.0959    0.6481 C   0  0  1  0  0  0  0  0  0  0  0  0
   14.5184    6.0914    0.0489 O   0  0  0  0  0  0  0  0  0  0  0  0
   13.6774    6.9626    2.1812 C   0  0  2  0  0  0  0  0  0  0  0  0
   13.1979    5.6637    2.5327 O   0  0  0  0  0  0  0  0  0  0  0  0
   12.7622    8.0871    2.8010 C   0  0  2  0  0  0  0  0  0  0  0  0
   13.2500    9.4293    2.4182 O   0  0  0  0  0  0  0  0  0  0  0  0
   12.7249    8.0037    4.3472 C   0  0  2  0  0  0  0  0  0  0  0  0
   11.9892    9.1094    4.8742 O   0  0  0  0  0  0  0  0  0  0  0  0
   14.1279    8.0306    4.9332 C   0  0  0  0  0  0  0  0  0  0  0  0
    8.9241   12.3934   -0.2306 C   0  0  2  0  0  0  0  0  0  0  0  0
    7.8914   13.4039    0.0115 N   0  0  0  0  0  0  0  0  0  0  0  0
    8.5550   11.1451    0.6176 C   0  0  0  0  0  0  0  0  0  0  0  0
    9.6264   10.0523    0.3554 C   0  0  2  0  0  0  0  0  0  0  0  0
    9.3129    8.8455    1.1367 N   0  0  0  0  0  0  0  0  0  0  0  0
   11.0418   10.5576    0.7439 C   0  0  2  0  0  0  0  0  0  0  0  0
   11.3716   11.8375   -0.0871 C   0  0  2  0  0  0  0  0  0  0  0  0
   12.6746   12.3100    0.2810 O   0  0  0  0  0  0  0  0  0  0  0  0
   10.3433   12.9589    0.1983 C   0  0  1  0  0  0  0  0  0  0  0  0
   10.7119   14.1000   -0.6152 O   0  0  0  0  0  0  0  0  0  0  0  0
   11.7488   14.9549   -0.0789 C   0  0  2  0  0  0  0  0  0  0  0  0
   11.3454   16.4268   -0.4639 C   0  0  2  0  0  0  0  0  0  0  0  0
   10.0915   16.7502    0.1162 O   0  0  0  0  0  0  0  0  0  0  0  0
   11.2890   16.5483   -2.0338 C   0  0  1  0  0  0  0  0  0  0  0  0
   10.8986   17.9310   -2.4462 N   0  0  0  0  0  0  0  0  0  0  0  0
    9.4239   18.0099   -2.5204 C   0  0  0  0  0  0  0  0  0  0  0  0
   12.6929   16.1889   -2.6085 C   0  0  2  0  0  0  0  0  0  0  0  0
   13.6493   17.1119   -2.0899 O   0  0  0  0  0  0  0  0  0  0  0  0
   12.7207   16.2745   -4.1324 C   0  0  0  0  0  0  0  0  0  0  0  0
   13.0750   14.7421   -2.1592 C   0  0  0  0  0  0  0  0  0  0  0  0
   13.0534   14.6231   -0.6861 O   0  0  0  0  0  0  0  0  0  0  0  0
  1  3  1  0  0  0  0
  1  2  1  6  0  0  0
  3  5  1  0  0  0  0
  3  4  1  6  0  0  0
  5  6  1  6  0  0  0
  7  8  1  6  0  0  0
  7  5  1  0  0  0  0
  9 10  1  1  0  0  0
  9  7  1  0  0  0  0
 10  1  1  0  0  0  0
 11 13  1  1  0  0  0
 11  9  1  0  0  0  0
 12 11  1  0  0  0  0
 14 15  1  1  0  0  0
 16 14  1  0  0  0  0
 17 18  1  1  0  0  0
 17 16  1  0  0  0  0
 19  2  1  6  0  0  0
 19 20  1  0  0  0  0
 19 17  1  0  0  0  0
 20 21  1  1  0  0  0
 20 22  1  0  0  0  0
 22 23  1  6  0  0  0
 22 14  1  0  0  0  0
 24 23  1  6  0  0  0
 24 25  1  0  0  0  0
 25 27  1  0  0  0  0
 25 26  1  1  0  0  0
 27 28  1  1  0  0  0
 28 29  1  0  0  0  0
 30 31  1  1  0  0  0
 30 32  1  0  0  0  0
 30 27  1  0  0  0  0
 33 30  1  0  0  0  0
 34 33  1  0  0  0  0
 34 24  1  0  0  0  0
M  END
>  <CHROM.1>
-167.72877924,174.65754996,-168.45425567,161.32042737,-142.69469187,-88.36548520
11.91102691,11.82553927,0.26670686,-1.36650690,0.41051840,-0.51540938

>  <Name>
lig.pdb

>  <RI>
0

>  <Rbt.Current_Directory>
/home/itssahil/PROJECTS/Mol_Feturizer/New_Systems/rnas/4k32

>  <Rbt.Executable>
rbdock ($Id: //depot/dev/client3/rdock/2013.1/src/exe/rbdock.cxx#4 $)

>  <Rbt.Library>
libRbt.so (2013.1, Build901 2013/11/27)

>  <Rbt.Parameter_File>
/export/apps/rDock/src/rDock_2013.1_src/data/scripts/dock_solv.prm

>  <Rbt.Receptor>
prm/blind_docking_40.prm

>  <SCORE>
-0.544944

>  <SCORE.INTER>
-3.19473

>  <SCORE.INTER.CONST>
1

>  <SCORE.INTER.POLAR>
0

>  <SCORE.INTER.ROT>
6

>  <SCORE.INTER.SOLV>
22.7628

>  <SCORE.INTER.VDW>
-17.3174

>  <SCORE.INTER.norm>
-0.0939627

>  <SCORE.INTRA>
-4.23107

>  <SCORE.INTRA.DIHEDRAL>
-9.43163

>  <SCORE.INTRA.DIHEDRAL.0>
18.0069

>  <SCORE.INTRA.POLAR>
0

>  <SCORE.INTRA.POLAR.0>
0

>  <SCORE.INTRA.REPUL>
0

>  <SCORE.INTRA.REPUL.0>
0

>  <SCORE.INTRA.SOLV>
-2.51314

>  <SCORE.INTRA.SOLV.lig_0>
-70.7393

>  <SCORE.INTRA.VDW>
1.74131

>  <SCORE.INTRA.VDW.0>
-3.23471

>  <SCORE.INTRA.norm>
-0.124443

>  <SCORE.RESTR>
6.88086

>  <SCORE.RESTR.CAVITY>
6.88086

>  <SCORE.RESTR.norm>
0.202378

>  <SCORE.SYSTEM>
0

>  <SCORE.SYSTEM.CONST>
0

>  <SCORE.SYSTEM.DIHEDRAL>
0

>  <SCORE.SYSTEM.SOLV>
0

>  <SCORE.SYSTEM.norm>
0

>  <SCORE.heavy>
34

>  <SCORE.norm>
-0.0160278

>  <RMSD>
40.588

$$$$
lig.pdb
 OpenBabel11021811503D
libRbt.so/2013.1/901 2013/11/27
 34 36  0  0  0  0  0  0  0  0999 V2000
   13.3044    9.6457    0.9598 C   0  0  2  0  0  0  0  0  0  0  0  0
   11.9888    9.4926    0.4159 O   0  0  0  0  0  0  0  0  0  0  0  0
   14.2485    8.5453    0.3126 C   0  0  2  0  0  0  0  0  0  0  0  0
   14.3296    8.6862   -1.1600 N   0  0  0  0  0  0  0  0  0  0  0  0
   13.7226    7.1348    0.6798 C   0  0  1  0  0  0  0  0  0  0  0  0
   14.5648    6.1296    0.1110 O   0  0  0  0  0  0  0  0  0  0  0  0
   13.6667    7.0167    2.2133 C   0  0  2  0  0  0  0  0  0  0  0  0
   13.1865    5.7184    2.5660 O   0  0  0  0  0  0  0  0  0  0  0  0
   12.7299    8.1416    2.7991 C   0  0  2  0  0  0  0  0  0  0  0  0
   13.2188    9.4829    2.4148 O   0  0  0  0  0  0  0  0  0  0  0  0
   12.6552    8.0733    4.3447 C   0  0  2  0  0  0  0  0  0  0  0  0
   11.9930    9.2346    4.8493 O   0  0  0  0  0  0  0  0  0  0  0  0
   14.0443    8.0009    4.9595 C   0  0  0  0  0  0  0  0  0  0  0  0
    8.9213   12.3892   -0.3033 C   0  0  2  0  0  0  0  0  0  0  0  0
    7.8690   13.3823   -0.0741 N   0  0  0  0  0  0  0  0  0  0  0  0
    8.5467   11.1237    0.5165 C   0  0  0  0  0  0  0  0  0  0  0  0
    9.6393   10.0489    0.2671 C   0  0  2  0  0  0  0  0  0  0  0  0
    9.3216    8.8267    1.0221 N   0  0  0  0  0  0  0  0  0  0  0  0
   11.0370   10.5669    0.7006 C   0  0  2  0  0  0  0  0  0  0  0  0
   11.3714   11.8633   -0.1026 C   0  0  2  0  0  0  0  0  0  0  0  0
   12.6577   12.3473    0.3069 O   0  0  0  0  0  0  0  0  0  0  0  0
   10.3208   12.9667    0.1715 C   0  0  1  0  0  0  0  0  0  0  0  0
   10.6954   14.1246   -0.6152 O   0  0  0  0  0  0  0  0  0  0  0  0
   11.7495   14.9511   -0.0680 C   0  0  2  0  0  0  0  0  0  0  0  0
   11.3763   16.4358   -0.4340 C   0  0  2  0  0  0  0  0  0  0  0  0
   10.1292   16.7772    0.1503 O   0  0  0  0  0  0  0  0  0  0  0  0
   11.3225   16.5787   -2.0022 C   0  0  1  0  0  0  0  0  0  0  0  0
   10.9605   17.9742   -2.3967 N   0  0  0  0  0  0  0  0  0  0  0  0
    9.4884   18.0788   -2.4894 C   0  0  0  0  0  0  0  0  0  0  0  0
   12.7189   16.1981   -2.5817 C   0  0  2  0  0  0  0  0  0  0  0  0
   13.6939   17.0947   -2.0514 O   0  0  0  0  0  0  0  0  0  0  0  0
   12.7487   16.3027   -4.1044 C   0  0  0  0  0  0  0  0  0  0  0  0
   13.0713   14.7381   -2.1512 C   0  0  0  0  0  0  0  0  0  0  0  0
   13.0471   14.6007   -0.6797 O   0  0  0  0  0  0  0  0  0  0  0  0
  1  3  1  0  0  0  0
  1  2  1  6  0  0  0
  3  5  1  0  0  0  0
  3  4  1  6  0  0  0
  5  6  1  1  0  0  0
  7  8  1  6  0  0  0
  7  5  1  0  0  0  0
  9 10  1  1  0  0  0
  9  7  1  0  0  0  0
 10  1  1  0  0  0  0
 11 13  1  1  0  0  0
 11  9  1  0  0  0  0
 12 11  1  0  0  0  0
 14 15  1  1  0  0  0
 16 14  1  0  0  0  0
 17 18  1  1  0  0  0
 17 16  1  0  0  0  0
 19  2  1  6  0  0  0
 19 20  1  0  0  0  0
 19 17  1  0  0  0  0
 20 21  1  1  0  0  0
 20 22  1  0  0  0  0
 22 23  1  6  0  0  0
 22 14  1  0  0  0  0
 24 23  1  6  0  0  0
 24 25  1  0  0  0  0
 25 27  1  0  0  0  0
 25 26  1  1  0  0  0
 27 28  1  1  0  0  0
 28 29  1  0  0  0  0
 30 31  1  1  0  0  0
 30 32  1  0  0  0  0
 30 27  1  0  0  0  0
 33 30  1  0  0  0  0
 34 33  1  0  0  0  0
 34 24  1  0  0  0  0
M  END
>  <CHROM.1>
-169.02672496,170.05013571,-168.79606789,164.05828684,-143.81333148,-89.20394535
11.91676959,11.84924400,0.26603057,-1.37116578,0.38849605,-0.50847598

>  <Name>
lig.pdb

>  <RI>
0

>  <Rbt.Current_Directory>
/home/itssahil/PROJECTS/Mol_Feturizer/New_Systems/rnas/4k32

>  <Rbt.Executable>
rbdock ($Id: //depot/dev/client3/rdock/2013.1/src/exe/rbdock.cxx#4 $)

>  <Rbt.Library>
libRbt.so (2013.1, Build901 2013/11/27)

>  <Rbt.Parameter_File>
/export/apps/rDock/src/rDock_2013.1_src/data/scripts/dock_solv.prm

>  <Rbt.Receptor>
prm/blind_docking_40.prm

>  <SCORE>
-0.354661

>  <SCORE.INTER>
-3.12637

>  <SCORE.INTER.CONST>
1

>  <SCORE.INTER.POLAR>
0

>  <SCORE.INTER.ROT>
6

>  <SCORE.INTER.SOLV>
23.0458

>  <SCORE.INTER.VDW>
-17.3662

>  <SCORE.INTER.norm>
-0.0919521

>  <SCORE.INTRA>
-4.01496

>  <SCORE.INTRA.DIHEDRAL>
-9.93279

>  <SCORE.INTRA.DIHEDRAL.0>
18.0069

>  <SCORE.INTRA.POLAR>
0

>  <SCORE.INTRA.POLAR.0>
0

>  <SCORE.INTRA.REPUL>
0

>  <SCORE.INTRA.REPUL.0>
0

>  <SCORE.INTRA.SOLV>
-2.59665

>  <SCORE.INTRA.SOLV.lig_0>
-70.7393

>  <SCORE.INTRA.VDW>
2.24976

>  <SCORE.INTRA.VDW.0>
-3.23471

>  <SCORE.INTRA.norm>
-0.118087

>  <SCORE.RESTR>
6.78667

>  <SCORE.RESTR.CAVITY>
6.78667

>  <SCORE.RESTR.norm>
0.199608

>  <SCORE.SYSTEM>
0

>  <SCORE.SYSTEM.CONST>
0

>  <SCORE.SYSTEM.DIHEDRAL>
0

>  <SCORE.SYSTEM.SOLV>
0

>  <SCORE.SYSTEM.norm>
0

>  <SCORE.heavy>
34

>  <SCORE.norm>
-0.0104312

>  <RMSD>
40.588

$$$$
lig.pdb
 OpenBabel11021811503D
libRbt.so/2013.1/901 2013/11/27
 34 36  0  0  0  0  0  0  0  0999 V2000
   12.0825    7.8670    2.7773 C   0  0  2  0  0  0  0  0  0  0  0  0
   12.7116    9.1465    2.6454 O   0  0  0  0  0  0  0  0  0  0  0  0
   12.8357    7.0495    3.9111 C   0  0  2  0  0  0  0  0  0  0  0  0
   12.7752    7.7400    5.2205 N   0  0  0  0  0  0  0  0  0  0  0  0
   14.3128    6.8339    3.4957 C   0  0  1  0  0  0  0  0  0  0  0  0
   15.0063    6.0927    4.5023 O   0  0  0  0  0  0  0  0  0  0  0  0
   14.3393    6.1011    2.1426 C   0  0  2  0  0  0  0  0  0  0  0  0
   15.6965    5.8924    1.7493 O   0  0  0  0  0  0  0  0  0  0  0  0
   13.5647    6.9503    1.0632 C   0  0  2  0  0  0  0  0  0  0  0  0
   12.1662    7.1814    1.4835 O   0  0  0  0  0  0  0  0  0  0  0  0
   13.5501    6.2434   -0.3150 C   0  0  2  0  0  0  0  0  0  0  0  0
   14.8393    5.6923   -0.5902 O   0  0  0  0  0  0  0  0  0  0  0  0
   13.1901    7.2156   -1.4276 C   0  0  0  0  0  0  0  0  0  0  0  0
    9.8007   11.4505    0.5159 C   0  0  2  0  0  0  0  0  0  0  0  0
    8.8170   12.4867    0.1925 N   0  0  0  0  0  0  0  0  0  0  0  0
    9.3774   10.8206    1.8716 C   0  0  0  0  0  0  0  0  0  0  0  0
   10.3959    9.7015    2.2202 C   0  0  2  0  0  0  0  0  0  0  0  0
   10.0298    9.0712    3.4983 N   0  0  0  0  0  0  0  0  0  0  0  0
   11.8347   10.2739    2.3279 C   0  0  2  0  0  0  0  0  0  0  0  0
   12.2203   10.9415    0.9701 C   0  0  2  0  0  0  0  0  0  0  0  0
   13.5453   11.4800    1.0745 O   0  0  0  0  0  0  0  0  0  0  0  0
   11.2463   12.0950    0.6280 C   0  0  1  0  0  0  0  0  0  0  0  0
   11.6642   12.6502   -0.6436 O   0  0  0  0  0  0  0  0  0  0  0  0
   10.7898   13.6489   -1.2196 C   0  0  2  0  0  0  0  0  0  0  0  0
   11.4843   14.1240   -2.5498 C   0  0  2  0  0  0  0  0  0  0  0  0
   11.6293   13.0259   -3.4366 O   0  0  0  0  0  0  0  0  0  0  0  0
   12.8850   14.7548   -2.1992 C   0  0  1  0  0  0  0  0  0  0  0  0
   13.5868   15.2121   -3.4372 N   0  0  0  0  0  0  0  0  0  0  0  0
   15.0323   14.9331   -3.2986 C   0  0  0  0  0  0  0  0  0  0  0  0
   12.6581   15.9559   -1.2315 C   0  0  2  0  0  0  0  0  0  0  0  0
   11.8461   16.9267   -1.8899 O   0  0  0  0  0  0  0  0  0  0  0  0
   13.9739   16.6205   -0.8345 C   0  0  0  0  0  0  0  0  0  0  0  0
   11.9213   15.4491    0.0497 C   0  0  0  0  0  0  0  0  0  0  0  0
   10.6428   14.7950   -0.3000 O   0  0  0  0  0  0  0  0  0  0  0  0
  1  3  1  0  0  0  0
  1  2  1  6  0  0  0
  3  5  1  0  0  0  0
  3  4  1  1  0  0  0
  5  6  1  1  0  0  0
  7  8  1  6  0  0  0
  7  5  1  0  0  0  0
  9 10  1  1  0  0  0
  9  7  1  0  0  0  0
 10  1  1  0  0  0  0
 11 13  1  6  0  0  0
 11  9  1  0  0  0  0
 12 11  1  0  0  0  0
 14 15  1  1  0  0  0
 16 14  1  0  0  0  0
 17 18  1  1  0  0  0
 17 16  1  0  0  0  0
 19  2  1  6  0  0  0
 19 20  1  0  0  0  0
 19 17  1  0  0  0  0
 20 21  1  1  0  0  0
 20 22  1  0  0  0  0
 22 23  1  6  0  0  0
 22 14  1  0  0  0  0
 24 23  1  1  0  0  0
 24 25  1  0  0  0  0
 25 27  1  0  0  0  0
 25 26  1  6  0  0  0
 27 28  1  6  0  0  0
 28 29  1  0  0  0  0
 30 31  1  6  0  0  0
 30 32  1  0  0  0  0
 30 27  1  0  0  0  0
 33 30  1  0  0  0  0
 34 33  1  0  0  0  0
 34 24  1  0  0  0  0
M  END
>  <CHROM.1>
-144.89602732,-42.61910544,-0.14362238,57.17647998,177.95839144,-142.25154235
12.46238682,10.77575844,0.53364231,1.37957269,-0.71254858,2.54609816

>  <Name>
lig.pdb

>  <RI>
0

>  <Rbt.Current_Directory>
/home/itssahil/PROJECTS/Mol_Feturizer/New_Systems/rnas/4k32

>  <Rbt.Executable>
rbdock ($Id: //depot/dev/client3/rdock/2013.1/src/exe/rbdock.cxx#4 $)

>  <Rbt.Library>
libRbt.so (2013.1, Build901 2013/11/27)

>  <Rbt.Parameter_File>
/export/apps/rDock/src/rDock_2013.1_src/data/scripts/dock_solv.prm

>  <Rbt.Receptor>
prm/blind_docking_40.prm

>  <SCORE>
21.0822

>  <SCORE.INTER>
3.04899

>  <SCORE.INTER.CONST>
1

>  <SCORE.INTER.POLAR>
0

>  <SCORE.INTER.ROT>
6

>  <SCORE.INTER.SOLV>
19.5665

>  <SCORE.INTER.VDW>
-12.0895

>  <SCORE.INTER.norm>
0.0896763

>  <SCORE.INTRA>
7.88843

>  <SCORE.INTRA.DIHEDRAL>
-4.23744

>  <SCORE.INTRA.DIHEDRAL.0>
18.0069

>  <SCORE.INTRA.POLAR>
0

>  <SCORE.INTRA.POLAR.0>
0

>  <SCORE.INTRA.REPUL>
0

>  <SCORE.INTRA.REPUL.0>
0

>  <SCORE.INTRA.SOLV>
1.87305

>  <SCORE.INTRA.SOLV.lig_0>
-70.7393

>  <SCORE.INTRA.VDW>
9.07062

>  <SCORE.INTRA.VDW.0>
-3.23471

>  <SCORE.INTRA.norm>
0.232013

>  <SCORE.RESTR>
10.1448

>  <SCORE.RESTR.CAVITY>
10.1448

>  <SCORE.RESTR.norm>
0.298376

>  <SCORE.SYSTEM>
0

>  <SCORE.SYSTEM.CONST>
0

>  <SCORE.SYSTEM.DIHEDRAL>
0

>  <SCORE.SYSTEM.SOLV>
0

>  <SCORE.SYSTEM.norm>
0

>  <SCORE.heavy>
34

>  <SCORE.norm>
0.620065

>  <RMSD>
40.615

$$$$
lig.pdb
 OpenBabel11021811503D
libRbt.so/2013.1/901 2013/11/27
 34 36  0  0  0  0  0  0  0  0999 V2000
   13.3128    9.5189    0.8009 C   0  0  2  0  0  0  0  0  0  0  0  0
   11.9171    9.3067    0.5619 O   0  0  0  0  0  0  0  0  0  0  0  0
   14.1352    8.4416   -0.0265 C   0  0  2  0  0  0  0  0  0  0  0  0
   13.8848    8.5567   -1.4822 N   0  0  0  0  0  0  0  0  0  0  0  0
   13.7601    7.0201    0.4629 C   0  0  1  0  0  0  0  0  0  0  0  0
   14.4966    6.0358   -0.2665 O   0  0  0  0  0  0  0  0  0  0  0  0
   14.0475    6.9299    1.9722 C   0  0  2  0  0  0  0  0  0  0  0  0
   13.7093    5.6220    2.4362 O   0  0  0  0  0  0  0  0  0  0  0  0
   13.2177    8.0307    2.7379 C   0  0  2  0  0  0  0  0  0  0  0  0
   13.5558    9.3814    2.2406 O   0  0  0  0  0  0  0  0  0  0  0  0
   13.4874    7.9898    4.2626 C   0  0  2  0  0  0  0  0  0  0  0  0
   13.5431    6.6334    4.7083 O   0  0  0  0  0  0  0  0  0  0  0  0
   12.3922    8.7097    5.0339 C   0  0  0  0  0  0  0  0  0  0  0  0
    8.9199   12.3014   -0.0425 C   0  0  2  0  0  0  0  0  0  0  0  0
    7.9213   13.3393    0.2250 N   0  0  0  0  0  0  0  0  0  0  0  0
    8.5506   11.0708    0.8311 C   0  0  0  0  0  0  0  0  0  0  0  0
    9.5851    9.9493    0.5431 C   0  0  2  0  0  0  0  0  0  0  0  0
    9.2700    8.7583    1.3475 N   0  0  0  0  0  0  0  0  0  0  0  0
   11.0252   10.4232    0.8766 C   0  0  2  0  0  0  0  0  0  0  0  0
   11.3566   11.6865    0.0211 C   0  0  2  0  0  0  0  0  0  0  0  0
   12.6829   12.1302    0.3384 O   0  0  0  0  0  0  0  0  0  0  0  0
   10.3666   12.8357    0.3305 C   0  0  1  0  0  0  0  0  0  0  0  0
   10.7341   13.9595   -0.5073 O   0  0  0  0  0  0  0  0  0  0  0  0
   11.7859   14.8138    0.0001 C   0  0  2  0  0  0  0  0  0  0  0  0
   11.3963   16.2813   -0.4146 C   0  0  2  0  0  0  0  0  0  0  0  0
   10.1517   16.6327    0.1692 O   0  0  0  0  0  0  0  0  0  0  0  0
   11.3267   16.3680   -1.9863 C   0  0  1  0  0  0  0  0  0  0  0  0
   10.9488   17.7456   -2.4264 N   0  0  0  0  0  0  0  0  0  0  0  0
    9.4812   17.8079   -2.5966 C   0  0  0  0  0  0  0  0  0  0  0  0
   12.7209   15.9789   -2.5652 C   0  0  2  0  0  0  0  0  0  0  0  0
   13.6929   16.9020   -2.0765 O   0  0  0  0  0  0  0  0  0  0  0  0
   12.7356   16.0297   -4.0909 C   0  0  0  0  0  0  0  0  0  0  0  0
   13.0901   14.5382   -2.0867 C   0  0  0  0  0  0  0  0  0  0  0  0
   13.0808   14.4528   -0.6112 O   0  0  0  0  0  0  0  0  0  0  0  0
  1  3  1  0  0  0  0
  1  2  1  1  0  0  0
  3  5  1  0  0  0  0
  3  4  1  6  0  0  0
  5  6  1  6  0  0  0
  7  8  1  1  0  0  0
  7  5  1  0  0  0  0
  9 10  1  6  0  0  0
  9  7  1  0  0  0  0
 10  1  1  0  0  0  0
 11 13  1  1  0  0  0
 11  9  1  0  0  0  0
 12 11  1  0  0  0  0
 14 15  1  1  0  0  0
 16 14  1  0  0  0  0
 17 18  1  1  0  0  0
 17 16  1  0  0  0  0
 19  2  1  6  0  0  0
 19 20  1  0  0  0  0
 19 17  1  0  0  0  0
 20 21  1  1  0  0  0
 20 22  1  0  0  0  0
 22 23  1  6  0  0  0
 22 14  1  0  0  0  0
 24 23  1  6  0  0  0
 24 25  1  0  0  0  0
 25 27  1  0  0  0  0
 25 26  1  1  0  0  0
 27 28  1  1  0  0  0
 28 29  1  0  0  0  0
 30 31  1  1  0  0  0
 30 32  1  0  0  0  0
 30 27  1  0  0  0  0
 33 30  1  0  0  0  0
 34 33  1  0  0  0  0
 34 24  1  0  0  0  0
M  END
>  <CHROM.1>
-161.25674688,-41.37317688,-179.70640708,159.75615478,-143.14475164,-92.97403136
11.97595839,11.64978045,0.26901913,-1.34682334,0.45602846,-0.52139578

>  <Name>
lig.pdb

>  <RI>
0

>  <Rbt.Current_Directory>
/home/itssahil/PROJECTS/Mol_Feturizer/New_Systems/rnas/4k32

>  <Rbt.Executable>
rbdock ($Id: //depot/dev/client3/rdock/2013.1/src/exe/rbdock.cxx#4 $)

>  <Rbt.Library>
libRbt.so (2013.1, Build901 2013/11/27)

>  <Rbt.Parameter_File>
/export/apps/rDock/src/rDock_2013.1_src/data/scripts/dock_solv.prm

>  <Rbt.Receptor>
prm/blind_docking_40.prm

>  <SCORE>
0.316568

>  <SCORE.INTER>
-3.17173

>  <SCORE.INTER.CONST>
1

>  <SCORE.INTER.POLAR>
0

>  <SCORE.INTER.ROT>
6

>  <SCORE.INTER.SOLV>
21.4093

>  <SCORE.INTER.VDW>
-16.8509

>  <SCORE.INTER.norm>
-0.0932863

>  <SCORE.INTRA>
-3.44459

>  <SCORE.INTRA.DIHEDRAL>
-7.76952

>  <SCORE.INTRA.DIHEDRAL.0>
18.0069

>  <SCORE.INTRA.POLAR>
0

>  <SCORE.INTRA.POLAR.0>
0

>  <SCORE.INTRA.REPUL>
0

>  <SCORE.INTRA.REPUL.0>
0

>  <SCORE.INTRA.SOLV>
-2.36643

>  <SCORE.INTRA.SOLV.lig_0>
-70.7393

>  <SCORE.INTRA.VDW>
1.62338

>  <SCORE.INTRA.VDW.0>
-3.23471

>  <SCORE.INTRA.norm>
-0.101312

>  <SCORE.RESTR>
6.9329

>  <SCORE.RESTR.CAVITY>
6.9329

>  <SCORE.RESTR.norm>
0.203909

>  <SCORE.SYSTEM>
0

>  <SCORE.SYSTEM.CONST>
0

>  <SCORE.SYSTEM.DIHEDRAL>
0

>  <SCORE.SYSTEM.SOLV>
0

>  <SCORE.SYSTEM.norm>
0

>  <SCORE.heavy>
34

>  <SCORE.norm>
0.00931082

>  <RMSD>
40.621

$$$$
lig.pdb
 OpenBabel11021811503D
libRbt.so/2013.1/901 2013/11/27
 34 36  0  0  0  0  0  0  0  0999 V2000
   13.3560    9.5190    1.0127 C   0  0  2  0  0  0  0  0  0  0  0  0
   12.0270    9.4165    0.4899 O   0  0  0  0  0  0  0  0  0  0  0  0
   14.2589    8.4155    0.3140 C   0  0  2  0  0  0  0  0  0  0  0  0
   14.3162    8.6000   -1.1549 N   0  0  0  0  0  0  0  0  0  0  0  0
   13.7031    7.0082    0.6479 C   0  0  1  0  0  0  0  0  0  0  0  0
   14.5082    5.9999    0.0325 O   0  0  0  0  0  0  0  0  0  0  0  0
   13.6727    6.8438    2.1779 C   0  0  2  0  0  0  0  0  0  0  0  0
   13.1654    5.5480    2.5000 O   0  0  0  0  0  0  0  0  0  0  0  0
   12.7766    7.9736    2.8159 C   0  0  2  0  0  0  0  0  0  0  0  0
   13.2932    9.3133    2.4634 O   0  0  0  0  0  0  0  0  0  0  0  0
   12.7289    7.8592    4.3599 C   0  0  2  0  0  0  0  0  0  0  0  0
   11.9938    8.9570    4.9042 O   0  0  0  0  0  0  0  0  0  0  0  0
   14.1282    7.8689    4.9553 C   0  0  0  0  0  0  0  0  0  0  0  0
    9.0786   12.4273   -0.2577 C   0  0  2  0  0  0  0  0  0  0  0  0
    8.0784   13.4751   -0.0386 N   0  0  0  0  0  0  0  0  0  0  0  0
    8.6663   11.2079    0.6123 C   0  0  0  0  0  0  0  0  0  0  0  0
    9.7025   10.0761    0.3749 C   0  0  2  0  0  0  0  0  0  0  0  0
    9.3474    8.8951    1.1774 N   0  0  0  0  0  0  0  0  0  0  0  0
   11.1322   10.5424    0.7595 C   0  0  2  0  0  0  0  0  0  0  0  0
   11.5062   11.7952   -0.0941 C   0  0  2  0  0  0  0  0  0  0  0  0
   12.8226   12.2320    0.2702 O   0  0  0  0  0  0  0  0  0  0  0  0
   10.5139   12.9545    0.1661 C   0  0  1  0  0  0  0  0  0  0  0  0
   10.9221   14.0675   -0.6672 O   0  0  0  0  0  0  0  0  0  0  0  0
   11.9075   14.9607   -0.0972 C   0  0  2  0  0  0  0  0  0  0  0  0
   11.4360   16.4189   -0.4557 C   0  0  2  0  0  0  0  0  0  0  0  0
   10.1597   16.6662    0.1130 O   0  0  0  0  0  0  0  0  0  0  0  0
   11.3945   16.5730   -2.0233 C   0  0  1  0  0  0  0  0  0  0  0  0
   10.9409   17.9434   -2.4109 N   0  0  0  0  0  0  0  0  0  0  0  0
    9.4721   17.9308   -2.5819 C   0  0  0  0  0  0  0  0  0  0  0  0
   12.8224   16.2971   -2.5852 C   0  0  2  0  0  0  0  0  0  0  0  0
   13.7242   17.2548   -2.0327 O   0  0  0  0  0  0  0  0  0  0  0  0
   12.8663   16.4184   -4.1063 C   0  0  0  0  0  0  0  0  0  0  0  0
   13.2706   14.8614   -2.1622 C   0  0  0  0  0  0  0  0  0  0  0  0
   13.2351   14.7082   -0.6926 O   0  0  0  0  0  0  0  0  0  0  0  0
  1  3  1  0  0  0  0
  1  2  1  6  0  0  0
  3  5  1  0  0  0  0
  3  4  1  6  0  0  0
  5  6  1  6  0  0  0
  7  8  1  6  0  0  0
  7  5  1  0  0  0  0
  9 10  1  1  0  0  0
  9  7  1  0  0  0  0
 10  1  1  0  0  0  0
 11 13  1  1  0  0  0
 11  9  1  0  0  0  0
 12 11  1  0  0  0  0
 14 15  1  1  0  0  0
 16 14  1  0  0  0  0
 17 18  1  1  0  0  0
 17 16  1  0  0  0  0
 19  2  1  6  0  0  0
 19 20  1  0  0  0  0
 19 17  1  0  0  0  0
 20 21  1  1  0  0  0
 20 22  1  0  0  0  0
 22 23  1  6  0  0  0
 22 14  1  0  0  0  0
 24 23  1  6  0  0  0
 24 25  1  0  0  0  0
 25 27  1  0  0  0  0
 25 26  1  6  0  0  0
 27 28  1  1  0  0  0
 28 29  1  0  0  0  0
 30 31  1  1  0  0  0
 30 32  1  0  0  0  0
 30 27  1  0  0  0  0
 33 30  1  0  0  0  0
 34 33  1  0  0  0  0
 34 24  1  0  0  0  0
M  END
>  <CHROM.1>
-165.55470931,175.59056783,-168.07308655,156.50855405,-137.48301094,-91.63703780
11.99227059,11.79943357,0.27209092,-1.38247929,0.41009343,-0.50580030

>  <Name>
lig.pdb

>  <RI>
0

>  <Rbt.Current_Directory>
/home/itssahil/PROJECTS/Mol_Feturizer/New_Systems/rnas/4k32

>  <Rbt.Executable>
rbdock ($Id: //depot/dev/client3/rdock/2013.1/src/exe/rbdock.cxx#4 $)

>  <Rbt.Library>
libRbt.so (2013.1, Build901 2013/11/27)

>  <Rbt.Parameter_File>
/export/apps/rDock/src/rDock_2013.1_src/data/scripts/dock_solv.prm

>  <Rbt.Receptor>
prm/blind_docking_40.prm

>  <SCORE>
-0.718643

>  <SCORE.INTER>
-3.9399

>  <SCORE.INTER.CONST>
1

>  <SCORE.INTER.POLAR>
0

>  <SCORE.INTER.ROT>
6

>  <SCORE.INTER.SOLV>
22.4214

>  <SCORE.INTER.VDW>
-17.7004

>  <SCORE.INTER.norm>
-0.115879

>  <SCORE.INTRA>
-3.78253

>  <SCORE.INTRA.DIHEDRAL>
-7.41017

>  <SCORE.INTRA.DIHEDRAL.0>
18.0069

>  <SCORE.INTRA.POLAR>
0

>  <SCORE.INTRA.POLAR.0>
0

>  <SCORE.INTRA.REPUL>
0

>  <SCORE.INTRA.REPUL.0>
0

>  <SCORE.INTRA.SOLV>
-2.25315

>  <SCORE.INTRA.SOLV.lig_0>
-70.7393

>  <SCORE.INTRA.VDW>
1.04914

>  <SCORE.INTRA.VDW.0>
-3.23471

>  <SCORE.INTRA.norm>
-0.111251

>  <SCORE.RESTR>
7.00378

>  <SCORE.RESTR.CAVITY>
7.00378

>  <SCORE.RESTR.norm>
0.205994

>  <SCORE.SYSTEM>
0

>  <SCORE.SYSTEM.CONST>
0

>  <SCORE.SYSTEM.DIHEDRAL>
0

>  <SCORE.SYSTEM.SOLV>
0

>  <SCORE.SYSTEM.norm>
0

>  <SCORE.heavy>
34

>  <SCORE.norm>
-0.0211366

>  <RMSD>
40.629

$$$$
lig.pdb
 OpenBabel11021811503D
libRbt.so/2013.1/901 2013/11/27
 34 36  0  0  0  0  0  0  0  0999 V2000
   13.3915    9.5424    0.8683 C   0  0  2  0  0  0  0  0  0  0  0  0
   11.9994    9.3722    0.5798 O   0  0  0  0  0  0  0  0  0  0  0  0
   14.2094    8.4360    0.0758 C   0  0  2  0  0  0  0  0  0  0  0  0
   14.0155    8.5510   -1.3885 N   0  0  0  0  0  0  0  0  0  0  0  0
   13.7729    7.0293    0.5572 C   0  0  1  0  0  0  0  0  0  0  0  0
   14.5043    6.0188   -0.1409 O   0  0  0  0  0  0  0  0  0  0  0  0
   14.0026    6.9382    2.0763 C   0  0  2  0  0  0  0  0  0  0  0  0
   13.6074    5.6438    2.5331 O   0  0  0  0  0  0  0  0  0  0  0  0
   13.1803    8.0681    2.8067 C   0  0  2  0  0  0  0  0  0  0  0  0
   13.5779    9.4051    2.3165 O   0  0  0  0  0  0  0  0  0  0  0  0
   13.3933    8.0270    4.3404 C   0  0  2  0  0  0  0  0  0  0  0  0
   13.4123    6.6710    4.7904 O   0  0  0  0  0  0  0  0  0  0  0  0
   12.2814    8.7650    5.0697 C   0  0  0  0  0  0  0  0  0  0  0  0
    9.0572   12.4096   -0.0794 C   0  0  2  0  0  0  0  0  0  0  0  0
    8.0787   13.4712    0.1690 N   0  0  0  0  0  0  0  0  0  0  0  0
    8.6670   11.2040    0.8196 C   0  0  0  0  0  0  0  0  0  0  0  0
    9.6798   10.0578    0.5524 C   0  0  2  0  0  0  0  0  0  0  0  0
    9.3444    8.8893    1.3813 N   0  0  0  0  0  0  0  0  0  0  0  0
   11.1292   10.5113    0.8735 C   0  0  2  0  0  0  0  0  0  0  0  0
   11.4822   11.7507   -0.0080 C   0  0  2  0  0  0  0  0  0  0  0  0
   12.8172   12.1758    0.2978 O   0  0  0  0  0  0  0  0  0  0  0  0
   10.5145   12.9242    0.2800 C   0  0  1  0  0  0  0  0  0  0  0  0
   10.9009   14.0238   -0.5810 O   0  0  0  0  0  0  0  0  0  0  0  0
   11.9005   14.9257   -0.0508 C   0  0  2  0  0  0  0  0  0  0  0  0
   11.4378   16.3759   -0.4508 C   0  0  2  0  0  0  0  0  0  0  0  0
   10.1702   16.6530    0.1235 O   0  0  0  0  0  0  0  0  0  0  0  0
   11.3802   16.4801   -2.0220 C   0  0  1  0  0  0  0  0  0  0  0  0
   10.9343   17.8416   -2.4484 N   0  0  0  0  0  0  0  0  0  0  0  0
    9.4630   17.8387   -2.5965 C   0  0  0  0  0  0  0  0  0  0  0  0
   12.7992   16.1733   -2.5902 C   0  0  2  0  0  0  0  0  0  0  0  0
   13.7155   17.1399   -2.0787 O   0  0  0  0  0  0  0  0  0  0  0  0
   12.8272   16.2454   -4.1149 C   0  0  0  0  0  0  0  0  0  0  0  0
   13.2394   14.7478   -2.1263 C   0  0  0  0  0  0  0  0  0  0  0  0
   13.2191   14.6421   -0.6522 O   0  0  0  0  0  0  0  0  0  0  0  0
  1  3  1  0  0  0  0
  1  2  1  1  0  0  0
  3  5  1  0  0  0  0
  3  4  1  6  0  0  0
  5  6  1  6  0  0  0
  7  8  1  1  0  0  0
  7  5  1  0  0  0  0
  9 10  1  6  0  0  0
  9  7  1  0  0  0  0
 10  1  1  0  0  0  0
 11 13  1  1  0  0  0
 11  9  1  0  0  0  0
 12 11  1  0  0  0  0
 14 15  1  1  0  0  0
 16 14  1  0  0  0  0
 17 18  1  1  0  0  0
 17 16  1  0  0  0  0
 19  2  1  6  0  0  0
 19 20  1  0  0  0  0
 19 17  1  0  0  0  0
 20 21  1  1  0  0  0
 20 22  1  0  0  0  0
 22 23  1  6  0  0  0
 22 14  1  0  0  0  0
 24 23  1  6  0  0  0
 24 25  1  0  0  0  0
 25 27  1  0  0  0  0
 25 26  1  1  0  0  0
 27 28  1  1  0  0  0
 28 29  1  0  0  0  0
 30 31  1  1  0  0  0
 30 32  1  0  0  0  0
 30 27  1  0  0  0  0
 33 30  1  0  0  0  0
 34 33  1  0  0  0  0
 34 24  1  0  0  0  0
M  END
>  <CHROM.1>
-162.02483845,-40.44375007,-176.99057121,155.38042219,-138.83852846,-91.35921178
12.02821984,11.73085214,0.28274610,-1.36152329,0.46424430,-0.52286970

>  <Name>
lig.pdb

>  <RI>
0

>  <Rbt.Current_Directory>
/home/itssahil/PROJECTS/Mol_Feturizer/New_Systems/rnas/4k32

>  <Rbt.Executable>
rbdock ($Id: //depot/dev/client3/rdock/2013.1/src/exe/rbdock.cxx#4 $)

>  <Rbt.Library>
libRbt.so (2013.1, Build901 2013/11/27)

>  <Rbt.Parameter_File>
/export/apps/rDock/src/rDock_2013.1_src/data/scripts/dock_solv.prm

>  <Rbt.Receptor>
prm/blind_docking_40.prm

>  <SCORE>
0.845285

>  <SCORE.INTER>
-2.97161

>  <SCORE.INTER.CONST>
1

>  <SCORE.INTER.POLAR>
0

>  <SCORE.INTER.ROT>
6

>  <SCORE.INTER.SOLV>
21.9325

>  <SCORE.INTER.VDW>
-16.8919

>  <SCORE.INTER.norm>
-0.0874003

>  <SCORE.INTRA>
-3.01288

>  <SCORE.INTRA.DIHEDRAL>
-6.31447

>  <SCORE.INTRA.DIHEDRAL.0>
18.0069

>  <SCORE.INTRA.POLAR>
0

>  <SCORE.INTRA.POLAR.0>
0

>  <SCORE.INTRA.REPUL>
0

>  <SCORE.INTRA.REPUL.0>
0

>  <SCORE.INTRA.SOLV>
-2.07517

>  <SCORE.INTRA.SOLV.lig_0>
-70.7393

>  <SCORE.INTRA.VDW>
1.18193

>  <SCORE.INTRA.VDW.0>
-3.23471

>  <SCORE.INTRA.norm>
-0.0886142

>  <SCORE.RESTR>
6.82978

>  <SCORE.RESTR.CAVITY>
6.82978

>  <SCORE.RESTR.norm>
0.200876

>  <SCORE.SYSTEM>
0

>  <SCORE.SYSTEM.CONST>
0

>  <SCORE.SYSTEM.DIHEDRAL>
0

>  <SCORE.SYSTEM.SOLV>
0

>  <SCORE.SYSTEM.norm>
0

>  <SCORE.heavy>
34

>  <SCORE.norm>
0.0248613

>  <RMSD>
40.633

$$$$
lig.pdb
 OpenBabel11021811503D
libRbt.so/2013.1/901 2013/11/27
 34 36  0  0  0  0  0  0  0  0999 V2000
   13.4245    9.5188    0.8791 C   0  0  2  0  0  0  0  0  0  0  0  0
   12.0417    9.3792    0.5349 O   0  0  0  0  0  0  0  0  0  0  0  0
   14.2501    8.3999    0.1127 C   0  0  2  0  0  0  0  0  0  0  0  0
   14.1167    8.5268   -1.3574 N   0  0  0  0  0  0  0  0  0  0  0  0
   13.7660    7.0001    0.5677 C   0  0  1  0  0  0  0  0  0  0  0  0
   14.5036    5.9783   -0.1073 O   0  0  0  0  0  0  0  0  0  0  0  0
   13.9336    6.8960    2.0941 C   0  0  2  0  0  0  0  0  0  0  0  0
   13.4940    5.6077    2.5270 O   0  0  0  0  0  0  0  0  0  0  0  0
   13.1065    8.0389    2.7985 C   0  0  2  0  0  0  0  0  0  0  0  0
   13.5506    9.3699    2.3327 O   0  0  0  0  0  0  0  0  0  0  0  0
   13.2578    7.9850    4.3391 C   0  0  2  0  0  0  0  0  0  0  0  0
   13.2317    6.6265    4.7810 O   0  0  0  0  0  0  0  0  0  0  0  0
   12.1330    8.7415    5.0286 C   0  0  0  0  0  0  0  0  0  0  0  0
    9.1034   12.4274   -0.0907 C   0  0  2  0  0  0  0  0  0  0  0  0
    8.1291   13.4902    0.1691 N   0  0  0  0  0  0  0  0  0  0  0  0
    8.7154   11.2181    0.8042 C   0  0  0  0  0  0  0  0  0  0  0  0
    9.7237   10.0707    0.5248 C   0  0  2  0  0  0  0  0  0  0  0  0
    9.3902    8.8987    1.3495 N   0  0  0  0  0  0  0  0  0  0  0  0
   11.1761   10.5188    0.8398 C   0  0  2  0  0  0  0  0  0  0  0  0
   11.5270   11.7621   -0.0371 C   0  0  2  0  0  0  0  0  0  0  0  0
   12.8650   12.1822    0.2630 O   0  0  0  0  0  0  0  0  0  0  0  0
   10.5641   12.9364    0.2628 C   0  0  1  0  0  0  0  0  0  0  0  0
   10.9482   14.0396   -0.5946 O   0  0  0  0  0  0  0  0  0  0  0  0
   11.9458   14.9419   -0.0613 C   0  0  2  0  0  0  0  0  0  0  0  0
   11.4580   16.3949   -0.4195 C   0  0  2  0  0  0  0  0  0  0  0  0
   10.1976   16.6424    0.1832 O   0  0  0  0  0  0  0  0  0  0  0  0
   11.3711   16.5342   -1.9866 C   0  0  1  0  0  0  0  0  0  0  0  0
   10.9007   17.8993   -2.3736 N   0  0  0  0  0  0  0  0  0  0  0  0
    9.4364   17.8613   -2.5763 C   0  0  0  0  0  0  0  0  0  0  0  0
   12.7834   16.2588   -2.5867 C   0  0  2  0  0  0  0  0  0  0  0  0
   13.6966   17.2251   -2.0691 O   0  0  0  0  0  0  0  0  0  0  0  0
   12.7832   16.3661   -4.1095 C   0  0  0  0  0  0  0  0  0  0  0  0
   13.2495   14.8288   -2.1636 C   0  0  0  0  0  0  0  0  0  0  0  0
   13.2569   14.6892   -0.6922 O   0  0  0  0  0  0  0  0  0  0  0  0
  1  3  1  0  0  0  0
  1  2  1  1  0  0  0
  3  5  1  0  0  0  0
  3  4  1  6  0  0  0
  5  6  1  6  0  0  0
  7  8  1  1  0  0  0
  7  5  1  0  0  0  0
  9 10  1  6  0  0  0
  9  7  1  0  0  0  0
 10  1  1  0  0  0  0
 11 13  1  1  0  0  0
 11  9  1  0  0  0  0
 12 11  1  0  0  0  0
 14 15  1  1  0  0  0
 16 14  1  0  0  0  0
 17 18  1  1  0  0  0
 17 16  1  0  0  0  0
 19  2  1  6  0  0  0
 19 20  1  0  0  0  0
 19 17  1  0  0  0  0
 20 21  1  1  0  0  0
 20 22  1  0  0  0  0
 22 23  1  6  0  0  0
 22 14  1  0  0  0  0
 24 23  1  6  0  0  0
 24 25  1  0  0  0  0
 25 27  1  0  0  0  0
 25 26  1  1  0  0  0
 27 28  1  1  0  0  0
 28 29  1  0  0  0  0
 30 31  1  1  0  0  0
 30 32  1  0  0  0  0
 30 27  1  0  0  0  0
 33 30  1  0  0  0  0
 34 33  1  0  0  0  0
 34 24  1  0  0  0  0
M  END
>  <CHROM.1>
-163.88309936,-40.41490829,-173.91010139,154.92869278,-137.19894858,-94.77527143
12.02493353,11.73968987,0.28211223,-1.36959028,0.47982333,-0.51670610

>  <Name>
lig.pdb

>  <RI>
0

>  <Rbt.Current_Directory>
/home/itssahil/PROJECTS/Mol_Feturizer/New_Systems/rnas/4k32

>  <Rbt.Executable>
rbdock ($Id: //depot/dev/client3/rdock/2013.1/src/exe/rbdock.cxx#4 $)

>  <Rbt.Library>
libRbt.so (2013.1, Build901 2013/11/27)

>  <Rbt.Parameter_File>
/export/apps/rDock/src/rDock_2013.1_src/data/scripts/dock_solv.prm

>  <Rbt.Receptor>
prm/blind_docking_40.prm

>  <SCORE>
1.11442

>  <SCORE.INTER>
-2.50256

>  <SCORE.INTER.CONST>
1

>  <SCORE.INTER.POLAR>
0

>  <SCORE.INTER.ROT>
6

>  <SCORE.INTER.SOLV>
22.2487

>  <SCORE.INTER.VDW>
-16.6846

>  <SCORE.INTER.norm>
-0.0736046

>  <SCORE.INTRA>
-3.17039

>  <SCORE.INTRA.DIHEDRAL>
-6.01023

>  <SCORE.INTRA.DIHEDRAL.0>
18.0069

>  <SCORE.INTRA.POLAR>
0

>  <SCORE.INTRA.POLAR.0>
0

>  <SCORE.INTRA.REPUL>
0

>  <SCORE.INTRA.REPUL.0>
0

>  <SCORE.INTRA.SOLV>
-1.93957

>  <SCORE.INTRA.SOLV.lig_0>
-70.7393

>  <SCORE.INTRA.VDW>
0.804509

>  <SCORE.INTRA.VDW.0>
-3.23471

>  <SCORE.INTRA.norm>
-0.0932468

>  <SCORE.RESTR>
6.78736

>  <SCORE.RESTR.CAVITY>
6.78736

>  <SCORE.RESTR.norm>
0.199628

>  <SCORE.SYSTEM>
0

>  <SCORE.SYSTEM.CONST>
0

>  <SCORE.SYSTEM.DIHEDRAL>
0

>  <SCORE.SYSTEM.SOLV>
0

>  <SCORE.SYSTEM.norm>
0

>  <SCORE.heavy>
34

>  <SCORE.norm>
0.032777

>  <RMSD>
40.637

$$$$
lig.pdb
 OpenBabel11021811503D
libRbt.so/2013.1/901 2013/11/27
 34 36  0  0  0  0  0  0  0  0999 V2000
   10.2281    9.1916    1.0970 C   0  0  2  0  0  0  0  0  0  0  0  0
   10.2542   10.3110    1.9894 O   0  0  0  0  0  0  0  0  0  0  0  0
   10.5164    7.8732    1.9337 C   0  0  2  0  0  0  0  0  0  0  0  0
    9.4989    7.6570    2.9886 N   0  0  0  0  0  0  0  0  0  0  0  0
   11.9259    7.9653    2.5706 C   0  0  1  0  0  0  0  0  0  0  0  0
   12.2065    6.7827    3.3232 O   0  0  0  0  0  0  0  0  0  0  0  0
   12.9582    8.1727    1.4481 C   0  0  2  0  0  0  0  0  0  0  0  0
   14.2638    8.2556    2.0217 O   0  0  0  0  0  0  0  0  0  0  0  0
   12.6124    9.4843    0.6440 C   0  0  2  0  0  0  0  0  0  0  0  0
   11.2527    9.4029    0.0691 O   0  0  0  0  0  0  0  0  0  0  0  0
   13.6169    9.7268   -0.5098 C   0  0  2  0  0  0  0  0  0  0  0  0
   14.8834    9.1548   -0.1776 O   0  0  0  0  0  0  0  0  0  0  0  0
   13.8083   11.2132   -0.7686 C   0  0  0  0  0  0  0  0  0  0  0  0
    9.4286   13.2306   -1.0290 C   0  0  2  0  0  0  0  0  0  0  0  0
    9.0038   14.4729   -1.6791 N   0  0  0  0  0  0  0  0  0  0  0  0
    8.2460   12.7452   -0.1460 C   0  0  0  0  0  0  0  0  0  0  0  0
    8.6685   11.4146    0.5336 C   0  0  2  0  0  0  0  0  0  0  0  0
    7.5731   10.9134    1.3784 N   0  0  0  0  0  0  0  0  0  0  0  0
    9.9354   11.6153    1.4079 C   0  0  2  0  0  0  0  0  0  0  0  0
   11.0959   12.1465    0.5086 C   0  0  2  0  0  0  0  0  0  0  0  0
   12.2624   12.3424    1.3194 O   0  0  0  0  0  0  0  0  0  0  0  0
   10.7147   13.4996   -0.1395 C   0  0  1  0  0  0  0  0  0  0  0  0
   11.8334   13.9152   -0.9613 O   0  0  0  0  0  0  0  0  0  0  0  0
   12.7123   14.9090   -0.3836 C   0  0  2  0  0  0  0  0  0  0  0  0
   11.9635   16.2869   -0.5182 C   0  0  2  0  0  0  0  0  0  0  0  0
   10.7370   16.2405    0.1937 O   0  0  0  0  0  0  0  0  0  0  0  0
   11.7185   16.5896   -2.0450 C   0  0  1  0  0  0  0  0  0  0  0  0
   10.9987   17.8878   -2.2206 N   0  0  0  0  0  0  0  0  0  0  0  0
    9.5761   17.6105   -2.5136 C   0  0  0  0  0  0  0  0  0  0  0  0
   13.0990   16.6347   -2.7680 C   0  0  2  0  0  0  0  0  0  0  0  0
   13.8831   17.6782   -2.1919 O   0  0  0  0  0  0  0  0  0  0  0  0
   12.9483   16.9160   -4.2608 C   0  0  0  0  0  0  0  0  0  0  0  0
   13.8283   15.2680   -2.5648 C   0  0  0  0  0  0  0  0  0  0  0  0
   13.9869   14.9623   -1.1274 O   0  0  0  0  0  0  0  0  0  0  0  0
  1  3  1  0  0  0  0
  1  2  1  1  0  0  0
  3  5  1  0  0  0  0
  3  4  1  1  0  0  0
  5  6  1  6  0  0  0
  7  8  1  1  0  0  0
  7  5  1  0  0  0  0
  9 10  1  6  0  0  0
  9  7  1  0  0  0  0
 10  1  1  0  0  0  0
 11 13  1  1  0  0  0
 11  9  1  0  0  0  0
 12 11  1  0  0  0  0
 14 15  1  1  0  0  0
 16 14  1  0  0  0  0
 17 18  1  1  0  0  0
 17 16  1  0  0  0  0
 19  2  1  6  0  0  0
 19 20  1  0  0  0  0
 19 17  1  0  0  0  0
 20 21  1  1  0  0  0
 20 22  1  0  0  0  0
 22 23  1  6  0  0  0
 22 14  1  0  0  0  0
 24 23  1  6  0  0  0
 24 25  1  0  0  0  0
 25 27  1  0  0  0  0
 25 26  1  1  0  0  0
 27 28  1  1  0  0  0
 28 29  1  0  0  0  0
 30 31  1  1  0  0  0
 30 32  1  0  0  0  0
 30 27  1  0  0  0  0
 33 30  1  0  0  0  0
 34 33  1  0  0  0  0
 34 24  1  0  0  0  0
M  END
>  <CHROM.1>
-176.77194502,-28.25023898,46.13534763,143.64892640,-77.28621222,-102.44004466
11.58263389,12.42908713,-0.07230163,1.61001663,-0.20642373,2.69982198

>  <Name>
lig.pdb

>  <RI>
0

>  <Rbt.Current_Directory>
/home/itssahil/PROJECTS/Mol_Feturizer/New_Systems/rnas/4k32

>  <Rbt.Executable>
rbdock ($Id: //depot/dev/client3/rdock/2013.1/src/exe/rbdock.cxx#4 $)

>  <Rbt.Library>
libRbt.so (2013.1, Build901 2013/11/27)

>  <Rbt.Parameter_File>
/export/apps/rDock/src/rDock_2013.1_src/data/scripts/dock_solv.prm

>  <Rbt.Receptor>
prm/blind_docking_40.prm

>  <SCORE>
13.5882

>  <SCORE.INTER>
3.97529

>  <SCORE.INTER.CONST>
1

>  <SCORE.INTER.POLAR>
0

>  <SCORE.INTER.ROT>
6

>  <SCORE.INTER.SOLV>
19.3684

>  <SCORE.INTER.VDW>
-11.4059

>  <SCORE.INTER.norm>
0.11692

>  <SCORE.INTRA>
-0.00449175

>  <SCORE.INTRA.DIHEDRAL>
-6.96846

>  <SCORE.INTRA.DIHEDRAL.0>
18.0069

>  <SCORE.INTRA.POLAR>
0

>  <SCORE.INTRA.POLAR.0>
0

>  <SCORE.INTRA.REPUL>
0

>  <SCORE.INTRA.REPUL.0>
0

>  <SCORE.INTRA.SOLV>
2.36727

>  <SCORE.INTRA.SOLV.lig_0>
-70.7393

>  <SCORE.INTRA.VDW>
2.29611

>  <SCORE.INTRA.VDW.0>
-3.23471

>  <SCORE.INTRA.norm>
-0.00013211

>  <SCORE.RESTR>
9.61737

>  <SCORE.RESTR.CAVITY>
9.61737

>  <SCORE.RESTR.norm>
0.282864

>  <SCORE.SYSTEM>
0

>  <SCORE.SYSTEM.CONST>
0

>  <SCORE.SYSTEM.DIHEDRAL>
0

>  <SCORE.SYSTEM.SOLV>
0

>  <SCORE.SYSTEM.norm>
0

>  <SCORE.heavy>
34

>  <SCORE.norm>
0.399652

>  <RMSD>
40.638

$$$$
lig.pdb
 OpenBabel11021811503D
libRbt.so/2013.1/901 2013/11/27
 34 36  0  0  0  0  0  0  0  0999 V2000
   13.3946    9.5169    0.8894 C   0  0  2  0  0  0  0  0  0  0  0  0
   12.0101    9.3539    0.5624 O   0  0  0  0  0  0  0  0  0  0  0  0
   14.2302    8.4166    0.1070 C   0  0  2  0  0  0  0  0  0  0  0  0
   14.0755    8.5478   -1.3605 N   0  0  0  0  0  0  0  0  0  0  0  0
   13.7774    7.0062    0.5616 C   0  0  1  0  0  0  0  0  0  0  0  0
   14.5244    6.0011   -0.1277 O   0  0  0  0  0  0  0  0  0  0  0  0
   13.9666    6.8983    2.0852 C   0  0  2  0  0  0  0  0  0  0  0  0
   13.5560    5.6002    2.5175 O   0  0  0  0  0  0  0  0  0  0  0  0
   13.1282    8.0228    2.8057 C   0  0  2  0  0  0  0  0  0  0  0  0
   13.5422    9.3637    2.3405 O   0  0  0  0  0  0  0  0  0  0  0  0
   13.3004    7.9647    4.3439 C   0  0  2  0  0  0  0  0  0  0  0  0
   13.2346    6.6081    4.7876 O   0  0  0  0  0  0  0  0  0  0  0  0
   12.2125    8.7595    5.0491 C   0  0  0  0  0  0  0  0  0  0  0  0
    9.0924   12.4109   -0.1140 C   0  0  2  0  0  0  0  0  0  0  0  0
    8.1086   13.4688    0.1294 N   0  0  0  0  0  0  0  0  0  0  0  0
    8.6747   11.1867    0.7466 C   0  0  0  0  0  0  0  0  0  0  0  0
    9.6932   10.0446    0.4834 C   0  0  2  0  0  0  0  0  0  0  0  0
    9.3324    8.8588    1.2763 N   0  0  0  0  0  0  0  0  0  0  0  0
   11.1334   10.4879    0.8559 C   0  0  2  0  0  0  0  0  0  0  0  0
   11.5133   11.7458    0.0126 C   0  0  2  0  0  0  0  0  0  0  0  0
   12.8396   12.1613    0.3659 O   0  0  0  0  0  0  0  0  0  0  0  0
   10.5394   12.9146    0.2984 C   0  0  1  0  0  0  0  0  0  0  0  0
   10.9520   14.0320   -0.5268 O   0  0  0  0  0  0  0  0  0  0  0  0
   11.9472   14.9123    0.0463 C   0  0  2  0  0  0  0  0  0  0  0  0
   11.5701   16.3656   -0.4258 C   0  0  2  0  0  0  0  0  0  0  0  0
   10.2779   16.7070    0.0506 O   0  0  0  0  0  0  0  0  0  0  0  0
   11.6246   16.4233   -1.9994 C   0  0  1  0  0  0  0  0  0  0  0  0
   11.2626   17.7866   -2.4942 N   0  0  0  0  0  0  0  0  0  0  0  0
    9.7906   17.8831   -2.5969 C   0  0  0  0  0  0  0  0  0  0  0  0
   13.0662   16.0469   -2.4584 C   0  0  2  0  0  0  0  0  0  0  0  0
   13.9823   16.9942   -1.9116 O   0  0  0  0  0  0  0  0  0  0  0  0
   13.2016   16.0709   -3.9788 C   0  0  0  0  0  0  0  0  0  0  0  0
   13.4175   14.6211   -1.9249 C   0  0  0  0  0  0  0  0  0  0  0  0
   13.2919   14.5617   -0.4534 O   0  0  0  0  0  0  0  0  0  0  0  0
  1  3  1  0  0  0  0
  1  2  1  1  0  0  0
  3  5  1  0  0  0  0
  3  4  1  6  0  0  0
  5  6  1  6  0  0  0
  7  8  1  1  0  0  0
  7  5  1  0  0  0  0
  9 10  1  6  0  0  0
  9  7  1  0  0  0  0
 10  1  1  0  0  0  0
 11 13  1  1  0  0  0
 11  9  1  0  0  0  0
 12 11  1  0  0  0  0
 14 15  1  1  0  0  0
 16 14  1  0  0  0  0
 17 18  1  1  0  0  0
 17 16  1  0  0  0  0
 19  2  1  6  0  0  0
 19 20  1  0  0  0  0
 19 17  1  0  0  0  0
 20 21  1  1  0  0  0
 20 22  1  0  0  0  0
 22 23  1  6  0  0  0
 22 14  1  0  0  0  0
 24 23  1  6  0  0  0
 24 25  1  0  0  0  0
 25 27  1  0  0  0  0
 25 26  1  6  0  0  0
 27 28  1  1  0  0  0
 28 29  1  0  0  0  0
 30 31  1  1  0  0  0
 30 32  1  0  0  0  0
 30 27  1  0  0  0  0
 33 30  1  0  0  0  0
 34 33  1  0  0  0  0
 34 24  1  0  0  0  0
M  END
>  <CHROM.1>
-162.54149209,-43.42442962,-177.24055920,155.99239229,-143.36814358,-84.95351512
12.09141852,11.69536650,0.30594407,-1.39086647,0.43738766,-0.49852939

>  <Name>
lig.pdb

>  <RI>
0

>  <Rbt.Current_Directory>
/home/itssahil/PROJECTS/Mol_Feturizer/New_Systems/rnas/4k32

>  <Rbt.Executable>
rbdock ($Id: //depot/dev/client3/rdock/2013.1/src/exe/rbdock.cxx#4 $)

>  <Rbt.Library>
libRbt.so (2013.1, Build901 2013/11/27)

>  <Rbt.Parameter_File>
/export/apps/rDock/src/rDock_2013.1_src/data/scripts/dock_solv.prm

>  <Rbt.Receptor>
prm/blind_docking_40.prm

>  <SCORE>
0.000456397

>  <SCORE.INTER>
-3.64429

>  <SCORE.INTER.CONST>
1

>  <SCORE.INTER.POLAR>
0

>  <SCORE.INTER.ROT>
6

>  <SCORE.INTER.SOLV>
21.9778

>  <SCORE.INTER.VDW>
-17.3555

>  <SCORE.INTER.norm>
-0.107185

>  <SCORE.INTRA>
-3.39802

>  <SCORE.INTRA.DIHEDRAL>
-7.80991

>  <SCORE.INTRA.DIHEDRAL.0>
18.0069

>  <SCORE.INTRA.POLAR>
0

>  <SCORE.INTRA.POLAR.0>
0

>  <SCORE.INTRA.REPUL>
0

>  <SCORE.INTRA.REPUL.0>
0

>  <SCORE.INTRA.SOLV>
-2.19333

>  <SCORE.INTRA.SOLV.lig_0>
-70.7393

>  <SCORE.INTRA.VDW>
1.6036

>  <SCORE.INTRA.VDW.0>
-3.23471

>  <SCORE.INTRA.norm>
-0.0999416

>  <SCORE.RESTR>
7.04276

>  <SCORE.RESTR.CAVITY>
7.04276

>  <SCORE.RESTR.norm>
0.20714

>  <SCORE.SYSTEM>
0

>  <SCORE.SYSTEM.CONST>
0

>  <SCORE.SYSTEM.DIHEDRAL>
0

>  <SCORE.SYSTEM.SOLV>
0

>  <SCORE.SYSTEM.norm>
0

>  <SCORE.heavy>
34

>  <SCORE.norm>
1.34235e-05

>  <RMSD>
40.642

$$$$
lig.pdb
 OpenBabel11021811503D
libRbt.so/2013.1/901 2013/11/27
 34 36  0  0  0  0  0  0  0  0999 V2000
   13.3564    9.5348    0.9126 C   0  0  2  0  0  0  0  0  0  0  0  0
   11.9686    9.3617    0.6054 O   0  0  0  0  0  0  0  0  0  0  0  0
   14.1879    8.4351    0.1249 C   0  0  2  0  0  0  0  0  0  0  0  0
   14.0124    8.5573   -1.3411 N   0  0  0  0  0  0  0  0  0  0  0  0
   13.7498    7.0246    0.5932 C   0  0  1  0  0  0  0  0  0  0  0  0
   14.4934    6.0201   -0.1008 O   0  0  0  0  0  0  0  0  0  0  0  0
   13.9603    6.9261    2.1146 C   0  0  2  0  0  0  0  0  0  0  0  0
   13.5635    5.6281    2.5596 O   0  0  0  0  0  0  0  0  0  0  0  0
   13.1252    8.0496    2.8404 C   0  0  2  0  0  0  0  0  0  0  0  0
   13.5247    9.3904    2.3624 O   0  0  0  0  0  0  0  0  0  0  0  0
   13.3186    8.0010    4.3764 C   0  0  2  0  0  0  0  0  0  0  0  0
   13.3059    6.6439    4.8234 O   0  0  0  0  0  0  0  0  0  0  0  0
   12.2125    8.7588    5.0940 C   0  0  0  0  0  0  0  0  0  0  0  0
    9.1169   12.4485   -0.2042 C   0  0  2  0  0  0  0  0  0  0  0  0
    8.1396   13.5218   -0.0063 N   0  0  0  0  0  0  0  0  0  0  0  0
    8.6537   11.2397    0.6549 C   0  0  0  0  0  0  0  0  0  0  0  0
    9.6652   10.0815    0.4393 C   0  0  2  0  0  0  0  0  0  0  0  0
    9.2617    8.9097    1.2323 N   0  0  0  0  0  0  0  0  0  0  0  0
   11.0977   10.5103    0.8563 C   0  0  2  0  0  0  0  0  0  0  0  0
   11.5230   11.7534    0.0127 C   0  0  2  0  0  0  0  0  0  0  0  0
   12.8419   12.1557    0.4068 O   0  0  0  0  0  0  0  0  0  0  0  0
   10.5556   12.9380    0.2521 C   0  0  1  0  0  0  0  0  0  0  0  0
   11.0111   14.0405   -0.5705 O   0  0  0  0  0  0  0  0  0  0  0  0
   11.9690   14.9364    0.0405 C   0  0  2  0  0  0  0  0  0  0  0  0
   11.5711   16.3864   -0.4248 C   0  0  2  0  0  0  0  0  0  0  0  0
   10.2584   16.6917    0.0191 O   0  0  0  0  0  0  0  0  0  0  0  0
   11.6680   16.4648   -1.9956 C   0  0  1  0  0  0  0  0  0  0  0  0
   11.2878   17.8253   -2.4843 N   0  0  0  0  0  0  0  0  0  0  0  0
    9.8154   17.8981   -2.5999 C   0  0  0  0  0  0  0  0  0  0  0  0
   13.1302   16.1277   -2.4183 C   0  0  2  0  0  0  0  0  0  0  0  0
   14.0082   17.0891   -1.8349 O   0  0  0  0  0  0  0  0  0  0  0  0
   13.3072   16.1736   -3.9339 C   0  0  0  0  0  0  0  0  0  0  0  0
   13.5000   14.7038   -1.8919 C   0  0  0  0  0  0  0  0  0  0  0  0
   13.3350   14.6234   -0.4253 O   0  0  0  0  0  0  0  0  0  0  0  0
  1  3  1  0  0  0  0
  1  2  1  1  0  0  0
  3  5  1  0  0  0  0
  3  4  1  6  0  0  0
  5  6  1  6  0  0  0
  7  8  1  1  0  0  0
  7  5  1  0  0  0  0
  9 10  1  6  0  0  0
  9  7  1  0  0  0  0
 10  1  1  0  0  0  0
 11 13  1  1  0  0  0
 11  9  1  0  0  0  0
 12 11  1  0  0  0  0
 14 15  1  1  0  0  0
 16 14  1  0  0  0  0
 17 18  1  1  0  0  0
 17 16  1  0  0  0  0
 19  2  1  6  0  0  0
 19 20  1  0  0  0  0
 19 17  1  0  0  0  0
 20 21  1  1  0  0  0
 20 22  1  0  0  0  0
 22 23  1  6  0  0  0
 22 14  1  0  0  0  0
 24 23  1  6  0  0  0
 24 25  1  0  0  0  0
 25 27  1  0  0  0  0
 25 26  1  6  0  0  0
 27 28  1  1  0  0  0
 28 29  1  0  0  0  0
 30 31  1  1  0  0  0
 30 32  1  0  0  0  0
 30 27  1  0  0  0  0
 33 30  1  0  0  0  0
 34 33  1  0  0  0  0
 34 24  1  0  0  0  0
M  END
>  <CHROM.1>
-160.24537052,-41.74822537,179.58610151,154.27556635,-140.63403727,-83.77533642
12.09864772,11.72770422,0.31120396,-1.39914135,0.39843934,-0.49066768

>  <Name>
lig.pdb

>  <RI>
0

>  <Rbt.Current_Directory>
/home/itssahil/PROJECTS/Mol_Feturizer/New_Systems/rnas/4k32

>  <Rbt.Executable>
rbdock ($Id: //depot/dev/client3/rdock/2013.1/src/exe/rbdock.cxx#4 $)

>  <Rbt.Library>
libRbt.so (2013.1, Build901 2013/11/27)

>  <Rbt.Parameter_File>
/export/apps/rDock/src/rDock_2013.1_src/data/scripts/dock_solv.prm

>  <Rbt.Receptor>
prm/blind_docking_40.prm

>  <SCORE>
0.192343

>  <SCORE.INTER>
-4.20886

>  <SCORE.INTER.CONST>
1

>  <SCORE.INTER.POLAR>
0

>  <SCORE.INTER.ROT>
6

>  <SCORE.INTER.SOLV>
21.6233

>  <SCORE.INTER.VDW>
-17.6137

>  <SCORE.INTER.norm>
-0.12379

>  <SCORE.INTRA>
-2.59777

>  <SCORE.INTRA.DIHEDRAL>
-6.55907

>  <SCORE.INTRA.DIHEDRAL.0>
18.0069

>  <SCORE.INTRA.POLAR>
0

>  <SCORE.INTRA.POLAR.0>
0

>  <SCORE.INTRA.REPUL>
0

>  <SCORE.INTRA.REPUL.0>
0

>  <SCORE.INTRA.SOLV>
-2.1334

>  <SCORE.INTRA.SOLV.lig_0>
-70.7393

>  <SCORE.INTRA.VDW>
1.74846

>  <SCORE.INTRA.VDW.0>
-3.23471

>  <SCORE.INTRA.norm>
-0.0764051

>  <SCORE.RESTR>
6.99897

>  <SCORE.RESTR.CAVITY>
6.99897

>  <SCORE.RESTR.norm>
0.205852

>  <SCORE.SYSTEM>
0

>  <SCORE.SYSTEM.CONST>
0

>  <SCORE.SYSTEM.DIHEDRAL>
0

>  <SCORE.SYSTEM.SOLV>
0

>  <SCORE.SYSTEM.norm>
0

>  <SCORE.heavy>
34

>  <SCORE.norm>
0.00565715

>  <RMSD>
40.642

$$$$
lig.pdb
 OpenBabel11021811503D
libRbt.so/2013.1/901 2013/11/27
 34 36  0  0  0  0  0  0  0  0999 V2000
   13.4695    9.5461    0.9068 C   0  0  2  0  0  0  0  0  0  0  0  0
   12.0870    9.4298    0.5527 O   0  0  0  0  0  0  0  0  0  0  0  0
   14.2841    8.4245    0.1325 C   0  0  2  0  0  0  0  0  0  0  0  0
   14.1615    8.5700   -1.3367 N   0  0  0  0  0  0  0  0  0  0  0  0
   13.7778    7.0265    0.5687 C   0  0  1  0  0  0  0  0  0  0  0  0
   14.5051    6.0023   -0.1135 O   0  0  0  0  0  0  0  0  0  0  0  0
   13.9345    6.9028    2.0947 C   0  0  2  0  0  0  0  0  0  0  0  0
   13.4744    5.6159    2.5102 O   0  0  0  0  0  0  0  0  0  0  0  0
   13.1191    8.0491    2.8072 C   0  0  2  0  0  0  0  0  0  0  0  0
   13.5846    9.3790    2.3593 O   0  0  0  0  0  0  0  0  0  0  0  0
   13.2601    7.9757    4.3480 C   0  0  2  0  0  0  0  0  0  0  0  0
   13.2208    6.6122    4.7734 O   0  0  0  0  0  0  0  0  0  0  0  0
   12.1369    8.7326    5.0394 C   0  0  0  0  0  0  0  0  0  0  0  0
    8.7874   12.1410    0.2724 C   0  0  2  0  0  0  0  0  0  0  0  0
    7.8252   13.1950    0.6032 N   0  0  0  0  0  0  0  0  0  0  0  0
    8.8111   11.1477    1.4669 C   0  0  0  0  0  0  0  0  0  0  0  0
    9.8088   10.0082    1.1243 C   0  0  2  0  0  0  0  0  0  0  0  0
    9.8597    9.0378    2.2291 N   0  0  0  0  0  0  0  0  0  0  0  0
   11.2332   10.5732    0.8763 C   0  0  2  0  0  0  0  0  0  0  0  0
   11.1759   11.6020   -0.2967 C   0  0  2  0  0  0  0  0  0  0  0  0
   12.4902   12.1318   -0.5174 O   0  0  0  0  0  0  0  0  0  0  0  0
   10.2244   12.7742    0.0454 C   0  0  1  0  0  0  0  0  0  0  0  0
   10.2193   13.6723   -1.0917 O   0  0  0  0  0  0  0  0  0  0  0  0
    9.5472   14.9390   -0.8986 C   0  0  2  0  0  0  0  0  0  0  0  0
    9.3662   15.5617   -2.3327 C   0  0  2  0  0  0  0  0  0  0  0  0
    8.5736   14.7010   -3.1353 O   0  0  0  0  0  0  0  0  0  0  0  0
   10.7866   15.7847   -2.9773 C   0  0  1  0  0  0  0  0  0  0  0  0
   10.6626   16.3670   -4.3484 N   0  0  0  0  0  0  0  0  0  0  0  0
   11.6245   15.6901   -5.2445 C   0  0  0  0  0  0  0  0  0  0  0  0
   11.6033   16.7409   -2.0557 C   0  0  2  0  0  0  0  0  0  0  0  0
   10.9158   17.9879   -1.9666 O   0  0  0  0  0  0  0  0  0  0  0  0
   13.0022   17.0027   -2.6077 C   0  0  0  0  0  0  0  0  0  0  0  0
   11.7134   16.1087   -0.6312 C   0  0  0  0  0  0  0  0  0  0  0  0
   10.3738   15.8379   -0.0682 O   0  0  0  0  0  0  0  0  0  0  0  0
  1  3  1  0  0  0  0
  1  2  1  6  0  0  0
  3  5  1  0  0  0  0
  3  4  1  6  0  0  0
  5  6  1  6  0  0  0
  7  8  1  1  0  0  0
  7  5  1  0  0  0  0
  9 10  1  6  0  0  0
  9  7  1  0  0  0  0
 10  1  1  0  0  0  0
 11 13  1  1  0  0  0
 11  9  1  0  0  0  0
 12 11  1  0  0  0  0
 14 15  1  1  0  0  0
 16 14  1  0  0  0  0
 17 18  1  1  0  0  0
 17 16  1  0  0  0  0
 19  2  1  6  0  0  0
 19 20  1  0  0  0  0
 19 17  1  0  0  0  0
 20 21  1  1  0  0  0
 20 22  1  0  0  0  0
 22 23  1  6  0  0  0
 22 14  1  0  0  0  0
 24 23  1  6  0  0  0
 24 25  1  0  0  0  0
 25 27  1  0  0  0  0
 25 26  1  6  0  0  0
 27 28  1  6  0  0  0
 28 29  1  0  0  0  0
 30 31  1  1  0  0  0
 30 32  1  0  0  0  0
 30 27  1  0  0  0  0
 33 30  1  0  0  0  0
 34 33  1  0  0  0  0
 34 24  1  0  0  0  0
M  END
>  <CHROM.1>
-164.40905301,-40.05907055,-150.75051196,72.87948652,-166.34682086,-137.73399298
11.59487893,11.62185276,0.09199793,-1.23689747,0.63994413,-0.71482786

>  <Name>
lig.pdb

>  <RI>
0

>  <Rbt.Current_Directory>
/home/itssahil/PROJECTS/Mol_Feturizer/New_Systems/rnas/4k32

>  <Rbt.Executable>
rbdock ($Id: //depot/dev/client3/rdock/2013.1/src/exe/rbdock.cxx#4 $)

>  <Rbt.Library>
libRbt.so (2013.1, Build901 2013/11/27)

>  <Rbt.Parameter_File>
/export/apps/rDock/src/rDock_2013.1_src/data/scripts/dock_solv.prm

>  <Rbt.Receptor>
prm/blind_docking_40.prm

>  <SCORE>
9.39993

>  <SCORE.INTER>
2.36723

>  <SCORE.INTER.CONST>
1

>  <SCORE.INTER.POLAR>
0

>  <SCORE.INTER.ROT>
6

>  <SCORE.INTER.SOLV>
21.049

>  <SCORE.INTER.VDW>
-13.0382

>  <SCORE.INTER.norm>
0.0696245

>  <SCORE.INTRA>
-3.85047

>  <SCORE.INTRA.DIHEDRAL>
-9.3691

>  <SCORE.INTRA.DIHEDRAL.0>
18.0069

>  <SCORE.INTRA.POLAR>
0

>  <SCORE.INTRA.POLAR.0>
0

>  <SCORE.INTRA.REPUL>
0

>  <SCORE.INTRA.REPUL.0>
0

>  <SCORE.INTRA.SOLV>
0.383017

>  <SCORE.INTRA.SOLV.lig_0>
-70.7393

>  <SCORE.INTRA.VDW>
0.64257

>  <SCORE.INTRA.VDW.0>
-3.23471

>  <SCORE.INTRA.norm>
-0.113249

>  <SCORE.RESTR>
10.8832

>  <SCORE.RESTR.CAVITY>
10.8832

>  <SCORE.RESTR.norm>
0.320093

>  <SCORE.SYSTEM>
0

>  <SCORE.SYSTEM.CONST>
0

>  <SCORE.SYSTEM.DIHEDRAL>
0

>  <SCORE.SYSTEM.SOLV>
0

>  <SCORE.SYSTEM.norm>
0

>  <SCORE.heavy>
34

>  <SCORE.norm>
0.276468

>  <RMSD>
40.643

$$$$
lig.pdb
 OpenBabel11021811503D
libRbt.so/2013.1/901 2013/11/27
 34 36  0  0  0  0  0  0  0  0999 V2000
   13.3898    9.5466    0.9095 C   0  0  2  0  0  0  0  0  0  0  0  0
   12.0083    9.4009    0.5622 O   0  0  0  0  0  0  0  0  0  0  0  0
   14.2228    8.4353    0.1400 C   0  0  2  0  0  0  0  0  0  0  0  0
   14.0913    8.5676   -1.3298 N   0  0  0  0  0  0  0  0  0  0  0  0
   13.7456    7.0310    0.5884 C   0  0  1  0  0  0  0  0  0  0  0  0
   14.4899    6.0161   -0.0894 O   0  0  0  0  0  0  0  0  0  0  0  0
   13.9110    6.9217    2.1147 C   0  0  2  0  0  0  0  0  0  0  0  0
   13.4777    5.6292    2.5415 O   0  0  0  0  0  0  0  0  0  0  0  0
   13.0764    8.0571    2.8223 C   0  0  2  0  0  0  0  0  0  0  0  0
   13.5141    9.3924    2.3627 O   0  0  0  0  0  0  0  0  0  0  0  0
   13.2253    7.9978    4.3629 C   0  0  2  0  0  0  0  0  0  0  0  0
   14.5278    7.5208    4.7056 O   0  0  0  0  0  0  0  0  0  0  0  0
   12.1905    7.0696    4.9797 C   0  0  0  0  0  0  0  0  0  0  0  0
    9.0738   12.4454   -0.0984 C   0  0  2  0  0  0  0  0  0  0  0  0
    8.0962   13.5078    0.1497 N   0  0  0  0  0  0  0  0  0  0  0  0
    8.6781   11.2375    0.7951 C   0  0  0  0  0  0  0  0  0  0  0  0
    9.6900   10.0905    0.5281 C   0  0  2  0  0  0  0  0  0  0  0  0
    9.3494    8.9198    1.3518 N   0  0  0  0  0  0  0  0  0  0  0  0
   11.1389   10.5404    0.8563 C   0  0  2  0  0  0  0  0  0  0  0  0
   11.4974   11.7822   -0.0197 C   0  0  2  0  0  0  0  0  0  0  0  0
   12.8320   12.2040    0.2927 O   0  0  0  0  0  0  0  0  0  0  0  0
   10.5306   12.9563    0.2684 C   0  0  1  0  0  0  0  0  0  0  0  0
   10.9222   14.0581   -0.5875 O   0  0  0  0  0  0  0  0  0  0  0  0
   11.9236   14.9547   -0.0517 C   0  0  2  0  0  0  0  0  0  0  0  0
   11.4528   16.4096   -0.4243 C   0  0  2  0  0  0  0  0  0  0  0  0
   10.1895   16.6732    0.1656 O   0  0  0  0  0  0  0  0  0  0  0  0
   11.3809   16.5388   -1.9930 C   0  0  1  0  0  0  0  0  0  0  0  0
   10.9268   17.9054   -2.3935 N   0  0  0  0  0  0  0  0  0  0  0  0
    9.4579   17.8913   -2.5626 C   0  0  0  0  0  0  0  0  0  0  0  0
   12.7957   16.2459   -2.5786 C   0  0  2  0  0  0  0  0  0  0  0  0
   13.7135   17.2071   -2.0597 O   0  0  0  0  0  0  0  0  0  0  0  0
   12.8099   16.3425   -4.1021 C   0  0  0  0  0  0  0  0  0  0  0  0
   13.2445   14.8146   -2.1416 C   0  0  0  0  0  0  0  0  0  0  0  0
   13.2377   14.6852   -0.6692 O   0  0  0  0  0  0  0  0  0  0  0  0
  1  3  1  0  0  0  0
  1  2  1  1  0  0  0
  3  5  1  0  0  0  0
  3  4  1  6  0  0  0
  5  6  1  6  0  0  0
  7  8  1  1  0  0  0
  7  5  1  0  0  0  0
  9 10  1  6  0  0  0
  9  7  1  0  0  0  0
 10  1  1  0  0  0  0
 11 13  1  6  0  0  0
 11  9  1  0  0  0  0
 12 11  1  0  0  0  0
 14 15  1  1  0  0  0
 16 14  1  0  0  0  0
 17 18  1  1  0  0  0
 17 16  1  0  0  0  0
 19  2  1  6  0  0  0
 19 20  1  0  0  0  0
 19 17  1  0  0  0  0
 20 21  1  1  0  0  0
 20 22  1  0  0  0  0
 22 23  1  6  0  0  0
 22 14  1  0  0  0  0
 24 23  1  6  0  0  0
 24 25  1  0  0  0  0
 25 27  1  0  0  0  0
 25 26  1  1  0  0  0
 27 28  1  1  0  0  0
 28 29  1  0  0  0  0
 30 31  1  1  0  0  0
 30 32  1  0  0  0  0
 30 27  1  0  0  0  0
 33 30  1  0  0  0  0
 34 33  1  0  0  0  0
 34 24  1  0  0  0  0
M  END
>  <CHROM.1>
-163.21009638,32.24136123,-174.41281211,155.52508915,-137.83650164,-92.80674823
12.05307944,11.73244879,0.28857319,-1.36553434,0.38581646,-0.50439426

>  <Name>
lig.pdb

>  <RI>
0

>  <Rbt.Current_Directory>
/home/itssahil/PROJECTS/Mol_Feturizer/New_Systems/rnas/4k32

>  <Rbt.Executable>
rbdock ($Id: //depot/dev/client3/rdock/2013.1/src/exe/rbdock.cxx#4 $)

>  <Rbt.Library>
libRbt.so (2013.1, Build901 2013/11/27)

>  <Rbt.Parameter_File>
/export/apps/rDock/src/rDock_2013.1_src/data/scripts/dock_solv.prm

>  <Rbt.Receptor>
prm/blind_docking_40.prm

>  <SCORE>
1.67155

>  <SCORE.INTER>
-2.55322

>  <SCORE.INTER.CONST>
1

>  <SCORE.INTER.POLAR>
0

>  <SCORE.INTER.ROT>
6

>  <SCORE.INTER.SOLV>
22.7093

>  <SCORE.INTER.VDW>
-16.8719

>  <SCORE.INTER.norm>
-0.0750947

>  <SCORE.INTRA>
-2.97413

>  <SCORE.INTRA.DIHEDRAL>
-5.17481

>  <SCORE.INTRA.DIHEDRAL.0>
18.0069

>  <SCORE.INTRA.POLAR>
0

>  <SCORE.INTRA.POLAR.0>
0

>  <SCORE.INTRA.REPUL>
0

>  <SCORE.INTRA.REPUL.0>
0

>  <SCORE.INTRA.SOLV>
-2.01163

>  <SCORE.INTRA.SOLV.lig_0>
-70.7393

>  <SCORE.INTRA.VDW>
0.619083

>  <SCORE.INTRA.VDW.0>
-3.23471

>  <SCORE.INTRA.norm>
-0.0874745

>  <SCORE.RESTR>
7.19891

>  <SCORE.RESTR.CAVITY>
7.19891

>  <SCORE.RESTR.norm>
0.211733

>  <SCORE.SYSTEM>
0

>  <SCORE.SYSTEM.CONST>
0

>  <SCORE.SYSTEM.DIHEDRAL>
0

>  <SCORE.SYSTEM.SOLV>
0

>  <SCORE.SYSTEM.norm>
0

>  <SCORE.heavy>
34

>  <SCORE.norm>
0.0491633

>  <RMSD>
40.643

$$$$
lig.pdb
 OpenBabel11021811503D
libRbt.so/2013.1/901 2013/11/27
 34 36  0  0  0  0  0  0  0  0999 V2000
   11.5217    8.4844    1.7179 C   0  0  2  0  0  0  0  0  0  0  0  0
   12.0563    9.8020    1.5494 O   0  0  0  0  0  0  0  0  0  0  0  0
   11.0399    8.3247    3.2225 C   0  0  2  0  0  0  0  0  0  0  0  0
    9.9871    9.3072    3.5708 N   0  0  0  0  0  0  0  0  0  0  0  0
   12.2528    8.4916    4.1722 C   0  0  1  0  0  0  0  0  0  0  0  0
   11.8394    8.3440    5.5326 O   0  0  0  0  0  0  0  0  0  0  0  0
   13.3183    7.4473    3.7943 C   0  0  2  0  0  0  0  0  0  0  0  0
   14.4416    7.5877    4.6654 O   0  0  0  0  0  0  0  0  0  0  0  0
   13.7451    7.6444    2.2892 C   0  0  2  0  0  0  0  0  0  0  0  0
   12.5763    7.5186    1.3926 O   0  0  0  0  0  0  0  0  0  0  0  0
   14.8068    6.6028    1.8568 C   0  0  2  0  0  0  0  0  0  0  0  0
   14.6797    6.3332    0.4593 O   0  0  0  0  0  0  0  0  0  0  0  0
   14.6395    5.2981    2.6201 C   0  0  0  0  0  0  0  0  0  0  0  0
   13.3637   12.3105   -1.6623 C   0  0  2  0  0  0  0  0  0  0  0  0
   13.7534   12.7622   -3.0003 N   0  0  0  0  0  0  0  0  0  0  0  0
   14.2073   11.0465   -1.3390 C   0  0  0  0  0  0  0  0  0  0  0  0
   13.8256   10.5660    0.0873 C   0  0  2  0  0  0  0  0  0  0  0  0
   14.6069    9.3699    0.4390 N   0  0  0  0  0  0  0  0  0  0  0  0
   12.3125   10.2300    0.1738 C   0  0  2  0  0  0  0  0  0  0  0  0
   11.4864   11.5012   -0.1993 C   0  0  2  0  0  0  0  0  0  0  0  0
   10.0890   11.1865   -0.1302 O   0  0  0  0  0  0  0  0  0  0  0  0
   11.8146   11.9680   -1.6383 C   0  0  1  0  0  0  0  0  0  0  0  0
   11.0199   13.1510   -1.9004 O   0  0  0  0  0  0  0  0  0  0  0  0
   10.5781   13.8907   -0.7379 C   0  0  2  0  0  0  0  0  0  0  0  0
   10.1707   15.3196   -1.2571 C   0  0  2  0  0  0  0  0  0  0  0  0
    9.1159   15.2073   -2.1995 O   0  0  0  0  0  0  0  0  0  0  0  0
   11.4322   16.0092   -1.9018 C   0  0  1  0  0  0  0  0  0  0  0  0
   11.0885   17.3688   -2.4192 N   0  0  0  0  0  0  0  0  0  0  0  0
   10.0673   17.9726   -1.5365 C   0  0  0  0  0  0  0  0  0  0  0  0
   12.5488   16.1094   -0.8184 C   0  0  2  0  0  0  0  0  0  0  0  0
   12.0668   16.9059    0.2628 O   0  0  0  0  0  0  0  0  0  0  0  0
   13.8149   16.7618   -1.3677 C   0  0  0  0  0  0  0  0  0  0  0  0
   12.8843   14.6762   -0.2948 C   0  0  0  0  0  0  0  0  0  0  0  0
   11.6768   14.0132    0.2411 O   0  0  0  0  0  0  0  0  0  0  0  0
  1  3  1  0  0  0  0
  1  2  1  1  0  0  0
  3  5  1  0  0  0  0
  3  4  1  1  0  0  0
  5  6  1  1  0  0  0
  7  8  1  1  0  0  0
  7  5  1  0  0  0  0
  9 10  1  6  0  0  0
  9  7  1  0  0  0  0
 10  1  1  0  0  0  0
 11 13  1  1  0  0  0
 11  9  1  0  0  0  0
 12 11  1  0  0  0  0
 14 15  1  6  0  0  0
 16 14  1  0  0  0  0
 17 18  1  6  0  0  0
 17 16  1  0  0  0  0
 19  2  1  1  0  0  0
 19 20  1  0  0  0  0
 19 17  1  0  0  0  0
 20 21  1  6  0  0  0
 20 22  1  0  0  0  0
 22 23  1  1  0  0  0
 22 14  1  0  0  0  0
 24 23  1  6  0  0  0
 24 25  1  0  0  0  0
 25 27  1  0  0  0  0
 25 26  1  6  0  0  0
 27 28  1  1  0  0  0
 28 29  1  0  0  0  0
 30 31  1  1  0  0  0
 30 32  1  0  0  0  0
 30 27  1  0  0  0  0
 33 30  1  0  0  0  0
 34 33  1  0  0  0  0
 34 24  1  0  0  0  0
M  END
>  <CHROM.1>
-168.47482184,150.46750082,-121.02456360,-92.94774292,161.99550021,33.95692161
12.30763296,11.45429294,0.47638931,1.30033574,-0.73602622,2.48247857

>  <Name>
lig.pdb

>  <RI>
0

>  <Rbt.Current_Directory>
/home/itssahil/PROJECTS/Mol_Feturizer/New_Systems/rnas/4k32

>  <Rbt.Executable>
rbdock ($Id: //depot/dev/client3/rdock/2013.1/src/exe/rbdock.cxx#4 $)

>  <Rbt.Library>
libRbt.so (2013.1, Build901 2013/11/27)

>  <Rbt.Parameter_File>
/export/apps/rDock/src/rDock_2013.1_src/data/scripts/dock_solv.prm

>  <Rbt.Receptor>
prm/blind_docking_40.prm

>  <SCORE>
27.471

>  <SCORE.INTER>
1.74583

>  <SCORE.INTER.CONST>
1

>  <SCORE.INTER.POLAR>
0

>  <SCORE.INTER.ROT>
6

>  <SCORE.INTER.SOLV>
23.4177

>  <SCORE.INTER.VDW>
-14.242

>  <SCORE.INTER.norm>
0.0513479

>  <SCORE.INTRA>
17.4252

>  <SCORE.INTRA.DIHEDRAL>
-1.46003

>  <SCORE.INTRA.DIHEDRAL.0>
18.0069

>  <SCORE.INTRA.POLAR>
0

>  <SCORE.INTRA.POLAR.0>
0

>  <SCORE.INTRA.REPUL>
0

>  <SCORE.INTRA.REPUL.0>
0

>  <SCORE.INTRA.SOLV>
3.33443

>  <SCORE.INTRA.SOLV.lig_0>
-70.7393

>  <SCORE.INTRA.VDW>
16.488

>  <SCORE.INTRA.VDW.0>
-3.23471

>  <SCORE.INTRA.norm>
0.512506

>  <SCORE.RESTR>
8.3

>  <SCORE.RESTR.CAVITY>
8.3

>  <SCORE.RESTR.norm>
0.244118

>  <SCORE.SYSTEM>
0

>  <SCORE.SYSTEM.CONST>
0

>  <SCORE.SYSTEM.DIHEDRAL>
0

>  <SCORE.SYSTEM.SOLV>
0

>  <SCORE.SYSTEM.norm>
0

>  <SCORE.heavy>
34

>  <SCORE.norm>
0.807971

>  <RMSD>
40.645

$$$$
lig.pdb
 OpenBabel11021811503D
libRbt.so/2013.1/901 2013/11/27
 34 36  0  0  0  0  0  0  0  0999 V2000
   13.3737    9.5171    1.0136 C   0  0  2  0  0  0  0  0  0  0  0  0
   12.0401    9.4116    0.5031 O   0  0  0  0  0  0  0  0  0  0  0  0
   14.2721    8.4142    0.3080 C   0  0  2  0  0  0  0  0  0  0  0  0
   14.3156    8.5969   -1.1616 N   0  0  0  0  0  0  0  0  0  0  0  0
   13.7219    7.0064    0.6489 C   0  0  1  0  0  0  0  0  0  0  0  0
   14.5231    5.9987    0.0274 O   0  0  0  0  0  0  0  0  0  0  0  0
   13.7059    6.8440    2.1793 C   0  0  2  0  0  0  0  0  0  0  0  0
   13.2038    5.5477    2.5077 O   0  0  0  0  0  0  0  0  0  0  0  0
   12.8137    7.9730    2.8241 C   0  0  2  0  0  0  0  0  0  0  0  0
   13.3247    9.3132    2.4651 O   0  0  0  0  0  0  0  0  0  0  0  0
   12.7803    7.8606    4.3685 C   0  0  2  0  0  0  0  0  0  0  0  0
   12.0711    8.9718    4.9197 O   0  0  0  0  0  0  0  0  0  0  0  0
   14.1859    7.8455    4.9490 C   0  0  0  0  0  0  0  0  0  0  0  0
    9.1109   12.4408   -0.2452 C   0  0  2  0  0  0  0  0  0  0  0  0
    8.1132   13.4909   -0.0263 N   0  0  0  0  0  0  0  0  0  0  0  0
    8.6859   11.2160    0.6110 C   0  0  0  0  0  0  0  0  0  0  0  0
    9.7195   10.0818    0.3733 C   0  0  2  0  0  0  0  0  0  0  0  0
    9.3525    8.8958    1.1629 N   0  0  0  0  0  0  0  0  0  0  0  0
   11.1477   10.5390    0.7742 C   0  0  2  0  0  0  0  0  0  0  0  0
   11.5343   11.7971   -0.0657 C   0  0  2  0  0  0  0  0  0  0  0  0
   12.8493   12.2254    0.3136 O   0  0  0  0  0  0  0  0  0  0  0  0
   10.5446   12.9584    0.1954 C   0  0  1  0  0  0  0  0  0  0  0  0
   10.9647   14.0765   -0.6251 O   0  0  0  0  0  0  0  0  0  0  0  0
   11.9654   14.9480   -0.0482 C   0  0  2  0  0  0  0  0  0  0  0  0
   11.5720   16.4104   -0.4770 C   0  0  2  0  0  0  0  0  0  0  0  0
   10.2868   16.7323    0.0309 O   0  0  0  0  0  0  0  0  0  0  0  0
   11.5978   16.5075   -2.0494 C   0  0  1  0  0  0  0  0  0  0  0  0
   11.2196   17.8805   -2.5034 N   0  0  0  0  0  0  0  0  0  0  0  0
    9.7453   17.9733   -2.5701 C   0  0  0  0  0  0  0  0  0  0  0  0
   13.0329   16.1510   -2.5434 C   0  0  2  0  0  0  0  0  0  0  0  0
   13.9536   17.0897   -1.9896 O   0  0  0  0  0  0  0  0  0  0  0  0
   13.1407   16.2136   -4.0649 C   0  0  0  0  0  0  0  0  0  0  0  0
   13.4014   14.7144   -2.0520 C   0  0  0  0  0  0  0  0  0  0  0  0
   13.3027   14.6178   -0.5804 O   0  0  0  0  0  0  0  0  0  0  0  0
  1  3  1  0  0  0  0
  1  2  1  6  0  0  0
  3  5  1  0  0  0  0
  3  4  1  6  0  0  0
  5  6  1  6  0  0  0
  7  8  1  6  0  0  0
  7  5  1  0  0  0  0
  9 10  1  1  0  0  0
  9  7  1  0  0  0  0
 10  1  1  0  0  0  0
 11 13  1  1  0  0  0
 11  9  1  0  0  0  0
 12 11  1  0  0  0  0
 14 15  1  1  0  0  0
 16 14  1  0  0  0  0
 17 18  1  1  0  0  0
 17 16  1  0  0  0  0
 19  2  1  6  0  0  0
 19 20  1  0  0  0  0
 19 17  1  0  0  0  0
 20 21  1  1  0  0  0
 20 22  1  0  0  0  0
 22 23  1  6  0  0  0
 22 14  1  0  0  0  0
 24 23  1  6  0  0  0
 24 25  1  0  0  0  0
 25 27  1  0  0  0  0
 25 26  1  6  0  0  0
 27 28  1  1  0  0  0
 28 29  1  0  0  0  0
 30 31  1  1  0  0  0
 30 32  1  0  0  0  0
 30 27  1  0  0  0  0
 33 30  1  0  0  0  0
 34 33  1  0  0  0  0
 34 24  1  0  0  0  0
M  END
>  <CHROM.1>
-165.28282493,174.45353245,-169.38249318,157.51645420,-141.63359784,-84.64411514
12.07066598,11.77680356,0.28381974,-1.39704840,0.39798715,-0.49902413

>  <Name>
lig.pdb

>  <RI>
0

>  <Rbt.Current_Directory>
/home/itssahil/PROJECTS/Mol_Feturizer/New_Systems/rnas/4k32

>  <Rbt.Executable>
rbdock ($Id: //depot/dev/client3/rdock/2013.1/src/exe/rbdock.cxx#4 $)

>  <Rbt.Library>
libRbt.so (2013.1, Build901 2013/11/27)

>  <Rbt.Parameter_File>
/export/apps/rDock/src/rDock_2013.1_src/data/scripts/dock_solv.prm

>  <Rbt.Receptor>
prm/blind_docking_40.prm

>  <SCORE>
-1.10036

>  <SCORE.INTER>
-4.49568

>  <SCORE.INTER.CONST>
1

>  <SCORE.INTER.POLAR>
0

>  <SCORE.INTER.ROT>
6

>  <SCORE.INTER.SOLV>
22.3691

>  <SCORE.INTER.VDW>
-18.0535

>  <SCORE.INTER.norm>
-0.132226

>  <SCORE.INTRA>
-3.73815

>  <SCORE.INTRA.DIHEDRAL>
-8.53055

>  <SCORE.INTRA.DIHEDRAL.0>
18.0069

>  <SCORE.INTRA.POLAR>
0

>  <SCORE.INTRA.POLAR.0>
0

>  <SCORE.INTRA.REPUL>
0

>  <SCORE.INTRA.REPUL.0>
0

>  <SCORE.INTRA.SOLV>
-2.35345

>  <SCORE.INTRA.SOLV.lig_0>
-70.7393

>  <SCORE.INTRA.VDW>
1.70385

>  <SCORE.INTRA.VDW.0>
-3.23471

>  <SCORE.INTRA.norm>
-0.109945

>  <SCORE.RESTR>
7.13347

>  <SCORE.RESTR.CAVITY>
7.13347

>  <SCORE.RESTR.norm>
0.209808

>  <SCORE.SYSTEM>
0

>  <SCORE.SYSTEM.CONST>
0

>  <SCORE.SYSTEM.DIHEDRAL>
0

>  <SCORE.SYSTEM.SOLV>
0

>  <SCORE.SYSTEM.norm>
0

>  <SCORE.heavy>
34

>  <SCORE.norm>
-0.0323634

>  <RMSD>
40.649

$$$$
lig.pdb
 OpenBabel11021811503D
libRbt.so/2013.1/901 2013/11/27
 34 36  0  0  0  0  0  0  0  0999 V2000
   13.2737    9.7596    0.8571 C   0  0  2  0  0  0  0  0  0  0  0  0
   11.9212    9.5917    0.4183 O   0  0  0  0  0  0  0  0  0  0  0  0
   14.1735    8.6595    0.1491 C   0  0  2  0  0  0  0  0  0  0  0  0
   14.1391    8.7862   -1.3266 N   0  0  0  0  0  0  0  0  0  0  0  0
   13.6886    7.2491    0.5693 C   0  0  1  0  0  0  0  0  0  0  0  0
   14.4922    6.2441   -0.0535 O   0  0  0  0  0  0  0  0  0  0  0  0
   13.7526    7.1459    2.1035 C   0  0  2  0  0  0  0  0  0  0  0  0
   13.3114    5.8479    2.5047 O   0  0  0  0  0  0  0  0  0  0  0  0
   12.8552    8.2700    2.7496 C   0  0  2  0  0  0  0  0  0  0  0  0
   13.3024    9.6108    2.3159 O   0  0  0  0  0  0  0  0  0  0  0  0
   12.9010    8.2167    4.2969 C   0  0  2  0  0  0  0  0  0  0  0  0
   12.7231    6.8701    4.7405 O   0  0  0  0  0  0  0  0  0  0  0  0
   11.8073    9.0779    4.9091 C   0  0  0  0  0  0  0  0  0  0  0  0
    8.9233   12.5555   -0.3202 C   0  0  2  0  0  0  0  0  0  0  0  0
    7.9034   13.5835   -0.0978 N   0  0  0  0  0  0  0  0  0  0  0  0
    8.5284   11.3218    0.5378 C   0  0  0  0  0  0  0  0  0  0  0  0
    9.5859   10.2107    0.2966 C   0  0  2  0  0  0  0  0  0  0  0  0
    9.2479    9.0170    1.0877 N   0  0  0  0  0  0  0  0  0  0  0  0
   11.0051   10.6993    0.6923 C   0  0  2  0  0  0  0  0  0  0  0  0
   11.3609   11.9654   -0.1492 C   0  0  2  0  0  0  0  0  0  0  0  0
   12.6675   12.4227    0.2254 O   0  0  0  0  0  0  0  0  0  0  0  0
   10.3468   13.1047    0.1153 C   0  0  1  0  0  0  0  0  0  0  0  0
   10.7392   14.2316   -0.7068 O   0  0  0  0  0  0  0  0  0  0  0  0
   11.1861   15.4110    0.0023 C   0  0  2  0  0  0  0  0  0  0  0  0
   11.1871   16.5809   -1.0506 C   0  0  2  0  0  0  0  0  0  0  0  0
    9.8753   16.7767   -1.5546 O   0  0  0  0  0  0  0  0  0  0  0  0
   12.1902   16.2237   -2.2121 C   0  0  1  0  0  0  0  0  0  0  0  0
   12.2162   17.3054   -3.2434 N   0  0  0  0  0  0  0  0  0  0  0  0
   11.4527   16.8563   -4.4274 C   0  0  0  0  0  0  0  0  0  0  0  0
   13.6095   16.0287   -1.5972 C   0  0  2  0  0  0  0  0  0  0  0  0
   14.0102   17.2488   -0.9756 O   0  0  0  0  0  0  0  0  0  0  0  0
   14.6439   15.6699   -2.6611 C   0  0  0  0  0  0  0  0  0  0  0  0
   13.5508   14.8962   -0.5225 C   0  0  0  0  0  0  0  0  0  0  0  0
   12.5536   15.2105    0.5223 O   0  0  0  0  0  0  0  0  0  0  0  0
  1  3  1  0  0  0  0
  1  2  1  6  0  0  0
  3  5  1  0  0  0  0
  3  4  1  6  0  0  0
  5  6  1  6  0  0  0
  7  8  1  6  0  0  0
  7  5  1  0  0  0  0
  9 10  1  6  0  0  0
  9  7  1  0  0  0  0
 10  1  1  0  0  0  0
 11 13  1  1  0  0  0
 11  9  1  0  0  0  0
 12 11  1  0  0  0  0
 14 15  1  1  0  0  0
 16 14  1  0  0  0  0
 17 18  1  1  0  0  0
 17 16  1  0  0  0  0
 19  2  1  6  0  0  0
 19 20  1  0  0  0  0
 19 17  1  0  0  0  0
 20 21  1  1  0  0  0
 20 22  1  0  0  0  0
 22 23  1  6  0  0  0
 22 14  1  0  0  0  0
 24 23  1  6  0  0  0
 24 25  1  0  0  0  0
 25 27  1  0  0  0  0
 25 26  1  6  0  0  0
 27 28  1  6  0  0  0
 28 29  1  0  0  0  0
 30 31  1  1  0  0  0
 30 32  1  0  0  0  0
 30 27  1  0  0  0  0
 33 30  1  0  0  0  0
 34 33  1  0  0  0  0
 34 24  1  0  0  0  0
M  END
>  <CHROM.1>
-165.32805133,-46.83116060,-172.82730191,129.78797265,-165.54577887,-104.09000581
12.05620500,11.84027705,0.25349244,-1.45572837,0.27677657,-0.47382276

>  <Name>
lig.pdb

>  <RI>
0

>  <Rbt.Current_Directory>
/home/itssahil/PROJECTS/Mol_Feturizer/New_Systems/rnas/4k32

>  <Rbt.Executable>
rbdock ($Id: //depot/dev/client3/rdock/2013.1/src/exe/rbdock.cxx#4 $)

>  <Rbt.Library>
libRbt.so (2013.1, Build901 2013/11/27)

>  <Rbt.Parameter_File>
/export/apps/rDock/src/rDock_2013.1_src/data/scripts/dock_solv.prm

>  <Rbt.Receptor>
prm/blind_docking_40.prm

>  <SCORE>
1.97279

>  <SCORE.INTER>
-2.07971

>  <SCORE.INTER.CONST>
1

>  <SCORE.INTER.POLAR>
0

>  <SCORE.INTER.ROT>
6

>  <SCORE.INTER.SOLV>
20.8758

>  <SCORE.INTER.VDW>
-15.9451

>  <SCORE.INTER.norm>
-0.0611679

>  <SCORE.INTRA>
-3.85454

>  <SCORE.INTRA.DIHEDRAL>
-7.41413

>  <SCORE.INTRA.DIHEDRAL.0>
18.0069

>  <SCORE.INTRA.POLAR>
0

>  <SCORE.INTRA.POLAR.0>
0

>  <SCORE.INTRA.REPUL>
0

>  <SCORE.INTRA.REPUL.0>
0

>  <SCORE.INTRA.SOLV>
-2.00615

>  <SCORE.INTRA.SOLV.lig_0>
-70.7393

>  <SCORE.INTRA.VDW>
0.855594

>  <SCORE.INTRA.VDW.0>
-3.23471

>  <SCORE.INTRA.norm>
-0.113369

>  <SCORE.RESTR>
7.90705

>  <SCORE.RESTR.CAVITY>
7.90705

>  <SCORE.RESTR.norm>
0.23256

>  <SCORE.SYSTEM>
0

>  <SCORE.SYSTEM.CONST>
0

>  <SCORE.SYSTEM.DIHEDRAL>
0

>  <SCORE.SYSTEM.SOLV>
0

>  <SCORE.SYSTEM.norm>
0

>  <SCORE.heavy>
34

>  <SCORE.norm>
0.0580233

>  <RMSD>
40.660

$$$$
lig.pdb
 OpenBabel11021811503D
libRbt.so/2013.1/901 2013/11/27
 34 36  0  0  0  0  0  0  0  0999 V2000
   12.6847   10.3464    1.7496 C   0  0  2  0  0  0  0  0  0  0  0  0
   11.3825    9.9755    1.2840 O   0  0  0  0  0  0  0  0  0  0  0  0
   13.6959   10.2759    0.5274 C   0  0  2  0  0  0  0  0  0  0  0  0
   13.3064   11.1993   -0.5637 N   0  0  0  0  0  0  0  0  0  0  0  0
   13.7572    8.8229   -0.0073 C   0  0  1  0  0  0  0  0  0  0  0  0
   14.6690    8.7381   -1.1049 O   0  0  0  0  0  0  0  0  0  0  0  0
   14.1799    7.8943    1.1449 C   0  0  2  0  0  0  0  0  0  0  0  0
   14.2441    6.5506    0.6643 O   0  0  0  0  0  0  0  0  0  0  0  0
   13.1503    8.0186    2.3327 C   0  0  2  0  0  0  0  0  0  0  0  0
   13.0719    9.4144    2.8137 O   0  0  0  0  0  0  0  0  0  0  0  0
   13.5441    7.1123    3.5254 C   0  0  2  0  0  0  0  0  0  0  0  0
   13.7833    5.7813    3.0640 O   0  0  0  0  0  0  0  0  0  0  0  0
   12.4420    7.0723    4.5726 C   0  0  0  0  0  0  0  0  0  0  0  0
    8.5121   12.5977   -0.5054 C   0  0  2  0  0  0  0  0  0  0  0  0
    7.4359   13.5795   -0.6595 N   0  0  0  0  0  0  0  0  0  0  0  0
    7.9862   11.4824    0.4399 C   0  0  0  0  0  0  0  0  0  0  0  0
    9.1058   10.4181    0.5966 C   0  0  2  0  0  0  0  0  0  0  0  0
    8.6482    9.3360    1.4824 N   0  0  0  0  0  0  0  0  0  0  0  0
   10.3943   11.0503    1.1881 C   0  0  2  0  0  0  0  0  0  0  0  0
   10.8776   12.1975    0.2457 C   0  0  2  0  0  0  0  0  0  0  0  0
   12.0614   12.7884    0.7989 O   0  0  0  0  0  0  0  0  0  0  0  0
    9.7945   13.2958    0.1157 C   0  0  1  0  0  0  0  0  0  0  0  0
   10.3140   14.3109   -0.7785 O   0  0  0  0  0  0  0  0  0  0  0  0
   10.7976   15.5225   -0.1526 C   0  0  2  0  0  0  0  0  0  0  0  0
   10.9113   16.5931   -1.3008 C   0  0  2  0  0  0  0  0  0  0  0  0
    9.6358   16.8141   -1.8818 O   0  0  0  0  0  0  0  0  0  0  0  0
   11.9409   16.0811   -2.3781 C   0  0  1  0  0  0  0  0  0  0  0  0
   12.0736   17.0646   -3.4960 N   0  0  0  0  0  0  0  0  0  0  0  0
   11.5333   16.4595   -4.7323 C   0  0  0  0  0  0  0  0  0  0  0  0
   13.3189   15.8651   -1.6818 C   0  0  2  0  0  0  0  0  0  0  0  0
   13.7625   17.1119   -1.1487 O   0  0  0  0  0  0  0  0  0  0  0  0
   14.3755   15.3585   -2.6603 C   0  0  0  0  0  0  0  0  0  0  0  0
   13.1488   14.8368   -0.5178 C   0  0  0  0  0  0  0  0  0  0  0  0
   12.1277   15.2954    0.4474 O   0  0  0  0  0  0  0  0  0  0  0  0
  1  3  1  0  0  0  0
  1  2  1  6  0  0  0
  3  5  1  0  0  0  0
  3  4  1  6  0  0  0
  5  6  1  6  0  0  0
  7  8  1  6  0  0  0
  7  5  1  0  0  0  0
  9 10  1  1  0  0  0
  9  7  1  0  0  0  0
 10  1  1  0  0  0  0
 11 13  1  1  0  0  0
 11  9  1  0  0  0  0
 12 11  1  0  0  0  0
 14 15  1  1  0  0  0
 16 14  1  0  0  0  0
 17 18  1  1  0  0  0
 17 16  1  0  0  0  0
 19  2  1  6  0  0  0
 19 20  1  0  0  0  0
 19 17  1  0  0  0  0
 20 21  1  1  0  0  0
 20 22  1  0  0  0  0
 22 23  1  6  0  0  0
 22 14  1  0  0  0  0
 24 23  1  6  0  0  0
 24 25  1  0  0  0  0
 25 27  1  0  0  0  0
 25 26  1  6  0  0  0
 27 28  1  6  0  0  0
 28 29  1  0  0  0  0
 30 31  1  1  0  0  0
 30 32  1  0  0  0  0
 30 27  1  0  0  0  0
 33 30  1  0  0  0  0
 34 33  1  0  0  0  0
 34 24  1  0  0  0  0
M  END
>  <CHROM.1>
-108.60957557,-50.98501134,177.08341193,140.89134005,-164.21426151,-113.36611638
11.87526204,12.02943758,0.10281611,-1.39714073,0.19315598,-0.48830466

>  <Name>
lig.pdb

>  <RI>
0

>  <Rbt.Current_Directory>
/home/itssahil/PROJECTS/Mol_Feturizer/New_Systems/rnas/4k32

>  <Rbt.Executable>
rbdock ($Id: //depot/dev/client3/rdock/2013.1/src/exe/rbdock.cxx#4 $)

>  <Rbt.Library>
libRbt.so (2013.1, Build901 2013/11/27)

>  <Rbt.Parameter_File>
/export/apps/rDock/src/rDock_2013.1_src/data/scripts/dock_solv.prm

>  <Rbt.Receptor>
prm/blind_docking_40.prm

>  <SCORE>
5.98313

>  <SCORE.INTER>
-3.28419

>  <SCORE.INTER.CONST>
1

>  <SCORE.INTER.POLAR>
0

>  <SCORE.INTER.ROT>
6

>  <SCORE.INTER.SOLV>
21.3444

>  <SCORE.INTER.VDW>
-16.9043

>  <SCORE.INTER.norm>
-0.0965937

>  <SCORE.INTRA>
1.95408

>  <SCORE.INTRA.DIHEDRAL>
-3.5091

>  <SCORE.INTRA.DIHEDRAL.0>
18.0069

>  <SCORE.INTRA.POLAR>
0

>  <SCORE.INTRA.POLAR.0>
0

>  <SCORE.INTRA.REPUL>
0

>  <SCORE.INTRA.REPUL.0>
0

>  <SCORE.INTRA.SOLV>
0.791604

>  <SCORE.INTRA.SOLV.lig_0>
-70.7393

>  <SCORE.INTRA.VDW>
3.31283

>  <SCORE.INTRA.VDW.0>
-3.23471

>  <SCORE.INTRA.norm>
0.0574729

>  <SCORE.RESTR>
7.31323

>  <SCORE.RESTR.CAVITY>
7.31323

>  <SCORE.RESTR.norm>
0.215095

>  <SCORE.SYSTEM>
0

>  <SCORE.SYSTEM.CONST>
0

>  <SCORE.SYSTEM.DIHEDRAL>
0

>  <SCORE.SYSTEM.SOLV>
0

>  <SCORE.SYSTEM.norm>
0

>  <SCORE.heavy>
34

>  <SCORE.norm>
0.175974

>  <RMSD>
40.661

$$$$
lig.pdb
 OpenBabel11021811503D
libRbt.so/2013.1/901 2013/11/27
 34 36  0  0  0  0  0  0  0  0999 V2000
   12.5672   10.2405    1.7950 C   0  0  2  0  0  0  0  0  0  0  0  0
   11.2769    9.9264    1.2596 O   0  0  0  0  0  0  0  0  0  0  0  0
   13.6323   10.1658    0.6198 C   0  0  2  0  0  0  0  0  0  0  0  0
   13.3258   11.1290   -0.4634 N   0  0  0  0  0  0  0  0  0  0  0  0
   13.6705    8.7253    0.0501 C   0  0  1  0  0  0  0  0  0  0  0  0
   14.6300    8.6366   -1.0058 O   0  0  0  0  0  0  0  0  0  0  0  0
   14.0071    7.7542    1.1956 C   0  0  2  0  0  0  0  0  0  0  0  0
   14.0493    6.4216    0.6830 O   0  0  0  0  0  0  0  0  0  0  0  0
   12.9270    7.8842    2.3371 C   0  0  2  0  0  0  0  0  0  0  0  0
   12.8723    9.2695    2.8509 O   0  0  0  0  0  0  0  0  0  0  0  0
   13.2335    6.9354    3.5224 C   0  0  2  0  0  0  0  0  0  0  0  0
   14.5903    7.1024    3.9381 O   0  0  0  0  0  0  0  0  0  0  0  0
   13.0210    5.4812    3.1315 C   0  0  0  0  0  0  0  0  0  0  0  0
    8.4561   12.6339   -0.4807 C   0  0  2  0  0  0  0  0  0  0  0  0
    7.4059   13.6462   -0.6166 N   0  0  0  0  0  0  0  0  0  0  0  0
    7.9126   11.5310    0.4691 C   0  0  0  0  0  0  0  0  0  0  0  0
    9.0039   10.4351    0.6066 C   0  0  2  0  0  0  0  0  0  0  0  0
    8.5287    9.3636    1.4961 N   0  0  0  0  0  0  0  0  0  0  0  0
   10.3181   11.0289    1.1810 C   0  0  2  0  0  0  0  0  0  0  0  0
   10.8199   12.1649    0.2349 C   0  0  2  0  0  0  0  0  0  0  0  0
   12.0278   12.7205    0.7725 O   0  0  0  0  0  0  0  0  0  0  0  0
    9.7665   13.2938    0.1236 C   0  0  1  0  0  0  0  0  0  0  0  0
   10.3015   14.2966   -0.7753 O   0  0  0  0  0  0  0  0  0  0  0  0
   10.7978   15.5062   -0.1555 C   0  0  2  0  0  0  0  0  0  0  0  0
   10.9205   16.5704   -1.3087 C   0  0  2  0  0  0  0  0  0  0  0  0
    9.6464   16.8013   -1.8889 O   0  0  0  0  0  0  0  0  0  0  0  0
   11.9435   16.0435   -2.3851 C   0  0  1  0  0  0  0  0  0  0  0  0
   12.0843   17.0206   -3.5075 N   0  0  0  0  0  0  0  0  0  0  0  0
   11.4782   16.4409   -4.7254 C   0  0  0  0  0  0  0  0  0  0  0  0
   13.3203   15.8170   -1.6896 C   0  0  2  0  0  0  0  0  0  0  0  0
   13.7768   17.0619   -1.1627 O   0  0  0  0  0  0  0  0  0  0  0  0
   14.3704   15.2957   -2.6673 C   0  0  0  0  0  0  0  0  0  0  0  0
   13.1417   14.7957   -0.5208 C   0  0  0  0  0  0  0  0  0  0  0  0
   12.1265   15.2686    0.4437 O   0  0  0  0  0  0  0  0  0  0  0  0
  1  3  1  0  0  0  0
  1  2  1  6  0  0  0
  3  5  1  0  0  0  0
  3  4  1  6  0  0  0
  5  6  1  6  0  0  0
  7  8  1  6  0  0  0
  7  5  1  0  0  0  0
  9 10  1  1  0  0  0
  9  7  1  0  0  0  0
 10  1  1  0  0  0  0
 11 13  1  6  0  0  0
 11  9  1  0  0  0  0
 12 11  1  0  0  0  0
 14 15  1  1  0  0  0
 16 14  1  0  0  0  0
 17 18  1  1  0  0  0
 17 16  1  0  0  0  0
 19  2  1  6  0  0  0
 19 20  1  0  0  0  0
 19 17  1  0  0  0  0
 20 21  1  1  0  0  0
 20 22  1  0  0  0  0
 22 23  1  6  0  0  0
 22 14  1  0  0  0  0
 24 23  1  6  0  0  0
 24 25  1  0  0  0  0
 25 27  1  0  0  0  0
 25 26  1  6  0  0  0
 27 28  1  6  0  0  0
 28 29  1  0  0  0  0
 30 31  1  1  0  0  0
 30 32  1  0  0  0  0
 30 27  1  0  0  0  0
 33 30  1  0  0  0  0
 34 33  1  0  0  0  0
 34 24  1  0  0  0  0
M  END
>  <CHROM.1>
-110.25176144,50.63441833,-178.71372810,139.41835191,-163.88597236,-110.69595795
11.85923957,11.97710915,0.10127301,-1.38666799,0.15563997,-0.47409277

>  <Name>
lig.pdb

>  <RI>
0

>  <Rbt.Current_Directory>
/home/itssahil/PROJECTS/Mol_Feturizer/New_Systems/rnas/4k32

>  <Rbt.Executable>
rbdock ($Id: //depot/dev/client3/rdock/2013.1/src/exe/rbdock.cxx#4 $)

>  <Rbt.Library>
libRbt.so (2013.1, Build901 2013/11/27)

>  <Rbt.Parameter_File>
/export/apps/rDock/src/rDock_2013.1_src/data/scripts/dock_solv.prm

>  <Rbt.Receptor>
prm/blind_docking_40.prm

>  <SCORE>
6.6567

>  <SCORE.INTER>
-2.45834

>  <SCORE.INTER.CONST>
1

>  <SCORE.INTER.POLAR>
0

>  <SCORE.INTER.ROT>
6

>  <SCORE.INTER.SOLV>
22.0333

>  <SCORE.INTER.VDW>
-16.5833

>  <SCORE.INTER.norm>
-0.072304

>  <SCORE.INTRA>
2.39456

>  <SCORE.INTRA.DIHEDRAL>
-3.13223

>  <SCORE.INTRA.DIHEDRAL.0>
18.0069

>  <SCORE.INTRA.POLAR>
0

>  <SCORE.INTRA.POLAR.0>
0

>  <SCORE.INTRA.REPUL>
0

>  <SCORE.INTRA.REPUL.0>
0

>  <SCORE.INTRA.SOLV>
0.806538

>  <SCORE.INTRA.SOLV.lig_0>
-70.7393

>  <SCORE.INTRA.VDW>
3.5574

>  <SCORE.INTRA.VDW.0>
-3.23471

>  <SCORE.INTRA.norm>
0.0704282

>  <SCORE.RESTR>
6.72048

>  <SCORE.RESTR.CAVITY>
6.72048

>  <SCORE.RESTR.norm>
0.197661

>  <SCORE.SYSTEM>
0

>  <SCORE.SYSTEM.CONST>
0

>  <SCORE.SYSTEM.DIHEDRAL>
0

>  <SCORE.SYSTEM.SOLV>
0

>  <SCORE.SYSTEM.norm>
0

>  <SCORE.heavy>
34

>  <SCORE.norm>
0.195785

>  <RMSD>
40.666

$$$$
lig.pdb
 OpenBabel11021811503D
libRbt.so/2013.1/901 2013/11/27
 34 36  0  0  0  0  0  0  0  0999 V2000
   13.3032    9.7504    0.7831 C   0  0  2  0  0  0  0  0  0  0  0  0
   11.9282    9.5586    0.4327 O   0  0  0  0  0  0  0  0  0  0  0  0
   14.1627    8.6055    0.0963 C   0  0  2  0  0  0  0  0  0  0  0  0
   14.0450    8.6389   -1.3801 N   0  0  0  0  0  0  0  0  0  0  0  0
   13.7038    7.2257    0.6315 C   0  0  1  0  0  0  0  0  0  0  0  0
   14.4719    6.1814    0.0291 O   0  0  0  0  0  0  0  0  0  0  0  0
   13.8544    7.2194    2.1631 C   0  0  2  0  0  0  0  0  0  0  0  0
   13.4379    5.9504    2.6697 O   0  0  0  0  0  0  0  0  0  0  0  0
   12.9937    8.3843    2.7865 C   0  0  2  0  0  0  0  0  0  0  0  0
   13.4144    9.6940    2.2444 O   0  0  0  0  0  0  0  0  0  0  0  0
   13.1268    8.4287    4.3290 C   0  0  2  0  0  0  0  0  0  0  0  0
   13.3149    7.1065    4.8370 O   0  0  0  0  0  0  0  0  0  0  0  0
   11.8831    9.0231    4.9711 C   0  0  0  0  0  0  0  0  0  0  0  0
    8.9384   12.5356   -0.2849 C   0  0  2  0  0  0  0  0  0  0  0  0
    7.9283   13.5717   -0.0557 N   0  0  0  0  0  0  0  0  0  0  0  0
    8.5484   11.3111    0.5882 C   0  0  0  0  0  0  0  0  0  0  0  0
    9.5953   10.1914    0.3402 C   0  0  2  0  0  0  0  0  0  0  0  0
    9.2615    9.0060    1.1453 N   0  0  0  0  0  0  0  0  0  0  0  0
   11.0232   10.6740    0.7115 C   0  0  2  0  0  0  0  0  0  0  0  0
   11.3745   11.9314   -0.1448 C   0  0  2  0  0  0  0  0  0  0  0  0
   12.6893   12.3832    0.2072 O   0  0  0  0  0  0  0  0  0  0  0  0
   10.3715   13.0791    0.1255 C   0  0  1  0  0  0  0  0  0  0  0  0
   10.7589   14.1972   -0.7109 O   0  0  0  0  0  0  0  0  0  0  0  0
   11.1979   15.3884   -0.0168 C   0  0  2  0  0  0  0  0  0  0  0  0
   11.1905   16.5450   -1.0844 C   0  0  2  0  0  0  0  0  0  0  0  0
    9.8772   16.7255   -1.5903 O   0  0  0  0  0  0  0  0  0  0  0  0
   12.1957   16.1801   -2.2416 C   0  0  1  0  0  0  0  0  0  0  0  0
   12.2140   17.2489   -3.2864 N   0  0  0  0  0  0  0  0  0  0  0  0
   11.5232   16.7490   -4.4946 C   0  0  0  0  0  0  0  0  0  0  0  0
   13.6165   16.0026   -1.6249 C   0  0  2  0  0  0  0  0  0  0  0  0
   14.0090   17.2332   -1.0188 O   0  0  0  0  0  0  0  0  0  0  0  0
   14.6530   15.6376   -2.6845 C   0  0  0  0  0  0  0  0  0  0  0  0
   13.5659   14.8834   -0.5360 C   0  0  0  0  0  0  0  0  0  0  0  0
   12.5669   15.2039    0.5052 O   0  0  0  0  0  0  0  0  0  0  0  0
  1  3  1  0  0  0  0
  1  2  1  1  0  0  0
  3  5  1  0  0  0  0
  3  4  1  6  0  0  0
  5  6  1  6  0  0  0
  7  8  1  1  0  0  0
  7  5  1  0  0  0  0
  9 10  1  6  0  0  0
  9  7  1  0  0  0  0
 10  1  1  0  0  0  0
 11 13  1  1  0  0  0
 11  9  1  0  0  0  0
 12 11  1  0  0  0  0
 14 15  1  1  0  0  0
 16 14  1  0  0  0  0
 17 18  1  1  0  0  0
 17 16  1  0  0  0  0
 19  2  1  6  0  0  0
 19 20  1  0  0  0  0
 19 17  1  0  0  0  0
 20 21  1  1  0  0  0
 20 22  1  0  0  0  0
 22 23  1  6  0  0  0
 22 14  1  0  0  0  0
 24 23  1  6  0  0  0
 24 25  1  0  0  0  0
 25 27  1  0  0  0  0
 25 26  1  6  0  0  0
 27 28  1  6  0  0  0
 28 29  1  0  0  0  0
 30 31  1  1  0  0  0
 30 32  1  0  0  0  0
 30 27  1  0  0  0  0
 33 30  1  0  0  0  0
 34 33  1  0  0  0  0
 34 24  1  0  0  0  0
M  END
>  <CHROM.1>
-166.47726667,-32.28025245,-176.18161310,128.58852888,-165.40628767,-107.45697147
12.10563003,11.83460674,0.26120321,-1.44078151,0.25816424,-0.48659505

>  <Name>
lig.pdb

>  <RI>
0

>  <Rbt.Current_Directory>
/home/itssahil/PROJECTS/Mol_Feturizer/New_Systems/rnas/4k32

>  <Rbt.Executable>
rbdock ($Id: //depot/dev/client3/rdock/2013.1/src/exe/rbdock.cxx#4 $)

>  <Rbt.Library>
libRbt.so (2013.1, Build901 2013/11/27)

>  <Rbt.Parameter_File>
/export/apps/rDock/src/rDock_2013.1_src/data/scripts/dock_solv.prm

>  <Rbt.Receptor>
prm/blind_docking_40.prm

>  <SCORE>
2.48431

>  <SCORE.INTER>
-2.67195

>  <SCORE.INTER.CONST>
1

>  <SCORE.INTER.POLAR>
0

>  <SCORE.INTER.ROT>
6

>  <SCORE.INTER.SOLV>
20.6303

>  <SCORE.INTER.VDW>
-16.2581

>  <SCORE.INTER.norm>
-0.0785866

>  <SCORE.INTRA>
-2.63211

>  <SCORE.INTRA.DIHEDRAL>
-5.78207

>  <SCORE.INTRA.DIHEDRAL.0>
18.0069

>  <SCORE.INTRA.POLAR>
0

>  <SCORE.INTRA.POLAR.0>
0

>  <SCORE.INTRA.REPUL>
0

>  <SCORE.INTRA.REPUL.0>
0

>  <SCORE.INTRA.SOLV>
-2.10633

>  <SCORE.INTRA.SOLV.lig_0>
-70.7393

>  <SCORE.INTRA.VDW>
1.3121

>  <SCORE.INTRA.VDW.0>
-3.23471

>  <SCORE.INTRA.norm>
-0.0774149

>  <SCORE.RESTR>
7.78836

>  <SCORE.RESTR.CAVITY>
7.78836

>  <SCORE.RESTR.norm>
0.229069

>  <SCORE.SYSTEM>
0

>  <SCORE.SYSTEM.CONST>
0

>  <SCORE.SYSTEM.DIHEDRAL>
0

>  <SCORE.SYSTEM.SOLV>
0

>  <SCORE.SYSTEM.norm>
0

>  <SCORE.heavy>
34

>  <SCORE.norm>
0.0730679

>  <RMSD>
40.666

$$$$
lig.pdb
 OpenBabel11021811503D
libRbt.so/2013.1/901 2013/11/27
 34 36  0  0  0  0  0  0  0  0999 V2000
   13.3001    9.7653    0.8605 C   0  0  2  0  0  0  0  0  0  0  0  0
   11.9854    9.6714    0.3011 O   0  0  0  0  0  0  0  0  0  0  0  0
   14.1946    8.6081    0.2424 C   0  0  2  0  0  0  0  0  0  0  0  0
   14.3015    8.7220   -1.2309 N   0  0  0  0  0  0  0  0  0  0  0  0
   13.5922    7.2323    0.6232 C   0  0  1  0  0  0  0  0  0  0  0  0
   14.3888    6.1766    0.0808 O   0  0  0  0  0  0  0  0  0  0  0  0
   13.5108    7.1408    2.1574 C   0  0  2  0  0  0  0  0  0  0  0  0
   12.9600    5.8744    2.5227 O   0  0  0  0  0  0  0  0  0  0  0  0
   12.6256    8.3211    2.7139 C   0  0  2  0  0  0  0  0  0  0  0  0
   13.1878    9.6295    2.3165 O   0  0  0  0  0  0  0  0  0  0  0  0
   12.5278    8.2806    4.2592 C   0  0  2  0  0  0  0  0  0  0  0  0
   11.9057    9.4750    4.7365 O   0  0  0  0  0  0  0  0  0  0  0  0
   13.9047    8.1631    4.8942 C   0  0  0  0  0  0  0  0  0  0  0  0
    8.9514   12.6188   -0.3501 C   0  0  2  0  0  0  0  0  0  0  0  0
    7.9305   13.6389   -0.0982 N   0  0  0  0  0  0  0  0  0  0  0  0
    8.5853   11.3784    0.5108 C   0  0  0  0  0  0  0  0  0  0  0  0
    9.6439   10.2754    0.2387 C   0  0  2  0  0  0  0  0  0  0  0  0
    9.3328    9.0757    1.0316 N   0  0  0  0  0  0  0  0  0  0  0  0
   11.0690   10.7715    0.6027 C   0  0  2  0  0  0  0  0  0  0  0  0
   11.3962   12.0441   -0.2407 C   0  0  2  0  0  0  0  0  0  0  0  0
   12.7085   12.5081    0.1048 O   0  0  0  0  0  0  0  0  0  0  0  0
   10.3814   13.1753    0.0538 C   0  0  1  0  0  0  0  0  0  0  0  0
   10.7466   14.3088   -0.7718 O   0  0  0  0  0  0  0  0  0  0  0  0
   11.1875   15.4930   -0.0669 C   0  0  2  0  0  0  0  0  0  0  0  0
   11.2104   16.6527   -1.1309 C   0  0  2  0  0  0  0  0  0  0  0  0
    9.9076   16.8494   -1.6575 O   0  0  0  0  0  0  0  0  0  0  0  0
   12.2301   16.2799   -2.2729 C   0  0  1  0  0  0  0  0  0  0  0  0
   12.2773   17.3516   -3.3139 N   0  0  0  0  0  0  0  0  0  0  0  0
   11.2630   17.0581   -4.3491 C   0  0  0  0  0  0  0  0  0  0  0  0
   13.6386   16.0847   -1.6337 C   0  0  2  0  0  0  0  0  0  0  0  0
   14.0350   17.3090   -1.0175 O   0  0  0  0  0  0  0  0  0  0  0  0
   14.6881   15.7112   -2.6776 C   0  0  0  0  0  0  0  0  0  0  0  0
   13.5578   14.9629   -0.5493 C   0  0  0  0  0  0  0  0  0  0  0  0
   12.5457   15.2916    0.4766 O   0  0  0  0  0  0  0  0  0  0  0  0
  1  3  1  0  0  0  0
  1  2  1  6  0  0  0
  3  5  1  0  0  0  0
  3  4  1  6  0  0  0
  5  6  1  1  0  0  0
  7  8  1  6  0  0  0
  7  5  1  0  0  0  0
  9 10  1  1  0  0  0
  9  7  1  0  0  0  0
 10  1  1  0  0  0  0
 11 13  1  1  0  0  0
 11  9  1  0  0  0  0
 12 11  1  0  0  0  0
 14 15  1  1  0  0  0
 16 14  1  0  0  0  0
 17 18  1  1  0  0  0
 17 16  1  0  0  0  0
 19  2  1  6  0  0  0
 19 20  1  0  0  0  0
 19 17  1  0  0  0  0
 20 21  1  1  0  0  0
 20 22  1  0  0  0  0
 22 23  1  6  0  0  0
 22 14  1  0  0  0  0
 24 23  1  6  0  0  0
 24 25  1  0  0  0  0
 25 27  1  0  0  0  0
 25 26  1  6  0  0  0
 27 28  1  6  0  0  0
 28 29  1  0  0  0  0
 30 31  1  1  0  0  0
 30 32  1  0  0  0  0
 30 27  1  0  0  0  0
 33 30  1  0  0  0  0
 34 33  1  0  0  0  0
 34 24  1  0  0  0  0
M  END
>  <CHROM.1>
-171.44166971,170.71993538,-164.83778877,129.07764571,-167.66281368,-89.70024451
12.07227027,11.94405221,0.22914233,-1.45205533,0.21985616,-0.47054141

>  <Name>
lig.pdb

>  <RI>
0

>  <Rbt.Current_Directory>
/home/itssahil/PROJECTS/Mol_Feturizer/New_Systems/rnas/4k32

>  <Rbt.Executable>
rbdock ($Id: //depot/dev/client3/rdock/2013.1/src/exe/rbdock.cxx#4 $)

>  <Rbt.Library>
libRbt.so (2013.1, Build901 2013/11/27)

>  <Rbt.Parameter_File>
/export/apps/rDock/src/rDock_2013.1_src/data/scripts/dock_solv.prm

>  <Rbt.Receptor>
prm/blind_docking_40.prm

>  <SCORE>
1.4124

>  <SCORE.INTER>
-2.61782

>  <SCORE.INTER.CONST>
1

>  <SCORE.INTER.POLAR>
0

>  <SCORE.INTER.ROT>
6

>  <SCORE.INTER.SOLV>
21.8032

>  <SCORE.INTER.VDW>
-16.6129

>  <SCORE.INTER.norm>
-0.0769947

>  <SCORE.INTRA>
-3.31621

>  <SCORE.INTRA.DIHEDRAL>
-8.18487

>  <SCORE.INTRA.DIHEDRAL.0>
18.0069

>  <SCORE.INTRA.POLAR>
0

>  <SCORE.INTRA.POLAR.0>
0

>  <SCORE.INTRA.REPUL>
0

>  <SCORE.INTRA.REPUL.0>
0

>  <SCORE.INTRA.SOLV>
-2.24598

>  <SCORE.INTRA.SOLV.lig_0>
-70.7393

>  <SCORE.INTRA.VDW>
1.89921

>  <SCORE.INTRA.VDW.0>
-3.23471

>  <SCORE.INTRA.norm>
-0.0975357

>  <SCORE.RESTR>
7.34643

>  <SCORE.RESTR.CAVITY>
7.34643

>  <SCORE.RESTR.norm>
0.216071

>  <SCORE.SYSTEM>
0

>  <SCORE.SYSTEM.CONST>
0

>  <SCORE.SYSTEM.DIHEDRAL>
0

>  <SCORE.SYSTEM.SOLV>
0

>  <SCORE.SYSTEM.norm>
0

>  <SCORE.heavy>
34

>  <SCORE.norm>
0.0415411

>  <RMSD>
40.674

$$$$
lig.pdb
 OpenBabel11021811503D
libRbt.so/2013.1/901 2013/11/27
 34 36  0  0  0  0  0  0  0  0999 V2000
   13.3182    9.7453    0.8798 C   0  0  2  0  0  0  0  0  0  0  0  0
   12.0030    9.6473    0.3224 O   0  0  0  0  0  0  0  0  0  0  0  0
   14.2163    8.5929    0.2579 C   0  0  2  0  0  0  0  0  0  0  0  0
   14.3203    8.7102   -1.2153 N   0  0  0  0  0  0  0  0  0  0  0  0
   13.6200    7.2139    0.6369 C   0  0  1  0  0  0  0  0  0  0  0  0
   14.4199    6.1625    0.0910 O   0  0  0  0  0  0  0  0  0  0  0  0
   13.5415    7.1190    2.1710 C   0  0  2  0  0  0  0  0  0  0  0  0
   12.9964    5.8498    2.5347 O   0  0  0  0  0  0  0  0  0  0  0  0
   12.6526    8.2947    2.7314 C   0  0  2  0  0  0  0  0  0  0  0  0
   13.2089    9.6062    2.3357 O   0  0  0  0  0  0  0  0  0  0  0  0
   12.5575    8.2507    4.2767 C   0  0  2  0  0  0  0  0  0  0  0  0
   11.9226    9.4373    4.7568 O   0  0  0  0  0  0  0  0  0  0  0  0
   13.9365    8.1479    4.9096 C   0  0  0  0  0  0  0  0  0  0  0  0
    8.9858   12.6056   -0.3572 C   0  0  2  0  0  0  0  0  0  0  0  0
    7.9660   13.6290   -0.1148 N   0  0  0  0  0  0  0  0  0  0  0  0
    8.6068   11.3657    0.4989 C   0  0  0  0  0  0  0  0  0  0  0  0
    9.6643   10.2594    0.2366 C   0  0  2  0  0  0  0  0  0  0  0  0
    9.3410    9.0601    1.0253 N   0  0  0  0  0  0  0  0  0  0  0  0
   11.0873   10.7503    0.6156 C   0  0  2  0  0  0  0  0  0  0  0  0
   11.4275   12.0224   -0.2233 C   0  0  2  0  0  0  0  0  0  0  0  0
   12.7377   12.4817    0.1359 O   0  0  0  0  0  0  0  0  0  0  0  0
   10.4135   13.1568    0.0618 C   0  0  1  0  0  0  0  0  0  0  0  0
   10.7910   14.2898   -0.7591 O   0  0  0  0  0  0  0  0  0  0  0  0
   11.2132   15.4773   -0.0484 C   0  0  2  0  0  0  0  0  0  0  0  0
   11.2346   16.6387   -1.1105 C   0  0  2  0  0  0  0  0  0  0  0  0
    9.9350   16.8231   -1.6493 O   0  0  0  0  0  0  0  0  0  0  0  0
   12.2689   16.2780   -2.2431 C   0  0  1  0  0  0  0  0  0  0  0  0
   12.3153   17.3515   -3.2822 N   0  0  0  0  0  0  0  0  0  0  0  0
   11.4805   16.9413   -4.4317 C   0  0  0  0  0  0  0  0  0  0  0  0
   13.6731   16.0960   -1.5908 C   0  0  2  0  0  0  0  0  0  0  0  0
   14.0511   17.3233   -0.9691 O   0  0  0  0  0  0  0  0  0  0  0  0
   14.7363   15.7346   -2.6250 C   0  0  0  0  0  0  0  0  0  0  0  0
   13.5932   14.9719   -0.5086 C   0  0  0  0  0  0  0  0  0  0  0  0
   12.5681   15.2888    0.5078 O   0  0  0  0  0  0  0  0  0  0  0  0
  1  3  1  0  0  0  0
  1  2  1  6  0  0  0
  3  5  1  0  0  0  0
  3  4  1  6  0  0  0
  5  6  1  1  0  0  0
  7  8  1  6  0  0  0
  7  5  1  0  0  0  0
  9 10  1  1  0  0  0
  9  7  1  0  0  0  0
 10  1  1  0  0  0  0
 11 13  1  1  0  0  0
 11  9  1  0  0  0  0
 12 11  1  0  0  0  0
 14 15  1  1  0  0  0
 16 14  1  0  0  0  0
 17 18  1  1  0  0  0
 17 16  1  0  0  0  0
 19  2  1  6  0  0  0
 19 20  1  0  0  0  0
 19 17  1  0  0  0  0
 20 21  1  1  0  0  0
 20 22  1  0  0  0  0
 22 23  1  6  0  0  0
 22 14  1  0  0  0  0
 24 23  1  6  0  0  0
 24 25  1  0  0  0  0
 25 27  1  0  0  0  0
 25 26  1  6  0  0  0
 27 28  1  6  0  0  0
 28 29  1  0  0  0  0
 30 31  1  1  0  0  0
 30 32  1  0  0  0  0
 30 27  1  0  0  0  0
 33 30  1  0  0  0  0
 34 33  1  0  0  0  0
 34 24  1  0  0  0  0
M  END
>  <CHROM.1>
-170.79354570,171.14522992,-165.68182258,128.34844189,-166.92637754,-98.88957005
12.10585834,11.92683679,0.24365280,-1.45603626,0.21459791,-0.46873533

>  <Name>
lig.pdb

>  <RI>
0

>  <Rbt.Current_Directory>
/home/itssahil/PROJECTS/Mol_Feturizer/New_Systems/rnas/4k32

>  <Rbt.Executable>
rbdock ($Id: //depot/dev/client3/rdock/2013.1/src/exe/rbdock.cxx#4 $)

>  <Rbt.Library>
libRbt.so (2013.1, Build901 2013/11/27)

>  <Rbt.Parameter_File>
/export/apps/rDock/src/rDock_2013.1_src/data/scripts/dock_solv.prm

>  <Rbt.Receptor>
prm/blind_docking_40.prm

>  <SCORE>
1.48997

>  <SCORE.INTER>
-2.15687

>  <SCORE.INTER.CONST>
1

>  <SCORE.INTER.POLAR>
0

>  <SCORE.INTER.ROT>
6

>  <SCORE.INTER.SOLV>
21.8454

>  <SCORE.INTER.VDW>
-16.3197

>  <SCORE.INTER.norm>
-0.0634374

>  <SCORE.INTRA>
-3.65818

>  <SCORE.INTRA.DIHEDRAL>
-7.84384

>  <SCORE.INTRA.DIHEDRAL.0>
18.0069

>  <SCORE.INTRA.POLAR>
0

>  <SCORE.INTRA.POLAR.0>
0

>  <SCORE.INTRA.REPUL>
0

>  <SCORE.INTRA.REPUL.0>
0

>  <SCORE.INTRA.SOLV>
-2.27049

>  <SCORE.INTRA.SOLV.lig_0>
-70.7393

>  <SCORE.INTRA.VDW>
1.39898

>  <SCORE.INTRA.VDW.0>
-3.23471

>  <SCORE.INTRA.norm>
-0.107594

>  <SCORE.RESTR>
7.30503

>  <SCORE.RESTR.CAVITY>
7.30503

>  <SCORE.RESTR.norm>
0.214854

>  <SCORE.SYSTEM>
0

>  <SCORE.SYSTEM.CONST>
0

>  <SCORE.SYSTEM.DIHEDRAL>
0

>  <SCORE.SYSTEM.SOLV>
0

>  <SCORE.SYSTEM.norm>
0

>  <SCORE.heavy>
34

>  <SCORE.norm>
0.0438227

>  <RMSD>
40.677

$$$$
lig.pdb
 OpenBabel11021811503D
libRbt.so/2013.1/901 2013/11/27
 34 36  0  0  0  0  0  0  0  0999 V2000
   13.2984    9.7533    0.7913 C   0  0  2  0  0  0  0  0  0  0  0  0
   11.9233    9.5832    0.4303 O   0  0  0  0  0  0  0  0  0  0  0  0
   14.1517    8.6235    0.0725 C   0  0  2  0  0  0  0  0  0  0  0  0
   14.0398    8.7034   -1.4026 N   0  0  0  0  0  0  0  0  0  0  0  0
   13.6800    7.2314    0.5630 C   0  0  1  0  0  0  0  0  0  0  0  0
   14.4424    6.2003   -0.0687 O   0  0  0  0  0  0  0  0  0  0  0  0
   13.8248    7.1766    2.0943 C   0  0  2  0  0  0  0  0  0  0  0  0
   13.3966    5.8959    2.5599 O   0  0  0  0  0  0  0  0  0  0  0  0
   12.9708    8.3284    2.7503 C   0  0  2  0  0  0  0  0  0  0  0  0
   13.4036    9.6508    2.2505 O   0  0  0  0  0  0  0  0  0  0  0  0
   13.0984    8.3240    4.2940 C   0  0  2  0  0  0  0  0  0  0  0  0
   13.1649    6.9786    4.7705 O   0  0  0  0  0  0  0  0  0  0  0  0
   11.9089    9.0117    4.9458 C   0  0  0  0  0  0  0  0  0  0  0  0
    8.9473   12.5784   -0.2688 C   0  0  2  0  0  0  0  0  0  0  0  0
    7.9492   13.6247   -0.0337 N   0  0  0  0  0  0  0  0  0  0  0  0
    8.5606   11.3647    0.6207 C   0  0  0  0  0  0  0  0  0  0  0  0
    9.5945   10.2344    0.3670 C   0  0  2  0  0  0  0  0  0  0  0  0
    9.2632    9.0588    1.1874 N   0  0  0  0  0  0  0  0  0  0  0  0
   11.0316   10.7084    0.7127 C   0  0  2  0  0  0  0  0  0  0  0  0
   11.3803   11.9554   -0.1597 C   0  0  2  0  0  0  0  0  0  0  0  0
   12.7038   12.3994    0.1687 O   0  0  0  0  0  0  0  0  0  0  0  0
   10.3907   13.1136    0.1155 C   0  0  1  0  0  0  0  0  0  0  0  0
   10.7746   14.2212   -0.7364 O   0  0  0  0  0  0  0  0  0  0  0  0
   11.2032   15.4257   -0.0589 C   0  0  2  0  0  0  0  0  0  0  0  0
   11.2068   16.5626   -1.1474 C   0  0  2  0  0  0  0  0  0  0  0  0
    9.8994   16.7314   -1.6722 O   0  0  0  0  0  0  0  0  0  0  0  0
   12.2264   16.1787   -2.2856 C   0  0  1  0  0  0  0  0  0  0  0  0
   12.2555   17.2283   -3.3494 N   0  0  0  0  0  0  0  0  0  0  0  0
   11.3446   16.8269   -4.4429 C   0  0  0  0  0  0  0  0  0  0  0  0
   13.6400   16.0151   -1.6487 C   0  0  2  0  0  0  0  0  0  0  0  0
   14.0231   17.2572   -1.0604 O   0  0  0  0  0  0  0  0  0  0  0  0
   14.6898   15.6329   -2.6890 C   0  0  0  0  0  0  0  0  0  0  0  0
   13.5781   14.9158   -0.5403 C   0  0  0  0  0  0  0  0  0  0  0  0
   12.5661   15.2533    0.4828 O   0  0  0  0  0  0  0  0  0  0  0  0
  1  3  1  0  0  0  0
  1  2  1  1  0  0  0
  3  5  1  0  0  0  0
  3  4  1  6  0  0  0
  5  6  1  6  0  0  0
  7  8  1  1  0  0  0
  7  5  1  0  0  0  0
  9 10  1  6  0  0  0
  9  7  1  0  0  0  0
 10  1  1  0  0  0  0
 11 13  1  1  0  0  0
 11  9  1  0  0  0  0
 12 11  1  0  0  0  0
 14 15  1  1  0  0  0
 16 14  1  0  0  0  0
 17 18  1  1  0  0  0
 17 16  1  0  0  0  0
 19  2  1  6  0  0  0
 19 20  1  0  0  0  0
 19 17  1  0  0  0  0
 20 21  1  1  0  0  0
 20 22  1  0  0  0  0
 22 23  1  6  0  0  0
 22 14  1  0  0  0  0
 24 23  1  6  0  0  0
 24 25  1  0  0  0  0
 25 27  1  0  0  0  0
 25 26  1  6  0  0  0
 27 28  1  6  0  0  0
 28 29  1  0  0  0  0
 30 31  1  1  0  0  0
 30 32  1  0  0  0  0
 30 27  1  0  0  0  0
 33 30  1  0  0  0  0
 34 33  1  0  0  0  0
 34 24  1  0  0  0  0
M  END
>  <CHROM.1>
-165.14346895,-36.97092097,-174.56748908,127.16406915,-165.95371962,-95.62073978
12.09865162,11.84307963,0.23606501,-1.44447983,0.27548165,-0.48432620

>  <Name>
lig.pdb

>  <RI>
0

>  <Rbt.Current_Directory>
/home/itssahil/PROJECTS/Mol_Feturizer/New_Systems/rnas/4k32

>  <Rbt.Executable>
rbdock ($Id: //depot/dev/client3/rdock/2013.1/src/exe/rbdock.cxx#4 $)

>  <Rbt.Library>
libRbt.so (2013.1, Build901 2013/11/27)

>  <Rbt.Parameter_File>
/export/apps/rDock/src/rDock_2013.1_src/data/scripts/dock_solv.prm

>  <Rbt.Receptor>
prm/blind_docking_40.prm

>  <SCORE>
2.14404

>  <SCORE.INTER>
-2.71024

>  <SCORE.INTER.CONST>
1

>  <SCORE.INTER.POLAR>
0

>  <SCORE.INTER.ROT>
6

>  <SCORE.INTER.SOLV>
20.4679

>  <SCORE.INTER.VDW>
-16.2295

>  <SCORE.INTER.norm>
-0.079713

>  <SCORE.INTRA>
-2.99769

>  <SCORE.INTRA.DIHEDRAL>
-6.44557

>  <SCORE.INTRA.DIHEDRAL.0>
18.0069

>  <SCORE.INTRA.POLAR>
0

>  <SCORE.INTRA.POLAR.0>
0

>  <SCORE.INTRA.REPUL>
0

>  <SCORE.INTRA.REPUL.0>
0

>  <SCORE.INTRA.SOLV>
-1.97334

>  <SCORE.INTRA.SOLV.lig_0>
-70.7393

>  <SCORE.INTRA.VDW>
1.21177

>  <SCORE.INTRA.VDW.0>
-3.23471

>  <SCORE.INTRA.norm>
-0.0881673

>  <SCORE.RESTR>
7.85197

>  <SCORE.RESTR.CAVITY>
7.85197

>  <SCORE.RESTR.norm>
0.23094

>  <SCORE.SYSTEM>
0

>  <SCORE.SYSTEM.CONST>
0

>  <SCORE.SYSTEM.DIHEDRAL>
0

>  <SCORE.SYSTEM.SOLV>
0

>  <SCORE.SYSTEM.norm>
0

>  <SCORE.heavy>
34

>  <SCORE.norm>
0.0630599

>  <RMSD>
40.688

$$$$
lig.pdb
 OpenBabel11021811503D
libRbt.so/2013.1/901 2013/11/27
 34 36  0  0  0  0  0  0  0  0999 V2000
   12.5890   10.2534    1.7710 C   0  0  2  0  0  0  0  0  0  0  0  0
   11.3032    9.9380    1.2256 O   0  0  0  0  0  0  0  0  0  0  0  0
   13.6653   10.1667    0.6068 C   0  0  2  0  0  0  0  0  0  0  0  0
   13.3717   11.1219   -0.4870 N   0  0  0  0  0  0  0  0  0  0  0  0
   13.7055    8.7216    0.0491 C   0  0  1  0  0  0  0  0  0  0  0  0
   14.6750    8.6221   -0.9967 O   0  0  0  0  0  0  0  0  0  0  0  0
   14.0286    7.7589    1.2056 C   0  0  2  0  0  0  0  0  0  0  0  0
   14.0725    6.4221    0.7041 O   0  0  0  0  0  0  0  0  0  0  0  0
   12.9378    7.9007    2.3354 C   0  0  2  0  0  0  0  0  0  0  0  0
   12.8815    9.2902    2.8375 O   0  0  0  0  0  0  0  0  0  0  0  0
   13.2305    6.9607    3.5312 C   0  0  2  0  0  0  0  0  0  0  0  0
   14.5919    7.1065    3.9399 O   0  0  0  0  0  0  0  0  0  0  0  0
   12.9884    5.5062    3.1591 C   0  0  0  0  0  0  0  0  0  0  0  0
    8.4765   12.6391   -0.5152 C   0  0  2  0  0  0  0  0  0  0  0  0
    7.4235   13.6485   -0.6512 N   0  0  0  0  0  0  0  0  0  0  0  0
    7.9352   11.5336    0.4329 C   0  0  0  0  0  0  0  0  0  0  0  0
    9.0295   10.4407    0.5706 C   0  0  2  0  0  0  0  0  0  0  0  0
    8.5565    9.3669    1.4583 N   0  0  0  0  0  0  0  0  0  0  0  0
   10.3413   11.0378    1.1470 C   0  0  2  0  0  0  0  0  0  0  0  0
   10.8409   12.1763    0.2026 C   0  0  2  0  0  0  0  0  0  0  0  0
   12.0465   12.7348    0.7422 O   0  0  0  0  0  0  0  0  0  0  0  0
    9.7843   13.3021    0.0913 C   0  0  1  0  0  0  0  0  0  0  0  0
   10.3173   14.3074   -0.8060 O   0  0  0  0  0  0  0  0  0  0  0  0
   10.8141   15.5157   -0.1839 C   0  0  2  0  0  0  0  0  0  0  0  0
   10.9340   16.5830   -1.3346 C   0  0  2  0  0  0  0  0  0  0  0  0
    9.6587   16.8147   -1.9118 O   0  0  0  0  0  0  0  0  0  0  0  0
   11.9553   16.0596   -2.4143 C   0  0  1  0  0  0  0  0  0  0  0  0
   12.0934   17.0396   -3.5344 N   0  0  0  0  0  0  0  0  0  0  0  0
   11.5134   16.4502   -4.7603 C   0  0  0  0  0  0  0  0  0  0  0  0
   13.3335   15.8320   -1.7220 C   0  0  2  0  0  0  0  0  0  0  0  0
   13.7904   17.0757   -1.1927 O   0  0  0  0  0  0  0  0  0  0  0  0
   14.3821   15.3139   -2.7030 C   0  0  0  0  0  0  0  0  0  0  0  0
   13.1577   14.8075   -0.5555 C   0  0  0  0  0  0  0  0  0  0  0  0
   12.1440   15.2774    0.4121 O   0  0  0  0  0  0  0  0  0  0  0  0
  1  3  1  0  0  0  0
  1  2  1  6  0  0  0
  3  5  1  0  0  0  0
  3  4  1  6  0  0  0
  5  6  1  6  0  0  0
  7  8  1  6  0  0  0
  7  5  1  0  0  0  0
  9 10  1  1  0  0  0
  9  7  1  0  0  0  0
 10  1  1  0  0  0  0
 11 13  1  6  0  0  0
 11  9  1  0  0  0  0
 12 11  1  0  0  0  0
 14 15  1  1  0  0  0
 16 14  1  0  0  0  0
 17 18  1  1  0  0  0
 17 16  1  0  0  0  0
 19  2  1  6  0  0  0
 19 20  1  0  0  0  0
 19 17  1  0  0  0  0
 20 21  1  1  0  0  0
 20 22  1  0  0  0  0
 22 23  1  6  0  0  0
 22 14  1  0  0  0  0
 24 23  1  6  0  0  0
 24 25  1  0  0  0  0
 25 27  1  0  0  0  0
 25 26  1  6  0  0  0
 27 28  1  6  0  0  0
 28 29  1  0  0  0  0
 30 31  1  1  0  0  0
 30 32  1  0  0  0  0
 30 27  1  0  0  0  0
 33 30  1  0  0  0  0
 34 33  1  0  0  0  0
 34 24  1  0  0  0  0
M  END
>  <CHROM.1>
-111.12038348,49.37143658,-178.31428508,139.64813013,-163.86960872,-111.99030061
11.87733614,11.98642778,0.08083372,-1.38764516,0.15276377,-0.47626309

>  <Name>
lig.pdb

>  <RI>
0

>  <Rbt.Current_Directory>
/home/itssahil/PROJECTS/Mol_Feturizer/New_Systems/rnas/4k32

>  <Rbt.Executable>
rbdock ($Id: //depot/dev/client3/rdock/2013.1/src/exe/rbdock.cxx#4 $)

>  <Rbt.Library>
libRbt.so (2013.1, Build901 2013/11/27)

>  <Rbt.Parameter_File>
/export/apps/rDock/src/rDock_2013.1_src/data/scripts/dock_solv.prm

>  <Rbt.Receptor>
prm/blind_docking_40.prm

>  <SCORE>
6.11125

>  <SCORE.INTER>
-2.80093

>  <SCORE.INTER.CONST>
1

>  <SCORE.INTER.POLAR>
0

>  <SCORE.INTER.ROT>
6

>  <SCORE.INTER.SOLV>
21.8127

>  <SCORE.INTER.VDW>
-16.7382

>  <SCORE.INTER.norm>
-0.0823803

>  <SCORE.INTRA>
2.06868

>  <SCORE.INTRA.DIHEDRAL>
-2.97872

>  <SCORE.INTRA.DIHEDRAL.0>
18.0069

>  <SCORE.INTRA.POLAR>
0

>  <SCORE.INTRA.POLAR.0>
0

>  <SCORE.INTRA.REPUL>
0

>  <SCORE.INTRA.REPUL.0>
0

>  <SCORE.INTRA.SOLV>
0.727759

>  <SCORE.INTRA.SOLV.lig_0>
-70.7393

>  <SCORE.INTRA.VDW>
3.19417

>  <SCORE.INTRA.VDW.0>
-3.23471

>  <SCORE.INTRA.norm>
0.0608437

>  <SCORE.RESTR>
6.84349

>  <SCORE.RESTR.CAVITY>
6.84349

>  <SCORE.RESTR.norm>
0.201279

>  <SCORE.SYSTEM>
0

>  <SCORE.SYSTEM.CONST>
0

>  <SCORE.SYSTEM.DIHEDRAL>
0

>  <SCORE.SYSTEM.SOLV>
0

>  <SCORE.SYSTEM.norm>
0

>  <SCORE.heavy>
34

>  <SCORE.norm>
0.179743

>  <RMSD>
40.692

$$$$
lig.pdb
 OpenBabel11021811503D
libRbt.so/2013.1/901 2013/11/27
 34 36  0  0  0  0  0  0  0  0999 V2000
   12.5933   10.2619    1.7481 C   0  0  2  0  0  0  0  0  0  0  0  0
   11.3022    9.9424    1.2179 O   0  0  0  0  0  0  0  0  0  0  0  0
   13.6564   10.1767    0.5717 C   0  0  2  0  0  0  0  0  0  0  0  0
   13.3476   11.1297   -0.5198 N   0  0  0  0  0  0  0  0  0  0  0  0
   13.6941    8.7310    0.0154 C   0  0  1  0  0  0  0  0  0  0  0  0
   14.6518    8.6328   -1.0413 O   0  0  0  0  0  0  0  0  0  0  0  0
   14.0331    7.7707    1.1693 C   0  0  2  0  0  0  0  0  0  0  0  0
   14.0748    6.4334    0.6690 O   0  0  0  0  0  0  0  0  0  0  0  0
   12.9550    7.9109    2.3114 C   0  0  2  0  0  0  0  0  0  0  0  0
   12.9006    9.3008    2.8124 O   0  0  0  0  0  0  0  0  0  0  0  0
   13.2638    6.9732    3.5049 C   0  0  2  0  0  0  0  0  0  0  0  0
   14.6315    7.1175    3.8927 O   0  0  0  0  0  0  0  0  0  0  0  0
   13.0136    5.5183    3.1399 C   0  0  0  0  0  0  0  0  0  0  0  0
    8.4760   12.6428   -0.5248 C   0  0  2  0  0  0  0  0  0  0  0  0
    7.4228   13.6520   -0.6615 N   0  0  0  0  0  0  0  0  0  0  0  0
    7.9343   11.5372    0.4229 C   0  0  0  0  0  0  0  0  0  0  0  0
    9.0288   10.4446    0.5613 C   0  0  2  0  0  0  0  0  0  0  0  0
    8.5554    9.3707    1.4487 N   0  0  0  0  0  0  0  0  0  0  0  0
   10.3401   11.0419    1.1387 C   0  0  2  0  0  0  0  0  0  0  0  0
   10.8400   12.1806    0.1946 C   0  0  2  0  0  0  0  0  0  0  0  0
   12.0451   12.7394    0.7350 O   0  0  0  0  0  0  0  0  0  0  0  0
    9.7832   13.3062    0.0826 C   0  0  1  0  0  0  0  0  0  0  0  0
   10.3167   14.3116   -0.8143 O   0  0  0  0  0  0  0  0  0  0  0  0
   10.7967   15.5272   -0.1934 C   0  0  2  0  0  0  0  0  0  0  0  0
   10.9143   16.5912   -1.3472 C   0  0  2  0  0  0  0  0  0  0  0  0
    9.6410   16.8078   -1.9346 O   0  0  0  0  0  0  0  0  0  0  0  0
   11.9487   16.0740   -2.4174 C   0  0  1  0  0  0  0  0  0  0  0  0
   12.0852   17.0511   -3.5403 N   0  0  0  0  0  0  0  0  0  0  0  0
   11.5246   16.4492   -4.7692 C   0  0  0  0  0  0  0  0  0  0  0  0
   13.3240   15.8630   -1.7142 C   0  0  2  0  0  0  0  0  0  0  0  0
   13.7644   17.1132   -1.1865 O   0  0  0  0  0  0  0  0  0  0  0  0
   14.3849   15.3517   -2.6855 C   0  0  0  0  0  0  0  0  0  0  0  0
   13.1499   14.8413   -0.5451 C   0  0  0  0  0  0  0  0  0  0  0  0
   12.1245   15.3046    0.4133 O   0  0  0  0  0  0  0  0  0  0  0  0
  1  3  1  0  0  0  0
  1  2  1  6  0  0  0
  3  5  1  0  0  0  0
  3  4  1  6  0  0  0
  5  6  1  6  0  0  0
  7  8  1  6  0  0  0
  7  5  1  0  0  0  0
  9 10  1  1  0  0  0
  9  7  1  0  0  0  0
 10  1  1  0  0  0  0
 11 13  1  6  0  0  0
 11  9  1  0  0  0  0
 12 11  1  0  0  0  0
 14 15  1  1  0  0  0
 16 14  1  0  0  0  0
 17 18  1  1  0  0  0
 17 16  1  0  0  0  0
 19  2  1  6  0  0  0
 19 20  1  0  0  0  0
 19 17  1  0  0  0  0
 20 21  1  1  0  0  0
 20 22  1  0  0  0  0
 22 23  1  6  0  0  0
 22 14  1  0  0  0  0
 24 23  1  6  0  0  0
 24 25  1  0  0  0  0
 25 27  1  0  0  0  0
 25 26  1  6  0  0  0
 27 28  1  6  0  0  0
 28 29  1  0  0  0  0
 30 31  1  1  0  0  0
 30 32  1  0  0  0  0
 30 27  1  0  0  0  0
 33 30  1  0  0  0  0
 34 33  1  0  0  0  0
 34 24  1  0  0  0  0
M  END
>  <CHROM.1>
-110.62837165,49.03439405,-179.09620306,138.87071852,-163.67840254,-112.19770536
11.87588680,11.99749333,0.06603477,-1.38547799,0.15176338,-0.47349988

>  <Name>
lig.pdb

>  <RI>
0

>  <Rbt.Current_Directory>
/home/itssahil/PROJECTS/Mol_Feturizer/New_Systems/rnas/4k32

>  <Rbt.Executable>
rbdock ($Id: //depot/dev/client3/rdock/2013.1/src/exe/rbdock.cxx#4 $)

>  <Rbt.Library>
libRbt.so (2013.1, Build901 2013/11/27)

>  <Rbt.Parameter_File>
/export/apps/rDock/src/rDock_2013.1_src/data/scripts/dock_solv.prm

>  <Rbt.Receptor>
prm/blind_docking_40.prm

>  <SCORE>
5.99629

>  <SCORE.INTER>
-2.98195

>  <SCORE.INTER.CONST>
1

>  <SCORE.INTER.POLAR>
0

>  <SCORE.INTER.ROT>
6

>  <SCORE.INTER.SOLV>
21.75

>  <SCORE.INTER.VDW>
-16.838

>  <SCORE.INTER.norm>
-0.0877043

>  <SCORE.INTRA>
2.09431

>  <SCORE.INTRA.DIHEDRAL>
-2.85441

>  <SCORE.INTRA.DIHEDRAL.0>
18.0069

>  <SCORE.INTRA.POLAR>
0

>  <SCORE.INTRA.POLAR.0>
0

>  <SCORE.INTRA.REPUL>
0

>  <SCORE.INTRA.REPUL.0>
0

>  <SCORE.INTRA.SOLV>
0.755455

>  <SCORE.INTRA.SOLV.lig_0>
-70.7393

>  <SCORE.INTRA.VDW>
3.14379

>  <SCORE.INTRA.VDW.0>
-3.23471

>  <SCORE.INTRA.norm>
0.0615973

>  <SCORE.RESTR>
6.88393

>  <SCORE.RESTR.CAVITY>
6.88393

>  <SCORE.RESTR.norm>
0.202468

>  <SCORE.SYSTEM>
0

>  <SCORE.SYSTEM.CONST>
0

>  <SCORE.SYSTEM.DIHEDRAL>
0

>  <SCORE.SYSTEM.SOLV>
0

>  <SCORE.SYSTEM.norm>
0

>  <SCORE.heavy>
34

>  <SCORE.norm>
0.176361

>  <RMSD>
40.703

$$$$
lig.pdb
 OpenBabel11021811503D
libRbt.so/2013.1/901 2013/11/27
 34 36  0  0  0  0  0  0  0  0999 V2000
   13.2590    9.6654    0.8171 C   0  0  2  0  0  0  0  0  0  0  0  0
   11.8627    9.5171    0.5369 O   0  0  0  0  0  0  0  0  0  0  0  0
   14.0591    8.5780   -0.0188 C   0  0  2  0  0  0  0  0  0  0  0  0
   13.8523    8.7424   -1.4766 N   0  0  0  0  0  0  0  0  0  0  0  0
   13.6142    7.1604    0.4209 C   0  0  1  0  0  0  0  0  0  0  0  0
   14.3296    6.1667   -0.3168 O   0  0  0  0  0  0  0  0  0  0  0  0
   13.8575    7.0179    1.9339 C   0  0  2  0  0  0  0  0  0  0  0  0
   13.4547    5.7129    2.3524 O   0  0  0  0  0  0  0  0  0  0  0  0
   13.0527    8.1308    2.7087 C   0  0  2  0  0  0  0  0  0  0  0  0
   13.4580    9.4794    2.2582 O   0  0  0  0  0  0  0  0  0  0  0  0
   13.2799    8.0378    4.2380 C   0  0  2  0  0  0  0  0  0  0  0  0
   14.5194    7.3787    4.5043 O   0  0  0  0  0  0  0  0  0  0  0  0
   12.1614    7.2599    4.9136 C   0  0  0  0  0  0  0  0  0  0  0  0
    8.7977   12.4577    0.0129 C   0  0  2  0  0  0  0  0  0  0  0  0
    7.8341   13.5240    0.2973 N   0  0  0  0  0  0  0  0  0  0  0  0
    8.5457   11.3225    1.0432 C   0  0  0  0  0  0  0  0  0  0  0  0
    9.5428   10.1708    0.7424 C   0  0  2  0  0  0  0  0  0  0  0  0
    9.3360    9.0676    1.6938 N   0  0  0  0  0  0  0  0  0  0  0  0
   11.0105   10.6654    0.8469 C   0  0  2  0  0  0  0  0  0  0  0  0
   11.2269   11.8354   -0.1641 C   0  0  2  0  0  0  0  0  0  0  0  0
   12.5798   12.2991   -0.0586 O   0  0  0  0  0  0  0  0  0  0  0  0
   10.2765   13.0164    0.1495 C   0  0  1  0  0  0  0  0  0  0  0  0
   10.5315   14.0490   -0.8346 O   0  0  0  0  0  0  0  0  0  0  0  0
   10.8801   15.3527   -0.3126 C   0  0  2  0  0  0  0  0  0  0  0  0
   10.9028   16.3272   -1.5484 C   0  0  2  0  0  0  0  0  0  0  0  0
    9.6207   16.3663   -2.1550 O   0  0  0  0  0  0  0  0  0  0  0  0
   11.9956   15.8331   -2.5703 C   0  0  1  0  0  0  0  0  0  0  0  0
   12.0455   16.7259   -3.7681 N   0  0  0  0  0  0  0  0  0  0  0  0
   12.0067   18.1338   -3.3176 C   0  0  0  0  0  0  0  0  0  0  0  0
   13.3774   15.8193   -1.8485 C   0  0  2  0  0  0  0  0  0  0  0  0
   13.6841   17.1459   -1.4223 O   0  0  0  0  0  0  0  0  0  0  0  0
   14.4949   15.3417   -2.7723 C   0  0  0  0  0  0  0  0  0  0  0  0
   13.2941   14.8822   -0.6011 C   0  0  0  0  0  0  0  0  0  0  0  0
   12.2169   15.3147    0.3138 O   0  0  0  0  0  0  0  0  0  0  0  0
  1  3  1  0  0  0  0
  1  2  1  1  0  0  0
  3  5  1  0  0  0  0
  3  4  1  6  0  0  0
  5  6  1  6  0  0  0
  7  8  1  1  0  0  0
  7  5  1  0  0  0  0
  9 10  1  6  0  0  0
  9  7  1  0  0  0  0
 10  1  1  0  0  0  0
 11 13  1  1  0  0  0
 11  9  1  0  0  0  0
 12 11  1  0  0  0  0
 14 15  1  1  0  0  0
 16 14  1  0  0  0  0
 17 18  1  1  0  0  0
 17 16  1  0  0  0  0
 19  2  1  6  0  0  0
 19 20  1  0  0  0  0
 19 17  1  0  0  0  0
 20 21  1  1  0  0  0
 20 22  1  0  0  0  0
 22 23  1  6  0  0  0
 22 14  1  0  0  0  0
 24 23  1  6  0  0  0
 24 25  1  0  0  0  0
 25 27  1  0  0  0  0
 25 26  1  6  0  0  0
 27 28  1  6  0  0  0
 28 29  1  0  0  0  0
 30 31  1  1  0  0  0
 30 32  1  0  0  0  0
 30 27  1  0  0  0  0
 33 30  1  0  0  0  0
 34 33  1  0  0  0  0
 34 24  1  0  0  0  0
M  END
>  <CHROM.1>
-160.63903491,23.63704216,-168.49951835,119.72863131,-172.15140638,44.62226690
12.05810983,11.72011258,0.20283643,-1.41248803,0.29712749,-0.49540201

>  <Name>
lig.pdb

>  <RI>
0

>  <Rbt.Current_Directory>
/home/itssahil/PROJECTS/Mol_Feturizer/New_Systems/rnas/4k32

>  <Rbt.Executable>
rbdock ($Id: //depot/dev/client3/rdock/2013.1/src/exe/rbdock.cxx#4 $)

>  <Rbt.Library>
libRbt.so (2013.1, Build901 2013/11/27)

>  <Rbt.Parameter_File>
/export/apps/rDock/src/rDock_2013.1_src/data/scripts/dock_solv.prm

>  <Rbt.Receptor>
prm/blind_docking_40.prm

>  <SCORE>
7.16709

>  <SCORE.INTER>
-3.68918

>  <SCORE.INTER.CONST>
1

>  <SCORE.INTER.POLAR>
0

>  <SCORE.INTER.ROT>
6

>  <SCORE.INTER.SOLV>
20.7192

>  <SCORE.INTER.VDW>
-16.9658

>  <SCORE.INTER.norm>
-0.108505

>  <SCORE.INTRA>
3.03594

>  <SCORE.INTRA.DIHEDRAL>
-4.48087

>  <SCORE.INTRA.DIHEDRAL.0>
18.0069

>  <SCORE.INTRA.POLAR>
0

>  <SCORE.INTRA.POLAR.0>
0

>  <SCORE.INTRA.REPUL>
0

>  <SCORE.INTRA.REPUL.0>
0

>  <SCORE.INTRA.SOLV>
-1.39048

>  <SCORE.INTRA.SOLV.lig_0>
-70.7393

>  <SCORE.INTRA.VDW>
5.97161

>  <SCORE.INTRA.VDW.0>
-3.23471

>  <SCORE.INTRA.norm>
0.0892923

>  <SCORE.RESTR>
7.82034

>  <SCORE.RESTR.CAVITY>
7.82034

>  <SCORE.RESTR.norm>
0.23001

>  <SCORE.SYSTEM>
0

>  <SCORE.SYSTEM.CONST>
0

>  <SCORE.SYSTEM.DIHEDRAL>
0

>  <SCORE.SYSTEM.SOLV>
0

>  <SCORE.SYSTEM.norm>
0

>  <SCORE.heavy>
34

>  <SCORE.norm>
0.210797

>  <RMSD>
40.710

$$$$
lig.pdb
 OpenBabel11021811503D
libRbt.so/2013.1/901 2013/11/27
 34 36  0  0  0  0  0  0  0  0999 V2000
   12.8366    9.9743    1.6370 C   0  0  2  0  0  0  0  0  0  0  0  0
   11.5085    9.5822    1.2727 O   0  0  0  0  0  0  0  0  0  0  0  0
   13.7447    9.9484    0.3348 C   0  0  2  0  0  0  0  0  0  0  0  0
   13.2470   10.8818   -0.7025 N   0  0  0  0  0  0  0  0  0  0  0  0
   13.7924    8.5068   -0.2314 C   0  0  1  0  0  0  0  0  0  0  0  0
   14.6121    8.4621   -1.4016 O   0  0  0  0  0  0  0  0  0  0  0  0
   14.3284    7.5678    0.8639 C   0  0  2  0  0  0  0  0  0  0  0  0
   14.3811    6.2347    0.3536 O   0  0  0  0  0  0  0  0  0  0  0  0
   13.3979    7.6478    2.1344 C   0  0  2  0  0  0  0  0  0  0  0  0
   13.3299    9.0327    2.6474 O   0  0  0  0  0  0  0  0  0  0  0  0
   13.9079    6.7297    3.2730 C   0  0  2  0  0  0  0  0  0  0  0  0
   13.8644    5.3653    2.8510 O   0  0  0  0  0  0  0  0  0  0  0  0
   13.0548    6.8787    4.5230 C   0  0  0  0  0  0  0  0  0  0  0  0
    8.5813   12.3084   -0.2490 C   0  0  2  0  0  0  0  0  0  0  0  0
    7.4798   13.2726   -0.3061 N   0  0  0  0  0  0  0  0  0  0  0  0
    8.0788   11.0827    0.5629 C   0  0  0  0  0  0  0  0  0  0  0  0
    9.2259   10.0374    0.6140 C   0  0  2  0  0  0  0  0  0  0  0  0
    8.7912    8.8530    1.3711 N   0  0  0  0  0  0  0  0  0  0  0  0
   10.4921   10.6346    1.2847 C   0  0  2  0  0  0  0  0  0  0  0  0
   10.9510   11.8906    0.4788 C   0  0  2  0  0  0  0  0  0  0  0  0
   12.1139   12.4482    1.1059 O   0  0  0  0  0  0  0  0  0  0  0  0
    9.8393   12.9677    0.4584 C   0  0  1  0  0  0  0  0  0  0  0  0
   10.3377   14.0881   -0.3137 O   0  0  0  0  0  0  0  0  0  0  0  0
   10.6058   13.8279   -1.7116 C   0  0  2  0  0  0  0  0  0  0  0  0
   11.9800   14.5257   -2.0311 C   0  0  2  0  0  0  0  0  0  0  0  0
   13.0032   13.9684   -1.2213 O   0  0  0  0  0  0  0  0  0  0  0  0
   11.8394   16.0743   -1.7764 C   0  0  1  0  0  0  0  0  0  0  0  0
   13.1275   16.7784   -2.0582 N   0  0  0  0  0  0  0  0  0  0  0  0
   14.0297   16.6077   -0.8991 C   0  0  0  0  0  0  0  0  0  0  0  0
   10.7089   16.6263   -2.6971 C   0  0  2  0  0  0  0  0  0  0  0  0
   11.0729   16.3949   -4.0571 O   0  0  0  0  0  0  0  0  0  0  0  0
   10.5024   18.1265   -2.5043 C   0  0  0  0  0  0  0  0  0  0  0  0
    9.3779   15.8709   -2.3828 C   0  0  0  0  0  0  0  0  0  0  0  0
    9.5445   14.4125   -2.5558 O   0  0  0  0  0  0  0  0  0  0  0  0
  1  3  1  0  0  0  0
  1  2  1  6  0  0  0
  3  5  1  0  0  0  0
  3  4  1  6  0  0  0
  5  6  1  6  0  0  0
  7  8  1  6  0  0  0
  7  5  1  0  0  0  0
  9 10  1  1  0  0  0
  9  7  1  0  0  0  0
 10  1  1  0  0  0  0
 11 13  1  1  0  0  0
 11  9  1  0  0  0  0
 12 11  1  0  0  0  0
 14 15  1  1  0  0  0
 16 14  1  0  0  0  0
 17 18  1  1  0  0  0
 17 16  1  0  0  0  0
 19  2  1  6  0  0  0
 19 20  1  0  0  0  0
 19 17  1  0  0  0  0
 20 21  1  1  0  0  0
 20 22  1  0  0  0  0
 22 23  1  6  0  0  0
 22 14  1  0  0  0  0
 24 23  1  1  0  0  0
 24 25  1  0  0  0  0
 25 27  1  0  0  0  0
 25 26  1  1  0  0  0
 27 28  1  6  0  0  0
 28 29  1  0  0  0  0
 30 31  1  6  0  0  0
 30 32  1  0  0  0  0
 30 27  1  0  0  0  0
 33 30  1  0  0  0  0
 34 33  1  0  0  0  0
 34 24  1  0  0  0  0
M  END
>  <CHROM.1>
-108.85612566,-63.30067453,169.78439704,-52.13689800,-136.80220401,-79.82765449
11.73030210,11.68203085,-0.04098658,-1.30887846,0.16359259,-0.48917144

>  <Name>
lig.pdb

>  <RI>
0

>  <Rbt.Current_Directory>
/home/itssahil/PROJECTS/Mol_Feturizer/New_Systems/rnas/4k32

>  <Rbt.Executable>
rbdock ($Id: //depot/dev/client3/rdock/2013.1/src/exe/rbdock.cxx#4 $)

>  <Rbt.Library>
libRbt.so (2013.1, Build901 2013/11/27)

>  <Rbt.Parameter_File>
/export/apps/rDock/src/rDock_2013.1_src/data/scripts/dock_solv.prm

>  <Rbt.Receptor>
prm/blind_docking_40.prm

>  <SCORE>
11.8675

>  <SCORE.INTER>
1.28937

>  <SCORE.INTER.CONST>
1

>  <SCORE.INTER.POLAR>
0

>  <SCORE.INTER.ROT>
6

>  <SCORE.INTER.SOLV>
18.785

>  <SCORE.INTER.VDW>
-13.0021

>  <SCORE.INTER.norm>
0.0379226

>  <SCORE.INTRA>
2.6992

>  <SCORE.INTRA.DIHEDRAL>
-4.31943

>  <SCORE.INTRA.DIHEDRAL.0>
18.0069

>  <SCORE.INTRA.POLAR>
0

>  <SCORE.INTRA.POLAR.0>
0

>  <SCORE.INTRA.REPUL>
0.0531109

>  <SCORE.INTRA.REPUL.0>
0

>  <SCORE.INTRA.SOLV>
2.82193

>  <SCORE.INTRA.SOLV.lig_0>
-70.7393

>  <SCORE.INTRA.VDW>
3.18239

>  <SCORE.INTRA.VDW.0>
-3.23471

>  <SCORE.INTRA.norm>
0.0793882

>  <SCORE.RESTR>
7.8789

>  <SCORE.RESTR.CAVITY>
7.8789

>  <SCORE.RESTR.norm>
0.231732

>  <SCORE.SYSTEM>
0

>  <SCORE.SYSTEM.CONST>
0

>  <SCORE.SYSTEM.DIHEDRAL>
0

>  <SCORE.SYSTEM.SOLV>
0

>  <SCORE.SYSTEM.norm>
0

>  <SCORE.heavy>
34

>  <SCORE.norm>
0.349043

>  <RMSD>
40.754

$$$$
lig.pdb
 OpenBabel11021811503D
libRbt.so/2013.1/901 2013/11/27
 34 36  0  0  0  0  0  0  0  0999 V2000
   11.6999    8.9413    2.3358 C   0  0  2  0  0  0  0  0  0  0  0  0
   12.5504   10.0391    1.9868 O   0  0  0  0  0  0  0  0  0  0  0  0
   11.7307    8.7615    3.9131 C   0  0  2  0  0  0  0  0  0  0  0  0
   11.2464    9.9729    4.6151 N   0  0  0  0  0  0  0  0  0  0  0  0
   13.1754    8.4312    4.3657 C   0  0  1  0  0  0  0  0  0  0  0  0
   13.2218    8.2586    5.7840 O   0  0  0  0  0  0  0  0  0  0  0  0
   13.6405    7.1610    3.6316 C   0  0  2  0  0  0  0  0  0  0  0  0
   14.9709    6.8427    4.0428 O   0  0  0  0  0  0  0  0  0  0  0  0
   13.5734    7.3932    2.0734 C   0  0  2  0  0  0  0  0  0  0  0  0
   12.1991    7.7423    1.6547 O   0  0  0  0  0  0  0  0  0  0  0  0
   14.0176    6.1331    1.2898 C   0  0  2  0  0  0  0  0  0  0  0  0
   15.3360    5.7542    1.6893 O   0  0  0  0  0  0  0  0  0  0  0  0
   14.0196    6.3903   -0.2091 C   0  0  0  0  0  0  0  0  0  0  0  0
   13.5148   12.3286   -1.4981 C   0  0  2  0  0  0  0  0  0  0  0  0
   13.6158   12.7505   -2.8973 N   0  0  0  0  0  0  0  0  0  0  0  0
   14.0471   10.8712   -1.4170 C   0  0  0  0  0  0  0  0  0  0  0  0
   13.9707   10.4137    0.0649 C   0  0  2  0  0  0  0  0  0  0  0  0
   14.4718    9.0360    0.1904 N   0  0  0  0  0  0  0  0  0  0  0  0
   12.5115   10.4752    0.5907 C   0  0  2  0  0  0  0  0  0  0  0  0
   11.9831   11.9382    0.4566 C   0  0  2  0  0  0  0  0  0  0  0  0
   10.6311   11.9915    0.9320 O   0  0  0  0  0  0  0  0  0  0  0  0
   12.0029   12.3971   -1.0217 C   0  0  1  0  0  0  0  0  0  0  0  0
   11.5114   13.7598   -1.0574 O   0  0  0  0  0  0  0  0  0  0  0  0
   12.1595   14.6933   -0.1617 C   0  0  2  0  0  0  0  0  0  0  0  0
   11.5236   16.1014   -0.4618 C   0  0  2  0  0  0  0  0  0  0  0  0
   10.1280   16.0638   -0.2085 O   0  0  0  0  0  0  0  0  0  0  0  0
   11.8145   16.4855   -1.9620 C   0  0  1  0  0  0  0  0  0  0  0  0
   11.2184   17.8151   -2.2955 N   0  0  0  0  0  0  0  0  0  0  0  0
    9.7823   17.6335   -2.5975 C   0  0  0  0  0  0  0  0  0  0  0  0
   13.3587   16.5169   -2.1739 C   0  0  2  0  0  0  0  0  0  0  0  0
   13.9191   17.5035   -1.3088 O   0  0  0  0  0  0  0  0  0  0  0  0
   13.7266   16.8748   -3.6116 C   0  0  0  0  0  0  0  0  0  0  0  0
   13.9534   15.1174   -1.8152 C   0  0  0  0  0  0  0  0  0  0  0  0
   13.6113   14.7376   -0.4283 O   0  0  0  0  0  0  0  0  0  0  0  0
  1  3  1  0  0  0  0
  1  2  1  1  0  0  0
  3  5  1  0  0  0  0
  3  4  1  1  0  0  0
  5  6  1  1  0  0  0
  7  8  1  1  0  0  0
  7  5  1  0  0  0  0
  9 10  1  6  0  0  0
  9  7  1  0  0  0  0
 10  1  1  0  0  0  0
 11 13  1  6  0  0  0
 11  9  1  0  0  0  0
 12 11  1  0  0  0  0
 14 15  1  6  0  0  0
 16 14  1  0  0  0  0
 17 18  1  6  0  0  0
 17 16  1  0  0  0  0
 19  2  1  1  0  0  0
 19 20  1  0  0  0  0
 19 17  1  0  0  0  0
 20 21  1  6  0  0  0
 20 22  1  0  0  0  0
 22 23  1  1  0  0  0
 22 14  1  0  0  0  0
 24 23  1  6  0  0  0
 24 25  1  0  0  0  0
 25 27  1  0  0  0  0
 25 26  1  6  0  0  0
 27 28  1  1  0  0  0
 28 29  1  0  0  0  0
 30 31  1  1  0  0  0
 30 32  1  0  0  0  0
 30 27  1  0  0  0  0
 33 30  1  0  0  0  0
 34 33  1  0  0  0  0
 34 24  1  0  0  0  0
M  END
>  <CHROM.1>
-171.98391706,-56.77640637,-124.26919005,-63.86420609,176.11977953,-81.55556230
12.78960036,11.68588233,0.44116860,1.35007917,-0.90055703,2.48139905

>  <Name>
lig.pdb

>  <RI>
0

>  <Rbt.Current_Directory>
/home/itssahil/PROJECTS/Mol_Feturizer/New_Systems/rnas/4k32

>  <Rbt.Executable>
rbdock ($Id: //depot/dev/client3/rdock/2013.1/src/exe/rbdock.cxx#4 $)

>  <Rbt.Library>
libRbt.so (2013.1, Build901 2013/11/27)

>  <Rbt.Parameter_File>
/export/apps/rDock/src/rDock_2013.1_src/data/scripts/dock_solv.prm

>  <Rbt.Receptor>
prm/blind_docking_40.prm

>  <SCORE>
13.5884

>  <SCORE.INTER>
1.27553

>  <SCORE.INTER.CONST>
1

>  <SCORE.INTER.POLAR>
0

>  <SCORE.INTER.ROT>
6

>  <SCORE.INTER.SOLV>
26.5691

>  <SCORE.INTER.VDW>
-15.606

>  <SCORE.INTER.norm>
0.0375157

>  <SCORE.INTRA>
4.7839

>  <SCORE.INTRA.DIHEDRAL>
-9.98634

>  <SCORE.INTRA.DIHEDRAL.0>
18.0069

>  <SCORE.INTRA.POLAR>
0

>  <SCORE.INTRA.POLAR.0>
0

>  <SCORE.INTRA.REPUL>
0

>  <SCORE.INTRA.REPUL.0>
0

>  <SCORE.INTRA.SOLV>
4.80359

>  <SCORE.INTRA.SOLV.lig_0>
-70.7393

>  <SCORE.INTRA.VDW>
7.37527

>  <SCORE.INTRA.VDW.0>
-3.23471

>  <SCORE.INTRA.norm>
0.140703

>  <SCORE.RESTR>
7.52895

>  <SCORE.RESTR.CAVITY>
7.52895

>  <SCORE.RESTR.norm>
0.22144

>  <SCORE.SYSTEM>
0

>  <SCORE.SYSTEM.CONST>
0

>  <SCORE.SYSTEM.DIHEDRAL>
0

>  <SCORE.SYSTEM.SOLV>
0

>  <SCORE.SYSTEM.norm>
0

>  <SCORE.heavy>
34

>  <SCORE.norm>
0.399658

>  <RMSD>
40.874

$$$$
lig.pdb
 OpenBabel11021811503D
libRbt.so/2013.1/901 2013/11/27
 34 36  0  0  0  0  0  0  0  0999 V2000
   13.0898   10.2303    1.6900 C   0  0  2  0  0  0  0  0  0  0  0  0
   11.7324   10.2748    1.2365 O   0  0  0  0  0  0  0  0  0  0  0  0
   13.9773    9.5563    0.5590 C   0  0  2  0  0  0  0  0  0  0  0  0
   13.9301   10.3227   -0.7080 N   0  0  0  0  0  0  0  0  0  0  0  0
   13.4888    8.1058    0.3171 C   0  0  1  0  0  0  0  0  0  0  0  0
   14.2814    7.4795   -0.6944 O   0  0  0  0  0  0  0  0  0  0  0  0
   13.5664    7.3346    1.6467 C   0  0  2  0  0  0  0  0  0  0  0  0
   13.1220    5.9933    1.4370 O   0  0  0  0  0  0  0  0  0  0  0  0
   12.6808    8.0576    2.7327 C   0  0  2  0  0  0  0  0  0  0  0  0
   13.1311    9.4516    2.9321 O   0  0  0  0  0  0  0  0  0  0  0  0
   12.7405    7.3253    4.0963 C   0  0  2  0  0  0  0  0  0  0  0  0
   12.4016    5.9482    3.9216 O   0  0  0  0  0  0  0  0  0  0  0  0
   11.7715    7.9410    5.0937 C   0  0  0  0  0  0  0  0  0  0  0  0
   10.1416   13.4078   -1.2069 C   0  0  2  0  0  0  0  0  0  0  0  0
    9.5038   14.6623   -1.6141 N   0  0  0  0  0  0  0  0  0  0  0  0
    9.1785   12.7033   -0.2120 C   0  0  0  0  0  0  0  0  0  0  0  0
    9.8269   11.3580    0.2132 C   0  0  2  0  0  0  0  0  0  0  0  0
    8.9439   10.6514    1.1544 N   0  0  0  0  0  0  0  0  0  0  0  0
   11.2052   11.5942    0.8870 C   0  0  2  0  0  0  0  0  0  0  0  0
   12.1399   12.3435   -0.1143 C   0  0  2  0  0  0  0  0  0  0  0  0
   13.4091   12.5714    0.5132 O   0  0  0  0  0  0  0  0  0  0  0  0
   11.5355   13.7119   -0.5125 C   0  0  1  0  0  0  0  0  0  0  0  0
   12.4528   14.3339   -1.4460 O   0  0  0  0  0  0  0  0  0  0  0  0
   11.9351   15.4615   -2.1905 C   0  0  2  0  0  0  0  0  0  0  0  0
   13.0226   15.8068   -3.2747 C   0  0  2  0  0  0  0  0  0  0  0  0
   13.2152   14.6951   -4.1352 O   0  0  0  0  0  0  0  0  0  0  0  0
   14.3651   16.1966   -2.5476 C   0  0  1  0  0  0  0  0  0  0  0  0
   15.4324   16.5235   -3.5417 N   0  0  0  0  0  0  0  0  0  0  0  0
   16.4016   15.4076   -3.5876 C   0  0  0  0  0  0  0  0  0  0  0  0
   14.0901   17.4238   -1.6263 C   0  0  2  0  0  0  0  0  0  0  0  0
   13.6489   18.5132   -2.4352 O   0  0  0  0  0  0  0  0  0  0  0  0
   15.3451   17.8614   -0.8753 C   0  0  0  0  0  0  0  0  0  0  0  0
   12.9701   17.0542   -0.6017 C   0  0  0  0  0  0  0  0  0  0  0  0
   11.7398   16.6210   -1.2970 O   0  0  0  0  0  0  0  0  0  0  0  0
  1  3  1  0  0  0  0
  1  2  1  6  0  0  0
  3  5  1  0  0  0  0
  3  4  1  6  0  0  0
  5  6  1  6  0  0  0
  7  8  1  6  0  0  0
  7  5  1  0  0  0  0
  9 10  1  1  0  0  0
  9  7  1  0  0  0  0
 10  1  1  0  0  0  0
 11 13  1  1  0  0  0
 11  9  1  0  0  0  0
 12 11  1  0  0  0  0
 14 15  1  1  0  0  0
 16 14  1  0  0  0  0
 17 18  1  1  0  0  0
 17 16  1  0  0  0  0
 19  2  1  6  0  0  0
 19 20  1  0  0  0  0
 19 17  1  0  0  0  0
 20 21  1  1  0  0  0
 20 22  1  0  0  0  0
 22 23  1  6  0  0  0
 22 14  1  0  0  0  0
 24 23  1  1  0  0  0
 24 25  1  0  0  0  0
 25 27  1  0  0  0  0
 25 26  1  6  0  0  0
 27 28  1  6  0  0  0
 28 29  1  0  0  0  0
 30 31  1  6  0  0  0
 30 32  1  0  0  0  0
 30 27  1  0  0  0  0
 33 30  1  0  0  0  0
 34 33  1  0  0  0  0
 34 24  1  0  0  0  0
M  END
>  <CHROM.1>
-108.73477628,-53.72716442,170.86009358,49.34744847,-171.38028831,-105.90204092
12.68272157,12.24581554,-0.11793964,-1.66812397,0.31135049,-0.46654409

>  <Name>
lig.pdb

>  <RI>
0

>  <Rbt.Current_Directory>
/home/itssahil/PROJECTS/Mol_Feturizer/New_Systems/rnas/4k32

>  <Rbt.Executable>
rbdock ($Id: //depot/dev/client3/rdock/2013.1/src/exe/rbdock.cxx#4 $)

>  <Rbt.Library>
libRbt.so (2013.1, Build901 2013/11/27)

>  <Rbt.Parameter_File>
/export/apps/rDock/src/rDock_2013.1_src/data/scripts/dock_solv.prm

>  <Rbt.Receptor>
prm/blind_docking_40.prm

>  <SCORE>
33.9673

>  <SCORE.INTER>
23.3732

>  <SCORE.INTER.CONST>
1

>  <SCORE.INTER.POLAR>
0

>  <SCORE.INTER.ROT>
6

>  <SCORE.INTER.SOLV>
18.3821

>  <SCORE.INTER.VDW>
1.85477

>  <SCORE.INTER.norm>
0.687447

>  <SCORE.INTRA>
-0.00145347

>  <SCORE.INTRA.DIHEDRAL>
-8.84919

>  <SCORE.INTRA.DIHEDRAL.0>
18.0069

>  <SCORE.INTRA.POLAR>
0

>  <SCORE.INTRA.POLAR.0>
0

>  <SCORE.INTRA.REPUL>
0.00973583

>  <SCORE.INTRA.REPUL.0>
0

>  <SCORE.INTRA.SOLV>
1.66564

>  <SCORE.INTRA.SOLV.lig_0>
-70.7393

>  <SCORE.INTRA.VDW>
3.54164

>  <SCORE.INTRA.VDW.0>
-3.23471

>  <SCORE.INTRA.norm>
-4.2749e-05

>  <SCORE.RESTR>
10.5956

>  <SCORE.RESTR.CAVITY>
10.5956

>  <SCORE.RESTR.norm>
0.311635

>  <SCORE.SYSTEM>
0

>  <SCORE.SYSTEM.CONST>
0

>  <SCORE.SYSTEM.DIHEDRAL>
0

>  <SCORE.SYSTEM.SOLV>
0

>  <SCORE.SYSTEM.norm>
0

>  <SCORE.heavy>
34

>  <SCORE.norm>
0.999039

>  <RMSD>
41.271

$$$$
