@<TRIPOS>MOLECULE
4k32_rdock.pdb
 898 1002 0 0 0
SMALL
GASTEIGER

@<TRIPOS>ATOM
      1    P.3     -5.0670   14.4920   48.3110 Pac     3  G3          0.3942
      2  OP1       -3.5770   14.4510   48.6270 O.3     3  G3         -0.1425
      3  OP2       -5.3810   15.3610   47.0930 O.3     3  G3         -0.1425
      4  O5'       -5.4310   12.9580   47.8860 O.3     3  G3         -0.2926
      5  C5'       -4.7370   11.8410   48.4760 C.3     3  G3          0.1829
      6  C4'       -5.4800   10.5560   48.1950 C.3     3  G3          0.1774
      7  O4'       -6.8050   10.6300   48.7900 O.3     3  G3         -0.3307
      8  C3'       -5.7030   10.2460   46.7210 C.3     3  G3          0.1860
      9  O3'       -4.6290    9.4760   46.1980 O.3     3  G3         -0.3112
     10  C2'       -7.0110    9.4580   46.7280 C.3     3  G3          0.2309
     11  O2'       -6.8680    8.0660   46.9120 O.3     3  G3         -0.2156
     12  C1'       -7.7690   10.1100   47.8890 C.3     3  G3          0.2408
     13   N9       -8.6180   11.2080   47.4320 N.ar    3  G3         -0.2693
     14   C8       -8.4100   12.5510   47.6200 C.ar    3  G3          0.1817
     15   N7       -9.3210   13.2940   47.0510 N.ar    3  G3         -0.2173
     16   C5      -10.1890   12.3860   46.4640 C.ar    3  G3          0.1748
     17   C6      -11.3700   12.6010   45.7030 C.ar    3  G3          0.3023
     18   O6      -11.9030   13.6720   45.3940 O.2     3  G3         -0.2633
     19   N.1     -11.9400   11.4000   45.2940 N.ar    3  G3         -0.1709
     20   C.2     -11.4440   10.1520   45.5820 C.ar    3  G3          0.2606
     21   N.2     -12.1360    9.1150   45.0950 N.pl3   3  G3         -0.0859
     22   N.3     -10.3480    9.9380   46.2950 N.ar    3  G3         -0.1918
     23   C4       -9.7750   11.0920   46.6990 C.ar    3  G3          0.1723
     24    P.3     -4.4370    9.3560   44.6080 P.3     4  C4          0.2141
     25  OP1       -3.2570    8.4840   44.3890 O.3     4  C4         -0.4373
     26  OP2       -4.4770   10.7100   44.0100 O.2     4  C4         -0.5172
     27  O5'       -5.7170    8.5600   44.1000 O.3     4  C4         -0.3114
     28  C5'       -5.8280    7.1580   44.2990 C.3     4  C4          0.1812
     29  C4'       -7.0430    6.6340   43.5840 C.3     4  C4          0.1773
     30  O4'       -8.2330    7.2630   44.1320 O.3     4  C4         -0.3307
     31  C3'       -7.1080    6.9920   42.1120 C.3     4  C4          0.1860
     32  O3'       -6.2910    6.1450   41.3190 O.3     4  C4         -0.3112
     33  C2'       -8.5960    6.8570   41.8190 C.3     4  C4          0.2309
     34  O2'       -9.0290    5.5310   41.5960 O.3     4  C4         -0.2156
     35  C1'       -9.1980    7.4350   43.1010 C.3     4  C4          0.2420
     36   N.1      -9.4830    8.8720   42.9660 N.ar    4  C4         -0.2535
     37   C.2     -10.6960    9.2650   42.3920 C.ar    4  C4          0.3532
     38   O.2     -11.5090    8.3940   42.0560 O.2     4  C4         -0.2443
     39   N.3     -10.9510   10.5800   42.2220 N.ar    4  C4         -0.1739
     40   C4      -10.0540   11.4860   42.6120 C.ar    4  C4          0.1759
     41   N.4     -10.3420   12.7720   42.4140 N.pl3   4  C4         -0.1070
     42   C5       -8.8190   11.1140   43.2190 C.ar    4  C4          0.0566
     43   C6       -8.5780    9.8090   43.3760 C.ar    4  C4          0.0850
     44    P.3     -5.5830    6.7420   40.0090 P.3     5  G5          0.2141
     45  OP1       -4.5320    5.7670   39.6200 O.2     5  G5         -0.5172
     46  OP2       -5.2040    8.1500   40.3010 O.3     5  G5         -0.4373
     47  O5'       -6.7450    6.7380   38.9130 O.3     5  G5         -0.3114
     48  C5'       -7.3300    5.5090   38.4700 C.3     5  G5          0.1812
     49  C4'       -8.5820    5.7700   37.6530 C.3     5  G5          0.1773
     50  O4'       -9.6230    6.3360   38.4980 O.3     5  G5         -0.3307
     51  C3'       -8.4650    6.7470   36.4940 C.3     5  G5          0.1860
     52  O3'       -7.9810    6.1270   35.3130 O.3     5  G5         -0.3112
     53  C2'       -9.9100    7.1840   36.3050 C.3     5  G5          0.2309
     54  O2'      -10.6780    6.2670   35.5550 O.3     5  G5         -0.2156
     55  C1'      -10.3860    7.2760   37.7560 C.3     5  G5          0.2408
     56   N9      -10.1390    8.6030   38.3130 N.ar    5  G5         -0.2693
     57   C8       -9.1660    8.9500   39.2210 C.ar    5  G5          0.1817
     58   N7       -9.1490   10.2280   39.4900 N.ar    5  G5         -0.2173
     59   C5      -10.1790   10.7570   38.7230 C.ar    5  G5          0.1748
     60   C6      -10.6290   12.0990   38.5840 C.ar    5  G5          0.3023
     61   O6      -10.1750   13.1240   39.1040 O.2     5  G5         -0.2633
     62   N.1     -11.7130   12.1870   37.7190 N.ar    5  G5         -0.1709
     63   C.2     -12.2780   11.1320   37.0550 C.ar    5  G5          0.2606
     64   N.2     -13.3180   11.4330   36.2690 N.pl3   5  G5         -0.0859
     65   N.3     -11.8560    9.8800   37.1540 N.ar    5  G5         -0.1918
     66   C4      -10.8130    9.7660   38.0030 C.ar    5  G5          0.1723
     67    P.3     -7.4750    7.0410   34.0890 P.3     6  U6          0.2141
     68  OP1       -7.0080    6.1190   33.0210 O.2     6  U6         -0.5172
     69  OP2       -6.5510    8.0690   34.6360 O.3     6  U6         -0.4373
     70  O5'       -8.7790    7.7860   33.5470 O.3     6  U6         -0.3114
     71  C5'       -9.6960    7.1150   32.6940 C.3     6  U6          0.1812
     72  C4'      -10.7200    8.0820   32.1430 C.3     6  U6          0.1773
     73  O4'      -11.4940    8.6900   33.2190 O.3     6  U6         -0.3307
     74  C3'      -10.2060    9.2850   31.3730 C.3     6  U6          0.1860
     75  O3'       -9.8080    8.9610   30.0490 O.3     6  U6         -0.3112
     76  C2'      -11.4420   10.1730   31.3730 C.3     6  U6          0.2309
     77  O2'      -12.4240    9.7760   30.4340 O.3     6  U6         -0.2156
     78  C1'      -11.9280    9.9890   32.8150 C.3     6  U6          0.2420
     79   N.1     -11.2950   10.9850   33.6910 N.ar    6  U6         -0.2534
     80   C.2     -11.7530   12.2930   33.6330 C.ar    6  U6          0.3546
     81   O.2     -12.6970   12.6400   32.9470 O.2     6  U6         -0.2443
     82   N.3     -11.0570   13.1800   34.4110 N.ar    6  U6         -0.1530
     83   C4       -9.9830   12.9010   35.2340 C.ar    6  U6          0.2846
     84   O4       -9.4290   13.8180   35.8370 O.2     6  U6         -0.2650
     85   C5       -9.5970   11.5250   35.2680 C.ar    6  U6          0.0814
     86   C6      -10.2530   10.6360   34.5180 C.ar    6  U6          0.0870
     87    P.3     -8.7960    9.9330   29.2700 P.3     7  C7          0.2141
     88  OP1       -8.6960    9.4950   27.8620 O.2     7  C7         -0.5172
     89  OP2       -7.5630   10.0540   30.0850 O.3     7  C7         -0.4373
     90  O5'       -9.5540   11.3300   29.2280 O.3     7  C7         -0.3114
     91  C5'      -10.6540   11.5310   28.3520 C.3     7  C7          0.1812
     92  C4'      -10.9970   12.9990   28.2780 C.3     7  C7          0.1773
     93  O4'      -11.3430   13.4890   29.6090 O.3     7  C7         -0.3307
     94  C3'       -9.8690   13.9200   27.8450 C.3     7  C7          0.1860
     95  O3'       -9.6980   13.9290   26.4340 O.3     7  C7         -0.3112
     96  C2'      -10.3390   15.2590   28.4040 C.3     7  C7          0.2309
     97  O2'      -11.3660   15.8790   27.6490 O.3     7  C7         -0.2156
     98  C1'      -10.8690   14.8230   29.7700 C.3     7  C7          0.2420
     99   N.1      -9.8270   14.8310   30.8160 N.ar    7  C7         -0.2535
    100   C.2      -9.3800   16.0580   31.3140 C.ar    7  C7          0.3532
    101   O.2      -9.8850   17.0990   30.8820 O.2     7  C7         -0.2443
    102   N.3      -8.4070   16.0760   32.2520 N.ar    7  C7         -0.1739
    103   C4       -7.8820   14.9310   32.6900 C.ar    7  C7          0.1759
    104   N.4      -6.9040   14.9980   33.5930 N.pl3   7  C7         -0.1070
    105   C5       -8.3320   13.6670   32.2140 C.ar    7  C7          0.0566
    106   C6       -9.2960   13.6620   31.2870 C.ar    7  C7          0.0850
    107    P.3     -8.2190   14.0700   25.8230 P.3     8  G8          0.2141
    108  OP1       -8.3040   13.8110   24.3690 O.2     8  G8         -0.5172
    109  OP2       -7.3110   13.2470   26.6650 O.3     8  G8         -0.4373
    110  O5'       -7.8510   15.6060   26.0350 O.3     8  G8         -0.3114
    111  C5'       -8.7930   16.6410   25.7440 C.3     8  G8          0.1812
    112  C4'       -8.3770   17.9340   26.4170 C.3     8  G8          0.1773
    113  O4'       -8.4870   17.8330   27.8660 O.3     8  G8         -0.3307
    114  C3'       -6.9260   18.3200   26.2200 C.3     8  G8          0.1860
    115  O3'       -6.7130   18.8960   24.9490 O.3     8  G8         -0.3112
    116  C2'       -6.7170   19.3230   27.3390 C.3     8  G8          0.2309
    117  O2'       -7.2390   20.5920   27.0260 O.3     8  G8         -0.2156
    118  C1'       -7.5060   18.6670   28.4720 C.3     8  G8          0.2408
    119   N9       -6.6470   17.8400   29.3140 N.ar    8  G8         -0.2693
    120   C8       -6.5550   16.4690   29.3190 C.ar    8  G8          0.1817
    121   N7       -5.6870   16.0170   30.1860 N.ar    8  G8         -0.2173
    122   C5       -5.1760   17.1580   30.7910 C.ar    8  G8          0.1748
    123   C6       -4.2070   17.2990   31.8160 C.ar    8  G8          0.3023
    124   O6       -3.5770   16.4200   32.4100 O.2     8  G8         -0.2633
    125   N.1      -4.0000   18.6320   32.1390 N.ar    8  G8         -0.1709
    126   C.2      -4.6370   19.6950   31.5560 C.ar    8  G8          0.2606
    127   N.2      -4.3100   20.9070   32.0180 N.pl3   8  G8         -0.0859
    128   N.3      -5.5340   19.5800   30.5950 N.ar    8  G8         -0.1918
    129   C4       -5.7570   18.2910   30.2660 C.ar    8  G8          0.1723
    130    P.3     -5.3990   18.4940   24.1220 P.3     9  U9          0.2141
    131  OP1       -5.6140   18.8910   22.7040 O.2     9  U9         -0.5172
    132  OP2       -5.0770   17.0720   24.4500 O.3     9  U9         -0.4373
    133  O5'       -4.2630   19.4270   24.7440 O.3     9  U9         -0.3114
    134  C5'       -4.3790   20.8480   24.6980 C.3     9  U9          0.1812
    135  C4'       -3.2430   21.4930   25.4560 C.3     9  U9          0.1773
    136  O4'       -3.3960   21.2600   26.8820 O.3     9  U9         -0.3307
    137  C3'       -1.8520   20.9700   25.1450 C.3     9  U9          0.1860
    138  O3'       -1.3170   21.5720   23.9730 O.3     9  U9         -0.3112
    139  C2'       -1.0860   21.3720   26.3970 C.3     9  U9          0.2309
    140  O2'       -0.7930   22.7520   26.4190 O.3     9  U9         -0.2156
    141  C1'       -2.1220   21.0710   27.4760 C.3     9  U9          0.2420
    142   N.1      -2.0650   19.6990   27.9990 N.ar    9  U9         -0.2534
    143   C.2      -1.0400   19.3750   28.8800 C.ar    9  U9          0.3546
    144   O.2      -0.1940   20.1760   29.2310 O.2     9  U9         -0.2443
    145   N.3      -1.0520   18.0800   29.3380 N.ar    9  U9         -0.1530
    146   C4       -1.9680   17.1010   29.0190 C.ar    9  U9          0.2846
    147   O4       -1.8730   15.9910   29.5400 O.2     9  U9         -0.2650
    148   C5       -2.9950   17.5130   28.1060 C.ar    9  U9          0.0814
    149   C6       -3.0050   18.7650   27.6360 C.ar    9  U9          0.0870
    150    P.3     -0.2520   20.7590   23.0890 P.3    10  U10         0.2141
    151  OP1        0.0640   21.5690   21.8860 O.2    10  U10        -0.5172
    152  OP2       -0.7570   19.3670   22.9320 O.3    10  U10        -0.4373
    153  O5'        1.0490   20.7130   24.0010 O.3    10  U10        -0.3114
    154  C5'        1.8310   21.8760   24.2040 C.3    10  U10         0.1812
    155  C4'        2.9680   21.5610   25.1320 C.3    10  U10         0.1773
    156  O4'        2.4140   21.1090   26.3940 O.3    10  U10        -0.3307
    157  C3'        3.8420   20.3980   24.7020 C.3    10  U10         0.1860
    158  O3'        4.8180   20.7890   23.7530 O.3    10  U10        -0.3112
    159  C2'        4.4540   19.9660   26.0240 C.3    10  U10         0.2309
    160  O2'        5.5000   20.8080   26.4620 O.3    10  U10        -0.2156
    161  C1'        3.2480   20.1030   26.9510 C.3    10  U10         0.2420
    162   N.1       2.4730   18.8590   27.0560 N.ar   10  U10        -0.2534
    163   C.2       2.9350   17.9040   27.9320 C.ar   10  U10         0.3546
    164   O.2       3.9340   18.0660   28.6070 O.2    10  U10        -0.2443
    165   N.3       2.1840   16.7550   27.9970 N.ar   10  U10        -0.1530
    166   C4        1.0370   16.4730   27.2900 C.ar   10  U10         0.2846
    167   O4        0.4780   15.3810   27.4480 O.2    10  U10        -0.2650
    168   C5        0.6130   17.5200   26.4030 C.ar   10  U10         0.0814
    169   C6        1.3310   18.6500   26.3170 C.ar   10  U10         0.0870
    170    P.3      5.3410   19.7210   22.6690 P.3    11  C11         0.2141
    171  OP1        6.0300   20.4910   21.6050 O.2    11  C11        -0.5172
    172  OP2        4.2170   18.8140   22.3110 O.3    11  C11        -0.4373
    173  O5'        6.4430   18.8770   23.4510 O.3    11  C11        -0.3114
    174  C5'        7.5650   19.5250   24.0360 C.3    11  C11         0.1812
    175  C4'        8.2250   18.6190   25.0380 C.3    11  C11         0.1773
    176  O4'        7.3000   18.3450   26.1200 O.3    11  C11        -0.3307
    177  C3'        8.6050   17.2410   24.5260 C.3    11  C11         0.1860
    178  O3'        9.8460   17.2900   23.8300 O.3    11  C11        -0.3112
    179  C2'        8.7010   16.4510   25.8250 C.3    11  C11         0.2309
    180  O2'        9.9050   16.6680   26.5290 O.3    11  C11        -0.2156
    181  C1'        7.5250   17.0320   26.6170 C.3    11  C11         0.2420
    182   N.1       6.2860   16.2490   26.4550 N.ar   11  C11        -0.2535
    183   C.2       6.1280   15.0790   27.2050 C.ar   11  C11         0.3532
    184   O.2       7.0210   14.7510   27.9990 O.2    11  C11        -0.2443
    185   N.3       5.0120   14.3350   27.0460 N.ar   11  C11        -0.1739
    186   C4        4.0750   14.7190   26.1800 C.ar   11  C11         0.1759
    187   N.4       2.9990   13.9400   26.0360 N.pl3  11  C11        -0.1070
    188   C5        4.2020   15.9170   25.4140 C.ar   11  C11         0.0566
    189   C6        5.3120   16.6450   25.5840 C.ar   11  C11         0.0850
    190    P.3     10.1860   16.1720   22.7220 P.3    12  C12         0.2141
    191  OP1       11.4200   16.6120   22.0260 O.3    12  C12        -0.4373
    192  OP2        8.9740   15.8490   21.9210 O.2    12  C12        -0.5172
    193  O5'       10.5480   14.8860   23.5880 O.3    12  C12        -0.3114
    194  C5'       11.7500   14.8360   24.3410 C.3    12  C12         0.1812
    195  C4'       11.7850   13.5830   25.1770 C.3    12  C12         0.1773
    196  O4'       10.6510   13.5740   26.0880 O.3    12  C12        -0.3307
    197  C3'       11.6210   12.2660   24.4370 C.3    12  C12         0.1860
    198  O3'       12.8110   11.8370   23.7950 O.3    12  C12        -0.3112
    199  C2'       11.2480   11.3480   25.5830 C.3    12  C12         0.2309
    200  O2'       12.3460   11.0760   26.4270 O.3    12  C12        -0.2156
    201  C1'       10.2420   12.2310   26.3170 C.3    12  C12         0.2420
    202   N.1       8.8690   12.0570   25.8100 N.ar   12  C12        -0.2535
    203   C.2       8.1540   10.9190   26.2050 C.ar   12  C12         0.3532
    204   O.2       8.7100   10.0910   26.9380 O.2    12  C12        -0.2443
    205   N.3       6.8840   10.7500   25.7790 N.ar   12  C12        -0.1739
    206   C4        6.3200   11.6640   24.9890 C.ar   12  C12         0.1759
    207   N.4       5.0460   11.4690   24.6140 N.pl3  12  C12        -0.1070
    208   C5        7.0310   12.8280   24.5520 C.ar   12  C12         0.0566
    209   C6        8.2940   12.9800   24.9830 C.ar   12  C12         0.0850
    210    P.3     12.7260   11.1780   22.3300 P.3    13  G13         0.2141
    211  OP1       14.1230   11.1530   21.8190 O.3    13  G13        -0.4373
    212  OP2       11.6680   11.8650   21.5410 O.2    13  G13        -0.5172
    213  O5'       12.2290    9.6840   22.5980 O.3    13  G13        -0.3114
    214  C5'       12.8490    8.8850   23.5960 C.3    13  G13         0.1812
    215  C4'       11.9690    7.7120   23.9610 C.3    13  G13         0.1773
    216  O4'       10.7350    8.1570   24.5810 O.3    13  G13        -0.3307
    217  C3'       11.4730    6.8340   22.8280 C.3    13  G13         0.1860
    218  O3'       12.4930    5.9590   22.3730 O.3    13  G13        -0.3112
    219  C2'       10.3490    6.0680   23.5170 C.3    13  G13         0.2309
    220  O2'       10.8000    4.9810   24.3010 O.3    13  G13        -0.2156
    221  C1'        9.7400    7.1590   24.4040 C.3    13  G13         0.2408
    222   N9        8.5750    7.7760   23.7800 N.ar   13  G13        -0.2693
    223   C8        8.4970    9.0240   23.2120 C.ar   13  G13         0.1817
    224   N7        7.3230    9.2810   22.7010 N.ar   13  G13        -0.2173
    225   C5        6.5820    8.1360   22.9530 C.ar   13  G13         0.1748
    226   C6        5.2530    7.8210   22.6140 C.ar   13  G13         0.3023
    227   O6        4.4250    8.5200   22.0250 O.2    13  G13        -0.2633
    228   N.1       4.9060    6.5460   23.0320 N.ar   13  G13        -0.1709
    229   C.2       5.7300    5.6880   23.7040 C.ar   13  G13         0.2606
    230   N.2       5.2020    4.5010   24.0140 N.pl3  13  G13        -0.0859
    231   N.3       6.9780    5.9720   24.0430 N.ar   13  G13        -0.1918
    232   C4        7.3360    7.2030   23.6290 C.ar   13  G13         0.1723
    233    P.3     12.4350    5.3810   20.8770 P.3    14  G14         0.2141
    234  OP1       13.7080    4.6330   20.7020 O.3    14  G14        -0.4373
    235  OP2       12.0700    6.4660   19.9200 O.2    14  G14        -0.5172
    236  O5'       11.2470    4.3280   20.9070 O.3    14  G14        -0.3114
    237  C5'       11.3660    3.1430   21.6680 C.3    14  G14         0.1812
    238  C4'       10.0930    2.3680   21.5890 C.3    14  G14         0.1773
    239  O4'        9.0290    3.2180   22.0690 O.3    14  G14        -0.3307
    240  C3'        9.6290    2.0720   20.1790 C.3    14  G14         0.1860
    241  O3'       10.3290    0.9750   19.6150 O.3    14  G14        -0.3112
    242  C2'        8.1520    1.7800   20.4030 C.3    14  G14         0.2309
    243  O2'        7.8860    0.4850   20.9070 O.3    14  G14        -0.2156
    244  C1'        7.8140    2.8180   21.4730 C.3    14  G14         0.2408
    245   N9        7.1490    3.9930   20.9260 N.ar   14  G14        -0.2693
    246   C8        7.6810    5.2360   20.6710 C.ar   14  G14         0.1817
    247   N7        6.8010    6.0750   20.1860 N.ar   14  G14        -0.2173
    248   C5        5.6220    5.3380   20.1260 C.ar   14  G14         0.1748
    249   C6        4.3100    5.7110   19.7080 C.ar   14  G14         0.3023
    250   O6        3.9040    6.8190   19.3190 O.2    14  G14        -0.2633
    251   N.1       3.4230    4.6350   19.7960 N.ar   14  G14        -0.1709
    252   C.2       3.7460    3.3750   20.2490 C.ar   14  G14         0.2606
    253   N.2       2.7550    2.4650   20.2710 N.pl3  14  G14        -0.0859
    254   N.3       4.9490    3.0300   20.6550 N.ar   14  G14        -0.1918
    255   C4        5.8290    4.0490   20.5670 C.ar   14  G14         0.1723
    256    P.3     10.3880    0.8160   18.0200 P.3    15  A15         0.2141
    257  OP1       11.3010   -0.3170   17.7350 O.3    15  A15        -0.4373
    258  OP2       10.6300    2.1370   17.3940 O.2    15  A15        -0.5172
    259  O5'        8.9240    0.3560   17.6010 O.3    15  A15        -0.3114
    260  C5'        8.4630   -0.9460   17.9190 C.3    15  A15         0.1812
    261  C4'        7.0240   -1.0910   17.5190 C.3    15  A15         0.1773
    262  O4'        6.1950   -0.1690   18.2740 O.3    15  A15        -0.3307
    263  C3'        6.7190   -0.7100   16.0900 C.3    15  A15         0.1860
    264  O3'        7.0730   -1.7610   15.2210 O.3    15  A15        -0.3112
    265  C2'        5.2150   -0.5270   16.1540 C.3    15  A15         0.2309
    266  O2'        4.5370   -1.7680   16.1860 O.3    15  A15        -0.2156
    267  C1'        5.0810    0.2190   17.4830 C.3    15  A15         0.2408
    268   N9        5.1460    1.6640   17.2970 N.ar   15  A15        -0.2693
    269   C8        6.2400    2.4780   17.4130 C.ar   15  A15         0.1816
    270   N7        5.9940    3.7380   17.1410 N.ar   15  A15        -0.2193
    271   C5        4.6410    3.7530   16.8320 C.ar   15  A15         0.1518
    272   C6        3.7650    4.7860   16.4570 C.ar   15  A15         0.1919
    273   N6        4.1320    6.0530   16.2960 N.pl3  15  A15        -0.1054
    274   N.1       2.4730    4.4630   16.2460 N.ar   15  A15        -0.2040
    275   C.2       2.0960    3.1850   16.3930 C.ar   15  A15         0.2016
    276   N.3       2.8260    2.1260   16.7330 N.ar   15  A15        -0.2048
    277   C4        4.1040    2.4820   16.9410 C.ar   15  A15         0.1692
    278    P.3      7.6340   -1.4140   13.7650 P.3    16  A16         0.2141
    279  OP1        8.3450   -2.6220   13.2890 O.2    16  A16        -0.5172
    280  OP2        8.3520   -0.1230   13.8560 O.3    16  A16        -0.4373
    281  O5'        6.3210   -1.1890   12.8960 O.3    16  A16        -0.3114
    282  C5'        5.2310   -2.0830   13.0000 C.3    16  A16         0.1812
    283  C4'        3.9580   -1.3760   12.6310 C.3    16  A16         0.1773
    284  O4'        3.6250   -0.3430   13.5930 O.3    16  A16        -0.3307
    285  C3'        4.0360   -0.6170   11.3320 C.3    16  A16         0.1860
    286  O3'        3.8690   -1.5440   10.2950 O.3    16  A16        -0.3112
    287  C2'        2.8490    0.3200   11.4570 C.3    16  A16         0.2309
    288  O2'        1.6330   -0.3280   11.1860 O.3    16  A16        -0.2156
    289  C1'        2.9380    0.7080   12.9330 C.3    16  A16         0.2408
    290   N9        3.6960    1.9410   13.1310 N.ar   16  A16        -0.2693
    291   C8        5.0490    2.0750   13.3200 C.ar   16  A16         0.1816
    292   N7        5.4480    3.3200   13.4070 N.ar   16  A16        -0.2193
    293   C5        4.2790    4.0550   13.2830 C.ar   16  A16         0.1518
    294   C6        4.0260    5.4380   13.2800 C.ar   16  A16         0.1919
    295   N6        4.9750    6.3690   13.3800 N.pl3  16  A16        -0.1054
    296   N.1       2.7430    5.8390   13.1570 N.ar   16  A16        -0.2040
    297   C.2       1.7890    4.9070   13.0290 C.ar   16  A16         0.2016
    298   N.3       1.9030    3.5820   12.9990 N.ar   16  A16        -0.2048
    299   C4        3.1890    3.2160   13.1320 C.ar   16  A16         0.1692
    300    P.3      4.9480   -1.6130    9.1110 P.3    17  A17         0.2141
    301  OP1        5.0760   -3.0610    8.7610 O.2    17  A17        -0.5172
    302  OP2        6.1670   -0.8130    9.4160 O.3    17  A17        -0.4373
    303  O5'        4.1980   -0.8800    7.9200 O.3    17  A17        -0.3114
    304  C5'        3.9930   -1.5360    6.7000 C.3    17  A17         0.1812
    305  C4'        4.3950   -0.6300    5.5890 C.3    17  A17         0.1773
    306  O4'        4.6470   -1.4440    4.4270 O.3    17  A17        -0.3307
    307  C3'        3.3920    0.4420    5.1710 C.3    17  A17         0.1860
    308  O3'        4.1240    1.5570    4.6380 O.3    17  A17        -0.3112
    309  C2'        2.6200   -0.2790    4.0690 C.3    17  A17         0.2309
    310  O2'        2.1010    0.5760    3.0650 O.3    17  A17        -0.2156
    311  C1'        3.7240   -1.1150    3.4220 C.3    17  A17         0.2408
    312   N9        3.2520   -2.3570    2.8310 N.ar   17  A17        -0.2693
    313   C8        2.5460   -3.3820    3.4140 C.ar   17  A17         0.1816
    314   N7        2.2310   -4.3450    2.5760 N.ar   17  A17        -0.2193
    315   C5        2.7880   -3.9270    1.3710 C.ar   17  A17         0.1518
    316   C6        2.8050   -4.4950    0.0930 C.ar   17  A17         0.1919
    317   N6        2.2120   -5.6540   -0.2050 N.pl3  17  A17        -0.1054
    318   N.1       3.4550   -3.8230   -0.8890 N.ar   17  A17        -0.2040
    319   C.2       4.0330   -2.6540   -0.5910 C.ar   17  A17         0.2016
    320   N.3       4.0760   -2.0130    0.5750 N.ar   17  A17        -0.2048
    321   C4        3.4270   -2.7120    1.5220 C.ar   17  A17         0.1692
    322    P.3      3.5490    3.0620    4.7730 P.3    18  A18         0.2141
    323  OP1        4.7100    3.9340    5.0930 O.2    18  A18        -0.5172
    324  OP2        2.3630    3.0460    5.6640 O.3    18  A18        -0.4373
    325  O5'        3.0840    3.4490    3.3010 O.3    18  A18        -0.3114
    326  C5'        4.0480    3.6200    2.2600 C.3    18  A18         0.1812
    327  C4'        3.4550    4.4080    1.1180 C.3    18  A18         0.1773
    328  O4'        2.5800    3.5710    0.3270 O.3    18  A18        -0.3307
    329  C3'        2.6320    5.6260    1.5040 C.3    18  A18         0.1860
    330  O3'        2.7680    6.6150    0.5010 O.3    18  A18        -0.3112
    331  C2'        1.2130    5.0730    1.5310 C.3    18  A18         0.2309
    332  O2'        0.2260    6.0450    1.2650 O.3    18  A18        -0.2156
    333  C1'        1.2570    4.0620    0.3910 C.3    18  A18         0.2408
    334   N9        0.3720    2.9190    0.5970 N.ar   18  A18        -0.2693
    335   C8        0.0970    2.2420    1.7630 C.ar   18  A18         0.1816
    336   N7       -0.7070    1.2180    1.6020 N.ar   18  A18        -0.2193
    337   C5       -0.9880    1.2260    0.2420 C.ar   18  A18         0.1518
    338   C6       -1.7650    0.3840   -0.5700 C.ar   18  A18         0.1919
    339   N6       -2.4340   -0.6750   -0.1130 N.pl3  18  A18        -0.1054
    340   N.1      -1.8270    0.6700   -1.8900 N.ar   18  A18        -0.2040
    341   C.2      -1.1540    1.7320   -2.3520 C.ar   18  A18         0.2016
    342   N.3      -0.3930    2.5940   -1.6930 N.ar   18  A18        -0.2048
    343   C4       -0.3450    2.2800   -0.3850 C.ar   18  A18         0.1692
    344    P.3      3.8680    7.7720    0.6740 P.3    19  G19         0.2141
    345  OP1        4.1040    8.2910   -0.7020 O.2    19  G19        -0.5172
    346  OP2        5.0080    7.2420    1.4760 O.3    19  G19        -0.4373
    347  O5'        3.1200    8.8860    1.5310 O.3    19  G19        -0.3114
    348  C5'        1.8920    9.4520    1.0840 C.3    19  G19         0.1812
    349  C4'        1.5200   10.6220    1.9550 C.3    19  G19         0.1773
    350  O4'        1.3170   10.1580    3.3210 O.3    19  G19        -0.3307
    351  C3'        2.5950   11.6880    2.0790 C.3    19  G19         0.1860
    352  O3'        2.5730   12.5950    0.9790 O.3    19  G19        -0.3112
    353  C2'        2.2410   12.3350    3.4150 C.3    19  G19         0.2309
    354  O2'        1.1720   13.2490    3.3290 O.3    19  G19        -0.2156
    355  C1'        1.8280   11.1130    4.2400 C.3    19  G19         0.2408
    356   N9        2.9540   10.5010    4.9350 N.ar   19  G19        -0.2693
    357   C8        3.3750    9.1990    4.8230 C.ar   19  G19         0.1817
    358   N7        4.4560    8.9480    5.5080 N.ar   19  G19        -0.2173
    359   C5        4.7610   10.1540    6.1220 C.ar   19  G19         0.1748
    360   C6        5.8510   10.5090    6.9610 C.ar   19  G19         0.3023
    361   O6        6.8060    9.8040    7.3320 O.2    19  G19        -0.2633
    362   N.1       5.7770   11.8380    7.3540 N.ar   19  G19        -0.1709
    363   C.2       4.8040   12.7170    6.9740 C.ar   19  G19         0.2606
    364   N.2       4.9300   13.9560    7.4420 N.pl3  19  G19        -0.0859
    365   N.3       3.7870   12.4060    6.1860 N.ar   19  G19        -0.1918
    366   C4        3.8300   11.1170    5.7980 C.ar   19  G19         0.1723
    367    P.3      3.9620   13.0980    0.3340 P.3    20  U20         0.2141
    368  OP1        3.6810   13.9140   -0.8680 O.2    20  U20        -0.5172
    369  OP2        4.8430   11.9130    0.2270 O.3    20  U20        -0.4373
    370  O5'        4.5730   14.0630    1.4450 O.3    20  U20        -0.3114
    371  C5'        3.8610   15.2160    1.8760 C.3    20  U20         0.1812
    372  C4'        4.7240   16.0550    2.7860 C.3    20  U20         0.1773
    373  O4'        4.9350   15.3700    4.0420 O.3    20  U20        -0.3307
    374  C3'        6.1190   16.3620    2.2800 C.3    20  U20         0.1860
    375  O3'        6.0850   17.4970    1.4200 O.3    20  U20        -0.3112
    376  C2'        6.8450   16.6720    3.5770 C.3    20  U20         0.2309
    377  O2'        6.4940   17.9510    4.0420 O.3    20  U20        -0.2156
    378  C1'        6.2410   15.6290    4.5140 C.3    20  U20         0.2420
    379   N.1       6.9590   14.3470    4.5940 N.ar   20  U20        -0.2534
    380   C.2       8.1250   14.2990    5.3380 C.ar   20  U20         0.3546
    381   O.2       8.6170   15.2790    5.8530 O.2    20  U20        -0.2443
    382   N.3       8.7020   13.0580    5.4370 N.ar   20  U20        -0.1530
    383   C4        8.2610   11.8840    4.8500 C.ar   20  U20         0.2846
    384   O4        8.8920   10.8400    5.0370 O.2    20  U20        -0.2650
    385   C5        7.0700   12.0210    4.0610 C.ar   20  U20         0.0814
    386   C6        6.4740   13.2150    3.9640 C.ar   20  U20         0.0870
    387    P.3      7.0170   17.5380    0.1050 P.3    21  C21         0.2141
    388  OP1        6.3400   18.4550   -0.8490 O.2    21  C21        -0.5172
    389  OP2        7.3990   16.1710   -0.3410 O.3    21  C21        -0.4373
    390  O5'        8.3420   18.2440    0.6230 O.3    21  C21        -0.3114
    391  C5'        8.2710   19.4480    1.3750 C.3    21  C21         0.1812
    392  C4'        9.3950   19.4960    2.3760 C.3    21  C21         0.1773
    393  O4'        9.2430   18.3870    3.2910 O.3    21  C21        -0.3307
    394  C3'       10.7940   19.2560    1.8340 C.3    21  C21         0.1860
    395  O3'       11.3540   20.4100    1.2430 O.3    21  C21        -0.3112
    396  C2'       11.5450   18.9070    3.1050 C.3    21  C21         0.2309
    397  O2'       11.7570   20.0630    3.8850 O.3    21  C21        -0.2156
    398  C1'       10.5150   18.0350    3.8100 C.3    21  C21         0.2420
    399   N.1      10.7140   16.5950    3.6200 N.ar   21  C21        -0.2535
    400   C.2      11.6640   15.9620    4.3970 C.ar   21  C21         0.3532
    401   O.2      12.3550   16.6460    5.1530 O.2    21  C21        -0.2443
    402   N.3      11.8160   14.6250    4.3080 N.ar   21  C21        -0.1739
    403   C4       11.0620   13.9260    3.4620 C.ar   21  C21         0.1759
    404   N.4      11.2250   12.6070    3.4330 N.pl3  21  C21        -0.1070
    405   C5       10.1000   14.5530    2.6160 C.ar   21  C21         0.0566
    406   C6        9.9620   15.8830    2.7260 C.ar   21  C21         0.0850
    407    P.3     12.6240   20.2570    0.2770 P.3    22  G22         0.2141
    408  OP1       12.7980   21.5780   -0.3790 O.3    22  G22        -0.4373
    409  OP2       12.4250   19.0440   -0.5530 O.2    22  G22        -0.5172
    410  O5'       13.8590   19.9910    1.2550 O.3    22  G22        -0.3114
    411  C5'       14.3070   20.9970    2.1500 C.3    22  G22         0.1812
    412  C4'       15.4890   20.5030    2.9470 C.3    22  G22         0.1773
    413  O4'       15.0930   19.4140    3.8280 O.3    22  G22        -0.3307
    414  C3'       16.6440   19.9180    2.1540 C.3    22  G22         0.1860
    415  O3'       17.4980   20.9210    1.6410 O.3    22  G22        -0.3112
    416  C2'       17.3550   19.1010    3.2160 C.3    22  G22         0.2309
    417  O2'       18.0950   19.9100    4.1010 O.3    22  G22        -0.2156
    418  C1'       16.1640   18.4760    3.9350 C.3    22  G22         0.2408
    419   N9       15.7400   17.2340    3.2990 N.ar   22  G22        -0.2693
    420   C8       14.6860   17.0790    2.4340 C.ar   22  G22         0.1817
    421   N7       14.5220   15.8460    2.0430 N.ar   22  G22        -0.2173
    422   C5       15.5260   15.1440    2.6900 C.ar   22  G22         0.1748
    423   C6       15.8340   13.7720    2.6650 C.ar   22  G22         0.3023
    424   O6       15.2390   12.8600    2.0710 O.2    22  G22        -0.2633
    425   N.1      16.9520   13.4850    3.4370 N.ar   22  G22        -0.1709
    426   C.2      17.6700   14.3990    4.1530 C.ar   22  G22         0.2606
    427   N.2      18.7290   13.9180    4.8180 N.pl3  22  G22        -0.0859
    428   N.3      17.3770   15.6880    4.2090 N.ar   22  G22        -0.1918
    429   C4       16.3000   15.9880    3.4550 C.ar   22  G22         0.1723
    430    P.3     18.2530   20.6690    0.2460 P.3    23  C23         0.2141
    431  OP1       19.0530   21.8840   -0.0240 O.3    23  C23        -0.4373
    432  OP2       17.2690   20.2010   -0.7670 O.2    23  C23        -0.5172
    433  O5'       19.2540   19.4820    0.5750 O.3    23  C23        -0.3114
    434  C5'       20.2750   19.6420    1.5480 C.3    23  C23         0.1813
    435  C4'       21.0170   18.3490    1.7130 C.3    23  C23         0.1801
    436  O4'       20.1150   17.3450    2.2510 O.3    23  C23        -0.3306
    437  C3'       21.4860   17.7320    0.4050 C.3    23  C23         0.2161
    438  O3'       22.5630   18.3970   -0.2740 O.3    23  C23        -0.2175
    439  C2'       21.6580   16.2660    0.7890 C.3    23  C23         0.2338
    440  O2'       22.8790   16.0110    1.4620 O.3    23  C23        -0.2155
    441  C1'       20.4690   16.0670    1.7390 C.3    23  C23         0.2421
    442   N.1      19.2990   15.4820    1.0660 N.ar   23  C23        -0.2535
    443   C.2      19.1960   14.0980    1.0170 C.ar   23  C23         0.3532
    444   O.2      20.0620   13.4190    1.5920 O.2    23  C23        -0.2443
    445   N.3      18.1600   13.5300    0.3580 N.ar   23  C23        -0.1739
    446   C4       17.2380   14.3020   -0.2230 C.ar   23  C23         0.1759
    447   N.4      16.2380   13.6990   -0.8770 N.pl3  23  C23        -0.1070
    448   C5       17.3020   15.7250   -0.1620 C.ar   23  C23         0.0566
    449   C6       18.3420   16.2680    0.4860 C.ar   23  C23         0.0850
    450    P.3     14.7900    2.8850   -0.1280 Pac    26  G26         0.3942
    451  OP1       15.0700    3.2760   -1.5800 O.3    26  G26        -0.1425
    452  OP2       13.6380    3.6660    0.4820 O.3    26  G26        -0.1425
    453  O5'       16.0830    3.3190    0.7750 O.3    26  G26        -0.2926
    454  C5'       17.2610    2.4820    0.8630 C.3    26  G26         0.1829
    455  C4'       18.4350    3.2770    1.3980 C.3    26  G26         0.1774
    456  O4'       18.8700    4.2420    0.4030 O.3    26  G26        -0.3307
    457  C3'       18.1510    4.0980    2.6430 C.3    26  G26         0.1860
    458  O3'       18.3830    3.3280    3.8060 O.3    26  G26        -0.3112
    459  C2'       19.1600    5.2410    2.5500 C.3    26  G26         0.2309
    460  O2'       20.4150    4.9620    3.1350 O.3    26  G26        -0.2156
    461  C1'       19.2810    5.4410    1.0400 C.3    26  G26         0.2408
    462   N9       18.4750    6.5420    0.5140 N.ar   26  G26        -0.2693
    463   C8       17.3450    6.4420   -0.2630 C.ar   26  G26         0.1817
    464   N7       16.8680    7.6030   -0.6250 N.ar   26  G26        -0.2173
    465   C5       17.7250    8.5260   -0.0410 C.ar   26  G26         0.1748
    466   C6       17.7130    9.9460   -0.0800 C.ar   26  G26         0.3023
    467   O6       16.9140   10.6990   -0.6610 O.2    26  G26        -0.2633
    468   N.1      18.7650   10.4840    0.6550 N.ar   26  G26        -0.1709
    469   C.2      19.7030    9.7580    1.3360 C.ar   26  G26         0.2606
    470   N.2      20.6390   10.4650    1.9800 N.pl3  26  G26        -0.0859
    471   N.3      19.7250    8.4370    1.3830 N.ar   26  G26        -0.1918
    472   C4       18.7160    7.8900    0.6750 C.ar   26  G26         0.1723
    473    P.3     17.8310    3.8520    5.2170 P.3    27  C27         0.2141
    474  OP1       18.1830    2.8570    6.2700 O.3    27  C27        -0.4373
    475  OP2       16.4090    4.2230    4.9910 O.2    27  C27        -0.5172
    476  O5'       18.6720    5.1730    5.4960 O.3    27  C27        -0.3114
    477  C5'       19.9340    5.1020    6.1390 C.3    27  C27         0.1812
    478  C4'       20.3840    6.4800    6.5460 C.3    27  C27         0.1773
    479  O4'       20.5170    7.3100    5.3550 O.3    27  C27        -0.3307
    480  C3'       19.4170    7.2750    7.4060 C.3    27  C27         0.1860
    481  O3'       19.4710    6.9310    8.7780 O.3    27  C27        -0.3112
    482  C2'       19.9260    8.6860    7.1820 C.3    27  C27         0.2309
    483  O2'       21.1360    8.9010    7.8810 O.3    27  C27        -0.2156
    484  C1'       20.1720    8.6530    5.6730 C.3    27  C27         0.2420
    485   N.1      18.9810    9.0080    4.8900 N.ar   27  C27        -0.2535
    486   C.2      18.6910   10.3620    4.6690 C.ar   27  C27         0.3532
    487   O.2      19.4170   11.2280    5.1930 O.2    27  C27        -0.2443
    488   N.3      17.6220   10.6900    3.9020 N.ar   27  C27        -0.1739
    489   C4       16.8510    9.7280    3.3840 C.ar   27  C27         0.1759
    490   N.4      15.8180   10.0940    2.6200 N.pl3  27  C27        -0.1070
    491   C5       17.1070    8.3470    3.6210 C.ar   27  C27         0.0566
    492   C6       18.1740    8.0350    4.3700 C.ar   27  C27         0.0850
    493    P.3     18.1660    7.1610    9.6950 P.3    28  G28         0.2141
    494  OP1       18.4260    6.5970   11.0470 O.3    28  G28        -0.4373
    495  OP2       16.9940    6.6930    8.9100 O.2    28  G28        -0.5172
    496  O5'       18.0410    8.7460    9.8200 O.3    28  G28        -0.3114
    497  C5'       19.0600    9.5160   10.4500 C.3    28  G28         0.1812
    498  C4'       18.8140   10.9850   10.2160 C.3    28  G28         0.1773
    499  O4'       18.8910   11.2720    8.7900 O.3    28  G28        -0.3307
    500  C3'       17.4300   11.4880   10.5810 C.3    28  G28         0.1860
    501  O3'       17.3000   11.7410   11.9680 O.3    28  G28        -0.3112
    502  C2'       17.3760   12.7800    9.7880 C.3    28  G28         0.2309
    503  O2'       18.1770   13.7810   10.3790 O.3    28  G28        -0.2156
    504  C1'       17.9930   12.3230    8.4690 C.3    28  G28         0.2408
    505   N9       16.9950   11.8030    7.5450 N.ar   28  G28        -0.2693
    506   C8       16.8270   10.4970    7.1580 C.ar   28  G28         0.1817
    507   N7       15.8430   10.3340    6.3130 N.ar   28  G28        -0.2173
    508   C5       15.3250   11.6110    6.1360 C.ar   28  G28         0.1748
    509   C6       14.2400   12.0660    5.3380 C.ar   28  G28         0.3023
    510   O6       13.4780   11.4080    4.6180 O.2    28  G28        -0.2633
    511   N.1      14.0780   13.4390    5.4390 N.ar   28  G28        -0.1709
    512   C.2      14.8460   14.2730    6.2130 C.ar   28  G28         0.2606
    513   N.2      14.5350   15.5780    6.1690 N.pl3  28  G28        -0.0859
    514   N.3      15.8450   13.8630    6.9700 N.ar   28  G28        -0.1918
    515   C4       16.0310   12.5300    6.8830 C.ar   28  G28         0.1723
    516    P.3     15.8340   11.7800   12.6310 P.3    29  U29         0.2141
    517  OP1       16.0140   11.8170   14.1080 O.3    29  U29        -0.4373
    518  OP2       15.0230   10.6950   12.0170 O.2    29  U29        -0.5172
    519  O5'       15.2290   13.1770   12.1640 O.3    29  U29        -0.3114
    520  C5'       15.7720   14.4110   12.6290 C.3    29  U29         0.1812
    521  C4'       15.0320   15.5790   12.0100 C.3    29  U29         0.1773
    522  O4'       15.1210   15.5170   10.5600 O.3    29  U29        -0.3307
    523  C3'       13.5330   15.6270   12.2260 C.3    29  U29         0.1860
    524  O3'       13.1930   16.0360   13.5440 O.3    29  U29        -0.3112
    525  C2'       13.1240   16.6230   11.1500 C.3    29  U29         0.2309
    526  O2'       13.4550   17.9690   11.4260 O.3    29  U29        -0.2156
    527  C1'       13.9780   16.1340    9.9860 C.3    29  U29         0.2420
    528   N.1      13.2450   15.1390    9.1960 N.ar   29  U29        -0.2534
    529   C.2      12.3220   15.6210    8.3060 C.ar   29  U29         0.3546
    530   O.2      12.1380   16.8050    8.1400 O.2    29  U29        -0.2443
    531   N.3      11.6230   14.6700    7.6160 N.ar   29  U29        -0.1530
    532   C4       11.7600   13.3100    7.7180 C.ar   29  U29         0.2846
    533   O4       11.0380   12.5740    7.0330 O.2    29  U29        -0.2650
    534   C5       12.7560   12.8830    8.6530 C.ar   29  U29         0.0814
    535   C6       13.4490   13.7940    9.3430 C.ar   29  U29         0.0870
    536    P.3     12.0510   15.2390   14.3510 P.3    30  C30         0.2141
    537  OP1       12.1250   15.7330   15.7460 O.3    30  C30        -0.4373
    538  OP2       12.1560   13.7800   14.0720 O.2    30  C30        -0.5172
    539  O5'       10.6810   15.7380   13.7090 O.3    30  C30        -0.3114
    540  C5'       10.3850   17.1220   13.5980 C.3    30  C30         0.1812
    541  C4'        9.2890   17.3340   12.5870 C.3    30  C30         0.1773
    542  O4'        9.7220   16.8330   11.2940 O.3    30  C30        -0.3307
    543  C3'        8.0060   16.5570   12.8200 C.3    30  C30         0.1860
    544  O3'        7.1910   17.1720   13.8050 O.3    30  C30        -0.3112
    545  C2'        7.3620   16.6220   11.4430 C.3    30  C30         0.2309
    546  O2'        6.7230   17.8510   11.1840 O.3    30  C30        -0.2156
    547  C1'        8.5810   16.4530   10.5350 C.3    30  C30         0.2420
    548   N.1       8.7210   15.0500   10.1220 N.ar   30  C30        -0.2535
    549   C.2       7.8090   14.5580    9.2080 C.ar   30  C30         0.3532
    550   O.2       6.9610   15.3270    8.7610 O.2    30  C30        -0.2443
    551   N.3       7.8680   13.2610    8.8350 N.ar   30  C30        -0.1739
    552   C4        8.8070   12.4650    9.3480 C.ar   30  C30         0.1759
    553   N.4       8.8160   11.1820    8.9630 N.pl3  30  C30        -0.1070
    554   C5        9.7750   12.9490   10.2800 C.ar   30  C30         0.0566
    555   C6        9.6970   14.2390   10.6320 C.ar   30  C30         0.0850
    556    P.3      6.1080   16.2910   14.6040 P.3    31  G31         0.2141
    557  OP1        5.4490   17.2480   15.5150 O.3    31  G31        -0.4373
    558  OP2        6.7360   15.0590   15.1610 O.2    31  G31        -0.5172
    559  O5'        5.0550   15.8560   13.4870 O.3    31  G31        -0.3114
    560  C5'        4.2950   16.8300   12.7820 C.3    31  G31         0.1812
    561  C4'        3.3490   16.1580   11.8170 C.3    31  G31         0.1773
    562  O4'        4.0890   15.4720   10.7720 O.3    31  G31        -0.3307
    563  C3'        2.4370   15.0830   12.3860 C.3    31  G31         0.1860
    564  O3'        1.2870   15.6790   12.9420 O.3    31  G31        -0.3112
    565  C2'        2.0510   14.3150   11.1310 C.3    31  G31         0.2309
    566  O2'        1.0220   14.9400   10.3870 O.3    31  G31        -0.2156
    567  C1'        3.3770   14.3130   10.3690 C.3    31  G31         0.2408
    568   N9        4.1920   13.1530   10.7000 N.ar   31  G31        -0.2693
    569   C8        5.2850   13.1170   11.5320 C.ar   31  G31         0.1817
    570   N7        5.8280   11.9350   11.6140 N.ar   31  G31        -0.2173
    571   C5        5.0440   11.1440   10.7930 C.ar   31  G31         0.1748
    572   C6        5.1580    9.7760   10.4650 C.ar   31  G31         0.3023
    573   O6        6.0140    8.9710   10.8350 O.2    31  G31        -0.2633
    574   N.1       4.1490    9.3710    9.6010 N.ar   31  G31        -0.1709
    575   C.2       3.1620   10.1890    9.1030 C.ar   31  G31         0.2606
    576   N.2       2.2780    9.6190    8.2860 N.pl3  31  G31        -0.0859
    577   N.3       3.0510   11.4730    9.3880 N.ar   31  G31        -0.1918
    578   C4        4.0200   11.8810   10.2330 C.ar   31  G31         0.1723
    579    P.3      0.5450   14.9750   14.1700 P.3    32  U32         0.2141
    580  OP1       -0.4860   15.9500   14.6110 O.2    32  U32        -0.5172
    581  OP2        1.5740   14.5080   15.1320 O.3    32  U32        -0.4373
    582  O5'       -0.1900   13.7220   13.5130 O.3    32  U32        -0.3114
    583  C5'       -1.2960   13.9230   12.6320 C.3    32  U32         0.1812
    584  C4'       -1.7960   12.6060   12.0840 C.3    32  U32         0.1773
    585  O4'       -0.7730   11.9740   11.2780 O.3    32  U32        -0.3307
    586  C3'       -2.1820   11.5520   13.0990 C.3    32  U32         0.1860
    587  O3'       -3.5090   11.7540   13.5300 O.3    32  U32        -0.3112
    588  C2'       -2.0590   10.2710   12.2910 C.3    32  U32         0.2309
    589  O2'       -3.1660   10.0150   11.4460 O.3    32  U32        -0.2156
    590  C1'       -0.8070   10.5710   11.4720 C.3    32  U32         0.2420
    591   N.1       0.4470   10.1710   12.1280 N.ar   32  U32        -0.2534
    592   C.2       0.7500    8.8310   12.1620 C.ar   32  U32         0.3546
    593   O.2      -0.0090    7.9750   11.7450 O.2    32  U32        -0.2443
    594   N.3       1.9680    8.5260   12.7170 N.ar   32  U32        -0.1530
    595   C4        2.8860    9.4130   13.2500 C.ar   32  U32         0.2846
    596   O4        3.9620    8.9910   13.6790 O.2    32  U32        -0.2650
    597   C5        2.4770   10.7800   13.2150 C.ar   32  U32         0.0814
    598   C6        1.3000   11.1040   12.6690 C.ar   32  U32         0.0870
    599    P.3     -3.8590   11.5840   15.0770 P.3    33  U33         0.2141
    600  OP1       -5.2020   12.1980   15.2140 O.2    33  U33        -0.5172
    601  OP2       -2.7300   12.0700   15.9120 O.3    33  U33        -0.4373
    602  O5'       -3.9710   10.0100   15.2710 O.3    33  U33        -0.3114
    603  C5'       -4.9140    9.2540   14.5240 C.3    33  U33         0.1812
    604  C4'       -4.6890    7.7840   14.7500 C.3    33  U33         0.1773
    605  O4'       -3.4790    7.3510   14.0740 O.3    33  U33        -0.3307
    606  C3'       -4.4410    7.3970   16.1880 C.3    33  U33         0.1860
    607  O3'       -5.6540    7.3180   16.9030 O.3    33  U33        -0.3112
    608  C2'       -3.7570    6.0530   16.0210 C.3    33  U33         0.2309
    609  O2'       -4.6470    5.0100   15.6750 O.3    33  U33        -0.2156
    610  C1'       -2.8330    6.3550   14.8440 C.3    33  U33         0.2420
    611   N.1      -1.5220    6.8780   15.2420 N.ar   33  U33        -0.2534
    612   C.2      -0.5360    5.9610   15.5330 C.ar   33  U33         0.3546
    613   O.2      -0.7240    4.7580   15.5040 O.2    33  U33        -0.2443
    614   N.3       0.6810    6.5010   15.8470 N.ar   33  U33        -0.1530
    615   C4        1.0150    7.8350   15.8840 C.ar   33  U33         0.2846
    616   O4        2.2000    8.1520   16.0220 O.2    33  U33        -0.2650
    617   C5       -0.0660    8.7270   15.6010 C.ar   33  U33         0.0814
    618   C6       -1.2720    8.2290   15.3020 C.ar   33  U33         0.0870
    619    P.3     -5.6680    7.6770   18.4660 P.3    34  C34         0.2141
    620  OP1       -7.0930    7.7500   18.8760 O.3    34  C34        -0.4373
    621  OP2       -4.7690    8.8350   18.6980 O.2    34  C34        -0.5172
    622  O5'       -5.0330    6.3930   19.1510 O.3    34  C34        -0.3114
    623  C5'       -5.5820    5.1050   18.9210 C.3    34  C34         0.1812
    624  C4'       -4.5700    4.0540   19.2810 C.3    34  C34         0.1773
    625  O4'       -3.4410    4.1280   18.3680 O.3    34  C34        -0.3307
    626  C3'       -3.9320    4.2510   20.6390 C.3    34  C34         0.1860
    627  O3'       -4.7910    3.7630   21.6560 O.3    34  C34        -0.3112
    628  C2'       -2.6480    3.4440   20.4950 C.3    34  C34         0.2309
    629  O2'       -2.8360    2.0550   20.6530 O.3    34  C34        -0.2156
    630  C1'       -2.2520    3.7620   19.0500 C.3    34  C34         0.2420
    631   N.1      -1.3020    4.8850   18.9690 N.ar   34  C34        -0.2535
    632   C.2       0.0480    4.6320   19.1780 C.ar   34  C34         0.3532
    633   O.2       0.4140    3.4700   19.3410 O.2    34  C34        -0.2443
    634   N.3       0.9210    5.6560   19.1890 N.ar   34  C34        -0.1739
    635   C4        0.4880    6.8990   18.9800 C.ar   34  C34         0.1759
    636   N.4       1.3840    7.8910   19.0290 N.pl3  34  C34        -0.1070
    637   C5       -0.8830    7.1850   18.7170 C.ar   34  C34         0.0566
    638   C6       -1.7360    6.1570   18.7210 C.ar   34  C34         0.0850
    639    P.3     -4.7170    4.3950   23.1330 P.3    35  C35         0.2141
    640  OP1       -5.8740    3.8540   23.8930 O.3    35  C35        -0.4373
    641  OP2       -4.5520    5.8620   22.9950 O.2    35  C35        -0.5172
    642  O5'       -3.3730    3.7910   23.7410 O.3    35  C35        -0.3114
    643  C5'       -3.2280    2.3870   23.8910 C.3    35  C35         0.1812
    644  C4'       -1.7810    2.0240   24.0590 C.3    35  C35         0.1773
    645  O4'       -1.0190    2.5100   22.9290 O.3    35  C35        -0.3307
    646  C3'       -1.0590    2.6710   25.2190 C.3    35  C35         0.1860
    647  O3'       -1.3640    2.0040   26.4300 O.3    35  C35        -0.3112
    648  C2'        0.3870    2.4330   24.8290 C.3    35  C35         0.2309
    649  O2'        0.7920    1.1040   25.0640 O.3    35  C35        -0.2156
    650  C1'        0.3290    2.6970   23.3280 C.3    35  C35         0.2420
    651   N.1       0.7260    4.0690   23.0090 N.ar   35  C35        -0.2535
    652   C.2       2.0770    4.4030   23.0960 C.ar   35  C35         0.3532
    653   O.2       2.8830    3.5320   23.4280 O.2    35  C35        -0.2443
    654   N.3       2.4670    5.6610   22.8200 N.ar   35  C35        -0.1739
    655   C4        1.5590    6.5750   22.4650 C.ar   35  C35         0.1759
    656   N.4       1.9870    7.8140   22.2070 N.pl3  35  C35        -0.1070
    657   C5        0.1720    6.2590   22.3610 C.ar   35  C35         0.0566
    658   C6       -0.1980    5.0060   22.6390 C.ar   35  C35         0.0850
    659    P.3     -1.3680    2.8290   27.8100 P.3    36  G36         0.2141
    660  OP1       -2.0040    1.9470   28.8180 O.3    36  G36        -0.4373
    661  OP2       -1.9230    4.1920   27.5730 O.2    36  G36        -0.5172
    662  O5'        0.1730    2.9790   28.1730 O.3    36  G36        -0.3114
    663  C5'        0.9420    1.8480   28.5530 C.3    36  G36         0.1812
    664  C4'        2.3930    2.2340   28.6710 C.3    36  G36         0.1773
    665  O4'        2.8220    2.7790   27.3930 O.3    36  G36        -0.3307
    666  C3'        2.7180    3.3650   29.6400 C.3    36  G36         0.1860
    667  O3'        2.7580    2.9350   31.0010 O.3    36  G36        -0.3112
    668  C2'        4.0780    3.8170   29.1280 C.3    36  G36         0.2309
    669  O2'        5.1330    2.9720   29.5380 O.3    36  G36        -0.2156
    670  C1'        3.8720    3.7050   27.6110 C.3    36  G36         0.2408
    671   N9        3.5060    4.9720   26.9870 N.ar   36  G36        -0.2693
    672   C8        2.2890    5.3280   26.4490 C.ar   36  G36         0.1817
    673   N7        2.2840    6.5380   25.9550 N.ar   36  G36        -0.2173
    674   C5        3.5750    7.0050   26.1790 C.ar   36  G36         0.1748
    675   C6        4.1730    8.2500   25.8590 C.ar   36  G36         0.3023
    676   O6        3.6760    9.2130   25.2680 O.2    36  G36        -0.2633
    677   N.1       5.4930    8.3100   26.2950 N.ar   36  G36        -0.1709
    678   C.2       6.1590    7.2970   26.9480 C.ar   36  G36         0.2606
    679   N.2       7.4290    7.5470   27.3120 N.pl3  36  G36        -0.0859
    680   N.3       5.6180    6.1260   27.2290 N.ar   36  G36        -0.1918
    681   C4        4.3350    6.0520   26.8230 C.ar   36  G36         0.1723
    682    P.3      2.1560    3.8850   32.1630 P.3    37  G37         0.2141
    683  OP1        2.1100    3.0630   33.4040 O.3    37  G37        -0.4373
    684  OP2        0.9190    4.5660   31.6890 O.2    37  G37        -0.5172
    685  O5'        3.2720    5.0020   32.3570 O.3    37  G37        -0.3114
    686  C5'        4.6020    4.6360   32.6790 C.3    37  G37         0.1812
    687  C4'        5.5500    5.7670   32.3560 C.3    37  G37         0.1773
    688  O4'        5.5130    6.0890   30.9420 O.3    37  G37        -0.3307
    689  C3'        5.2770    7.1200   32.9840 C.3    37  G37         0.1860
    690  O3'        5.6260    7.1210   34.3610 O.3    37  G37        -0.3112
    691  C2'        6.2060    7.9970   32.1590 C.3    37  G37         0.2309
    692  O2'        7.5670    7.8470   32.5050 O.3    37  G37        -0.2156
    693  C1'        5.9790    7.4180   30.7620 C.3    37  G37         0.2408
    694   N9        4.9710    8.1700   30.0250 N.ar   37  G37        -0.2693
    695   C8        3.6700    7.8070   29.7710 C.ar   37  G37         0.1817
    696   N7        3.0130    8.7050   29.0870 N.ar   37  G37        -0.2173
    697   C5        3.9420    9.7170   28.8720 C.ar   37  G37         0.1748
    698   C6        3.8170   10.9460   28.1860 C.ar   37  G37         0.3023
    699   O6        2.8410   11.3950   27.5840 O.2    37  G37        -0.2633
    700   N.1       4.9910   11.6810   28.2400 N.ar   37  G37        -0.1709
    701   C.2       6.1450   11.2840   28.8660 C.ar   37  G37         0.2606
    702   N.2       7.1660   12.1550   28.8350 N.pl3  37  G37        -0.0859
    703   N.3       6.2850   10.1280   29.4840 N.ar   37  G37        -0.1918
    704   C4        5.1510    9.4020   29.4520 C.ar   37  G37         0.1723
    705    P.3      4.9310    8.1690   35.3610 P.3    38  A38         0.2141
    706  OP1        5.4480    7.8230   36.7060 O.3    38  A38        -0.4373
    707  OP2        3.4570    8.2280   35.1280 O.2    38  A38        -0.5172
    708  O5'        5.5690    9.5690   34.9560 O.3    38  A38        -0.3114
    709  C5'        6.9460    9.8330   35.1810 C.3    38  A38         0.1812
    710  C4'        7.3140   11.1620   34.5840 C.3    38  A38         0.1773
    711  O4'        6.9820   11.1420   33.1700 O.3    38  A38        -0.3307
    712  C3'        6.5170   12.3560   35.0770 C.3    38  A38         0.1860
    713  O3'        6.9880   12.8120   36.3420 O.3    38  A38        -0.3112
    714  C2'        6.7740   13.3610   33.9610 C.3    38  A38         0.2309
    715  O2'        8.0660   13.9320   34.0110 O.3    38  A38        -0.2156
    716  C1'        6.6980   12.4600   32.7300 C.3    38  A38         0.2408
    717   N9        5.3820   12.4710   32.0980 N.ar   38  A38        -0.2693
    718   C8        4.3910   11.5260   32.1660 C.ar   38  A38         0.1816
    719   N7        3.3060   11.8500   31.5010 N.ar   38  A38        -0.2193
    720   C5        3.6070   13.0890   30.9530 C.ar   38  A38         0.1518
    721   C6        2.8740   13.9710   30.1290 C.ar   38  A38         0.1919
    722   N6        1.6320   13.7260   29.6920 N.pl3  38  A38        -0.1054
    723   N.1       3.4710   15.1280   29.7600 N.ar   38  A38        -0.2040
    724   C.2       4.7170   15.3660   30.1830 C.ar   38  A38         0.2016
    725   N.3       5.5110   14.6130   30.9490 N.ar   38  A38        -0.2048
    726   C4        4.8860   13.4780   31.3060 C.ar   38  A38         0.1692
    727    P.3      5.9780   13.5740   37.3470 P.3    39  A39         0.2141
    728  OP1        6.6970   13.7050   38.6410 O.3    39  A39        -0.4373
    729  OP2        4.6420   12.9220   37.3220 O.2    39  A39        -0.5172
    730  O5'        5.8590   15.0230   36.7040 O.3    39  A39        -0.3114
    731  C5'        7.0070   15.8410   36.5650 C.3    39  A39         0.1812
    732  C4'        6.6670   17.0740   35.7790 C.3    39  A39         0.1773
    733  O4'        6.3230   16.7010   34.4270 O.3    39  A39        -0.3307
    734  C3'        5.4470   17.8280   36.2730 C.3    39  A39         0.1860
    735  O3'        5.8460   18.7350   37.2790 O.3    39  A39        -0.3112
    736  C2'        5.0360   18.6010   35.0330 C.3    39  A39         0.2309
    737  O2'        5.7670   19.7970   34.8880 O.3    39  A39        -0.2156
    738  C1'        5.3480   17.5920   33.9240 C.3    39  A39         0.2408
    739   N9        4.1630   16.8120   33.5930 N.ar   39  A39        -0.2693
    740   C8        3.7510   15.6210   34.1420 C.ar   39  A39         0.1816
    741   N7        2.5990   15.2010   33.6780 N.ar   39  A39        -0.2193
    742   C5        2.2340   16.1790   32.7570 C.ar   39  A39         0.1518
    743   C6        1.1000   16.3430   31.9470 C.ar   39  A39         0.1919
    744   N6        0.0580   15.5020   31.9520 N.pl3  39  A39        -0.1054
    745   N.1       1.0580   17.4220   31.1340 N.ar   39  A39        -0.2040
    746   C.2       2.0760   18.2800   31.1600 C.ar   39  A39         0.2016
    747   N.3       3.1810   18.2490   31.8910 N.ar   39  A39        -0.2048
    748   C4        3.1990   17.1610   32.6790 C.ar   39  A39         0.1692
    749    P.3      4.9000   18.9930   38.5450 P.3    40  A40         0.2141
    750  OP1        5.5770   18.4970   39.7660 O.3    40  A40        -0.4373
    751  OP2        3.5380   18.5160   38.2250 O.2    40  A40        -0.5172
    752  O5'        4.8700   20.5810   38.6200 O.3    40  A40        -0.3114
    753  C5'        3.7190   21.2970   38.2030 C.3    40  A40         0.1812
    754  C4'        3.1490   22.0530   39.3690 C.3    40  A40         0.1773
    755  O4'        3.9500   23.2250   39.6320 O.3    40  A40        -0.3307
    756  C3'        1.7550   22.5990   39.1710 C.3    40  A40         0.1860
    757  O3'        0.8830   21.5490   39.5400 O.3    40  A40        -0.3112
    758  C2'        1.6990   23.7040   40.2190 C.3    40  A40         0.2309
    759  O2'        1.3950   23.1740   41.4950 O.3    40  A40        -0.2156
    760  C1'        3.1400   24.2250   40.2060 C.3    40  A40         0.2408
    761   N9        3.3810   25.4590   39.4600 N.ar   40  A40        -0.2693
    762   C8        3.6230   25.5950   38.1140 C.ar   40  A40         0.1816
    763   N7        3.9300   26.8190   37.7540 N.ar   40  A40        -0.2193
    764   C5        3.8640   27.5400   38.9420 C.ar   40  A40         0.1518
    765   C6        4.1090   28.8900   39.2460 C.ar   40  A40         0.1919
    766   N6        4.5100   29.7900   38.3430 N.pl3  40  A40        -0.1054
    767   N.1       3.9320   29.2900   40.5270 N.ar   40  A40        -0.2040
    768   C.2       3.5360   28.3900   41.4270 C.ar   40  A40         0.2016
    769   N.3       3.2860   27.0950   41.2670 N.ar   40  A40        -0.2048
    770   C4        3.4810   26.7250   39.9890 C.ar   40  A40         0.1692
    771    P.3     -0.4330   21.2700   38.6810 P.3    41  A41         0.2141
    772  OP1       -0.9330   19.9440   39.1210 O.3    41  A41        -0.4373
    773  OP2       -0.1650   21.5290   37.2380 O.2    41  A41        -0.5172
    774  O5'       -1.4600   22.3690   39.1940 O.3    41  A41        -0.3114
    775  C5'       -1.9170   22.3720   40.5350 C.3    41  A41         0.1812
    776  C4'       -2.4900   23.7190   40.8560 C.3    41  A41         0.1773
    777  O4'       -1.4140   24.6890   40.7840 O.3    41  A41        -0.3307
    778  C3'       -3.5350   24.1970   39.8560 C.3    41  A41         0.1860
    779  O3'       -4.8400   23.8290   40.2930 O.3    41  A41        -0.3112
    780  C2'       -3.3710   25.7150   39.8980 C.3    41  A41         0.2309
    781  O2'       -4.1430   26.3520   40.8990 O.3    41  A41        -0.2156
    782  C1'       -1.8700   25.8720   40.1590 C.3    41  A41         0.2408
    783   N9       -1.1100   26.0640   38.9280 N.ar   41  A41        -0.2693
    784   C8       -1.1080   25.2580   37.8180 C.ar   41  A41         0.1816
    785   N7       -0.3570   25.7030   36.8430 N.ar   41  A41        -0.2193
    786   C5        0.1860   26.8760   37.3510 C.ar   41  A41         0.1518
    787   C6        1.0720   27.8210   36.8060 C.ar   41  A41         0.1919
    788   N6        1.5940   27.7290   35.5860 N.pl3  41  A41        -0.1054
    789   N.1       1.4080   28.8780   37.5700 N.ar   41  A41        -0.2040
    790   C.2       0.8870   28.9710   38.8020 C.ar   41  A41         0.2016
    791   N.3       0.0510   28.1450   39.4260 N.ar   41  A41        -0.2048
    792   C4       -0.2670   27.1070   38.6350 C.ar   41  A41         0.1692
    793    P.3     -5.5990   22.5870   39.6080 P.3    42  G42         0.2141
    794  OP1       -6.8010   22.2940   40.4430 O.3    42  G42        -0.4373
    795  OP2       -4.5980   21.5210   39.3700 O.2    42  G42        -0.5172
    796  O5'       -6.0780   23.1570   38.1990 O.3    42  G42        -0.3114
    797  C5'       -6.5590   24.4880   38.0770 C.3    42  G42         0.1812
    798  C4'       -7.4070   24.6200   36.8390 C.3    42  G42         0.1773
    799  O4'       -6.5920   24.3870   35.6520 O.3    42  G42        -0.3307
    800  C3'       -8.5600   23.6330   36.7420 C.3    42  G42         0.1860
    801  O3'       -9.7360   24.2030   37.2970 O.3    42  G42        -0.3112
    802  C2'       -8.7380   23.4990   35.2400 C.3    42  G42         0.2309
    803  O2'       -9.4850   24.5860   34.7380 O.3    42  G42        -0.2156
    804  C1'       -7.2860   23.5380   34.7580 C.3    42  G42         0.2408
    805   N9       -6.6620   22.2230   34.8160 N.ar   42  G42        -0.2693
    806   C8       -5.5890   21.8610   35.5850 C.ar   42  G42         0.1817
    807   N7       -5.3020   20.5910   35.4980 N.ar   42  G42        -0.2173
    808   C5       -6.2310   20.0890   34.6030 C.ar   42  G42         0.1748
    809   C6       -6.4320   18.7680   34.1460 C.ar   42  G42         0.3023
    810   O6       -5.8170   17.7420   34.4630 O.2    42  G42        -0.2633
    811   N.1      -7.4840   18.6940   33.2400 N.ar   42  G42        -0.1709
    812   C.2      -8.2490   19.7560   32.8360 C.ar   42  G42         0.2606
    813   N.2      -9.2180   19.4780   31.9500 N.pl3  42  G42        -0.0859
    814   N.3      -8.0780   20.9980   33.2690 N.ar   42  G42        -0.1918
    815   C4       -7.0600   21.0880   34.1480 C.ar   42  G42         0.1723
    816    P.3    -10.9800   23.2570   37.6640 P.3    43  U43         0.2141
    817  OP1      -12.1540   24.1340   37.8820 O.2    43  U43        -0.5172
    818  OP2      -10.5810   22.2940   38.7150 O.3    43  U43        -0.4373
    819  O5'      -11.2570   22.4510   36.3250 O.3    43  U43        -0.3114
    820  C5'      -11.9510   23.0570   35.2470 C.3    43  U43         0.1812
    821  C4'      -12.6210   21.9980   34.4180 C.3    43  U43         0.1773
    822  O4'      -11.6110   21.1750   33.7770 O.3    43  U43        -0.3307
    823  C3'      -13.4850   21.0150   35.1960 C.3    43  U43         0.1860
    824  O3'      -14.7920   21.5640   35.3730 O.3    43  U43        -0.3112
    825  C2'      -13.4880   19.8020   34.2690 C.3    43  U43         0.2309
    826  O2'      -14.4340   19.9020   33.2180 O.3    43  U43        -0.2156
    827  C1'      -12.0630   19.8380   33.7090 C.3    43  U43         0.2420
    828   N.1     -11.1280   19.0140   34.4760 N.ar   43  U43        -0.2534
    829   C.2     -11.1960   17.6500   34.3160 C.ar   43  U43         0.3546
    830   O.2     -11.9730   17.1190   33.5380 O.2    43  U43        -0.2443
    831   N.3     -10.3140   16.9290   35.0910 N.ar   43  U43        -0.1530
    832   C4       -9.3770   17.4390   35.9730 C.ar   43  U43         0.2846
    833   O4       -8.6240   16.6740   36.5710 O.2    43  U43        -0.2650
    834   C5       -9.3630   18.8620   36.0660 C.ar   43  U43         0.0814
    835   C6      -10.2210   19.5840   35.3330 C.ar   43  U43         0.0870
    836    P.3    -15.7370   21.0500   36.5740 P.3    44  C44         0.2141
    837  OP1      -16.9840   21.8540   36.4790 O.2    44  C44        -0.5172
    838  OP2      -14.9840   21.0240   37.8530 O.3    44  C44        -0.4373
    839  O5'      -16.1070   19.5580   36.1630 O.3    44  C44        -0.3114
    840  C5'      -16.9870   19.3150   35.0770 C.3    44  C44         0.1812
    841  C4'      -17.0670   17.8380   34.7890 C.3    44  C44         0.1773
    842  O4'      -15.7710   17.3480   34.3570 O.3    44  C44        -0.3307
    843  C3'      -17.4150   16.9590   35.9750 C.3    44  C44         0.1860
    844  O3'      -18.8170   16.9160   36.1620 O.3    44  C44        -0.3112
    845  C2'      -16.8800   15.6050   35.5300 C.3    44  C44         0.2309
    846  O2'      -17.7440   14.9080   34.6590 O.3    44  C44        -0.2156
    847  C1'      -15.6020   16.0120   34.7960 C.3    44  C44         0.2420
    848   N.1     -14.4500   15.9700   35.6890 N.ar   44  C44        -0.2535
    849   C.2     -13.8410   14.7440   35.9250 C.ar   44  C44         0.3532
    850   O.2     -14.2850   13.7370   35.3540 O.2    44  C44        -0.2443
    851   N.3     -12.7840   14.6820   36.7630 N.ar   44  C44        -0.1739
    852   C4      -12.3310   15.7970   37.3430 C.ar   44  C44         0.1759
    853   N.4     -11.2760   15.6940   38.1610 N.pl3  44  C44        -0.1070
    854   C5      -12.9360   17.0660   37.1110 C.ar   44  C44         0.0566
    855   C6      -13.9840   17.1040   36.2860 C.ar   44  C44         0.0850
    856    P.3    -19.4090   16.4520   37.5780 P.3    45  G45         0.2141
    857  OP1      -20.8880   16.5840   37.4900 O.2    45  G45        -0.5172
    858  OP2      -18.6700   17.1630   38.6540 O.3    45  G45        -0.4373
    859  O5'      -19.0470   14.9050   37.6610 O.3    45  G45        -0.3114
    860  C5'      -19.7370   13.9610   36.8590 C.3    45  G45         0.1812
    861  C4'      -19.1970   12.5820   37.1100 C.3    45  G45         0.1773
    862  O4'      -17.7980   12.5530   36.7280 O.3    45  G45        -0.3307
    863  C3'      -19.1780   12.1540   38.5660 C.3    45  G45         0.1860
    864  O3'      -20.4340   11.6470   38.9800 O.3    45  G45        -0.3112
    865  C2'      -18.1080   11.0740   38.5600 C.3    45  G45         0.2309
    866  O2'      -18.5620    9.8040   38.1470 O.3    45  G45        -0.2156
    867  C1'      -17.0940   11.6650   37.5770 C.3    45  G45         0.2408
    868   N9      -16.0790   12.4180   38.3020 N.ar   45  G45        -0.2693
    869   C8      -15.9450   13.7840   38.4040 C.ar   45  G45         0.1817
    870   N7      -14.9680   14.1410   39.1940 N.ar   45  G45        -0.2173
    871   C5      -14.4160   12.9390   39.6200 C.ar   45  G45         0.1748
    872   C6      -13.3320   12.6780   40.5000 C.ar   45  G45         0.3023
    873   O6      -12.6190   13.4840   41.1150 O.2    45  G45        -0.2633
    874   N.1     -13.1100   11.3120   40.6440 N.ar   45  G45        -0.1709
    875   C.2     -13.8390   10.3250   40.0310 C.ar   45  G45         0.2606
    876   N.2     -13.4700    9.0620   40.2950 N.pl3  45  G45        -0.0859
    877   N.3     -14.8510   10.5540   39.2210 N.ar   45  G45        -0.1918
    878   C4      -15.0820   11.8720   39.0620 C.ar   45  G45         0.1723
    879    P.3    -20.8060   11.6340   40.5420 P.3    46  C46         0.2141
    880  OP1      -22.1940   11.1160   40.6700 O.2    46  C46        -0.5172
    881  OP2      -20.4660   12.9690   41.1060 O.3    46  C46        -0.4373
    882  O5'      -19.8290   10.5350   41.1610 O.3    46  C46        -0.3114
    883  C5'      -20.0110    9.1450   40.8950 C.3    46  C46         0.1813
    884  C4'      -19.0080    8.3260   41.6840 C.3    46  C46         0.1801
    885  O4'      -17.6570    8.6950   41.2890 O.3    46  C46        -0.3306
    886  C3'      -18.9960    8.5460   43.1920 C.3    46  C46         0.2161
    887  O3'      -20.0660    8.0460   44.0020 O.3    46  C46        -0.2175
    888  C2'      -17.6170    8.0370   43.5770 C.3    46  C46         0.2338
    889  O2'      -17.5450    6.6300   43.7120 O.3    46  C46        -0.2155
    890  C1'      -16.7780    8.5400   42.3980 C.3    46  C46         0.2421
    891   N.1     -16.1640    9.8440   42.7010 N.ar   46  C46        -0.2535
    892   C.2     -14.9170    9.8710   43.3390 C.ar   46  C46         0.3532
    893   O.2     -14.3530    8.7970   43.5980 O.2    46  C46        -0.2443
    894   N.3     -14.3600   11.0630   43.6550 N.ar   46  C46        -0.1739
    895   C4      -14.9980   12.1950   43.3540 C.ar   46  C46         0.1759
    896   N.4     -14.4180   13.3480   43.6910 N.pl3  46  C46        -0.1070
    897   C5      -16.2610   12.1970   42.6920 C.ar   46  C46         0.0566
    898   C6      -16.8010   11.0110   42.3860 C.ar   46  C46         0.0850
@<TRIPOS>BOND
     1   341   340   ar
     2   341   342   ar
     3   340   338   ar
     4   342   343   ar
     5   451   450    1
     6   318   319   ar
     7   318   316   ar
     8   447   446    1
     9   368   367    2
    10   388   387    2
    11   432   430    2
    12   345   344    2
    13   467   466    2
    14   464   463   ar
    15   464   465   ar
    16   319   320   ar
    17   338   339    1
    18   338   337   ar
    19   409   407    2
    20   343   337   ar
    21   343   334   ar
    22   408   407    1
    23   389   387    1
    24   438   437    1
    25   463   462   ar
    26   446   448   ar
    27   446   445   ar
    28   317   316    1
    29   448   449   ar
    30   450   452    1
    31   450   453    1
    32   466   465   ar
    33   466   468   ar
    34   465   472   ar
    35   431   430    1
    36   316   315   ar
    37   387   390    1
    38   387   375    1
    39   369   367    1
    40   337   336   ar
    41   430   433    1
    42   430   415    1
    43   407   395    1
    44   407   410    1
    45   328   333    1
    46   328   327    1
    47   367   352    1
    48   367   370    1
    49   445   443   ar
    50   333   334    1
    51   333   331    1
    52   456   461    1
    53   456   455    1
    54   437   439    1
    55   437   435    1
    56   449   442   ar
    57   330   344    1
    58   330   329    1
    59   462   472   ar
    60   462   461    1
    61   433   434    1
    62   320   321   ar
    63   334   335   ar
    64   390   391    1
    65   468   469   ar
    66   344   346    1
    67   344   347    1
    68   472   471   ar
    69   453   454    1
    70   439   440    1
    71   439   441    1
    72   454   455    1
    73   352   351    1
    74   443   442   ar
    75   443   444    2
    76   461   459    1
    77   442   441    1
    78   348   347    1
    79   348   349    1
    80   327   329    1
    81   327   326    1
    82   395   394    1
    83   410   411    1
    84   332   331    1
    85   469   471   ar
    86   469   470    1
    87   315   321   ar
    88   315   314   ar
    89   391   392    1
    90   455   457    1
    91   375   374    1
    92   370   371    1
    93   329   331    1
    94   321   312   ar
    95   434   435    1
    96   336   335   ar
    97   415   414    1
    98   435   436    1
    99   441   436    1
   100   394   392    1
   101   394   396    1
   102   371   372    1
   103   349   351    1
   104   349   350    1
   105   421   420   ar
   106   421   422   ar
   107   424   423    2
   108   351   353    1
   109   411   412    1
   110   414   412    1
   111   414   416    1
   112   326   325    1
   113   374   372    1
   114   374   376    1
   115   392   393    1
   116   420   419   ar
   117   459   457    1
   118   459   460    1
   119   314   313   ar
   120   405   406   ar
   121   405   403   ar
   122   490   489    1
   123   457   458    1
   124   423   422   ar
   125   423   425   ar
   126   422   429   ar
   127   406   399   ar
   128   372   373    1
   129   312   313   ar
   130   312   311    1
   131   412   413    1
   132   310   309    1
   133   396   398    1
   134   396   397    1
   135   416   418    1
   136   416   417    1
   137   393   398    1
   138   419   429   ar
   139   419   418    1
   140   325   322    1
   141   350   355    1
   142   354   353    1
   143   489   491   ar
   144   489   488   ar
   145   353   355    1
   146   311   309    1
   147   311   306    1
   148   404   403    1
   149   425   426   ar
   150   429   428   ar
   151   403   402   ar
   152   376   377    1
   153   376   378    1
   154   399   398    1
   155   399   400   ar
   156   491   492   ar
   157   458   473    1
   158   413   418    1
   159   488   486   ar
   160   386   385   ar
   161   386   379   ar
   162   373   378    1
   163   385   383   ar
   164   309   307    1
   165   426   428   ar
   166   426   427    1
   167   355   356    1
   168   402   400   ar
   169   492   485   ar
   170   400   401    2
   171   306   305    1
   172   378   379    1
   173   379   380   ar
   174   510   509    2
   175   308   322    1
   176   308   307    1
   177   486   485   ar
   178   486   487    2
   179   322   323    2
   180   322   324    1
   181   357   356   ar
   182   357   358   ar
   183   383   384    2
   184   383   382   ar
   185   485   484    1
   186   356   366   ar
   187   475   473    2
   188   307   305    1
   189   473   476    1
   190   473   474    1
   191   380   382   ar
   192   380   381    2
   193   509   511   ar
   194   509   508   ar
   195   479   484    1
   196   479   478    1
   197   511   512   ar
   198   476   477    1
   199   358   359   ar
   200   305   304    1
   201   484   482    1
   202   366   359   ar
   203   366   365   ar
   204   359   360   ar
   205   508   507   ar
   206   508   515   ar
   207   477   478    1
   208   513   512    1
   209   365   363   ar
   210   512   514   ar
   211   507   506   ar
   212   478   480    1
   213   304   303    1
   214   515   514   ar
   215   515   505   ar
   216   360   361    2
   217   360   362   ar
   218   363   362   ar
   219   363   364    1
   220   533   532    2
   221   506   505   ar
   222   482   480    1
   223   482   483    1
   224   480   481    1
   225   505   504    1
   226   531   532   ar
   227   531   529   ar
   228   532   534   ar
   229   303   300    1
   230   530   529    2
   231   576   575    1
   232   529   528   ar
   233   504   499    1
   234   504   502    1
   235   534   535   ar
   236   550   549    2
   237   301   300    2
   238   481   493    1
   239   499   498    1
   240   551   549   ar
   241   551   552   ar
   242   495   493    2
   243   553   552    1
   244   575   577   ar
   245   575   574   ar
   246   300   302    1
   247   300   286    1
   248   528   535   ar
   249   528   527    1
   250   549   548   ar
   251   552   554   ar
   252   577   578   ar
   253   574   572   ar
   254   493   496    1
   255   493   494    1
   256   502   503    1
   257   502   500    1
   258   496   497    1
   259   527   522    1
   260   527   525    1
   261   548   547    1
   262   548   555   ar
   263   498   497    1
   264   498   500    1
   265   578   568   ar
   266   578   571   ar
   267   554   555   ar
   268   286   285    1
   269   567   568    1
   270   567   562    1
   271   567   565    1
   272   566   565    1
   273   572   571   ar
   274   572   573    2
   275   547   542    1
   276   547   545    1
   277   522   521    1
   278   500   501    1
   279   568   569   ar
   280   562   561    1
   281   571   570   ar
   282   565   563    1
   283   525   526    1
   284   525   523    1
   285   546   545    1
   286   288   287    1
   287   585   590    1
   288   585   584    1
   289   542   541    1
   290   285   287    1
   291   285   283    1
   292   545   543    1
   293   589   588    1
   294   287   289    1
   295   590   591    1
   296   590   588    1
   297   569   570   ar
   298   593   592    2
   299   561   563    1
   300   561   560    1
   301   501   516    1
   302   521   523    1
   303   521   520    1
   304   518   516    2
   305   584   583    1
   306   584   586    1
   307   591   592   ar
   308   591   598   ar
   309   592   594   ar
   310   519   520    1
   311   519   516    1
   312   523   524    1
   313   588   586    1
   314   563   564    1
   315   541   543    1
   316   541   540    1
   317   516   517    1
   318   283   282    1
   319   283   284    1
   320   583   582    1
   321   598   597   ar
   322   594   595   ar
   323   560   559    1
   324   543   544    1
   325   281   282    1
   326   281   278    1
   327   289   290    1
   328   289   284    1
   329   564   579    1
   330   298   297   ar
   331   298   299   ar
   332   297   296   ar
   333   586   587    1
   334   290   299   ar
   335   290   291   ar
   336   299   293   ar
   337   296   294   ar
   338   597   595   ar
   339   595   596    2
   340   294   293   ar
   341   294   295    1
   342   293   292   ar
   343   279   278    2
   344   291   292   ar
   345   559   556    1
   346   582   579    1
   347   587   599    1
   348   524   536    1
   349   540   539    1
   350   539   536    1
   351   278   280    1
   352   278   264    1
   353   544   556    1
   354   538   536    2
   355   605   604    1
   356   605   610    1
   357   579   580    2
   358   579   581    1
   359   536   537    1
   360   603   604    1
   361   603   602    1
   362   556   558    2
   363   556   557    1
   364   604   606    1
   365   610   611    1
   366   610   608    1
   367   599   600    2
   368   599   602    1
   369   599   601    1
   370   264   263    1
   371   611   618   ar
   372   611   612   ar
   373   618   617   ar
   374   613   612    2
   375   612   614   ar
   376   617   615   ar
   377   609   608    1
   378   614   615   ar
   379   615   616    2
   380   608   606    1
   381   263   265    1
   382   263   261    1
   383   265   266    1
   384   265   267    1
   385   606   607    1
   386   274   275   ar
   387   274   272   ar
   388   273   272    1
   389   275   276   ar
   390   272   271   ar
   391   276   277   ar
   392   271   277   ar
   393   271   270   ar
   394   607   619    1
   395   277   268   ar
   396   270   269   ar
   397   268   269   ar
   398   268   267    1
   399   258   256    2
   400   267   262    1
   401   261   260    1
   402   261   262    1
   403   259   260    1
   404   259   256    1
   405   257   256    1
   406   256   241    1
   407   625   630    1
   408   625   624    1
   409   619   621    2
   410   619   620    1
   411   619   622    1
   412   637   638   ar
   413   637   635   ar
   414   638   631   ar
   415   623   622    1
   416   623   624    1
   417   631   630    1
   418   631   632   ar
   419   635   636    1
   420   635   634   ar
   421   630   628    1
   422   632   634   ar
   423   632   633    2
   424   624   626    1
   425   250   249    2
   426   241   240    1
   427   249   251   ar
   428   249   248   ar
   429   251   252   ar
   430   235   233    2
   431   248   247   ar
   432   248   255   ar
   433   240   242    1
   434   240   238    1
   435   247   246   ar
   436   252   253    1
   437   252   254   ar
   438   242   243    1
   439   242   244    1
   440   628   626    1
   441   628   629    1
   442   255   254   ar
   443   255   245   ar
   444   626   627    1
   445   246   245   ar
   446   234   233    1
   447   233   236    1
   448   233   218    1
   449   236   237    1
   450   245   244    1
   451   244   239    1
   452   212   210    2
   453   238   237    1
   454   238   239    1
   455   171   170    2
   456   627   639    1
   457   211   210    1
   458   151   150    2
   459   192   190    2
   460   227   226    2
   461   191   190    1
   462   656   655    1
   463   172   170    1
   464   210   213    1
   465   210   198    1
   466   657   655   ar
   467   657   658   ar
   468   218   217    1
   469   655   654   ar
   470   213   214    1
   471   226   225   ar
   472   226   228   ar
   473   658   651   ar
   474   170   173    1
   475   170   158    1
   476   224   225   ar
   477   224   223   ar
   478   131   130    2
   479   190   193    1
   480   190   178    1
   481   654   652   ar
   482   217   219    1
   483   217   215    1
   484   645   650    1
   485   645   644    1
   486   152   150    1
   487   225   232   ar
   488   641   639    2
   489   651   652   ar
   490   651   650    1
   491   228   229   ar
   492   150   138    1
   493   150   153    1
   494   652   653    2
   495   639   642    1
   496   639   640    1
   497   223   222   ar
   498   650   648    1
   499   173   174    1
   500   219   220    1
   501   219   221    1
   502   193   194    1
   503   214   215    1
   504   232   222   ar
   505   232   231   ar
   506   229   230    1
   507   229   231   ar
   508   642   643    1
   509   158   157    1
   510   222   221    1
   511   198   197    1
   512   178   177    1
   513   643   644    1
   514   215   216    1
   515   138   137    1
   516   153   154    1
   517   174   175    1
   518   644   646    1
   519   130   132    1
   520   130   133    1
   521   130   115    1
   522   154   155    1
   523   194   195    1
   524   108   107    2
   525   221   216    1
   526   197   195    1
   527   197   199    1
   528   177   175    1
   529   177   179    1
   530   208   209   ar
   531   208   206   ar
   532   207   206    1
   533   134   133    1
   534   134   135    1
   535   157   155    1
   536   157   159    1
   537   648   649    1
   538   648   646    1
   539   115   114    1
   540   209   202   ar
   541   206   205   ar
   542   175   176    1
   543   155   156    1
   544   137   135    1
   545   137   139    1
   546   195   196    1
   547   646   647    1
   548   676   675    2
   549   188   189   ar
   550   188   186   ar
   551   135   136    1
   552   199   201    1
   553   199   200    1
   554   189   182   ar
   555   111   110    1
   556   111   112    1
   557   205   203   ar
   558   202   203   ar
   559   202   201    1
   560   107   110    1
   561   107    95    1
   562   107   109    1
   563   179   180    1
   564   179   181    1
   565   675   674   ar
   566   675   677   ar
   567   673   674   ar
   568   673   672   ar
   569   159   160    1
   570   159   161    1
   571   187   186    1
   572   196   201    1
   573   176   181    1
   574   674   681   ar
   575   186   185   ar
   576   203   204    2
   577   114   112    1
   578   114   116    1
   579   677   678   ar
   580   169   168   ar
   581   169   162   ar
   582   156   161    1
   583   139   140    1
   584   139   141    1
   585   168   166   ar
   586   112   113    1
   587   647   659    1
   588    95    94    1
   589   672   671   ar
   590   182   181    1
   591   182   183   ar
   592   681   671   ar
   593   681   680   ar
   594   136   141    1
   595   678   680   ar
   596   678   679    1
   597   161   162    1
   598   671   670    1
   599   117   116    1
   600   185   183   ar
   601   162   163   ar
   602   183   184    2
   603   166   167    2
   604   166   165   ar
   605   116   118    1
   606   665   670    1
   607   665   664    1
   608   141   142    1
   609   661   659    2
   610   699   698    2
   611   670   668    1
   612   149   142   ar
   613   149   148   ar
   614    97    96    1
   615   659   662    1
   616   659   660    1
   617    94    92    1
   618    94    96    1
   619    88    87    2
   620   113   118    1
   621   163   165   ar
   622   163   164    2
   623   142   143   ar
   624   148   146   ar
   625   662   663    1
   626   698   700   ar
   627   698   697   ar
   628   700   701   ar
   629    92    91    1
   630    92    93    1
   631    91    90    1
   632    96    98    1
   633   118   119    1
   634   663   664    1
   635   664   666    1
   636   702   701    1
   637   701   703   ar
   638   697   696   ar
   639   697   704   ar
   640   143   144    2
   641   143   145   ar
   642   146   145   ar
   643   146   147    2
   644   696   695   ar
   645   668   669    1
   646   668   666    1
   647    90    87    1
   648    87    75    1
   649    87    89    1
   650   119   120   ar
   651   119   129   ar
   652   120   121   ar
   653   704   703   ar
   654   704   694   ar
   655    93    98    1
   656   666   667    1
   657   722   721    1
   658   723   721   ar
   659   723   724   ar
   660    98    99    1
   661   695   694   ar
   662   694   693    1
   663    75    74    1
   664   721   720   ar
   665   724   725   ar
   666   121   122   ar
   667   129   128   ar
   668   129   122   ar
   669    77    76    1
   670   128   126   ar
   671   693   688    1
   672   693   691    1
   673   122   123   ar
   674    99   106   ar
   675    99   100   ar
   676   101   100    2
   677   688   687    1
   678   725   726   ar
   679   720   726   ar
   680   720   719   ar
   681   667   682    1
   682   745   746   ar
   683   745   743   ar
   684   746   747   ar
   685   106   105   ar
   686   726   717   ar
   687   100   102   ar
   688    74    76    1
   689    74    72    1
   690    76    78    1
   691   719   718   ar
   692   126   127    1
   693   126   125   ar
   694   684   682    2
   695   123   125   ar
   696   123   124    2
   697   747   748   ar
   698   743   744    1
   699   743   742   ar
   700   813   812    1
   701   717   718   ar
   702   717   716    1
   703    72    71    1
   704    72    73    1
   705   691   692    1
   706   691   689    1
   707   682   685    1
   708   682   683    1
   709   105   103   ar
   710   102   103   ar
   711   687   686    1
   712   687   689    1
   713   685   686    1
   714   748   742   ar
   715   748   739   ar
   716   103   104    1
   717    71    70    1
   718   716   711    1
   719   716   714    1
   720   742   741   ar
   721    78    73    1
   722    78    79    1
   723   812   811   ar
   724   812   814   ar
   725    81    80    2
   726   689   690    1
   727    68    67    2
   728   711   710    1
   729   826   825    1
   730   811   809   ar
   731   814   815   ar
   732   830   829    2
   733    70    67    1
   734   739   738    1
   735   739   740   ar
   736    80    79   ar
   737    80    82   ar
   738   741   740   ar
   739    79    86   ar
   740   827   822    1
   741   827   825    1
   742   827   828    1
   743   822   821    1
   744   738   733    1
   745   738   736    1
   746   714   715    1
   747   714   712    1
   748    67    69    1
   749    67    52    1
   750   809   810    2
   751   809   808   ar
   752   815   808   ar
   753   815   805   ar
   754   825   823    1
   755   829   828   ar
   756   829   831   ar
   757   842   841    1
   758   842   847    1
   759   690   705    1
   760    82    83   ar
   761   821   823    1
   762   821   820    1
   763   733   732    1
   764   828   835   ar
   765    86    85   ar
   766   710   712    1
   767   710   709    1
   768   808   807   ar
   769   846   845    1
   770   803   802    1
   771   804   805    1
   772   804   802    1
   773   804   799    1
   774   841   840    1
   775   841   843    1
   776   847   845    1
   777   847   848    1
   778   805   806   ar
   779   737   736    1
   780   708   709    1
   781   708   705    1
   782   736   734    1
   783   840   839    1
   784   712   713    1
   785   831   832   ar
   786   707   705    2
   787   823   824    1
   788    83    85   ar
   789    83    84    2
   790   802   800    1
   791   820   819    1
   792    52    51    1
   793   835   834   ar
   794   850   849    2
   795   705   706    1
   796   824   836    1
   797   807   806   ar
   798   845   843    1
   799    54    53    1
   800   788   787    1
   801   799   798    1
   802   848   849   ar
   803   848   855   ar
   804   732   734    1
   805   732   731    1
   806   849   851   ar
   807   832   834   ar
   808   832   833    2
   809   843   844    1
   810   844   856    1
   811   839   836    1
   812    64    63    1
   813   734   735    1
   814   855   854   ar
   815    53    51    1
   816    53    55    1
   817   819   816    1
   818   713   727    1
   819   837   836    2
   820    51    49    1
   821   731   730    1
   822   836   838    1
   823   730   727    1
   824   862   861    1
   825   862   867    1
   826   800   798    1
   827   800   801    1
   828   851   852   ar
   829   787   786   ar
   830   787   789   ar
   831   798   797    1
   832   785   786   ar
   833   785   784   ar
   834   860   861    1
   835   860   859    1
   836    63    65   ar
   837    63    62   ar
   838   861   863    1
   839   854   852   ar
   840    65    66   ar
   841   773   771    2
   842   735   749    1
   843   801   816    1
   844   729   727    2
   845   852   853    1
   846   727   728    1
   847   786   792   ar
   848   857   856    2
   849   789   790   ar
   850   867   868    1
   851   867   865    1
   852   856   859    1
   853   856   858    1
   854    49    48    1
   855    49    50    1
   856   816   817    2
   857   816   818    1
   858    62    60   ar
   859   763   762   ar
   860   763   764   ar
   861    55    56    1
   862    55    50    1
   863   784   783   ar
   864    66    56   ar
   865    66    59   ar
   866   797   796    1
   867   762   761   ar
   868   866   865    1
   869   796   793    1
   870   753   752    1
   871   753   754    1
   872   751   749    2
   873   868   869   ar
   874   868   878   ar
   875    56    57   ar
   876   766   765    1
   877   869   870   ar
   878    48    47    1
   879   749   752    1
   880   749   750    1
   881   865   863    1
   882   863   864    1
   883    60    59   ar
   884    60    61    2
   885   792   783   ar
   886   792   791   ar
   887   771   772    1
   888   771   774    1
   889   771   757    1
   890    59    58   ar
   891   790   791   ar
   892    47    44    1
   893   783   782    1
   894   764   765   ar
   895   764   770   ar
   896   864   879    1
   897   878   877   ar
   898   878   871   ar
   899   756   754    1
   900   756   757    1
   901   756   758    1
   902   870   871   ar
   903   774   775    1
   904    57    58   ar
   905   877   875   ar
   906   765   767   ar
   907   754   755    1
   908   795   793    2
   909   761   770   ar
   910   761   760    1
   911   793   779    1
   912   793   794    1
   913   871   872   ar
   914    45    44    2
   915   755   760    1
   916   778   780    1
   917   778   779    1
   918   778   776    1
   919   780   782    1
   920   780   781    1
   921   770   769   ar
   922    44    46    1
   923    44    32    1
   924   875   876    1
   925   875   874   ar
   926   782   777    1
   927   760   758    1
   928   758   759    1
   929   872   874   ar
   930   872   873    2
   931   767   768   ar
   932   775   776    1
   933   879   880    2
   934   879   881    1
   935   879   882    1
   936   777   776    1
   937   883   882    1
   938   883   884    1
   939   769   768   ar
   940   885   884    1
   941   885   890    1
   942    32    31    1
   943    34    33    1
   944   884   886    1
   945    33    31    1
   946    33    35    1
   947    38    37    2
   948    31    29    1
   949    39    37   ar
   950    39    40   ar
   951   898   897   ar
   952   898   891   ar
   953    37    36   ar
   954   890   891    1
   955   890   888    1
   956    41    40    1
   957    40    42   ar
   958   897   895   ar
   959   891   892   ar
   960    36    35    1
   961    36    43   ar
   962    35    30    1
   963   886   888    1
   964   886   887    1
   965    42    43   ar
   966   892   893    2
   967   892   894   ar
   968   895   894   ar
   969   895   896    1
   970   888   889    1
   971    29    30    1
   972    29    28    1
   973    26    24    2
   974    27    28    1
   975    27    24    1
   976    25    24    1
   977    24     9    1
   978    21    20    1
   979    19    20   ar
   980    19    17   ar
   981    18    17    2
   982    20    22   ar
   983    17    16   ar
   984     9     8    1
   985    22    23   ar
   986    16    23   ar
   987    16    15   ar
   988    23    13   ar
   989     8    10    1
   990     8     6    1
   991    10    11    1
   992    10    12    1
   993    15    14   ar
   994     3     1    1
   995    13    14   ar
   996    13    12    1
   997     4     1    1
   998     4     5    1
   999    12     7    1
  1000     6     5    1
  1001     6     7    1
  1002     1     2    1
