ligand
  PyMOL2.2          3D                             0

 17 18  0  0  0  0  0  0  0  0999 V2000
   -2.4380    5.9710   23.7220 N   0  0  0  0  0  0  0  0  0  0  0  0
   -2.3080    6.6190   24.9570 C   0  0  0  0  0  0  0  0  0  0  0  0
   -3.3980    6.5970   25.8890 N   0  0  0  0  0  0  0  0  0  0  0  0
   -1.1470    7.2750   25.3050 N   0  0  0  0  0  0  0  0  0  0  0  0
   -0.0710    7.3210   24.4430 C   0  0  0  0  0  0  0  0  0  0  0  0
   -0.1500    6.6820   23.1660 C   0  0  0  0  0  0  0  0  0  0  0  0
    0.9450    7.9060   24.7670 O   0  0  0  0  0  0  0  0  0  0  0  0
    0.9660    6.7130   22.2240 N   0  0  0  0  0  0  0  0  0  0  0  0
    0.9210    5.9080   21.0560 C   0  0  0  0  0  0  0  0  0  0  0  0
   -0.5180    5.6480   20.5360 C   0  0  0  0  0  0  0  0  0  0  0  0
   -1.3590    6.0030   22.8270 C   0  0  0  0  0  0  0  0  0  0  0  0
   -1.4630    5.3340   21.5170 N   0  0  0  0  0  0  0  0  0  0  0  0
    1.7040    4.6370   21.3300 C   0  0  0  0  0  0  0  0  0  0  0  0
    0.9420    3.5240   21.0350 O   0  0  0  0  0  0  0  0  0  0  0  0
    2.9760    4.6270   20.5360 C   0  0  0  0  0  0  0  0  0  0  0  0
    3.0230    5.6770   19.7040 O   0  0  0  0  0  0  0  0  0  0  0  0
    4.2100    4.6910   21.4610 C   0  0  0  0  0  0  0  0  0  0  0  0
  1  2  4  0  0  0  0
  1 11  4  0  0  0  0
  2  3  1  0  0  0  0
  2  4  4  0  0  0  0
  4  5  4  0  0  0  0
  5  6  4  0  0  0  0
  5  7  2  0  0  0  0
  6  8  1  0  0  0  0
  6 11  4  0  0  0  0
  8  9  1  0  0  0  0
  9 10  1  0  0  0  0
  9 13  1  0  0  0  0
 11 12  1  0  0  0  0
 10 12  1  0  0  0  0
 13 14  1  0  0  0  0
 13 15  1  0  0  0  0
 15 16  1  0  0  0  0
 15 17  1  0  0  0  0
M  END
$$$$
