ligand
 OpenBabel11021811503D
libRbt.so/2013.1/901 2013/11/27
 17 18  0  0  0  0  0  0  0  0999 V2000
   -2.5575    6.0038   23.7125 N   0  0  0  0  0  0  0  0  0  0  0  0
   -2.5375    6.7578   24.8928 C   0  0  0  0  0  0  0  0  0  0  0  0
   -3.6713    6.7332   25.7709 N   0  0  0  0  0  0  0  0  0  0  0  0
   -1.4437    7.5218   25.2383 N   0  0  0  0  0  0  0  0  0  0  0  0
   -0.3291    7.5749   24.4273 C   0  0  0  0  0  0  0  0  0  0  0  0
   -0.2968    6.8301   23.2068 C   0  0  0  0  0  0  0  0  0  0  0  0
    0.6262    8.2559   24.7481 O   0  0  0  0  0  0  0  0  0  0  0  0
    0.8629    6.8647   22.3193 N   0  0  0  0  0  0  0  0  0  0  0  0
    0.9346    5.9662   21.2230 C   0  0  2  0  0  0  0  0  0  0  0  0
   -0.4538    5.5619   20.6596 C   0  0  0  0  0  0  0  0  0  0  0  0
   -1.4373    6.0405   22.8699 C   0  0  0  0  0  0  0  0  0  0  0  0
   -1.4260    5.2615   21.6180 N   0  0  0  0  0  0  0  0  0  0  0  0
    1.7864    4.7814   21.6405 C   0  0  1  0  0  0  0  0  0  0  0  0
    0.9919    3.7507   22.1017 O   0  0  0  0  0  0  0  0  0  0  0  0
    2.6328    4.3178   20.4928 C   0  0  1  0  0  0  0  0  0  0  0  0
    1.8983    4.2083   19.3768 O   0  0  0  0  0  0  0  0  0  0  0  0
    3.7844    5.3073   20.2151 C   0  0  0  0  0  0  0  0  0  0  0  0
  1  2  2  0  0  0  0
  1 11  1  0  0  0  0
  2  3  1  0  0  0  0
  2  4  1  0  0  0  0
  4  5  1  0  0  0  0
  5  6  1  0  0  0  0
  5  7  2  0  0  0  0
  6  8  1  0  0  0  0
  6 11  2  0  0  0  0
  9  8  1  1  0  0  0
  9 10  1  0  0  0  0
  9 13  1  0  0  0  0
 10 12  1  0  0  0  0
 11 12  1  0  0  0  0
 13 14  1  6  0  0  0
 13 15  1  0  0  0  0
 15 16  1  6  0  0  0
 15 17  1  0  0  0  0
M  END
>  <CHROM.1>
94.92520096,-47.24703899,0.02510720,5.95112887,22.57087661,2.31056691,0.27891574
0.83877626

>  <Name>
ligand

>  <RI>
0

>  <Rbt.Current_Directory>
/home/itssahil/PROJECTS/Mol_Feturizer/New_Systems/rnas/4LVX

>  <Rbt.Executable>
rbdock ($Id: //depot/dev/client3/rdock/2013.1/src/exe/rbdock.cxx#4 $)

>  <Rbt.Library>
libRbt.so (2013.1, Build901 2013/11/27)

>  <Rbt.Parameter_File>
/export/apps/rDock/src/rDock_2013.1_src/data/scripts/dock_solv.prm

>  <Rbt.Receptor>
prm/pocket_docking_2.prm

>  <SCORE>
-13.3145

>  <SCORE.INTER>
-8.61512

>  <SCORE.INTER.CONST>
1

>  <SCORE.INTER.POLAR>
0

>  <SCORE.INTER.ROT>
2

>  <SCORE.INTER.SOLV>
23.2999

>  <SCORE.INTER.VDW>
-18.4434

>  <SCORE.INTER.norm>
-0.506772

>  <SCORE.INTRA>
-4.70201

>  <SCORE.INTRA.DIHEDRAL>
-6.41331

>  <SCORE.INTRA.DIHEDRAL.0>
10.3255

>  <SCORE.INTRA.POLAR>
0

>  <SCORE.INTRA.POLAR.0>
0

>  <SCORE.INTRA.REPUL>
0

>  <SCORE.INTRA.REPUL.0>
0

>  <SCORE.INTRA.SOLV>
0.185745

>  <SCORE.INTRA.SOLV.lig_0>
-53.4755

>  <SCORE.INTRA.VDW>
-1.58823

>  <SCORE.INTRA.VDW.0>
2.32763

>  <SCORE.INTRA.norm>
-0.276589

>  <SCORE.RESTR>
0.00264447

>  <SCORE.RESTR.CAVITY>
0.00264447

>  <SCORE.RESTR.norm>
0.000155557

>  <SCORE.SYSTEM>
0

>  <SCORE.SYSTEM.CONST>
0

>  <SCORE.SYSTEM.DIHEDRAL>
0

>  <SCORE.SYSTEM.SOLV>
0

>  <SCORE.SYSTEM.norm>
0

>  <SCORE.heavy>
17

>  <SCORE.norm>
-0.783205

>  <RMSD>
0.688

$$$$
ligand
 OpenBabel11021811503D
libRbt.so/2013.1/901 2013/11/27
 17 18  0  0  0  0  0  0  0  0999 V2000
   -2.7541    6.1011   23.8487 N   0  0  0  0  0  0  0  0  0  0  0  0
   -2.5989    6.7950   25.0555 C   0  0  0  0  0  0  0  0  0  0  0  0
   -3.7068    6.9038   25.9600 N   0  0  0  0  0  0  0  0  0  0  0  0
   -1.3967    7.3729   25.4021 N   0  0  0  0  0  0  0  0  0  0  0  0
   -0.3024    7.2924   24.5661 C   0  0  0  0  0  0  0  0  0  0  0  0
   -0.4051    6.6014   23.3182 C   0  0  0  0  0  0  0  0  0  0  0  0
    0.7501    7.8099   24.8883 O   0  0  0  0  0  0  0  0  0  0  0  0
    0.7296    6.4990   22.4040 N   0  0  0  0  0  0  0  0  0  0  0  0
    0.6451    5.6452   21.2734 C   0  0  2  0  0  0  0  0  0  0  0  0
   -0.7987    5.4754   20.7300 C   0  0  0  0  0  0  0  0  0  0  0  0
   -1.6572    6.0048   22.9805 C   0  0  0  0  0  0  0  0  0  0  0  0
   -1.7866    5.2844   21.7004 N   0  0  0  0  0  0  0  0  0  0  0  0
    1.3175    4.3308   21.6250 C   0  0  1  0  0  0  0  0  0  0  0  0
    1.1128    3.3984   20.6274 O   0  0  0  0  0  0  0  0  0  0  0  0
    2.7846    4.5406   21.8535 C   0  0  1  0  0  0  0  0  0  0  0  0
    3.3571    3.4194   22.3142 O   0  0  0  0  0  0  0  0  0  0  0  0
    3.4995    4.9432   20.5461 C   0  0  0  0  0  0  0  0  0  0  0  0
  1  2  2  0  0  0  0
  1 11  1  0  0  0  0
  2  3  1  0  0  0  0
  2  4  1  0  0  0  0
  4  5  1  0  0  0  0
  5  6  1  0  0  0  0
  5  7  2  0  0  0  0
  6  8  1  0  0  0  0
  6 11  2  0  0  0  0
  9  8  1  1  0  0  0
  9 10  1  0  0  0  0
  9 13  1  0  0  0  0
 10 12  1  0  0  0  0
 11 12  1  0  0  0  0
 13 14  1  6  0  0  0
 13 15  1  0  0  0  0
 15 16  1  6  0  0  0
 15 17  1  0  0  0  0
M  END
>  <CHROM.1>
172.11280304,172.84549632,0.00960500,5.74410144,22.84955508,2.35888221,-0.02893306
0.97321377

>  <Name>
ligand

>  <RI>
0

>  <Rbt.Current_Directory>
/home/itssahil/PROJECTS/Mol_Feturizer/New_Systems/rnas/4LVX

>  <Rbt.Executable>
rbdock ($Id: //depot/dev/client3/rdock/2013.1/src/exe/rbdock.cxx#4 $)

>  <Rbt.Library>
libRbt.so (2013.1, Build901 2013/11/27)

>  <Rbt.Parameter_File>
/export/apps/rDock/src/rDock_2013.1_src/data/scripts/dock_solv.prm

>  <Rbt.Receptor>
prm/pocket_docking_2.prm

>  <SCORE>
-14.7812

>  <SCORE.INTER>
-8.33881

>  <SCORE.INTER.CONST>
1

>  <SCORE.INTER.POLAR>
0

>  <SCORE.INTER.ROT>
2

>  <SCORE.INTER.SOLV>
24.6372

>  <SCORE.INTER.VDW>
-18.7049

>  <SCORE.INTER.norm>
-0.490518

>  <SCORE.INTRA>
-6.44235

>  <SCORE.INTRA.DIHEDRAL>
-9.7545

>  <SCORE.INTRA.DIHEDRAL.0>
10.3255

>  <SCORE.INTRA.POLAR>
0

>  <SCORE.INTRA.POLAR.0>
0

>  <SCORE.INTRA.REPUL>
0

>  <SCORE.INTRA.REPUL.0>
0

>  <SCORE.INTRA.SOLV>
-0.569237

>  <SCORE.INTRA.SOLV.lig_0>
-53.4755

>  <SCORE.INTRA.VDW>
-1.28048

>  <SCORE.INTRA.VDW.0>
2.32763

>  <SCORE.INTRA.norm>
-0.378962

>  <SCORE.RESTR>
0

>  <SCORE.RESTR.CAVITY>
0

>  <SCORE.RESTR.norm>
0

>  <SCORE.SYSTEM>
0

>  <SCORE.SYSTEM.CONST>
0

>  <SCORE.SYSTEM.DIHEDRAL>
0

>  <SCORE.SYSTEM.SOLV>
0

>  <SCORE.SYSTEM.norm>
0

>  <SCORE.heavy>
17

>  <SCORE.norm>
-0.86948

>  <RMSD>
0.701

$$$$
ligand
 OpenBabel11021811503D
libRbt.so/2013.1/901 2013/11/27
 17 18  0  0  0  0  0  0  0  0999 V2000
   -2.6235    5.9369   23.9604 N   0  0  0  0  0  0  0  0  0  0  0  0
   -2.6289    6.6882   25.1425 C   0  0  0  0  0  0  0  0  0  0  0  0
   -3.6675    6.4827   26.1102 N   0  0  0  0  0  0  0  0  0  0  0  0
   -1.6490    7.6211   25.4049 N   0  0  0  0  0  0  0  0  0  0  0  0
   -0.6285    7.8519   24.5059 C   0  0  0  0  0  0  0  0  0  0  0  0
   -0.5764    7.1180   23.2795 C   0  0  0  0  0  0  0  0  0  0  0  0
    0.2268    8.6804   24.7541 O   0  0  0  0  0  0  0  0  0  0  0  0
    0.4852    7.3376   22.3004 N   0  0  0  0  0  0  0  0  0  0  0  0
    0.6112    6.4589   21.1930 C   0  0  2  0  0  0  0  0  0  0  0  0
   -0.7348    5.8321   20.7412 C   0  0  0  0  0  0  0  0  0  0  0  0
   -1.5974    6.1523   23.0293 C   0  0  0  0  0  0  0  0  0  0  0  0
   -1.5630    5.3810   21.7730 N   0  0  0  0  0  0  0  0  0  0  0  0
    1.6755    5.4298   21.5276 C   0  0  1  0  0  0  0  0  0  0  0  0
    1.1053    4.3093   22.0982 O   0  0  0  0  0  0  0  0  0  0  0  0
    2.4454    5.0569   20.2960 C   0  0  1  0  0  0  0  0  0  0  0  0
    2.5815    6.1150   19.4843 O   0  0  0  0  0  0  0  0  0  0  0  0
    3.8555    4.5424   20.6557 C   0  0  0  0  0  0  0  0  0  0  0  0
  1  2  2  0  0  0  0
  1 11  1  0  0  0  0
  2  3  1  0  0  0  0
  2  4  1  0  0  0  0
  4  5  1  0  0  0  0
  5  6  1  0  0  0  0
  5  7  2  0  0  0  0
  6  8  1  0  0  0  0
  6 11  2  0  0  0  0
  9  8  1  1  0  0  0
  9 10  1  0  0  0  0
  9 13  1  0  0  0  0
 10 12  1  0  0  0  0
 11 12  1  0  0  0  0
 13 14  1  6  0  0  0
 13 15  1  0  0  0  0
 15 16  1  6  0  0  0
 15 17  1  0  0  0  0
M  END
>  <CHROM.1>
92.20757691,34.81381074,-0.08393946,6.27367779,22.67465694,2.40986648,0.39628835
0.79625971

>  <Name>
ligand

>  <RI>
0

>  <Rbt.Current_Directory>
/home/itssahil/PROJECTS/Mol_Feturizer/New_Systems/rnas/4LVX

>  <Rbt.Executable>
rbdock ($Id: //depot/dev/client3/rdock/2013.1/src/exe/rbdock.cxx#4 $)

>  <Rbt.Library>
libRbt.so (2013.1, Build901 2013/11/27)

>  <Rbt.Parameter_File>
/export/apps/rDock/src/rDock_2013.1_src/data/scripts/dock_solv.prm

>  <Rbt.Receptor>
prm/pocket_docking_2.prm

>  <SCORE>
-11.0273

>  <SCORE.INTER>
-6.61557

>  <SCORE.INTER.CONST>
1

>  <SCORE.INTER.POLAR>
0

>  <SCORE.INTER.ROT>
2

>  <SCORE.INTER.SOLV>
22.2762

>  <SCORE.INTER.VDW>
-16.7691

>  <SCORE.INTER.norm>
-0.389151

>  <SCORE.INTRA>
-4.44358

>  <SCORE.INTRA.DIHEDRAL>
-5.28261

>  <SCORE.INTRA.DIHEDRAL.0>
10.3255

>  <SCORE.INTRA.POLAR>
0

>  <SCORE.INTRA.POLAR.0>
0

>  <SCORE.INTRA.REPUL>
0

>  <SCORE.INTRA.REPUL.0>
0

>  <SCORE.INTRA.SOLV>
-0.134909

>  <SCORE.INTRA.SOLV.lig_0>
-53.4755

>  <SCORE.INTRA.VDW>
-1.73482

>  <SCORE.INTRA.VDW.0>
2.32763

>  <SCORE.INTRA.norm>
-0.261387

>  <SCORE.RESTR>
0.0318973

>  <SCORE.RESTR.CAVITY>
0.0318973

>  <SCORE.RESTR.norm>
0.00187631

>  <SCORE.SYSTEM>
0

>  <SCORE.SYSTEM.CONST>
0

>  <SCORE.SYSTEM.DIHEDRAL>
0

>  <SCORE.SYSTEM.SOLV>
0

>  <SCORE.SYSTEM.norm>
0

>  <SCORE.heavy>
17

>  <SCORE.norm>
-0.648662

>  <RMSD>
0.703

$$$$
ligand
 OpenBabel11021811503D
libRbt.so/2013.1/901 2013/11/27
 17 18  0  0  0  0  0  0  0  0999 V2000
   -2.4521    5.9457   23.7249 N   0  0  0  0  0  0  0  0  0  0  0  0
   -2.4292    6.7132   24.8964 C   0  0  0  0  0  0  0  0  0  0  0  0
   -3.5415    6.6626   25.8006 N   0  0  0  0  0  0  0  0  0  0  0  0
   -1.3529    7.5153   25.2085 N   0  0  0  0  0  0  0  0  0  0  0  0
   -0.2593    7.5946   24.3714 C   0  0  0  0  0  0  0  0  0  0  0  0
   -0.2309    6.8375   23.1584 C   0  0  0  0  0  0  0  0  0  0  0  0
    0.6809    8.3091   24.6628 O   0  0  0  0  0  0  0  0  0  0  0  0
    0.9066    6.8988   22.2440 N   0  0  0  0  0  0  0  0  0  0  0  0
    0.9820    5.9908   21.1559 C   0  0  2  0  0  0  0  0  0  0  0  0
   -0.4053    5.5363   20.6290 C   0  0  0  0  0  0  0  0  0  0  0  0
   -1.3530    6.0084   22.8563 C   0  0  0  0  0  0  0  0  0  0  0  0
   -1.3454    5.2160   21.6127 N   0  0  0  0  0  0  0  0  0  0  0  0
    1.8804    4.8384   21.5660 C   0  0  1  0  0  0  0  0  0  0  0  0
    1.1334    3.8043   22.0943 O   0  0  0  0  0  0  0  0  0  0  0  0
    2.6825    4.3596   20.3929 C   0  0  1  0  0  0  0  0  0  0  0  0
    1.8997    4.2049   19.3158 O   0  0  0  0  0  0  0  0  0  0  0  0
    3.7992    5.3634   20.0354 C   0  0  0  0  0  0  0  0  0  0  0  0
  1  2  2  0  0  0  0
  1 11  1  0  0  0  0
  2  3  1  0  0  0  0
  2  4  1  0  0  0  0
  4  5  1  0  0  0  0
  5  6  1  0  0  0  0
  5  7  2  0  0  0  0
  6  8  1  0  0  0  0
  6 11  2  0  0  0  0
  9  8  1  1  0  0  0
  9 10  1  0  0  0  0
  9 13  1  0  0  0  0
 10 12  1  0  0  0  0
 11 12  1  0  0  0  0
 13 14  1  6  0  0  0
 13 15  1  0  0  0  0
 15 16  1  6  0  0  0
 15 17  1  0  0  0  0
M  END
>  <CHROM.1>
93.09025698,-47.03027080,0.09686831,5.95581241,22.52363460,2.30922229,0.31776118
0.82646954

>  <Name>
ligand

>  <RI>
0

>  <Rbt.Current_Directory>
/home/itssahil/PROJECTS/Mol_Feturizer/New_Systems/rnas/4LVX

>  <Rbt.Executable>
rbdock ($Id: //depot/dev/client3/rdock/2013.1/src/exe/rbdock.cxx#4 $)

>  <Rbt.Library>
libRbt.so (2013.1, Build901 2013/11/27)

>  <Rbt.Parameter_File>
/export/apps/rDock/src/rDock_2013.1_src/data/scripts/dock_solv.prm

>  <Rbt.Receptor>
prm/pocket_docking_2.prm

>  <SCORE>
-13.425

>  <SCORE.INTER>
-8.61239

>  <SCORE.INTER.CONST>
1

>  <SCORE.INTER.POLAR>
0

>  <SCORE.INTER.ROT>
2

>  <SCORE.INTER.SOLV>
22.9075

>  <SCORE.INTER.VDW>
-18.3107

>  <SCORE.INTER.norm>
-0.506611

>  <SCORE.INTRA>
-4.8129

>  <SCORE.INTRA.DIHEDRAL>
-6.63568

>  <SCORE.INTRA.DIHEDRAL.0>
10.3255

>  <SCORE.INTRA.POLAR>
0

>  <SCORE.INTRA.POLAR.0>
0

>  <SCORE.INTRA.REPUL>
0

>  <SCORE.INTRA.REPUL.0>
0

>  <SCORE.INTRA.SOLV>
0.21552

>  <SCORE.INTRA.SOLV.lig_0>
-53.4755

>  <SCORE.INTRA.VDW>
-1.60282

>  <SCORE.INTRA.VDW.0>
2.32763

>  <SCORE.INTRA.norm>
-0.283112

>  <SCORE.RESTR>
0.000276582

>  <SCORE.RESTR.CAVITY>
0.000276582

>  <SCORE.RESTR.norm>
1.62695e-05

>  <SCORE.SYSTEM>
0

>  <SCORE.SYSTEM.CONST>
0

>  <SCORE.SYSTEM.DIHEDRAL>
0

>  <SCORE.SYSTEM.SOLV>
0

>  <SCORE.SYSTEM.norm>
0

>  <SCORE.heavy>
17

>  <SCORE.norm>
-0.789706

>  <RMSD>
0.706

$$$$
ligand
 OpenBabel11021811503D
libRbt.so/2013.1/901 2013/11/27
 17 18  0  0  0  0  0  0  0  0999 V2000
   -2.4651    5.9267   23.7444 N   0  0  0  0  0  0  0  0  0  0  0  0
   -2.4415    6.7113   24.9045 C   0  0  0  0  0  0  0  0  0  0  0  0
   -3.5457    6.6613   25.8185 N   0  0  0  0  0  0  0  0  0  0  0  0
   -1.3719    7.5300   25.1961 N   0  0  0  0  0  0  0  0  0  0  0  0
   -0.2861    7.6095   24.3489 C   0  0  0  0  0  0  0  0  0  0  0  0
   -0.2589    6.8352   23.1468 C   0  0  0  0  0  0  0  0  0  0  0  0
    0.6482    8.3388   24.6222 O   0  0  0  0  0  0  0  0  0  0  0  0
    0.8704    6.8960   22.2222 N   0  0  0  0  0  0  0  0  0  0  0  0
    0.9473    5.9732   21.1467 C   0  0  2  0  0  0  0  0  0  0  0  0
   -0.4389    5.4954   20.6380 C   0  0  0  0  0  0  0  0  0  0  0  0
   -1.3738    5.9892   22.8660 C   0  0  0  0  0  0  0  0  0  0  0  0
   -1.3673    5.1789   21.6340 N   0  0  0  0  0  0  0  0  0  0  0  0
    1.8622    4.8370   21.5661 C   0  0  1  0  0  0  0  0  0  0  0  0
    1.1296    3.7950   22.0990 O   0  0  0  0  0  0  0  0  0  0  0  0
    2.6742    4.3634   20.3978 C   0  0  1  0  0  0  0  0  0  0  0  0
    1.9008    4.2143   19.3131 O   0  0  0  0  0  0  0  0  0  0  0  0
    3.7947    5.3681   20.0550 C   0  0  0  0  0  0  0  0  0  0  0  0
  1  2  2  0  0  0  0
  1 11  1  0  0  0  0
  2  3  1  0  0  0  0
  2  4  1  0  0  0  0
  4  5  1  0  0  0  0
  5  6  1  0  0  0  0
  5  7  2  0  0  0  0
  6  8  1  0  0  0  0
  6 11  2  0  0  0  0
  9  8  1  1  0  0  0
  9 10  1  0  0  0  0
  9 13  1  0  0  0  0
 10 12  1  0  0  0  0
 11 12  1  0  0  0  0
 13 14  1  6  0  0  0
 13 15  1  0  0  0  0
 15 16  1  6  0  0  0
 15 17  1  0  0  0  0
M  END
>  <CHROM.1>
93.89180265,-45.86850849,0.07858511,5.95170246,22.52319238,2.31442046,0.32901839
0.81351403

>  <Name>
ligand

>  <RI>
0

>  <Rbt.Current_Directory>
/home/itssahil/PROJECTS/Mol_Feturizer/New_Systems/rnas/4LVX

>  <Rbt.Executable>
rbdock ($Id: //depot/dev/client3/rdock/2013.1/src/exe/rbdock.cxx#4 $)

>  <Rbt.Library>
libRbt.so (2013.1, Build901 2013/11/27)

>  <Rbt.Parameter_File>
/export/apps/rDock/src/rDock_2013.1_src/data/scripts/dock_solv.prm

>  <Rbt.Receptor>
prm/pocket_docking_2.prm

>  <SCORE>
-13.4624

>  <SCORE.INTER>
-8.7517

>  <SCORE.INTER.CONST>
1

>  <SCORE.INTER.POLAR>
0

>  <SCORE.INTER.ROT>
2

>  <SCORE.INTER.SOLV>
22.9916

>  <SCORE.INTER.VDW>
-18.4317

>  <SCORE.INTER.norm>
-0.514806

>  <SCORE.INTRA>
-4.71066

>  <SCORE.INTRA.DIHEDRAL>
-6.42489

>  <SCORE.INTRA.DIHEDRAL.0>
10.3255

>  <SCORE.INTRA.POLAR>
0

>  <SCORE.INTRA.POLAR.0>
0

>  <SCORE.INTRA.REPUL>
0

>  <SCORE.INTRA.REPUL.0>
0

>  <SCORE.INTRA.SOLV>
0.2026

>  <SCORE.INTRA.SOLV.lig_0>
-53.4755

>  <SCORE.INTRA.VDW>
-1.59952

>  <SCORE.INTRA.VDW.0>
2.32763

>  <SCORE.INTRA.norm>
-0.277098

>  <SCORE.RESTR>
0

>  <SCORE.RESTR.CAVITY>
0

>  <SCORE.RESTR.norm>
0

>  <SCORE.SYSTEM>
0

>  <SCORE.SYSTEM.CONST>
0

>  <SCORE.SYSTEM.DIHEDRAL>
0

>  <SCORE.SYSTEM.SOLV>
0

>  <SCORE.SYSTEM.norm>
0

>  <SCORE.heavy>
17

>  <SCORE.norm>
-0.791904

>  <RMSD>
0.707

$$$$
ligand
 OpenBabel11021811503D
libRbt.so/2013.1/901 2013/11/27
 17 18  0  0  0  0  0  0  0  0999 V2000
   -2.4571    5.9196   23.7486 N   0  0  0  0  0  0  0  0  0  0  0  0
   -2.4326    6.7036   24.9091 C   0  0  0  0  0  0  0  0  0  0  0  0
   -3.5347    6.6506   25.8256 N   0  0  0  0  0  0  0  0  0  0  0  0
   -1.3641    7.5244   25.1987 N   0  0  0  0  0  0  0  0  0  0  0  0
   -0.2804    7.6067   24.3492 C   0  0  0  0  0  0  0  0  0  0  0  0
   -0.2543    6.8332   23.1465 C   0  0  0  0  0  0  0  0  0  0  0  0
    0.6529    8.3379   24.6208 O   0  0  0  0  0  0  0  0  0  0  0  0
    0.8728    6.8971   22.2195 N   0  0  0  0  0  0  0  0  0  0  0  0
    0.9493    5.9750   21.1433 C   0  0  2  0  0  0  0  0  0  0  0  0
   -0.4370    5.4946   20.6373 C   0  0  0  0  0  0  0  0  0  0  0  0
   -1.3680    5.9849   22.8678 C   0  0  0  0  0  0  0  0  0  0  0  0
   -1.3624    5.1754   21.6352 N   0  0  0  0  0  0  0  0  0  0  0  0
    1.8676    4.8406   21.5599 C   0  0  1  0  0  0  0  0  0  0  0  0
    1.1383    3.7960   22.0923 O   0  0  0  0  0  0  0  0  0  0  0  0
    2.6793    4.3706   20.3899 C   0  0  1  0  0  0  0  0  0  0  0  0
    1.9005    4.1963   19.3129 O   0  0  0  0  0  0  0  0  0  0  0  0
    3.7781    5.3926   20.0284 C   0  0  0  0  0  0  0  0  0  0  0  0
  1  2  2  0  0  0  0
  1 11  1  0  0  0  0
  2  3  1  0  0  0  0
  2  4  1  0  0  0  0
  4  5  1  0  0  0  0
  5  6  1  0  0  0  0
  5  7  2  0  0  0  0
  6  8  1  0  0  0  0
  6 11  2  0  0  0  0
  9  8  1  1  0  0  0
  9 10  1  0  0  0  0
  9 13  1  0  0  0  0
 10 12  1  0  0  0  0
 11 12  1  0  0  0  0
 13 14  1  6  0  0  0
 13 15  1  0  0  0  0
 15 16  1  6  0  0  0
 15 17  1  0  0  0  0
M  END
>  <CHROM.1>
93.96544404,-47.05796454,0.08253747,5.95029426,22.52097759,2.31386202,0.33468924
0.81214726

>  <Name>
ligand

>  <RI>
0

>  <Rbt.Current_Directory>
/home/itssahil/PROJECTS/Mol_Feturizer/New_Systems/rnas/4LVX

>  <Rbt.Executable>
rbdock ($Id: //depot/dev/client3/rdock/2013.1/src/exe/rbdock.cxx#4 $)

>  <Rbt.Library>
libRbt.so (2013.1, Build901 2013/11/27)

>  <Rbt.Parameter_File>
/export/apps/rDock/src/rDock_2013.1_src/data/scripts/dock_solv.prm

>  <Rbt.Receptor>
prm/pocket_docking_2.prm

>  <SCORE>
-13.4609

>  <SCORE.INTER>
-8.70277

>  <SCORE.INTER.CONST>
1

>  <SCORE.INTER.POLAR>
0

>  <SCORE.INTER.ROT>
2

>  <SCORE.INTER.SOLV>
22.9725

>  <SCORE.INTER.VDW>
-18.3927

>  <SCORE.INTER.norm>
-0.511927

>  <SCORE.INTRA>
-4.75809

>  <SCORE.INTRA.DIHEDRAL>
-6.5225

>  <SCORE.INTRA.DIHEDRAL.0>
10.3255

>  <SCORE.INTRA.POLAR>
0

>  <SCORE.INTRA.POLAR.0>
0

>  <SCORE.INTRA.REPUL>
0

>  <SCORE.INTRA.REPUL.0>
0

>  <SCORE.INTRA.SOLV>
0.201268

>  <SCORE.INTRA.SOLV.lig_0>
-53.4755

>  <SCORE.INTRA.VDW>
-1.59748

>  <SCORE.INTRA.VDW.0>
2.32763

>  <SCORE.INTRA.norm>
-0.279888

>  <SCORE.RESTR>
0

>  <SCORE.RESTR.CAVITY>
0

>  <SCORE.RESTR.norm>
0

>  <SCORE.SYSTEM>
0

>  <SCORE.SYSTEM.CONST>
0

>  <SCORE.SYSTEM.DIHEDRAL>
0

>  <SCORE.SYSTEM.SOLV>
0

>  <SCORE.SYSTEM.norm>
0

>  <SCORE.heavy>
17

>  <SCORE.norm>
-0.791815

>  <RMSD>
0.713

$$$$
ligand
 OpenBabel11021811503D
libRbt.so/2013.1/901 2013/11/27
 17 18  0  0  0  0  0  0  0  0999 V2000
   -2.4465    5.9098   23.7581 N   0  0  0  0  0  0  0  0  0  0  0  0
   -2.4227    6.6962   24.9170 C   0  0  0  0  0  0  0  0  0  0  0  0
   -3.5213    6.6387   25.8373 N   0  0  0  0  0  0  0  0  0  0  0  0
   -1.3580    7.5238   25.2015 N   0  0  0  0  0  0  0  0  0  0  0  0
   -0.2776    7.6107   24.3481 C   0  0  0  0  0  0  0  0  0  0  0  0
   -0.2510    6.8350   23.1469 C   0  0  0  0  0  0  0  0  0  0  0  0
    0.6524    8.3477   24.6152 O   0  0  0  0  0  0  0  0  0  0  0  0
    0.8725    6.9035   22.2159 N   0  0  0  0  0  0  0  0  0  0  0  0
    0.9508    5.9798   21.1413 C   0  0  2  0  0  0  0  0  0  0  0  0
   -0.4344    5.4904   20.6409 C   0  0  0  0  0  0  0  0  0  0  0  0
   -1.3608    5.9798   22.8735 C   0  0  0  0  0  0  0  0  0  0  0  0
   -1.3546    5.1679   21.6425 N   0  0  0  0  0  0  0  0  0  0  0  0
    1.8770    4.8516   21.5570 C   0  0  1  0  0  0  0  0  0  0  0  0
    1.1560    3.8061   22.0990 O   0  0  0  0  0  0  0  0  0  0  0  0
    2.6831    4.3799   20.3838 C   0  0  1  0  0  0  0  0  0  0  0  0
    1.9001    4.2094   19.3092 O   0  0  0  0  0  0  0  0  0  0  0  0
    3.7843    5.3983   20.0196 C   0  0  0  0  0  0  0  0  0  0  0  0
  1  2  2  0  0  0  0
  1 11  1  0  0  0  0
  2  3  1  0  0  0  0
  2  4  1  0  0  0  0
  4  5  1  0  0  0  0
  5  6  1  0  0  0  0
  5  7  2  0  0  0  0
  6  8  1  0  0  0  0
  6 11  2  0  0  0  0
  9  8  1  1  0  0  0
  9 10  1  0  0  0  0
  9 13  1  0  0  0  0
 10 12  1  0  0  0  0
 11 12  1  0  0  0  0
 13 14  1  6  0  0  0
 13 15  1  0  0  0  0
 15 16  1  6  0  0  0
 15 17  1  0  0  0  0
M  END
>  <CHROM.1>
93.71515461,-46.46285910,0.08850251,5.95231330,22.52215750,2.31497638,0.33994213
0.81063630

>  <Name>
ligand

>  <RI>
0

>  <Rbt.Current_Directory>
/home/itssahil/PROJECTS/Mol_Feturizer/New_Systems/rnas/4LVX

>  <Rbt.Executable>
rbdock ($Id: //depot/dev/client3/rdock/2013.1/src/exe/rbdock.cxx#4 $)

>  <Rbt.Library>
libRbt.so (2013.1, Build901 2013/11/27)

>  <Rbt.Parameter_File>
/export/apps/rDock/src/rDock_2013.1_src/data/scripts/dock_solv.prm

>  <Rbt.Receptor>
prm/pocket_docking_2.prm

>  <SCORE>
-13.4725

>  <SCORE.INTER>
-8.72342

>  <SCORE.INTER.CONST>
1

>  <SCORE.INTER.POLAR>
0

>  <SCORE.INTER.ROT>
2

>  <SCORE.INTER.SOLV>
22.9102

>  <SCORE.INTER.VDW>
-18.3857

>  <SCORE.INTER.norm>
-0.513142

>  <SCORE.INTRA>
-4.74911

>  <SCORE.INTRA.DIHEDRAL>
-6.50277

>  <SCORE.INTRA.DIHEDRAL.0>
10.3255

>  <SCORE.INTRA.POLAR>
0

>  <SCORE.INTRA.POLAR.0>
0

>  <SCORE.INTRA.REPUL>
0

>  <SCORE.INTRA.REPUL.0>
0

>  <SCORE.INTRA.SOLV>
0.205433

>  <SCORE.INTRA.SOLV.lig_0>
-53.4755

>  <SCORE.INTRA.VDW>
-1.60044

>  <SCORE.INTRA.VDW.0>
2.32763

>  <SCORE.INTRA.norm>
-0.27936

>  <SCORE.RESTR>
0

>  <SCORE.RESTR.CAVITY>
0

>  <SCORE.RESTR.norm>
0

>  <SCORE.SYSTEM>
0

>  <SCORE.SYSTEM.CONST>
0

>  <SCORE.SYSTEM.DIHEDRAL>
0

>  <SCORE.SYSTEM.SOLV>
0

>  <SCORE.SYSTEM.norm>
0

>  <SCORE.heavy>
17

>  <SCORE.norm>
-0.792502

>  <RMSD>
0.715

$$$$
ligand
 OpenBabel11021811503D
libRbt.so/2013.1/901 2013/11/27
 17 18  0  0  0  0  0  0  0  0999 V2000
   -2.4656    5.9308   23.7442 N   0  0  0  0  0  0  0  0  0  0  0  0
   -2.4420    6.7145   24.9049 C   0  0  0  0  0  0  0  0  0  0  0  0
   -3.5469    6.6649   25.8182 N   0  0  0  0  0  0  0  0  0  0  0  0
   -1.3718    7.5319   25.1978 N   0  0  0  0  0  0  0  0  0  0  0  0
   -0.2853    7.6109   24.3515 C   0  0  0  0  0  0  0  0  0  0  0  0
   -0.2582    6.8376   23.1487 C   0  0  0  0  0  0  0  0  0  0  0  0
    0.6495    8.3390   24.6260 O   0  0  0  0  0  0  0  0  0  0  0  0
    0.8718    6.8980   22.2250 N   0  0  0  0  0  0  0  0  0  0  0  0
    0.9485    5.9760   21.1488 C   0  0  2  0  0  0  0  0  0  0  0  0
   -0.4378    5.5000   20.6387 C   0  0  0  0  0  0  0  0  0  0  0  0
   -1.3737    5.9929   22.8665 C   0  0  0  0  0  0  0  0  0  0  0  0
   -1.3672    5.1836   21.6338 N   0  0  0  0  0  0  0  0  0  0  0  0
    1.8620    4.8385   21.5678 C   0  0  1  0  0  0  0  0  0  0  0  0
    1.1275    3.7945   22.0941 O   0  0  0  0  0  0  0  0  0  0  0  0
    2.6788    4.3692   20.4012 C   0  0  1  0  0  0  0  0  0  0  0  0
    1.9017    4.1771   19.3259 O   0  0  0  0  0  0  0  0  0  0  0  0
    3.7650    5.4014   20.0310 C   0  0  0  0  0  0  0  0  0  0  0  0
  1  2  2  0  0  0  0
  1 11  1  0  0  0  0
  2  3  1  0  0  0  0
  2  4  1  0  0  0  0
  4  5  1  0  0  0  0
  5  6  1  0  0  0  0
  5  7  2  0  0  0  0
  6  8  1  0  0  0  0
  6 11  2  0  0  0  0
  9  8  1  1  0  0  0
  9 10  1  0  0  0  0
  9 13  1  0  0  0  0
 10 12  1  0  0  0  0
 11 12  1  0  0  0  0
 13 14  1  6  0  0  0
 13 15  1  0  0  0  0
 15 16  1  6  0  0  0
 15 17  1  0  0  0  0
M  END
>  <CHROM.1>
94.14819377,-48.11364912,0.07711750,5.95362347,22.52341000,2.31380472,0.33261162
0.81060976

>  <Name>
ligand

>  <RI>
0

>  <Rbt.Current_Directory>
/home/itssahil/PROJECTS/Mol_Feturizer/New_Systems/rnas/4LVX

>  <Rbt.Executable>
rbdock ($Id: //depot/dev/client3/rdock/2013.1/src/exe/rbdock.cxx#4 $)

>  <Rbt.Library>
libRbt.so (2013.1, Build901 2013/11/27)

>  <Rbt.Parameter_File>
/export/apps/rDock/src/rDock_2013.1_src/data/scripts/dock_solv.prm

>  <Rbt.Receptor>
prm/pocket_docking_2.prm

>  <SCORE>
-13.4586

>  <SCORE.INTER>
-8.67312

>  <SCORE.INTER.CONST>
1

>  <SCORE.INTER.POLAR>
0

>  <SCORE.INTER.ROT>
2

>  <SCORE.INTER.SOLV>
23.0206

>  <SCORE.INTER.VDW>
-18.389

>  <SCORE.INTER.norm>
-0.510184

>  <SCORE.INTRA>
-4.7855

>  <SCORE.INTRA.DIHEDRAL>
-6.58688

>  <SCORE.INTRA.DIHEDRAL.0>
10.3255

>  <SCORE.INTRA.POLAR>
0

>  <SCORE.INTRA.POLAR.0>
0

>  <SCORE.INTRA.REPUL>
0

>  <SCORE.INTRA.REPUL.0>
0

>  <SCORE.INTRA.SOLV>
0.197913

>  <SCORE.INTRA.SOLV.lig_0>
-53.4755

>  <SCORE.INTRA.VDW>
-1.59102

>  <SCORE.INTRA.VDW.0>
2.32763

>  <SCORE.INTRA.norm>
-0.2815

>  <SCORE.RESTR>
0

>  <SCORE.RESTR.CAVITY>
0

>  <SCORE.RESTR.norm>
0

>  <SCORE.SYSTEM>
0

>  <SCORE.SYSTEM.CONST>
0

>  <SCORE.SYSTEM.DIHEDRAL>
0

>  <SCORE.SYSTEM.SOLV>
0

>  <SCORE.SYSTEM.norm>
0

>  <SCORE.heavy>
17

>  <SCORE.norm>
-0.791684

>  <RMSD>
0.716

$$$$
ligand
 OpenBabel11021811503D
libRbt.so/2013.1/901 2013/11/27
 17 18  0  0  0  0  0  0  0  0999 V2000
   -2.7485    6.0863   23.8339 N   0  0  0  0  0  0  0  0  0  0  0  0
   -2.6255    6.7954   25.0356 C   0  0  0  0  0  0  0  0  0  0  0  0
   -3.7532    6.9034   25.9154 N   0  0  0  0  0  0  0  0  0  0  0  0
   -1.4366    7.3893   25.4005 N   0  0  0  0  0  0  0  0  0  0  0  0
   -0.3242    7.3103   24.5886 C   0  0  0  0  0  0  0  0  0  0  0  0
   -0.3939    6.6042   23.3469 C   0  0  0  0  0  0  0  0  0  0  0  0
    0.7162    7.8421   24.9266 O   0  0  0  0  0  0  0  0  0  0  0  0
    0.7607    6.5028   22.4579 N   0  0  0  0  0  0  0  0  0  0  0  0
    0.7084    5.6354   21.3357 C   0  0  2  0  0  0  0  0  0  0  0  0
   -0.7220    5.4449   20.7642 C   0  0  0  0  0  0  0  0  0  0  0  0
   -1.6327    5.9912   22.9900 C   0  0  0  0  0  0  0  0  0  0  0  0
   -1.7281    5.2550   21.7159 N   0  0  0  0  0  0  0  0  0  0  0  0
    1.3862    4.3319   21.7165 C   0  0  1  0  0  0  0  0  0  0  0  0
    1.1863    3.3771   20.7393 O   0  0  0  0  0  0  0  0  0  0  0  0
    2.8521    4.5530   21.9414 C   0  0  1  0  0  0  0  0  0  0  0  0
    3.4285    3.4456   22.4298 O   0  0  0  0  0  0  0  0  0  0  0  0
    3.5671    4.9266   20.6255 C   0  0  0  0  0  0  0  0  0  0  0  0
  1  2  2  0  0  0  0
  1 11  1  0  0  0  0
  2  3  1  0  0  0  0
  2  4  1  0  0  0  0
  4  5  1  0  0  0  0
  5  6  1  0  0  0  0
  5  7  2  0  0  0  0
  6  8  1  0  0  0  0
  6 11  2  0  0  0  0
  9  8  1  1  0  0  0
  9 10  1  0  0  0  0
  9 13  1  0  0  0  0
 10 12  1  0  0  0  0
 11 12  1  0  0  0  0
 13 14  1  6  0  0  0
 13 15  1  0  0  0  0
 15 16  1  6  0  0  0
 15 17  1  0  0  0  0
M  END
>  <CHROM.1>
170.77370845,172.70752936,0.03709929,5.74289490,22.89089156,2.37877302,-0.03019355
0.96061700

>  <Name>
ligand

>  <RI>
0

>  <Rbt.Current_Directory>
/home/itssahil/PROJECTS/Mol_Feturizer/New_Systems/rnas/4LVX

>  <Rbt.Executable>
rbdock ($Id: //depot/dev/client3/rdock/2013.1/src/exe/rbdock.cxx#4 $)

>  <Rbt.Library>
libRbt.so (2013.1, Build901 2013/11/27)

>  <Rbt.Parameter_File>
/export/apps/rDock/src/rDock_2013.1_src/data/scripts/dock_solv.prm

>  <Rbt.Receptor>
prm/pocket_docking_2.prm

>  <SCORE>
-14.8009

>  <SCORE.INTER>
-8.41386

>  <SCORE.INTER.CONST>
1

>  <SCORE.INTER.POLAR>
0

>  <SCORE.INTER.ROT>
2

>  <SCORE.INTER.SOLV>
24.3323

>  <SCORE.INTER.VDW>
-18.6533

>  <SCORE.INTER.norm>
-0.494933

>  <SCORE.INTRA>
-6.38708

>  <SCORE.INTRA.DIHEDRAL>
-9.66837

>  <SCORE.INTRA.DIHEDRAL.0>
10.3255

>  <SCORE.INTRA.POLAR>
0

>  <SCORE.INTRA.POLAR.0>
0

>  <SCORE.INTRA.REPUL>
0

>  <SCORE.INTRA.REPUL.0>
0

>  <SCORE.INTRA.SOLV>
-0.576592

>  <SCORE.INTRA.SOLV.lig_0>
-53.4755

>  <SCORE.INTRA.VDW>
-1.2646

>  <SCORE.INTRA.VDW.0>
2.32763

>  <SCORE.INTRA.norm>
-0.375711

>  <SCORE.RESTR>
0

>  <SCORE.RESTR.CAVITY>
0

>  <SCORE.RESTR.norm>
0

>  <SCORE.SYSTEM>
0

>  <SCORE.SYSTEM.CONST>
0

>  <SCORE.SYSTEM.DIHEDRAL>
0

>  <SCORE.SYSTEM.SOLV>
0

>  <SCORE.SYSTEM.norm>
0

>  <SCORE.heavy>
17

>  <SCORE.norm>
-0.870644

>  <RMSD>
0.722

$$$$
ligand
 OpenBabel11021811503D
libRbt.so/2013.1/901 2013/11/27
 17 18  0  0  0  0  0  0  0  0999 V2000
   -2.1968    5.6414   24.0706 N   0  0  0  0  0  0  0  0  0  0  0  0
   -2.1542    6.6684   25.0222 C   0  0  0  0  0  0  0  0  0  0  0  0
   -3.1041    6.6810   26.0968 N   0  0  0  0  0  0  0  0  0  0  0  0
   -1.2098    7.6699   24.9560 N   0  0  0  0  0  0  0  0  0  0  0  0
   -0.2741    7.6985   23.9428 C   0  0  0  0  0  0  0  0  0  0  0  0
   -0.2744    6.6787   22.9402 C   0  0  0  0  0  0  0  0  0  0  0  0
    0.5509    8.5913   23.9001 O   0  0  0  0  0  0  0  0  0  0  0  0
    0.6968    6.6775   21.8491 N   0  0  0  0  0  0  0  0  0  0  0  0
    0.7869    5.5506   20.9911 C   0  0  2  0  0  0  0  0  0  0  0  0
   -0.5530    4.7843   20.8295 C   0  0  0  0  0  0  0  0  0  0  0  0
   -1.2570    5.6472   23.0299 C   0  0  0  0  0  0  0  0  0  0  0  0
   -1.2753    4.5830   22.0093 N   0  0  0  0  0  0  0  0  0  0  0  0
    1.9280    4.6772   21.4796 C   0  0  1  0  0  0  0  0  0  0  0  0
    1.7193    3.3601   21.1216 O   0  0  0  0  0  0  0  0  0  0  0  0
    3.2334    5.1694   20.9297 C   0  0  1  0  0  0  0  0  0  0  0  0
    3.3501    6.4937   21.1012 O   0  0  0  0  0  0  0  0  0  0  0  0
    4.4261    4.4867   21.6324 C   0  0  0  0  0  0  0  0  0  0  0  0
  1  2  2  0  0  0  0
  1 11  1  0  0  0  0
  2  3  1  0  0  0  0
  2  4  1  0  0  0  0
  4  5  1  0  0  0  0
  5  6  1  0  0  0  0
  5  7  2  0  0  0  0
  6  8  1  0  0  0  0
  6 11  2  0  0  0  0
  9  8  1  1  0  0  0
  9 10  1  0  0  0  0
  9 13  1  0  0  0  0
 10 12  1  0  0  0  0
 11 12  1  0  0  0  0
 13 14  1  6  0  0  0
 13 15  1  0  0  0  0
 15 16  1  1  0  0  0
 15 17  1  0  0  0  0
M  END
>  <CHROM.1>
153.36383499,48.20957262,0.33858644,5.92879304,22.66303994,2.50463456,0.36913450
0.61817592

>  <Name>
ligand

>  <RI>
0

>  <Rbt.Current_Directory>
/home/itssahil/PROJECTS/Mol_Feturizer/New_Systems/rnas/4LVX

>  <Rbt.Executable>
rbdock ($Id: //depot/dev/client3/rdock/2013.1/src/exe/rbdock.cxx#4 $)

>  <Rbt.Library>
libRbt.so (2013.1, Build901 2013/11/27)

>  <Rbt.Parameter_File>
/export/apps/rDock/src/rDock_2013.1_src/data/scripts/dock_solv.prm

>  <Rbt.Receptor>
prm/pocket_docking_2.prm

>  <SCORE>
-12.7396

>  <SCORE.INTER>
-7.27866

>  <SCORE.INTER.CONST>
1

>  <SCORE.INTER.POLAR>
0

>  <SCORE.INTER.ROT>
2

>  <SCORE.INTER.SOLV>
21.7916

>  <SCORE.INTER.VDW>
-17.0496

>  <SCORE.INTER.norm>
-0.428157

>  <SCORE.INTRA>
-5.46172

>  <SCORE.INTRA.DIHEDRAL>
-7.53111

>  <SCORE.INTRA.DIHEDRAL.0>
10.3255

>  <SCORE.INTRA.POLAR>
0

>  <SCORE.INTRA.POLAR.0>
0

>  <SCORE.INTRA.REPUL>
0

>  <SCORE.INTRA.REPUL.0>
0

>  <SCORE.INTRA.SOLV>
-0.119446

>  <SCORE.INTRA.SOLV.lig_0>
-53.4755

>  <SCORE.INTRA.VDW>
-1.63645

>  <SCORE.INTRA.VDW.0>
2.32763

>  <SCORE.INTRA.norm>
-0.321278

>  <SCORE.RESTR>
0.00075861

>  <SCORE.RESTR.CAVITY>
0.00075861

>  <SCORE.RESTR.norm>
4.46241e-05

>  <SCORE.SYSTEM>
0

>  <SCORE.SYSTEM.CONST>
0

>  <SCORE.SYSTEM.DIHEDRAL>
0

>  <SCORE.SYSTEM.SOLV>
0

>  <SCORE.SYSTEM.norm>
0

>  <SCORE.heavy>
17

>  <SCORE.norm>
-0.74939

>  <RMSD>
0.724

$$$$
ligand
 OpenBabel11021811503D
libRbt.so/2013.1/901 2013/11/27
 17 18  0  0  0  0  0  0  0  0999 V2000
   -2.7783    6.0903   23.8774 N   0  0  0  0  0  0  0  0  0  0  0  0
   -2.6353    6.7794   25.0885 C   0  0  0  0  0  0  0  0  0  0  0  0
   -3.7519    6.8838   25.9826 N   0  0  0  0  0  0  0  0  0  0  0  0
   -1.4369    7.3566   25.4490 N   0  0  0  0  0  0  0  0  0  0  0  0
   -0.3344    7.2803   24.6233 C   0  0  0  0  0  0  0  0  0  0  0  0
   -0.4247    6.5943   23.3717 C   0  0  0  0  0  0  0  0  0  0  0  0
    0.7146    7.7972   24.9577 O   0  0  0  0  0  0  0  0  0  0  0  0
    0.7189    6.4964   22.4681 N   0  0  0  0  0  0  0  0  0  0  0  0
    0.6459    5.6472   21.3332 C   0  0  2  0  0  0  0  0  0  0  0  0
   -0.7925    5.4787   20.7752 C   0  0  0  0  0  0  0  0  0  0  0  0
   -1.6730    5.9983   23.0195 C   0  0  0  0  0  0  0  0  0  0  0  0
   -1.7896    5.2830   21.7352 N   0  0  0  0  0  0  0  0  0  0  0  0
    1.3158    4.3318   21.6859 C   0  0  1  0  0  0  0  0  0  0  0  0
    1.0937    3.3934   20.6977 O   0  0  0  0  0  0  0  0  0  0  0  0
    2.7867    4.5354   21.8945 C   0  0  1  0  0  0  0  0  0  0  0  0
    3.3582    3.4161   22.3609 O   0  0  0  0  0  0  0  0  0  0  0  0
    3.4882    4.9191   20.5742 C   0  0  0  0  0  0  0  0  0  0  0  0
  1  2  2  0  0  0  0
  1 11  1  0  0  0  0
  2  3  1  0  0  0  0
  2  4  1  0  0  0  0
  4  5  1  0  0  0  0
  5  6  1  0  0  0  0
  5  7  2  0  0  0  0
  6  8  1  0  0  0  0
  6 11  2  0  0  0  0
  9  8  1  1  0  0  0
  9 10  1  0  0  0  0
  9 13  1  0  0  0  0
 10 12  1  0  0  0  0
 11 12  1  0  0  0  0
 13 14  1  6  0  0  0
 13 15  1  0  0  0  0
 15 16  1  6  0  0  0
 15 17  1  0  0  0  0
M  END
>  <CHROM.1>
170.64583480,172.61349143,-0.00702154,5.73602138,22.89696581,2.36393497,-0.03128331
0.97573954

>  <Name>
ligand

>  <RI>
0

>  <Rbt.Current_Directory>
/home/itssahil/PROJECTS/Mol_Feturizer/New_Systems/rnas/4LVX

>  <Rbt.Executable>
rbdock ($Id: //depot/dev/client3/rdock/2013.1/src/exe/rbdock.cxx#4 $)

>  <Rbt.Library>
libRbt.so (2013.1, Build901 2013/11/27)

>  <Rbt.Parameter_File>
/export/apps/rDock/src/rDock_2013.1_src/data/scripts/dock_solv.prm

>  <Rbt.Receptor>
prm/pocket_docking_2.prm

>  <SCORE>
-14.8244

>  <SCORE.INTER>
-8.44401

>  <SCORE.INTER.CONST>
1

>  <SCORE.INTER.POLAR>
0

>  <SCORE.INTER.ROT>
2

>  <SCORE.INTER.SOLV>
24.5774

>  <SCORE.INTER.VDW>
-18.7551

>  <SCORE.INTER.norm>
-0.496707

>  <SCORE.INTRA>
-6.38036

>  <SCORE.INTRA.DIHEDRAL>
-9.65516

>  <SCORE.INTRA.DIHEDRAL.0>
10.3255

>  <SCORE.INTRA.POLAR>
0

>  <SCORE.INTRA.POLAR.0>
0

>  <SCORE.INTRA.REPUL>
0

>  <SCORE.INTRA.REPUL.0>
0

>  <SCORE.INTRA.SOLV>
-0.577581

>  <SCORE.INTRA.SOLV.lig_0>
-53.4755

>  <SCORE.INTRA.VDW>
-1.26399

>  <SCORE.INTRA.VDW.0>
2.32763

>  <SCORE.INTRA.norm>
-0.375316

>  <SCORE.RESTR>
0

>  <SCORE.RESTR.CAVITY>
0

>  <SCORE.RESTR.norm>
0

>  <SCORE.SYSTEM>
0

>  <SCORE.SYSTEM.CONST>
0

>  <SCORE.SYSTEM.DIHEDRAL>
0

>  <SCORE.SYSTEM.SOLV>
0

>  <SCORE.SYSTEM.norm>
0

>  <SCORE.heavy>
17

>  <SCORE.norm>
-0.872022

>  <RMSD>
0.725

$$$$
ligand
 OpenBabel11021811503D
libRbt.so/2013.1/901 2013/11/27
 17 18  0  0  0  0  0  0  0  0999 V2000
   -2.7744    6.0927   23.8710 N   0  0  0  0  0  0  0  0  0  0  0  0
   -2.6364    6.7794   25.0840 C   0  0  0  0  0  0  0  0  0  0  0  0
   -3.7556    6.8788   25.9755 N   0  0  0  0  0  0  0  0  0  0  0  0
   -1.4405    7.3593   25.4488 N   0  0  0  0  0  0  0  0  0  0  0  0
   -0.3358    7.2878   24.6258 C   0  0  0  0  0  0  0  0  0  0  0  0
   -0.4209    6.6044   23.3724 C   0  0  0  0  0  0  0  0  0  0  0  0
    0.7109    7.8069   24.9641 O   0  0  0  0  0  0  0  0  0  0  0  0
    0.7253    6.5116   22.4716 N   0  0  0  0  0  0  0  0  0  0  0  0
    0.6575    5.6648   21.3347 C   0  0  2  0  0  0  0  0  0  0  0  0
   -0.7789    5.4935   20.7726 C   0  0  0  0  0  0  0  0  0  0  0  0
   -1.6666    6.0057   23.0157 C   0  0  0  0  0  0  0  0  0  0  0  0
   -1.7779    5.2929   21.7296 N   0  0  0  0  0  0  0  0  0  0  0  0
    1.3303    4.3504   21.6862 C   0  0  1  0  0  0  0  0  0  0  0  0
    1.1306    3.4199   20.6858 O   0  0  0  0  0  0  0  0  0  0  0  0
    2.7962    4.5616   21.9208 C   0  0  1  0  0  0  0  0  0  0  0  0
    3.3675    3.4413   22.3851 O   0  0  0  0  0  0  0  0  0  0  0  0
    3.5164    4.9635   20.6162 C   0  0  0  0  0  0  0  0  0  0  0  0
  1  2  2  0  0  0  0
  1 11  1  0  0  0  0
  2  3  1  0  0  0  0
  2  4  1  0  0  0  0
  4  5  1  0  0  0  0
  5  6  1  0  0  0  0
  5  7  2  0  0  0  0
  6  8  1  0  0  0  0
  6 11  2  0  0  0  0
  9  8  1  1  0  0  0
  9 10  1  0  0  0  0
  9 13  1  0  0  0  0
 10 12  1  0  0  0  0
 11 12  1  0  0  0  0
 13 14  1  6  0  0  0
 13 15  1  0  0  0  0
 15 16  1  6  0  0  0
 15 17  1  0  0  0  0
M  END
>  <CHROM.1>
171.56296623,172.67121941,0.00176188,5.75019280,22.90112697,2.36970865,-0.03215698
0.97933738

>  <Name>
ligand

>  <RI>
0

>  <Rbt.Current_Directory>
/home/itssahil/PROJECTS/Mol_Feturizer/New_Systems/rnas/4LVX

>  <Rbt.Executable>
rbdock ($Id: //depot/dev/client3/rdock/2013.1/src/exe/rbdock.cxx#4 $)

>  <Rbt.Library>
libRbt.so (2013.1, Build901 2013/11/27)

>  <Rbt.Parameter_File>
/export/apps/rDock/src/rDock_2013.1_src/data/scripts/dock_solv.prm

>  <Rbt.Receptor>
prm/pocket_docking_2.prm

>  <SCORE>
-14.8259

>  <SCORE.INTER>
-8.40657

>  <SCORE.INTER.CONST>
1

>  <SCORE.INTER.POLAR>
0

>  <SCORE.INTER.ROT>
2

>  <SCORE.INTER.SOLV>
24.4436

>  <SCORE.INTER.VDW>
-18.6856

>  <SCORE.INTER.norm>
-0.494504

>  <SCORE.INTRA>
-6.41933

>  <SCORE.INTRA.DIHEDRAL>
-9.7142

>  <SCORE.INTRA.DIHEDRAL.0>
10.3255

>  <SCORE.INTRA.POLAR>
0

>  <SCORE.INTRA.POLAR.0>
0

>  <SCORE.INTRA.REPUL>
0

>  <SCORE.INTRA.REPUL.0>
0

>  <SCORE.INTRA.SOLV>
-0.572702

>  <SCORE.INTRA.SOLV.lig_0>
-53.4755

>  <SCORE.INTRA.VDW>
-1.27588

>  <SCORE.INTRA.VDW.0>
2.32763

>  <SCORE.INTRA.norm>
-0.377608

>  <SCORE.RESTR>
0

>  <SCORE.RESTR.CAVITY>
0

>  <SCORE.RESTR.norm>
0

>  <SCORE.SYSTEM>
0

>  <SCORE.SYSTEM.CONST>
0

>  <SCORE.SYSTEM.DIHEDRAL>
0

>  <SCORE.SYSTEM.SOLV>
0

>  <SCORE.SYSTEM.norm>
0

>  <SCORE.heavy>
17

>  <SCORE.norm>
-0.872112

>  <RMSD>
0.725

$$$$
ligand
 OpenBabel11021811503D
libRbt.so/2013.1/901 2013/11/27
 17 18  0  0  0  0  0  0  0  0999 V2000
   -2.7731    6.0896   23.8294 N   0  0  0  0  0  0  0  0  0  0  0  0
   -2.6395    6.7897   25.0353 C   0  0  0  0  0  0  0  0  0  0  0  0
   -3.7623    6.8999   25.9209 N   0  0  0  0  0  0  0  0  0  0  0  0
   -1.4446    7.3724   25.3986 N   0  0  0  0  0  0  0  0  0  0  0  0
   -0.3365    7.2908   24.5811 C   0  0  0  0  0  0  0  0  0  0  0  0
   -0.4170    6.5937   23.3350 C   0  0  0  0  0  0  0  0  0  0  0  0
    0.7093    7.8127   24.9180 O   0  0  0  0  0  0  0  0  0  0  0  0
    0.7328    6.4899   22.4400 N   0  0  0  0  0  0  0  0  0  0  0  0
    0.6690    5.6306   21.3123 C   0  0  2  0  0  0  0  0  0  0  0  0
   -0.7653    5.4543   20.7462 C   0  0  0  0  0  0  0  0  0  0  0  0
   -1.6619    5.9922   22.9797 C   0  0  0  0  0  0  0  0  0  0  0  0
   -1.7684    5.2653   21.7011 N   0  0  0  0  0  0  0  0  0  0  0  0
    1.3390    4.3196   21.6812 C   0  0  1  0  0  0  0  0  0  0  0  0
    1.1500    3.3808   20.6865 O   0  0  0  0  0  0  0  0  0  0  0  0
    2.8023    4.5337   21.9288 C   0  0  1  0  0  0  0  0  0  0  0  0
    3.3714    3.4150   22.3996 O   0  0  0  0  0  0  0  0  0  0  0  0
    3.5337    4.9353   20.6303 C   0  0  0  0  0  0  0  0  0  0  0  0
  1  2  2  0  0  0  0
  1 11  1  0  0  0  0
  2  3  1  0  0  0  0
  2  4  1  0  0  0  0
  4  5  1  0  0  0  0
  5  6  1  0  0  0  0
  5  7  2  0  0  0  0
  6  8  1  0  0  0  0
  6 11  2  0  0  0  0
  9  8  1  1  0  0  0
  9 10  1  0  0  0  0
  9 13  1  0  0  0  0
 10 12  1  0  0  0  0
 11 12  1  0  0  0  0
 13 14  1  6  0  0  0
 13 15  1  0  0  0  0
 15 16  1  6  0  0  0
 15 17  1  0  0  0  0
M  END
>  <CHROM.1>
171.95140294,173.07345479,0.00732454,5.73517007,22.87635252,2.37351205,-0.03517902
0.96831722

>  <Name>
ligand

>  <RI>
0

>  <Rbt.Current_Directory>
/home/itssahil/PROJECTS/Mol_Feturizer/New_Systems/rnas/4LVX

>  <Rbt.Executable>
rbdock ($Id: //depot/dev/client3/rdock/2013.1/src/exe/rbdock.cxx#4 $)

>  <Rbt.Library>
libRbt.so (2013.1, Build901 2013/11/27)

>  <Rbt.Parameter_File>
/export/apps/rDock/src/rDock_2013.1_src/data/scripts/dock_solv.prm

>  <Rbt.Receptor>
prm/pocket_docking_2.prm

>  <SCORE>
-14.8057

>  <SCORE.INTER>
-8.36717

>  <SCORE.INTER.CONST>
1

>  <SCORE.INTER.POLAR>
0

>  <SCORE.INTER.ROT>
2

>  <SCORE.INTER.SOLV>
24.531

>  <SCORE.INTER.VDW>
-18.6884

>  <SCORE.INTER.norm>
-0.492186

>  <SCORE.INTRA>
-6.43853

>  <SCORE.INTRA.DIHEDRAL>
-9.75751

>  <SCORE.INTRA.DIHEDRAL.0>
10.3255

>  <SCORE.INTRA.POLAR>
0

>  <SCORE.INTRA.POLAR.0>
0

>  <SCORE.INTRA.REPUL>
0

>  <SCORE.INTRA.REPUL.0>
0

>  <SCORE.INTRA.SOLV>
-0.569217

>  <SCORE.INTRA.SOLV.lig_0>
-53.4755

>  <SCORE.INTRA.VDW>
-1.27517

>  <SCORE.INTRA.VDW.0>
2.32763

>  <SCORE.INTRA.norm>
-0.378737

>  <SCORE.RESTR>
0

>  <SCORE.RESTR.CAVITY>
0

>  <SCORE.RESTR.norm>
0

>  <SCORE.SYSTEM>
0

>  <SCORE.SYSTEM.CONST>
0

>  <SCORE.SYSTEM.DIHEDRAL>
0

>  <SCORE.SYSTEM.SOLV>
0

>  <SCORE.SYSTEM.norm>
0

>  <SCORE.heavy>
17

>  <SCORE.norm>
-0.870924

>  <RMSD>
0.730

$$$$
ligand
 OpenBabel11021811503D
libRbt.so/2013.1/901 2013/11/27
 17 18  0  0  0  0  0  0  0  0999 V2000
   -2.7979    6.1008   23.8788 N   0  0  0  0  0  0  0  0  0  0  0  0
   -2.6554    6.7873   25.0914 C   0  0  0  0  0  0  0  0  0  0  0  0
   -3.7738    6.8938   25.9831 N   0  0  0  0  0  0  0  0  0  0  0  0
   -1.4560    7.3601   25.4557 N   0  0  0  0  0  0  0  0  0  0  0  0
   -0.3519    7.2816   24.6324 C   0  0  0  0  0  0  0  0  0  0  0  0
   -0.4415    6.5981   23.3794 C   0  0  0  0  0  0  0  0  0  0  0  0
    0.6979    7.7946   24.9702 O   0  0  0  0  0  0  0  0  0  0  0  0
    0.7039    6.4981   22.4783 N   0  0  0  0  0  0  0  0  0  0  0  0
    0.6308    5.6511   21.3418 C   0  0  2  0  0  0  0  0  0  0  0  0
   -0.8068    5.4882   20.7801 C   0  0  0  0  0  0  0  0  0  0  0  0
   -1.6909    6.0068   23.0232 C   0  0  0  0  0  0  0  0  0  0  0  0
   -1.8067    5.2941   21.7375 N   0  0  0  0  0  0  0  0  0  0  0  0
    1.2957    4.3329   21.6937 C   0  0  1  0  0  0  0  0  0  0  0  0
    1.0651    3.3942   20.7078 O   0  0  0  0  0  0  0  0  0  0  0  0
    2.7684    4.5296   21.8962 C   0  0  1  0  0  0  0  0  0  0  0  0
    3.3392    3.4028   22.3450 O   0  0  0  0  0  0  0  0  0  0  0  0
    3.4632    4.9281   20.5768 C   0  0  0  0  0  0  0  0  0  0  0  0
  1  2  2  0  0  0  0
  1 11  1  0  0  0  0
  2  3  1  0  0  0  0
  2  4  1  0  0  0  0
  4  5  1  0  0  0  0
  5  6  1  0  0  0  0
  5  7  2  0  0  0  0
  6  8  1  0  0  0  0
  6 11  2  0  0  0  0
  9  8  1  1  0  0  0
  9 10  1  0  0  0  0
  9 13  1  0  0  0  0
 10 12  1  0  0  0  0
 11 12  1  0  0  0  0
 13 14  1  6  0  0  0
 13 15  1  0  0  0  0
 15 16  1  6  0  0  0
 15 17  1  0  0  0  0
M  END
>  <CHROM.1>
170.22999563,173.44147809,-0.02611400,5.73940429,22.90134201,2.36307151,-0.03252598
0.97559918

>  <Name>
ligand

>  <RI>
0

>  <Rbt.Current_Directory>
/home/itssahil/PROJECTS/Mol_Feturizer/New_Systems/rnas/4LVX

>  <Rbt.Executable>
rbdock ($Id: //depot/dev/client3/rdock/2013.1/src/exe/rbdock.cxx#4 $)

>  <Rbt.Library>
libRbt.so (2013.1, Build901 2013/11/27)

>  <Rbt.Parameter_File>
/export/apps/rDock/src/rDock_2013.1_src/data/scripts/dock_solv.prm

>  <Rbt.Receptor>
prm/pocket_docking_2.prm

>  <SCORE>
-14.8147

>  <SCORE.INTER>
-8.44529

>  <SCORE.INTER.CONST>
1

>  <SCORE.INTER.POLAR>
0

>  <SCORE.INTER.ROT>
2

>  <SCORE.INTER.SOLV>
24.6555

>  <SCORE.INTER.VDW>
-18.782

>  <SCORE.INTER.norm>
-0.496782

>  <SCORE.INTRA>
-6.36941

>  <SCORE.INTRA.DIHEDRAL>
-9.67094

>  <SCORE.INTRA.DIHEDRAL.0>
10.3255

>  <SCORE.INTRA.POLAR>
0

>  <SCORE.INTRA.POLAR.0>
0

>  <SCORE.INTRA.REPUL>
0

>  <SCORE.INTRA.REPUL.0>
0

>  <SCORE.INTRA.SOLV>
-0.576669

>  <SCORE.INTRA.SOLV.lig_0>
-53.4755

>  <SCORE.INTRA.VDW>
-1.24561

>  <SCORE.INTRA.VDW.0>
2.32763

>  <SCORE.INTRA.norm>
-0.374671

>  <SCORE.RESTR>
0

>  <SCORE.RESTR.CAVITY>
0

>  <SCORE.RESTR.norm>
0

>  <SCORE.SYSTEM>
0

>  <SCORE.SYSTEM.CONST>
0

>  <SCORE.SYSTEM.DIHEDRAL>
0

>  <SCORE.SYSTEM.SOLV>
0

>  <SCORE.SYSTEM.norm>
0

>  <SCORE.heavy>
17

>  <SCORE.norm>
-0.871453

>  <RMSD>
0.732

$$$$
ligand
 OpenBabel11021811503D
libRbt.so/2013.1/901 2013/11/27
 17 18  0  0  0  0  0  0  0  0999 V2000
   -2.7803    6.1063   23.8643 N   0  0  0  0  0  0  0  0  0  0  0  0
   -2.6413    6.7912   25.0783 C   0  0  0  0  0  0  0  0  0  0  0  0
   -3.7621    6.8964   25.9670 N   0  0  0  0  0  0  0  0  0  0  0  0
   -1.4429    7.3636   25.4466 N   0  0  0  0  0  0  0  0  0  0  0  0
   -0.3365    7.2862   24.6263 C   0  0  0  0  0  0  0  0  0  0  0  0
   -0.4225    6.6044   23.3721 C   0  0  0  0  0  0  0  0  0  0  0  0
    0.7124    7.7988   24.9677 O   0  0  0  0  0  0  0  0  0  0  0  0
    0.7253    6.5057   22.4741 N   0  0  0  0  0  0  0  0  0  0  0  0
    0.6554    5.6602   21.3363 C   0  0  2  0  0  0  0  0  0  0  0  0
   -0.7806    5.4979   20.7704 C   0  0  0  0  0  0  0  0  0  0  0  0
   -1.6709    6.0135   23.0117 C   0  0  0  0  0  0  0  0  0  0  0  0
   -1.7831    5.3025   21.7247 N   0  0  0  0  0  0  0  0  0  0  0  0
    1.3194    4.3416   21.6883 C   0  0  1  0  0  0  0  0  0  0  0  0
    1.1172    3.4132   20.6865 O   0  0  0  0  0  0  0  0  0  0  0  0
    2.7859    4.5439   21.9274 C   0  0  1  0  0  0  0  0  0  0  0  0
    3.3483    3.4212   22.3966 O   0  0  0  0  0  0  0  0  0  0  0  0
    3.5131    4.9374   20.6240 C   0  0  0  0  0  0  0  0  0  0  0  0
  1  2  2  0  0  0  0
  1 11  1  0  0  0  0
  2  3  1  0  0  0  0
  2  4  1  0  0  0  0
  4  5  1  0  0  0  0
  5  6  1  0  0  0  0
  5  7  2  0  0  0  0
  6  8  1  0  0  0  0
  6 11  2  0  0  0  0
  9  8  1  1  0  0  0
  9 10  1  0  0  0  0
  9 13  1  0  0  0  0
 10 12  1  0  0  0  0
 11 12  1  0  0  0  0
 13 14  1  6  0  0  0
 13 15  1  0  0  0  0
 15 16  1  6  0  0  0
 15 17  1  0  0  0  0
M  END
>  <CHROM.1>
171.58301194,172.44658130,-0.00377181,5.74796087,22.90148008,2.36855055,-0.03905040
0.98054146

>  <Name>
ligand

>  <RI>
0

>  <Rbt.Current_Directory>
/home/itssahil/PROJECTS/Mol_Feturizer/New_Systems/rnas/4LVX

>  <Rbt.Executable>
rbdock ($Id: //depot/dev/client3/rdock/2013.1/src/exe/rbdock.cxx#4 $)

>  <Rbt.Library>
libRbt.so (2013.1, Build901 2013/11/27)

>  <Rbt.Parameter_File>
/export/apps/rDock/src/rDock_2013.1_src/data/scripts/dock_solv.prm

>  <Rbt.Receptor>
prm/pocket_docking_2.prm

>  <SCORE>
-14.8205

>  <SCORE.INTER>
-8.40334

>  <SCORE.INTER.CONST>
1

>  <SCORE.INTER.POLAR>
0

>  <SCORE.INTER.ROT>
2

>  <SCORE.INTER.SOLV>
24.5363

>  <SCORE.INTER.VDW>
-18.7143

>  <SCORE.INTER.norm>
-0.494314

>  <SCORE.INTRA>
-6.41721

>  <SCORE.INTRA.DIHEDRAL>
-9.70302

>  <SCORE.INTRA.DIHEDRAL.0>
10.3255

>  <SCORE.INTRA.POLAR>
0

>  <SCORE.INTRA.POLAR.0>
0

>  <SCORE.INTRA.REPUL>
0

>  <SCORE.INTRA.REPUL.0>
0

>  <SCORE.INTRA.SOLV>
-0.573419

>  <SCORE.INTRA.SOLV.lig_0>
-53.4755

>  <SCORE.INTRA.VDW>
-1.27899

>  <SCORE.INTRA.VDW.0>
2.32763

>  <SCORE.INTRA.norm>
-0.377483

>  <SCORE.RESTR>
0

>  <SCORE.RESTR.CAVITY>
0

>  <SCORE.RESTR.norm>
0

>  <SCORE.SYSTEM>
0

>  <SCORE.SYSTEM.CONST>
0

>  <SCORE.SYSTEM.DIHEDRAL>
0

>  <SCORE.SYSTEM.SOLV>
0

>  <SCORE.SYSTEM.norm>
0

>  <SCORE.heavy>
17

>  <SCORE.norm>
-0.871797

>  <RMSD>
0.734

$$$$
ligand
 OpenBabel11021811503D
libRbt.so/2013.1/901 2013/11/27
 17 18  0  0  0  0  0  0  0  0999 V2000
   -2.8093    6.0696   23.8549 N   0  0  0  0  0  0  0  0  0  0  0  0
   -2.6674    6.7570   25.0671 C   0  0  0  0  0  0  0  0  0  0  0  0
   -3.7841    6.8579   25.9614 N   0  0  0  0  0  0  0  0  0  0  0  0
   -1.4700    7.3359   25.4284 N   0  0  0  0  0  0  0  0  0  0  0  0
   -0.3675    7.2628   24.6025 C   0  0  0  0  0  0  0  0  0  0  0  0
   -0.4566    6.5788   23.3498 C   0  0  0  0  0  0  0  0  0  0  0  0
    0.6806    7.7811   24.9377 O   0  0  0  0  0  0  0  0  0  0  0  0
    0.6871    6.4844   22.4459 N   0  0  0  0  0  0  0  0  0  0  0  0
    0.6156    5.6369   21.3097 C   0  0  2  0  0  0  0  0  0  0  0  0
   -0.8226    5.4667   20.7515 C   0  0  0  0  0  0  0  0  0  0  0  0
   -1.7038    5.9811   22.9967 C   0  0  0  0  0  0  0  0  0  0  0  0
   -1.8192    5.2676   21.7113 N   0  0  0  0  0  0  0  0  0  0  0  0
    1.2879    4.3221   21.6602 C   0  0  1  0  0  0  0  0  0  0  0  0
    1.0863    3.3917   20.6601 O   0  0  0  0  0  0  0  0  0  0  0  0
    2.7543    4.5323   21.8929 C   0  0  1  0  0  0  0  0  0  0  0  0
    3.3254    3.4119   22.3571 O   0  0  0  0  0  0  0  0  0  0  0  0
    3.4732    4.9328   20.5870 C   0  0  0  0  0  0  0  0  0  0  0  0
  1  2  2  0  0  0  0
  1 11  1  0  0  0  0
  2  3  1  0  0  0  0
  2  4  1  0  0  0  0
  4  5  1  0  0  0  0
  5  6  1  0  0  0  0
  5  7  2  0  0  0  0
  6  8  1  0  0  0  0
  6 11  2  0  0  0  0
  9  8  1  1  0  0  0
  9 10  1  0  0  0  0
  9 13  1  0  0  0  0
 10 12  1  0  0  0  0
 11 12  1  0  0  0  0
 13 14  1  6  0  0  0
 13 15  1  0  0  0  0
 15 16  1  6  0  0  0
 15 17  1  0  0  0  0
M  END
>  <CHROM.1>
171.64497444,172.63013612,-0.03587436,5.72402499,22.87827907,2.36716475,-0.03175181
0.97884246

>  <Name>
ligand

>  <RI>
0

>  <Rbt.Current_Directory>
/home/itssahil/PROJECTS/Mol_Feturizer/New_Systems/rnas/4LVX

>  <Rbt.Executable>
rbdock ($Id: //depot/dev/client3/rdock/2013.1/src/exe/rbdock.cxx#4 $)

>  <Rbt.Library>
libRbt.so (2013.1, Build901 2013/11/27)

>  <Rbt.Parameter_File>
/export/apps/rDock/src/rDock_2013.1_src/data/scripts/dock_solv.prm

>  <Rbt.Receptor>
prm/pocket_docking_2.prm

>  <SCORE>
-14.7969

>  <SCORE.INTER>
-8.37482

>  <SCORE.INTER.CONST>
1

>  <SCORE.INTER.POLAR>
0

>  <SCORE.INTER.ROT>
2

>  <SCORE.INTER.SOLV>
24.6526

>  <SCORE.INTER.VDW>
-18.7341

>  <SCORE.INTER.norm>
-0.492636

>  <SCORE.INTRA>
-6.42206

>  <SCORE.INTRA.DIHEDRAL>
-9.7167

>  <SCORE.INTRA.DIHEDRAL.0>
10.3255

>  <SCORE.INTRA.POLAR>
0

>  <SCORE.INTRA.POLAR.0>
0

>  <SCORE.INTRA.REPUL>
0

>  <SCORE.INTRA.REPUL.0>
0

>  <SCORE.INTRA.SOLV>
-0.572433

>  <SCORE.INTRA.SOLV.lig_0>
-53.4755

>  <SCORE.INTRA.VDW>
-1.27749

>  <SCORE.INTRA.VDW.0>
2.32763

>  <SCORE.INTRA.norm>
-0.377768

>  <SCORE.RESTR>
0

>  <SCORE.RESTR.CAVITY>
0

>  <SCORE.RESTR.norm>
0

>  <SCORE.SYSTEM>
0

>  <SCORE.SYSTEM.CONST>
0

>  <SCORE.SYSTEM.DIHEDRAL>
0

>  <SCORE.SYSTEM.SOLV>
0

>  <SCORE.SYSTEM.norm>
0

>  <SCORE.heavy>
17

>  <SCORE.norm>
-0.870405

>  <RMSD>
0.734

$$$$
ligand
 OpenBabel11021811503D
libRbt.so/2013.1/901 2013/11/27
 17 18  0  0  0  0  0  0  0  0999 V2000
   -2.4468    5.9211   23.7405 N   0  0  0  0  0  0  0  0  0  0  0  0
   -2.4376    6.7135   24.8955 C   0  0  0  0  0  0  0  0  0  0  0  0
   -3.5334    6.6377   25.8178 N   0  0  0  0  0  0  0  0  0  0  0  0
   -1.3899    7.5645   25.1741 N   0  0  0  0  0  0  0  0  0  0  0  0
   -0.3129    7.6697   24.3185 C   0  0  0  0  0  0  0  0  0  0  0  0
   -0.2720    6.8888   23.1211 C   0  0  0  0  0  0  0  0  0  0  0  0
    0.6019    8.4273   24.5805 O   0  0  0  0  0  0  0  0  0  0  0  0
    0.8485    6.9761   22.1880 N   0  0  0  0  0  0  0  0  0  0  0  0
    0.9443    6.0489   21.1178 C   0  0  2  0  0  0  0  0  0  0  0  0
   -0.4311    5.5282   20.6221 C   0  0  0  0  0  0  0  0  0  0  0  0
   -1.3641    6.0092   22.8538 C   0  0  0  0  0  0  0  0  0  0  0  0
   -1.3429    5.1915   21.6268 N   0  0  0  0  0  0  0  0  0  0  0  0
    1.8945    4.9422   21.5376 C   0  0  1  0  0  0  0  0  0  0  0  0
    1.1977    3.8911   22.0997 O   0  0  0  0  0  0  0  0  0  0  0  0
    2.6969    4.4704   20.3620 C   0  0  1  0  0  0  0  0  0  0  0  0
    1.9045    4.2615   19.3011 O   0  0  0  0  0  0  0  0  0  0  0  0
    3.7671    5.5095   19.9655 C   0  0  0  0  0  0  0  0  0  0  0  0
  1  2  2  0  0  0  0
  1 11  1  0  0  0  0
  2  3  1  0  0  0  0
  2  4  1  0  0  0  0
  4  5  1  0  0  0  0
  5  6  1  0  0  0  0
  5  7  2  0  0  0  0
  6  8  1  0  0  0  0
  6 11  2  0  0  0  0
  9  8  1  1  0  0  0
  9 10  1  0  0  0  0
  9 13  1  0  0  0  0
 10 12  1  0  0  0  0
 11 12  1  0  0  0  0
 13 14  1  6  0  0  0
 13 15  1  0  0  0  0
 15 16  1  6  0  0  0
 15 17  1  0  0  0  0
M  END
>  <CHROM.1>
93.04179461,-47.01680615,0.08147155,6.00740921,22.49966461,2.32661344,0.35736201
0.79971972

>  <Name>
ligand

>  <RI>
0

>  <Rbt.Current_Directory>
/home/itssahil/PROJECTS/Mol_Feturizer/New_Systems/rnas/4LVX

>  <Rbt.Executable>
rbdock ($Id: //depot/dev/client3/rdock/2013.1/src/exe/rbdock.cxx#4 $)

>  <Rbt.Library>
libRbt.so (2013.1, Build901 2013/11/27)

>  <Rbt.Parameter_File>
/export/apps/rDock/src/rDock_2013.1_src/data/scripts/dock_solv.prm

>  <Rbt.Receptor>
prm/pocket_docking_2.prm

>  <SCORE>
-13.387

>  <SCORE.INTER>
-8.57165

>  <SCORE.INTER.CONST>
1

>  <SCORE.INTER.POLAR>
0

>  <SCORE.INTER.ROT>
2

>  <SCORE.INTER.SOLV>
22.7497

>  <SCORE.INTER.VDW>
-18.231

>  <SCORE.INTER.norm>
-0.504215

>  <SCORE.INTRA>
-4.81538

>  <SCORE.INTRA.DIHEDRAL>
-6.64094

>  <SCORE.INTRA.DIHEDRAL.0>
10.3255

>  <SCORE.INTRA.POLAR>
0

>  <SCORE.INTRA.POLAR.0>
0

>  <SCORE.INTRA.REPUL>
0

>  <SCORE.INTRA.REPUL.0>
0

>  <SCORE.INTRA.SOLV>
0.216315

>  <SCORE.INTRA.SOLV.lig_0>
-53.4755

>  <SCORE.INTRA.VDW>
-1.60307

>  <SCORE.INTRA.VDW.0>
2.32763

>  <SCORE.INTRA.norm>
-0.283258

>  <SCORE.RESTR>
0

>  <SCORE.RESTR.CAVITY>
0

>  <SCORE.RESTR.norm>
0

>  <SCORE.SYSTEM>
0

>  <SCORE.SYSTEM.CONST>
0

>  <SCORE.SYSTEM.DIHEDRAL>
0

>  <SCORE.SYSTEM.SOLV>
0

>  <SCORE.SYSTEM.norm>
0

>  <SCORE.heavy>
17

>  <SCORE.norm>
-0.787472

>  <RMSD>
0.737

$$$$
ligand
 OpenBabel11021811503D
libRbt.so/2013.1/901 2013/11/27
 17 18  0  0  0  0  0  0  0  0999 V2000
   -2.4626    5.9264   23.7471 N   0  0  0  0  0  0  0  0  0  0  0  0
   -2.4496    6.7229   24.8993 C   0  0  0  0  0  0  0  0  0  0  0  0
   -3.5447    6.6540   25.8229 N   0  0  0  0  0  0  0  0  0  0  0  0
   -1.3988    7.5713   25.1739 N   0  0  0  0  0  0  0  0  0  0  0  0
   -0.3223    7.6698   24.3169 C   0  0  0  0  0  0  0  0  0  0  0  0
   -0.2852    6.8846   23.1222 C   0  0  0  0  0  0  0  0  0  0  0  0
    0.5954    8.4252   24.5753 O   0  0  0  0  0  0  0  0  0  0  0  0
    0.8346    6.9648   22.1877 N   0  0  0  0  0  0  0  0  0  0  0  0
    0.9262    6.0336   21.1206 C   0  0  2  0  0  0  0  0  0  0  0  0
   -0.4515    5.5159   20.6281 C   0  0  0  0  0  0  0  0  0  0  0  0
   -1.3805    6.0078   22.8590 C   0  0  0  0  0  0  0  0  0  0  0  0
   -1.3634    5.1858   21.6348 N   0  0  0  0  0  0  0  0  0  0  0  0
    1.8730    4.9252   21.5432 C   0  0  1  0  0  0  0  0  0  0  0  0
    1.1718    3.8714   22.0947 O   0  0  0  0  0  0  0  0  0  0  0  0
    2.6854    4.4589   20.3723 C   0  0  1  0  0  0  0  0  0  0  0  0
    1.8999    4.2403   19.3082 O   0  0  0  0  0  0  0  0  0  0  0  0
    3.7474    5.5075   19.9786 C   0  0  0  0  0  0  0  0  0  0  0  0
  1  2  2  0  0  0  0
  1 11  1  0  0  0  0
  2  3  1  0  0  0  0
  2  4  1  0  0  0  0
  4  5  1  0  0  0  0
  5  6  1  0  0  0  0
  5  7  2  0  0  0  0
  6  8  1  0  0  0  0
  6 11  2  0  0  0  0
  9  8  1  1  0  0  0
  9 10  1  0  0  0  0
  9 13  1  0  0  0  0
 10 12  1  0  0  0  0
 11 12  1  0  0  0  0
 13 14  1  6  0  0  0
 13 15  1  0  0  0  0
 15 16  1  6  0  0  0
 15 17  1  0  0  0  0
M  END
>  <CHROM.1>
93.77742708,-47.70709027,0.06678922,6.00205866,22.50326503,2.32543734,0.35700418
0.79632978

>  <Name>
ligand

>  <RI>
0

>  <Rbt.Current_Directory>
/home/itssahil/PROJECTS/Mol_Feturizer/New_Systems/rnas/4LVX

>  <Rbt.Executable>
rbdock ($Id: //depot/dev/client3/rdock/2013.1/src/exe/rbdock.cxx#4 $)

>  <Rbt.Library>
libRbt.so (2013.1, Build901 2013/11/27)

>  <Rbt.Parameter_File>
/export/apps/rDock/src/rDock_2013.1_src/data/scripts/dock_solv.prm

>  <Rbt.Receptor>
prm/pocket_docking_2.prm

>  <SCORE>
-13.4014

>  <SCORE.INTER>
-8.60611

>  <SCORE.INTER.CONST>
1

>  <SCORE.INTER.POLAR>
0

>  <SCORE.INTER.ROT>
2

>  <SCORE.INTER.SOLV>
22.8757

>  <SCORE.INTER.VDW>
-18.296

>  <SCORE.INTER.norm>
-0.506242

>  <SCORE.INTRA>
-4.7954

>  <SCORE.INTRA.DIHEDRAL>
-6.60238

>  <SCORE.INTRA.DIHEDRAL.0>
10.3255

>  <SCORE.INTRA.POLAR>
0

>  <SCORE.INTRA.POLAR.0>
0

>  <SCORE.INTRA.REPUL>
0

>  <SCORE.INTRA.REPUL.0>
0

>  <SCORE.INTRA.SOLV>
0.204111

>  <SCORE.INTRA.SOLV.lig_0>
-53.4755

>  <SCORE.INTRA.VDW>
-1.59626

>  <SCORE.INTRA.VDW.0>
2.32763

>  <SCORE.INTRA.norm>
-0.282082

>  <SCORE.RESTR>
8.18644e-05

>  <SCORE.RESTR.CAVITY>
8.18644e-05

>  <SCORE.RESTR.norm>
4.81555e-06

>  <SCORE.SYSTEM>
0

>  <SCORE.SYSTEM.CONST>
0

>  <SCORE.SYSTEM.DIHEDRAL>
0

>  <SCORE.SYSTEM.SOLV>
0

>  <SCORE.SYSTEM.norm>
0

>  <SCORE.heavy>
17

>  <SCORE.norm>
-0.788319

>  <RMSD>
0.738

$$$$
ligand
 OpenBabel11021811503D
libRbt.so/2013.1/901 2013/11/27
 17 18  0  0  0  0  0  0  0  0999 V2000
   -2.7947    6.1134   23.8644 N   0  0  0  0  0  0  0  0  0  0  0  0
   -2.6572    6.7960   25.0798 C   0  0  0  0  0  0  0  0  0  0  0  0
   -3.7798    6.9016   25.9662 N   0  0  0  0  0  0  0  0  0  0  0  0
   -1.4587    7.3658   25.4517 N   0  0  0  0  0  0  0  0  0  0  0  0
   -0.3506    7.2880   24.6337 C   0  0  0  0  0  0  0  0  0  0  0  0
   -0.4350    6.6085   23.3782 C   0  0  0  0  0  0  0  0  0  0  0  0
    0.6984    7.7983   24.9782 O   0  0  0  0  0  0  0  0  0  0  0  0
    0.7147    6.5093   22.4825 N   0  0  0  0  0  0  0  0  0  0  0  0
    0.6459    5.6658   21.3431 C   0  0  2  0  0  0  0  0  0  0  0  0
   -0.7892    5.5069   20.7739 C   0  0  0  0  0  0  0  0  0  0  0  0
   -1.6836    6.0201   23.0141 C   0  0  0  0  0  0  0  0  0  0  0  0
   -1.7941    5.3115   21.7256 N   0  0  0  0  0  0  0  0  0  0  0  0
    1.3069    4.3455   21.6944 C   0  0  1  0  0  0  0  0  0  0  0  0
    1.0940    3.4151   20.6967 O   0  0  0  0  0  0  0  0  0  0  0  0
    2.7758    4.5425   21.9227 C   0  0  1  0  0  0  0  0  0  0  0  0
    3.3361    3.4202   22.3954 O   0  0  0  0  0  0  0  0  0  0  0  0
    3.4964    4.9246   20.6123 C   0  0  0  0  0  0  0  0  0  0  0  0
  1  2  2  0  0  0  0
  1 11  1  0  0  0  0
  2  3  1  0  0  0  0
  2  4  1  0  0  0  0
  4  5  1  0  0  0  0
  5  6  1  0  0  0  0
  5  7  2  0  0  0  0
  6  8  1  0  0  0  0
  6 11  2  0  0  0  0
  9  8  1  1  0  0  0
  9 10  1  0  0  0  0
  9 13  1  0  0  0  0
 10 12  1  0  0  0  0
 11 12  1  0  0  0  0
 13 14  1  6  0  0  0
 13 15  1  0  0  0  0
 15 16  1  6  0  0  0
 15 17  1  0  0  0  0
M  END
>  <CHROM.1>
170.98295915,172.25135519,-0.01748157,5.75067624,22.90443594,2.36810305,-0.04084750
0.98164601

>  <Name>
ligand

>  <RI>
0

>  <Rbt.Current_Directory>
/home/itssahil/PROJECTS/Mol_Feturizer/New_Systems/rnas/4LVX

>  <Rbt.Executable>
rbdock ($Id: //depot/dev/client3/rdock/2013.1/src/exe/rbdock.cxx#4 $)

>  <Rbt.Library>
libRbt.so (2013.1, Build901 2013/11/27)

>  <Rbt.Parameter_File>
/export/apps/rDock/src/rDock_2013.1_src/data/scripts/dock_solv.prm

>  <Rbt.Receptor>
prm/pocket_docking_2.prm

>  <SCORE>
-14.868

>  <SCORE.INTER>
-8.47819

>  <SCORE.INTER.CONST>
1

>  <SCORE.INTER.POLAR>
0

>  <SCORE.INTER.ROT>
2

>  <SCORE.INTER.SOLV>
24.5856

>  <SCORE.INTER.VDW>
-18.7807

>  <SCORE.INTER.norm>
-0.498717

>  <SCORE.INTRA>
-6.38979

>  <SCORE.INTRA.DIHEDRAL>
-9.65611

>  <SCORE.INTRA.DIHEDRAL.0>
10.3255

>  <SCORE.INTRA.POLAR>
0

>  <SCORE.INTRA.POLAR.0>
0

>  <SCORE.INTRA.REPUL>
0

>  <SCORE.INTRA.REPUL.0>
0

>  <SCORE.INTRA.SOLV>
-0.577171

>  <SCORE.INTRA.SOLV.lig_0>
-53.4755

>  <SCORE.INTRA.VDW>
-1.27315

>  <SCORE.INTRA.VDW.0>
2.32763

>  <SCORE.INTRA.norm>
-0.37587

>  <SCORE.RESTR>
0

>  <SCORE.RESTR.CAVITY>
0

>  <SCORE.RESTR.norm>
0

>  <SCORE.SYSTEM>
0

>  <SCORE.SYSTEM.CONST>
0

>  <SCORE.SYSTEM.DIHEDRAL>
0

>  <SCORE.SYSTEM.SOLV>
0

>  <SCORE.SYSTEM.norm>
0

>  <SCORE.heavy>
17

>  <SCORE.norm>
-0.874587

>  <RMSD>
0.738

$$$$
ligand
 OpenBabel11021811503D
libRbt.so/2013.1/901 2013/11/27
 17 18  0  0  0  0  0  0  0  0999 V2000
   -2.7704    6.0898   23.8246 N   0  0  0  0  0  0  0  0  0  0  0  0
   -2.6456    6.7802   25.0369 C   0  0  0  0  0  0  0  0  0  0  0  0
   -3.7763    6.8880   25.9127 N   0  0  0  0  0  0  0  0  0  0  0  0
   -1.4520    7.3556   25.4160 N   0  0  0  0  0  0  0  0  0  0  0  0
   -0.3365    7.2759   24.6084 C   0  0  0  0  0  0  0  0  0  0  0  0
   -0.4078    6.5884   23.3564 C   0  0  0  0  0  0  0  0  0  0  0  0
    0.7080    7.7912   24.9591 O   0  0  0  0  0  0  0  0  0  0  0  0
    0.7500    6.4870   22.4716 N   0  0  0  0  0  0  0  0  0  0  0  0
    0.6937    5.6364   21.3368 C   0  0  2  0  0  0  0  0  0  0  0  0
   -0.7358    5.4700   20.7558 C   0  0  0  0  0  0  0  0  0  0  0  0
   -1.6515    5.9944   22.9848 C   0  0  0  0  0  0  0  0  0  0  0  0
   -1.7486    5.2776   21.6998 N   0  0  0  0  0  0  0  0  0  0  0  0
    1.3552    4.3201   21.7021 C   0  0  1  0  0  0  0  0  0  0  0  0
    1.1616    3.3859   20.7040 O   0  0  0  0  0  0  0  0  0  0  0  0
    2.8195    4.5244   21.9521 C   0  0  1  0  0  0  0  0  0  0  0  0
    3.3782    3.4051   22.4338 O   0  0  0  0  0  0  0  0  0  0  0  0
    3.5577    4.9093   20.6524 C   0  0  0  0  0  0  0  0  0  0  0  0
  1  2  2  0  0  0  0
  1 11  1  0  0  0  0
  2  3  1  0  0  0  0
  2  4  1  0  0  0  0
  4  5  1  0  0  0  0
  5  6  1  0  0  0  0
  5  7  2  0  0  0  0
  6  8  1  0  0  0  0
  6 11  2  0  0  0  0
  9  8  1  1  0  0  0
  9 10  1  0  0  0  0
  9 13  1  0  0  0  0
 10 12  1  0  0  0  0
 11 12  1  0  0  0  0
 13 14  1  6  0  0  0
 13 15  1  0  0  0  0
 15 16  1  6  0  0  0
 15 17  1  0  0  0  0
M  END
>  <CHROM.1>
171.40094203,172.38926925,0.01681917,5.72992417,22.89341992,2.37798398,-0.04406128
0.97632505

>  <Name>
ligand

>  <RI>
0

>  <Rbt.Current_Directory>
/home/itssahil/PROJECTS/Mol_Feturizer/New_Systems/rnas/4LVX

>  <Rbt.Executable>
rbdock ($Id: //depot/dev/client3/rdock/2013.1/src/exe/rbdock.cxx#4 $)

>  <Rbt.Library>
libRbt.so (2013.1, Build901 2013/11/27)

>  <Rbt.Parameter_File>
/export/apps/rDock/src/rDock_2013.1_src/data/scripts/dock_solv.prm

>  <Rbt.Receptor>
prm/pocket_docking_2.prm

>  <SCORE>
-14.836

>  <SCORE.INTER>
-8.42685

>  <SCORE.INTER.CONST>
1

>  <SCORE.INTER.POLAR>
0

>  <SCORE.INTER.ROT>
2

>  <SCORE.INTER.SOLV>
24.4708

>  <SCORE.INTER.VDW>
-18.7082

>  <SCORE.INTER.norm>
-0.495697

>  <SCORE.INTRA>
-6.40913

>  <SCORE.INTRA.DIHEDRAL>
-9.68916

>  <SCORE.INTRA.DIHEDRAL.0>
10.3255

>  <SCORE.INTRA.POLAR>
0

>  <SCORE.INTRA.POLAR.0>
0

>  <SCORE.INTRA.REPUL>
0

>  <SCORE.INTRA.REPUL.0>
0

>  <SCORE.INTRA.SOLV>
-0.574554

>  <SCORE.INTRA.SOLV.lig_0>
-53.4755

>  <SCORE.INTRA.VDW>
-1.27727

>  <SCORE.INTRA.VDW.0>
2.32763

>  <SCORE.INTRA.norm>
-0.377007

>  <SCORE.RESTR>
0

>  <SCORE.RESTR.CAVITY>
0

>  <SCORE.RESTR.norm>
0

>  <SCORE.SYSTEM>
0

>  <SCORE.SYSTEM.CONST>
0

>  <SCORE.SYSTEM.DIHEDRAL>
0

>  <SCORE.SYSTEM.SOLV>
0

>  <SCORE.SYSTEM.norm>
0

>  <SCORE.heavy>
17

>  <SCORE.norm>
-0.872705

>  <RMSD>
0.740

$$$$
ligand
 OpenBabel11021811503D
libRbt.so/2013.1/901 2013/11/27
 17 18  0  0  0  0  0  0  0  0999 V2000
   -2.7994    6.1125   23.8655 N   0  0  0  0  0  0  0  0  0  0  0  0
   -2.6688    6.7965   25.0809 C   0  0  0  0  0  0  0  0  0  0  0  0
   -3.7958    6.9011   25.9619 N   0  0  0  0  0  0  0  0  0  0  0  0
   -1.4730    7.3685   25.4582 N   0  0  0  0  0  0  0  0  0  0  0  0
   -0.3609    7.2917   24.6456 C   0  0  0  0  0  0  0  0  0  0  0  0
   -0.4381    6.6109   23.3903 C   0  0  0  0  0  0  0  0  0  0  0  0
    0.6856    7.8039   24.9947 O   0  0  0  0  0  0  0  0  0  0  0  0
    0.7160    6.5127   22.5003 N   0  0  0  0  0  0  0  0  0  0  0  0
    0.6540    5.6681   21.3613 C   0  0  2  0  0  0  0  0  0  0  0  0
   -0.7780    5.5064   20.7853 C   0  0  0  0  0  0  0  0  0  0  0  0
   -1.6840    6.0203   23.0207 C   0  0  0  0  0  0  0  0  0  0  0  0
   -1.7872    5.3103   21.7324 N   0  0  0  0  0  0  0  0  0  0  0  0
    1.3155    4.3491   21.7170 C   0  0  1  0  0  0  0  0  0  0  0  0
    1.0955    3.4128   20.7264 O   0  0  0  0  0  0  0  0  0  0  0  0
    2.7859    4.5456   21.9355 C   0  0  1  0  0  0  0  0  0  0  0  0
    3.3533    3.4160   22.3815 O   0  0  0  0  0  0  0  0  0  0  0  0
    3.4934    4.9545   20.6261 C   0  0  0  0  0  0  0  0  0  0  0  0
  1  2  2  0  0  0  0
  1 11  1  0  0  0  0
  2  3  1  0  0  0  0
  2  4  1  0  0  0  0
  4  5  1  0  0  0  0
  5  6  1  0  0  0  0
  5  7  2  0  0  0  0
  6  8  1  0  0  0  0
  6 11  2  0  0  0  0
  9  8  1  1  0  0  0
  9 10  1  0  0  0  0
  9 13  1  0  0  0  0
 10 12  1  0  0  0  0
 11 12  1  0  0  0  0
 13 14  1  6  0  0  0
 13 15  1  0  0  0  0
 15 16  1  6  0  0  0
 15 17  1  0  0  0  0
M  END
>  <CHROM.1>
170.28088418,173.73127248,-0.01802517,5.75353605,22.91448230,2.37129473,-0.03747010
0.97761727

>  <Name>
ligand

>  <RI>
0

>  <Rbt.Current_Directory>
/home/itssahil/PROJECTS/Mol_Feturizer/New_Systems/rnas/4LVX

>  <Rbt.Executable>
rbdock ($Id: //depot/dev/client3/rdock/2013.1/src/exe/rbdock.cxx#4 $)

>  <Rbt.Library>
libRbt.so (2013.1, Build901 2013/11/27)

>  <Rbt.Parameter_File>
/export/apps/rDock/src/rDock_2013.1_src/data/scripts/dock_solv.prm

>  <Rbt.Receptor>
prm/pocket_docking_2.prm

>  <SCORE>
-14.8677

>  <SCORE.INTER>
-8.49457

>  <SCORE.INTER.CONST>
1

>  <SCORE.INTER.POLAR>
0

>  <SCORE.INTER.ROT>
2

>  <SCORE.INTER.SOLV>
24.5359

>  <SCORE.INTER.VDW>
-18.775

>  <SCORE.INTER.norm>
-0.499681

>  <SCORE.INTRA>
-6.37308

>  <SCORE.INTRA.DIHEDRAL>
-9.68819

>  <SCORE.INTRA.DIHEDRAL.0>
10.3255

>  <SCORE.INTRA.POLAR>
0

>  <SCORE.INTRA.POLAR.0>
0

>  <SCORE.INTRA.REPUL>
0

>  <SCORE.INTRA.REPUL.0>
0

>  <SCORE.INTRA.SOLV>
-0.575329

>  <SCORE.INTRA.SOLV.lig_0>
-53.4755

>  <SCORE.INTRA.VDW>
-1.24132

>  <SCORE.INTRA.VDW.0>
2.32763

>  <SCORE.INTRA.norm>
-0.374887

>  <SCORE.RESTR>
0

>  <SCORE.RESTR.CAVITY>
0

>  <SCORE.RESTR.norm>
0

>  <SCORE.SYSTEM>
0

>  <SCORE.SYSTEM.CONST>
0

>  <SCORE.SYSTEM.DIHEDRAL>
0

>  <SCORE.SYSTEM.SOLV>
0

>  <SCORE.SYSTEM.norm>
0

>  <SCORE.heavy>
17

>  <SCORE.norm>
-0.874568

>  <RMSD>
0.740

$$$$
ligand
 OpenBabel11021811503D
libRbt.so/2013.1/901 2013/11/27
 17 18  0  0  0  0  0  0  0  0999 V2000
   -2.8057    6.1099   23.8527 N   0  0  0  0  0  0  0  0  0  0  0  0
   -2.6595    6.7932   25.0667 C   0  0  0  0  0  0  0  0  0  0  0  0
   -3.7768    6.9022   25.9595 N   0  0  0  0  0  0  0  0  0  0  0  0
   -1.4575    7.3604   25.4313 N   0  0  0  0  0  0  0  0  0  0  0  0
   -0.3544    7.2793   24.6070 C   0  0  0  0  0  0  0  0  0  0  0  0
   -0.4477    6.5989   23.3525 C   0  0  0  0  0  0  0  0  0  0  0  0
    0.6978    7.7873   24.9450 O   0  0  0  0  0  0  0  0  0  0  0  0
    0.6965    6.4962   22.4503 N   0  0  0  0  0  0  0  0  0  0  0  0
    0.6192    5.6521   21.3120 C   0  0  2  0  0  0  0  0  0  0  0  0
   -0.8195    5.4961   20.7511 C   0  0  0  0  0  0  0  0  0  0  0  0
   -1.6997    6.0133   22.9961 C   0  0  0  0  0  0  0  0  0  0  0  0
   -1.8194    5.3039   21.7088 N   0  0  0  0  0  0  0  0  0  0  0  0
    1.2790    4.3304   21.6605 C   0  0  1  0  0  0  0  0  0  0  0  0
    1.0816    3.4082   20.6521 O   0  0  0  0  0  0  0  0  0  0  0  0
    2.7443    4.5292   21.9098 C   0  0  1  0  0  0  0  0  0  0  0  0
    3.3036    3.4010   22.3694 O   0  0  0  0  0  0  0  0  0  0  0  0
    3.4788    4.9370   20.6150 C   0  0  0  0  0  0  0  0  0  0  0  0
  1  2  2  0  0  0  0
  1 11  1  0  0  0  0
  2  3  1  0  0  0  0
  2  4  1  0  0  0  0
  4  5  1  0  0  0  0
  5  6  1  0  0  0  0
  5  7  2  0  0  0  0
  6  8  1  0  0  0  0
  6 11  2  0  0  0  0
  9  8  1  1  0  0  0
  9 10  1  0  0  0  0
  9 13  1  0  0  0  0
 10 12  1  0  0  0  0
 11 12  1  0  0  0  0
 13 14  1  6  0  0  0
 13 15  1  0  0  0  0
 15 16  1  6  0  0  0
 15 17  1  0  0  0  0
M  END
>  <CHROM.1>
172.22623615,172.76987683,-0.03314307,5.74276375,22.88228673,2.36475353,-0.04105779
0.98166644

>  <Name>
ligand

>  <RI>
0

>  <Rbt.Current_Directory>
/home/itssahil/PROJECTS/Mol_Feturizer/New_Systems/rnas/4LVX

>  <Rbt.Executable>
rbdock ($Id: //depot/dev/client3/rdock/2013.1/src/exe/rbdock.cxx#4 $)

>  <Rbt.Library>
libRbt.so (2013.1, Build901 2013/11/27)

>  <Rbt.Parameter_File>
/export/apps/rDock/src/rDock_2013.1_src/data/scripts/dock_solv.prm

>  <Rbt.Receptor>
prm/pocket_docking_2.prm

>  <SCORE>
-14.8748

>  <SCORE.INTER>
-8.42914

>  <SCORE.INTER.CONST>
1

>  <SCORE.INTER.POLAR>
0

>  <SCORE.INTER.ROT>
2

>  <SCORE.INTER.SOLV>
24.7166

>  <SCORE.INTER.VDW>
-18.7916

>  <SCORE.INTER.norm>
-0.495832

>  <SCORE.INTRA>
-6.44568

>  <SCORE.INTRA.DIHEDRAL>
-9.75662

>  <SCORE.INTRA.DIHEDRAL.0>
10.3255

>  <SCORE.INTRA.POLAR>
0

>  <SCORE.INTRA.POLAR.0>
0

>  <SCORE.INTRA.REPUL>
0

>  <SCORE.INTRA.REPUL.0>
0

>  <SCORE.INTRA.SOLV>
-0.568935

>  <SCORE.INTRA.SOLV.lig_0>
-53.4755

>  <SCORE.INTRA.VDW>
-1.2829

>  <SCORE.INTRA.VDW.0>
2.32763

>  <SCORE.INTRA.norm>
-0.379158

>  <SCORE.RESTR>
0

>  <SCORE.RESTR.CAVITY>
0

>  <SCORE.RESTR.norm>
0

>  <SCORE.SYSTEM>
0

>  <SCORE.SYSTEM.CONST>
0

>  <SCORE.SYSTEM.DIHEDRAL>
0

>  <SCORE.SYSTEM.SOLV>
0

>  <SCORE.SYSTEM.norm>
0

>  <SCORE.heavy>
17

>  <SCORE.norm>
-0.874989

>  <RMSD>
0.740

$$$$
ligand
 OpenBabel11021811503D
libRbt.so/2013.1/901 2013/11/27
 17 18  0  0  0  0  0  0  0  0999 V2000
   -2.7892    6.0847   23.8781 N   0  0  0  0  0  0  0  0  0  0  0  0
   -2.6489    6.7855   25.0828 C   0  0  0  0  0  0  0  0  0  0  0  0
   -3.7667    6.8961   25.9747 N   0  0  0  0  0  0  0  0  0  0  0  0
   -1.4520    7.3685   25.4392 N   0  0  0  0  0  0  0  0  0  0  0  0
   -0.3485    7.2865   24.6155 C   0  0  0  0  0  0  0  0  0  0  0  0
   -0.4360    6.5886   23.3702 C   0  0  0  0  0  0  0  0  0  0  0  0
    0.6991    7.8086   24.9462 O   0  0  0  0  0  0  0  0  0  0  0  0
    0.7088    6.4844   22.4689 N   0  0  0  0  0  0  0  0  0  0  0  0
    0.6387    5.6244   21.3420 C   0  0  2  0  0  0  0  0  0  0  0  0
   -0.7987    5.4478   20.7840 C   0  0  0  0  0  0  0  0  0  0  0  0
   -1.6828    5.9868   23.0223 C   0  0  0  0  0  0  0  0  0  0  0  0
   -1.7964    5.2592   21.7447 N   0  0  0  0  0  0  0  0  0  0  0  0
    1.3108    4.3137   21.7079 C   0  0  1  0  0  0  0  0  0  0  0  0
    1.0989    3.3681   20.7243 O   0  0  0  0  0  0  0  0  0  0  0  0
    2.7795    4.5240   21.9252 C   0  0  1  0  0  0  0  0  0  0  0  0
    3.3525    3.4083   22.3985 O   0  0  0  0  0  0  0  0  0  0  0  0
    3.4879    4.9068   20.6084 C   0  0  0  0  0  0  0  0  0  0  0  0
  1  2  2  0  0  0  0
  1 11  1  0  0  0  0
  2  3  1  0  0  0  0
  2  4  1  0  0  0  0
  4  5  1  0  0  0  0
  5  6  1  0  0  0  0
  5  7  2  0  0  0  0
  6  8  1  0  0  0  0
  6 11  2  0  0  0  0
  9  8  1  1  0  0  0
  9 10  1  0  0  0  0
  9 13  1  0  0  0  0
 10 12  1  0  0  0  0
 11 12  1  0  0  0  0
 13 14  1  6  0  0  0
 13 15  1  0  0  0  0
 15 16  1  6  0  0  0
 15 17  1  0  0  0  0
M  END
>  <CHROM.1>
171.02743720,172.82744397,-0.01554864,5.72772776,22.90566198,2.36683709,-0.03058371
0.96659474

>  <Name>
ligand

>  <RI>
0

>  <Rbt.Current_Directory>
/home/itssahil/PROJECTS/Mol_Feturizer/New_Systems/rnas/4LVX

>  <Rbt.Executable>
rbdock ($Id: //depot/dev/client3/rdock/2013.1/src/exe/rbdock.cxx#4 $)

>  <Rbt.Library>
libRbt.so (2013.1, Build901 2013/11/27)

>  <Rbt.Parameter_File>
/export/apps/rDock/src/rDock_2013.1_src/data/scripts/dock_solv.prm

>  <Rbt.Receptor>
prm/pocket_docking_2.prm

>  <SCORE>
-14.8066

>  <SCORE.INTER>
-8.40737

>  <SCORE.INTER.CONST>
1

>  <SCORE.INTER.POLAR>
0

>  <SCORE.INTER.ROT>
2

>  <SCORE.INTER.SOLV>
24.6078

>  <SCORE.INTER.VDW>
-18.7409

>  <SCORE.INTER.norm>
-0.494551

>  <SCORE.INTRA>
-6.39927

>  <SCORE.INTRA.DIHEDRAL>
-9.69058

>  <SCORE.INTRA.DIHEDRAL.0>
10.3255

>  <SCORE.INTRA.POLAR>
0

>  <SCORE.INTRA.POLAR.0>
0

>  <SCORE.INTRA.REPUL>
0

>  <SCORE.INTRA.REPUL.0>
0

>  <SCORE.INTRA.SOLV>
-0.574865

>  <SCORE.INTRA.SOLV.lig_0>
-53.4755

>  <SCORE.INTRA.VDW>
-1.26655

>  <SCORE.INTRA.VDW.0>
2.32763

>  <SCORE.INTRA.norm>
-0.376427

>  <SCORE.RESTR>
0

>  <SCORE.RESTR.CAVITY>
0

>  <SCORE.RESTR.norm>
0

>  <SCORE.SYSTEM>
0

>  <SCORE.SYSTEM.CONST>
0

>  <SCORE.SYSTEM.DIHEDRAL>
0

>  <SCORE.SYSTEM.SOLV>
0

>  <SCORE.SYSTEM.norm>
0

>  <SCORE.heavy>
17

>  <SCORE.norm>
-0.870979

>  <RMSD>
0.741

$$$$
ligand
 OpenBabel11021811503D
libRbt.so/2013.1/901 2013/11/27
 17 18  0  0  0  0  0  0  0  0999 V2000
   -2.8075    6.1121   23.8528 N   0  0  0  0  0  0  0  0  0  0  0  0
   -2.6621    6.7965   25.0663 C   0  0  0  0  0  0  0  0  0  0  0  0
   -3.7798    6.9059   25.9584 N   0  0  0  0  0  0  0  0  0  0  0  0
   -1.4605    7.3645   25.4309 N   0  0  0  0  0  0  0  0  0  0  0  0
   -0.3570    7.2830   24.6072 C   0  0  0  0  0  0  0  0  0  0  0  0
   -0.4494    6.6015   23.3533 C   0  0  0  0  0  0  0  0  0  0  0  0
    0.6949    7.7917   24.9453 O   0  0  0  0  0  0  0  0  0  0  0  0
    0.6953    6.4984   22.4517 N   0  0  0  0  0  0  0  0  0  0  0  0
    0.6188    5.6531   21.3142 C   0  0  2  0  0  0  0  0  0  0  0  0
   -0.8196    5.4962   20.7527 C   0  0  0  0  0  0  0  0  0  0  0  0
   -1.7011    6.0151   22.9968 C   0  0  0  0  0  0  0  0  0  0  0  0
   -1.8199    5.3045   21.7102 N   0  0  0  0  0  0  0  0  0  0  0  0
    1.2790    4.3321   21.6642 C   0  0  1  0  0  0  0  0  0  0  0  0
    1.0833    3.4092   20.6560 O   0  0  0  0  0  0  0  0  0  0  0  0
    2.7438    4.5318   21.9152 C   0  0  1  0  0  0  0  0  0  0  0  0
    3.3029    3.4044   22.3771 O   0  0  0  0  0  0  0  0  0  0  0  0
    3.4799    4.9381   20.6209 C   0  0  0  0  0  0  0  0  0  0  0  0
  1  2  2  0  0  0  0
  1 11  1  0  0  0  0
  2  3  1  0  0  0  0
  2  4  1  0  0  0  0
  4  5  1  0  0  0  0
  5  6  1  0  0  0  0
  5  7  2  0  0  0  0
  6  8  1  0  0  0  0
  6 11  2  0  0  0  0
  9  8  1  1  0  0  0
  9 10  1  0  0  0  0
  9 13  1  0  0  0  0
 10 12  1  0  0  0  0
 11 12  1  0  0  0  0
 13 14  1  6  0  0  0
 13 15  1  0  0  0  0
 15 16  1  6  0  0  0
 15 17  1  0  0  0  0
M  END
>  <CHROM.1>
172.27752899,172.72242574,-0.03424419,5.74508039,22.88434538,2.36547210,-0.04123934
0.98092281

>  <Name>
ligand

>  <RI>
0

>  <Rbt.Current_Directory>
/home/itssahil/PROJECTS/Mol_Feturizer/New_Systems/rnas/4LVX

>  <Rbt.Executable>
rbdock ($Id: //depot/dev/client3/rdock/2013.1/src/exe/rbdock.cxx#4 $)

>  <Rbt.Library>
libRbt.so (2013.1, Build901 2013/11/27)

>  <Rbt.Parameter_File>
/export/apps/rDock/src/rDock_2013.1_src/data/scripts/dock_solv.prm

>  <Rbt.Receptor>
prm/pocket_docking_2.prm

>  <SCORE>
-14.8743

>  <SCORE.INTER>
-8.42731

>  <SCORE.INTER.CONST>
1

>  <SCORE.INTER.POLAR>
0

>  <SCORE.INTER.ROT>
2

>  <SCORE.INTER.SOLV>
24.7097

>  <SCORE.INTER.VDW>
-18.7881

>  <SCORE.INTER.norm>
-0.495724

>  <SCORE.INTRA>
-6.447

>  <SCORE.INTRA.DIHEDRAL>
-9.75683

>  <SCORE.INTRA.DIHEDRAL.0>
10.3255

>  <SCORE.INTRA.POLAR>
0

>  <SCORE.INTRA.POLAR.0>
0

>  <SCORE.INTRA.REPUL>
0

>  <SCORE.INTRA.REPUL.0>
0

>  <SCORE.INTRA.SOLV>
-0.568847

>  <SCORE.INTRA.SOLV.lig_0>
-53.4755

>  <SCORE.INTRA.VDW>
-1.28416

>  <SCORE.INTRA.VDW.0>
2.32763

>  <SCORE.INTRA.norm>
-0.379235

>  <SCORE.RESTR>
0

>  <SCORE.RESTR.CAVITY>
0

>  <SCORE.RESTR.norm>
0

>  <SCORE.SYSTEM>
0

>  <SCORE.SYSTEM.CONST>
0

>  <SCORE.SYSTEM.DIHEDRAL>
0

>  <SCORE.SYSTEM.SOLV>
0

>  <SCORE.SYSTEM.norm>
0

>  <SCORE.heavy>
17

>  <SCORE.norm>
-0.874959

>  <RMSD>
0.742

$$$$
ligand
 OpenBabel11021811503D
libRbt.so/2013.1/901 2013/11/27
 17 18  0  0  0  0  0  0  0  0999 V2000
   -2.8157    6.1101   23.8505 N   0  0  0  0  0  0  0  0  0  0  0  0
   -2.6750    6.7934   25.0651 C   0  0  0  0  0  0  0  0  0  0  0  0
   -3.7959    6.9013   25.9535 N   0  0  0  0  0  0  0  0  0  0  0  0
   -1.4750    7.3618   25.4345 N   0  0  0  0  0  0  0  0  0  0  0  0
   -0.3686    7.2818   24.6145 C   0  0  0  0  0  0  0  0  0  0  0  0
   -0.4561    6.6015   23.3597 C   0  0  0  0  0  0  0  0  0  0  0  0
    0.6818    7.7908   24.9568 O   0  0  0  0  0  0  0  0  0  0  0  0
    0.6918    6.5000   22.4620 N   0  0  0  0  0  0  0  0  0  0  0  0
    0.6197    5.6558   21.3234 C   0  0  2  0  0  0  0  0  0  0  0  0
   -0.8166    5.4985   20.7568 C   0  0  0  0  0  0  0  0  0  0  0  0
   -1.7062    6.0146   22.9982 C   0  0  0  0  0  0  0  0  0  0  0  0
   -1.8201    5.3052   21.7105 N   0  0  0  0  0  0  0  0  0  0  0  0
    1.2796    4.3348   21.6744 C   0  0  1  0  0  0  0  0  0  0  0  0
    1.0746    3.4079   20.6718 O   0  0  0  0  0  0  0  0  0  0  0  0
    2.7466    4.5323   21.9139 C   0  0  1  0  0  0  0  0  0  0  0  0
    3.3076    3.4043   22.3719 O   0  0  0  0  0  0  0  0  0  0  0  0
    3.4732    4.9371   20.6137 C   0  0  0  0  0  0  0  0  0  0  0  0
  1  2  2  0  0  0  0
  1 11  1  0  0  0  0
  2  3  1  0  0  0  0
  2  4  1  0  0  0  0
  4  5  1  0  0  0  0
  5  6  1  0  0  0  0
  5  7  2  0  0  0  0
  6  8  1  0  0  0  0
  6 11  2  0  0  0  0
  9  8  1  1  0  0  0
  9 10  1  0  0  0  0
  9 13  1  0  0  0  0
 10 12  1  0  0  0  0
 11 12  1  0  0  0  0
 13 14  1  6  0  0  0
 13 15  1  0  0  0  0
 15 16  1  6  0  0  0
 15 17  1  0  0  0  0
M  END
>  <CHROM.1>
171.56843362,172.95879063,-0.03982624,5.74467335,22.88777013,2.36712096,-0.04064564
0.98061508

>  <Name>
ligand

>  <RI>
0

>  <Rbt.Current_Directory>
/home/itssahil/PROJECTS/Mol_Feturizer/New_Systems/rnas/4LVX

>  <Rbt.Executable>
rbdock ($Id: //depot/dev/client3/rdock/2013.1/src/exe/rbdock.cxx#4 $)

>  <Rbt.Library>
libRbt.so (2013.1, Build901 2013/11/27)

>  <Rbt.Parameter_File>
/export/apps/rDock/src/rDock_2013.1_src/data/scripts/dock_solv.prm

>  <Rbt.Receptor>
prm/pocket_docking_2.prm

>  <SCORE>
-14.8628

>  <SCORE.INTER>
-8.44013

>  <SCORE.INTER.CONST>
1

>  <SCORE.INTER.POLAR>
0

>  <SCORE.INTER.ROT>
2

>  <SCORE.INTER.SOLV>
24.7028

>  <SCORE.INTER.VDW>
-18.7943

>  <SCORE.INTER.norm>
-0.496478

>  <SCORE.INTRA>
-6.42269

>  <SCORE.INTRA.DIHEDRAL>
-9.72981

>  <SCORE.INTRA.DIHEDRAL.0>
10.3255

>  <SCORE.INTRA.POLAR>
0

>  <SCORE.INTRA.POLAR.0>
0

>  <SCORE.INTRA.REPUL>
0

>  <SCORE.INTRA.REPUL.0>
0

>  <SCORE.INTRA.SOLV>
-0.571614

>  <SCORE.INTRA.SOLV.lig_0>
-53.4755

>  <SCORE.INTRA.VDW>
-1.27197

>  <SCORE.INTRA.VDW.0>
2.32763

>  <SCORE.INTRA.norm>
-0.377805

>  <SCORE.RESTR>
0

>  <SCORE.RESTR.CAVITY>
0

>  <SCORE.RESTR.norm>
0

>  <SCORE.SYSTEM>
0

>  <SCORE.SYSTEM.CONST>
0

>  <SCORE.SYSTEM.DIHEDRAL>
0

>  <SCORE.SYSTEM.SOLV>
0

>  <SCORE.SYSTEM.norm>
0

>  <SCORE.heavy>
17

>  <SCORE.norm>
-0.874283

>  <RMSD>
0.743

$$$$
ligand
 OpenBabel11021811503D
libRbt.so/2013.1/901 2013/11/27
 17 18  0  0  0  0  0  0  0  0999 V2000
   -2.7768    6.0874   23.8388 N   0  0  0  0  0  0  0  0  0  0  0  0
   -2.6432    6.7792   25.0494 C   0  0  0  0  0  0  0  0  0  0  0  0
   -3.7678    6.8883   25.9330 N   0  0  0  0  0  0  0  0  0  0  0  0
   -1.4469    7.3547   25.4194 N   0  0  0  0  0  0  0  0  0  0  0  0
   -0.3371    7.2738   24.6041 C   0  0  0  0  0  0  0  0  0  0  0  0
   -0.4174    6.5849   23.3533 C   0  0  0  0  0  0  0  0  0  0  0  0
    0.7100    7.7892   24.9468 O   0  0  0  0  0  0  0  0  0  0  0  0
    0.7341    6.4822   22.4605 N   0  0  0  0  0  0  0  0  0  0  0  0
    0.6696    5.6303   21.3272 C   0  0  2  0  0  0  0  0  0  0  0  0
   -0.7640    5.4636   20.7564 C   0  0  0  0  0  0  0  0  0  0  0  0
   -1.6639    5.9908   22.9912 C   0  0  0  0  0  0  0  0  0  0  0  0
   -1.7703    5.2726   21.7077 N   0  0  0  0  0  0  0  0  0  0  0  0
    1.3333    4.3143   21.6892 C   0  0  1  0  0  0  0  0  0  0  0  0
    1.1538    3.3866   20.6824 O   0  0  0  0  0  0  0  0  0  0  0  0
    2.7941    4.5231   21.9553 C   0  0  1  0  0  0  0  0  0  0  0  0
    3.3547    3.4004   22.4267 O   0  0  0  0  0  0  0  0  0  0  0  0
    3.5418    4.9298   20.6677 C   0  0  0  0  0  0  0  0  0  0  0  0
  1  2  2  0  0  0  0
  1 11  1  0  0  0  0
  2  3  1  0  0  0  0
  2  4  1  0  0  0  0
  4  5  1  0  0  0  0
  5  6  1  0  0  0  0
  5  7  2  0  0  0  0
  6  8  1  0  0  0  0
  6 11  2  0  0  0  0
  9  8  1  1  0  0  0
  9 10  1  0  0  0  0
  9 13  1  0  0  0  0
 10 12  1  0  0  0  0
 11 12  1  0  0  0  0
 13 14  1  6  0  0  0
 13 15  1  0  0  0  0
 15 16  1  6  0  0  0
 15 17  1  0  0  0  0
M  END
>  <CHROM.1>
172.52200083,172.75743681,0.00527938,5.72842007,22.89324512,2.37450332,-0.04182947
0.97606408

>  <Name>
ligand

>  <RI>
0

>  <Rbt.Current_Directory>
/home/itssahil/PROJECTS/Mol_Feturizer/New_Systems/rnas/4LVX

>  <Rbt.Executable>
rbdock ($Id: //depot/dev/client3/rdock/2013.1/src/exe/rbdock.cxx#4 $)

>  <Rbt.Library>
libRbt.so (2013.1, Build901 2013/11/27)

>  <Rbt.Parameter_File>
/export/apps/rDock/src/rDock_2013.1_src/data/scripts/dock_solv.prm

>  <Rbt.Receptor>
prm/pocket_docking_2.prm

>  <SCORE>
-14.8539

>  <SCORE.INTER>
-8.39779

>  <SCORE.INTER.CONST>
1

>  <SCORE.INTER.POLAR>
0

>  <SCORE.INTER.ROT>
2

>  <SCORE.INTER.SOLV>
24.5284

>  <SCORE.INTER.VDW>
-18.708

>  <SCORE.INTER.norm>
-0.493987

>  <SCORE.INTRA>
-6.4561

>  <SCORE.INTRA.DIHEDRAL>
-9.77159

>  <SCORE.INTRA.DIHEDRAL.0>
10.3255

>  <SCORE.INTRA.POLAR>
0

>  <SCORE.INTRA.POLAR.0>
0

>  <SCORE.INTRA.REPUL>
0

>  <SCORE.INTRA.REPUL.0>
0

>  <SCORE.INTRA.SOLV>
-0.567457

>  <SCORE.INTRA.SOLV.lig_0>
-53.4755

>  <SCORE.INTRA.VDW>
-1.28657

>  <SCORE.INTRA.VDW.0>
2.32763

>  <SCORE.INTRA.norm>
-0.37977

>  <SCORE.RESTR>
0

>  <SCORE.RESTR.CAVITY>
0

>  <SCORE.RESTR.norm>
0

>  <SCORE.SYSTEM>
0

>  <SCORE.SYSTEM.CONST>
0

>  <SCORE.SYSTEM.DIHEDRAL>
0

>  <SCORE.SYSTEM.SOLV>
0

>  <SCORE.SYSTEM.norm>
0

>  <SCORE.heavy>
17

>  <SCORE.norm>
-0.873758

>  <RMSD>
0.744

$$$$
ligand
 OpenBabel11021811503D
libRbt.so/2013.1/901 2013/11/27
 17 18  0  0  0  0  0  0  0  0999 V2000
   -2.8052    6.1143   23.8504 N   0  0  0  0  0  0  0  0  0  0  0  0
   -2.6694    6.7964   25.0663 C   0  0  0  0  0  0  0  0  0  0  0  0
   -3.7941    6.9043   25.9498 N   0  0  0  0  0  0  0  0  0  0  0  0
   -1.4706    7.3634   25.4414 N   0  0  0  0  0  0  0  0  0  0  0  0
   -0.3606    7.2833   24.6263 C   0  0  0  0  0  0  0  0  0  0  0  0
   -0.4432    6.6042   23.3705 C   0  0  0  0  0  0  0  0  0  0  0  0
    0.6886    7.7912   24.9737 O   0  0  0  0  0  0  0  0  0  0  0  0
    0.7086    6.5026   22.4778 N   0  0  0  0  0  0  0  0  0  0  0  0
    0.6409    5.6595   21.3381 C   0  0  2  0  0  0  0  0  0  0  0  0
   -0.7930    5.5038   20.7650 C   0  0  0  0  0  0  0  0  0  0  0  0
   -1.6921    6.0187   23.0030 C   0  0  0  0  0  0  0  0  0  0  0  0
   -1.8009    5.3105   21.7141 N   0  0  0  0  0  0  0  0  0  0  0  0
    1.2981    4.3377   21.6908 C   0  0  1  0  0  0  0  0  0  0  0  0
    1.0913    3.4099   20.6894 O   0  0  0  0  0  0  0  0  0  0  0  0
    2.7655    4.5326   21.9301 C   0  0  1  0  0  0  0  0  0  0  0  0
    3.3223    3.4072   22.3995 O   0  0  0  0  0  0  0  0  0  0  0  0
    3.4950    4.9225   20.6268 C   0  0  0  0  0  0  0  0  0  0  0  0
  1  2  2  0  0  0  0
  1 11  1  0  0  0  0
  2  3  1  0  0  0  0
  2  4  1  0  0  0  0
  4  5  1  0  0  0  0
  5  6  1  0  0  0  0
  5  7  2  0  0  0  0
  6  8  1  0  0  0  0
  6 11  2  0  0  0  0
  9  8  1  1  0  0  0
  9 10  1  0  0  0  0
  9 13  1  0  0  0  0
 10 12  1  0  0  0  0
 11 12  1  0  0  0  0
 13 14  1  6  0  0  0
 13 15  1  0  0  0  0
 15 16  1  6  0  0  0
 15 17  1  0  0  0  0
M  END
>  <CHROM.1>
171.27895686,172.47106369,-0.02590170,5.74636997,22.89879803,2.36971322,-0.04425944
0.98198050

>  <Name>
ligand

>  <RI>
0

>  <Rbt.Current_Directory>
/home/itssahil/PROJECTS/Mol_Feturizer/New_Systems/rnas/4LVX

>  <Rbt.Executable>
rbdock ($Id: //depot/dev/client3/rdock/2013.1/src/exe/rbdock.cxx#4 $)

>  <Rbt.Library>
libRbt.so (2013.1, Build901 2013/11/27)

>  <Rbt.Parameter_File>
/export/apps/rDock/src/rDock_2013.1_src/data/scripts/dock_solv.prm

>  <Rbt.Receptor>
prm/pocket_docking_2.prm

>  <SCORE>
-14.8546

>  <SCORE.INTER>
-8.44923

>  <SCORE.INTER.CONST>
1

>  <SCORE.INTER.POLAR>
0

>  <SCORE.INTER.ROT>
2

>  <SCORE.INTER.SOLV>
24.6385

>  <SCORE.INTER.VDW>
-18.779

>  <SCORE.INTER.norm>
-0.497014

>  <SCORE.INTRA>
-6.40532

>  <SCORE.INTRA.DIHEDRAL>
-9.68647

>  <SCORE.INTRA.DIHEDRAL.0>
10.3255

>  <SCORE.INTRA.POLAR>
0

>  <SCORE.INTRA.POLAR.0>
0

>  <SCORE.INTRA.REPUL>
0

>  <SCORE.INTRA.REPUL.0>
0

>  <SCORE.INTRA.SOLV>
-0.57488

>  <SCORE.INTRA.SOLV.lig_0>
-53.4755

>  <SCORE.INTRA.VDW>
-1.27465

>  <SCORE.INTRA.VDW.0>
2.32763

>  <SCORE.INTRA.norm>
-0.376784

>  <SCORE.RESTR>
0

>  <SCORE.RESTR.CAVITY>
0

>  <SCORE.RESTR.norm>
0

>  <SCORE.SYSTEM>
0

>  <SCORE.SYSTEM.CONST>
0

>  <SCORE.SYSTEM.DIHEDRAL>
0

>  <SCORE.SYSTEM.SOLV>
0

>  <SCORE.SYSTEM.norm>
0

>  <SCORE.heavy>
17

>  <SCORE.norm>
-0.873797

>  <RMSD>
0.745

$$$$
ligand
 OpenBabel11021811503D
libRbt.so/2013.1/901 2013/11/27
 17 18  0  0  0  0  0  0  0  0999 V2000
   -2.7648    6.0782   23.8636 N   0  0  0  0  0  0  0  0  0  0  0  0
   -2.6213    6.7597   25.0789 C   0  0  0  0  0  0  0  0  0  0  0  0
   -3.7396    6.8642   25.9710 N   0  0  0  0  0  0  0  0  0  0  0  0
   -1.4211    7.3293   25.4454 N   0  0  0  0  0  0  0  0  0  0  0  0
   -0.3171    7.2525   24.6219 C   0  0  0  0  0  0  0  0  0  0  0  0
   -0.4076    6.5741   23.3661 C   0  0  0  0  0  0  0  0  0  0  0  0
    0.7335    7.7626   24.9617 O   0  0  0  0  0  0  0  0  0  0  0  0
    0.7376    6.4760   22.4647 N   0  0  0  0  0  0  0  0  0  0  0  0
    0.6633    5.6337   21.3248 C   0  0  2  0  0  0  0  0  0  0  0  0
   -0.7746    5.4750   20.7625 C   0  0  0  0  0  0  0  0  0  0  0  0
   -1.6579    5.9860   23.0077 C   0  0  0  0  0  0  0  0  0  0  0  0
   -1.7747    5.2786   21.7191 N   0  0  0  0  0  0  0  0  0  0  0  0
    1.3263    4.3131   21.6715 C   0  0  1  0  0  0  0  0  0  0  0  0
    1.1517    3.3994   20.6512 O   0  0  0  0  0  0  0  0  0  0  0  0
    2.7859    4.5191   21.9468 C   0  0  1  0  0  0  0  0  0  0  0  0
    3.3379    3.3998   22.4361 O   0  0  0  0  0  0  0  0  0  0  0  0
    3.5455    4.9071   20.6603 C   0  0  0  0  0  0  0  0  0  0  0  0
  1  2  2  0  0  0  0
  1 11  1  0  0  0  0
  2  3  1  0  0  0  0
  2  4  1  0  0  0  0
  4  5  1  0  0  0  0
  5  6  1  0  0  0  0
  5  7  2  0  0  0  0
  6  8  1  0  0  0  0
  6 11  2  0  0  0  0
  9  8  1  1  0  0  0
  9 10  1  0  0  0  0
  9 13  1  0  0  0  0
 10 12  1  0  0  0  0
 11 12  1  0  0  0  0
 13 14  1  6  0  0  0
 13 15  1  0  0  0  0
 15 16  1  6  0  0  0
 15 17  1  0  0  0  0
M  END
>  <CHROM.1>
173.25534638,171.23735802,0.01084980,5.72014898,22.90123215,2.36921114,-0.04491866
0.98739654

>  <Name>
ligand

>  <RI>
0

>  <Rbt.Current_Directory>
/home/itssahil/PROJECTS/Mol_Feturizer/New_Systems/rnas/4LVX

>  <Rbt.Executable>
rbdock ($Id: //depot/dev/client3/rdock/2013.1/src/exe/rbdock.cxx#4 $)

>  <Rbt.Library>
libRbt.so (2013.1, Build901 2013/11/27)

>  <Rbt.Parameter_File>
/export/apps/rDock/src/rDock_2013.1_src/data/scripts/dock_solv.prm

>  <Rbt.Receptor>
prm/pocket_docking_2.prm

>  <SCORE>
-14.8325

>  <SCORE.INTER>
-8.3787

>  <SCORE.INTER.CONST>
1

>  <SCORE.INTER.POLAR>
0

>  <SCORE.INTER.ROT>
2

>  <SCORE.INTER.SOLV>
24.5291

>  <SCORE.INTER.VDW>
-18.6955

>  <SCORE.INTER.norm>
-0.492864

>  <SCORE.INTRA>
-6.454

>  <SCORE.INTRA.DIHEDRAL>
-9.71868

>  <SCORE.INTRA.DIHEDRAL.0>
10.3255

>  <SCORE.INTRA.POLAR>
0

>  <SCORE.INTRA.POLAR.0>
0

>  <SCORE.INTRA.REPUL>
0

>  <SCORE.INTRA.REPUL.0>
0

>  <SCORE.INTRA.SOLV>
-0.569224

>  <SCORE.INTRA.SOLV.lig_0>
-53.4755

>  <SCORE.INTRA.VDW>
-1.31004

>  <SCORE.INTRA.VDW.0>
2.32763

>  <SCORE.INTRA.norm>
-0.379647

>  <SCORE.RESTR>
0.000159965

>  <SCORE.RESTR.CAVITY>
0.000159965

>  <SCORE.RESTR.norm>
9.40968e-06

>  <SCORE.SYSTEM>
0

>  <SCORE.SYSTEM.CONST>
0

>  <SCORE.SYSTEM.DIHEDRAL>
0

>  <SCORE.SYSTEM.SOLV>
0

>  <SCORE.SYSTEM.norm>
0

>  <SCORE.heavy>
17

>  <SCORE.norm>
-0.872502

>  <RMSD>
0.745

$$$$
ligand
 OpenBabel11021811503D
libRbt.so/2013.1/901 2013/11/27
 17 18  0  0  0  0  0  0  0  0999 V2000
   -2.7740    6.0894   23.8326 N   0  0  0  0  0  0  0  0  0  0  0  0
   -2.6546    6.7897   25.0398 C   0  0  0  0  0  0  0  0  0  0  0  0
   -3.7880    6.9004   25.9119 N   0  0  0  0  0  0  0  0  0  0  0  0
   -1.4641    7.3722   25.4174 N   0  0  0  0  0  0  0  0  0  0  0  0
   -0.3462    7.2901   24.6132 C   0  0  0  0  0  0  0  0  0  0  0  0
   -0.4120    6.5926   23.3664 C   0  0  0  0  0  0  0  0  0  0  0  0
    0.6956    7.8117   24.9625 O   0  0  0  0  0  0  0  0  0  0  0  0
    0.7485    6.4883   22.4854 N   0  0  0  0  0  0  0  0  0  0  0  0
    0.6980    5.6286   21.3572 C   0  0  2  0  0  0  0  0  0  0  0  0
   -0.7294    5.4527   20.7739 C   0  0  0  0  0  0  0  0  0  0  0  0
   -1.6526    5.9913   22.9964 C   0  0  0  0  0  0  0  0  0  0  0  0
   -1.7440    5.2642   21.7168 N   0  0  0  0  0  0  0  0  0  0  0  0
    1.3631    4.3176   21.7344 C   0  0  1  0  0  0  0  0  0  0  0  0
    1.1633    3.3706   20.7496 O   0  0  0  0  0  0  0  0  0  0  0  0
    2.8290    4.5261   21.9715 C   0  0  1  0  0  0  0  0  0  0  0  0
    3.3947    3.4091   22.4503 O   0  0  0  0  0  0  0  0  0  0  0  0
    3.5551    4.9106   20.6648 C   0  0  0  0  0  0  0  0  0  0  0  0
  1  2  2  0  0  0  0
  1 11  1  0  0  0  0
  2  3  1  0  0  0  0
  2  4  1  0  0  0  0
  4  5  1  0  0  0  0
  5  6  1  0  0  0  0
  5  7  2  0  0  0  0
  6  8  1  0  0  0  0
  6 11  2  0  0  0  0
  9  8  1  1  0  0  0
  9 10  1  0  0  0  0
  9 13  1  0  0  0  0
 10 12  1  0  0  0  0
 11 12  1  0  0  0  0
 13 14  1  6  0  0  0
 13 15  1  0  0  0  0
 15 16  1  6  0  0  0
 15 17  1  0  0  0  0
M  END
>  <CHROM.1>
170.76807446,173.02988437,0.01594172,5.73138063,22.90764649,2.38055841,-0.03988919
0.96670655

>  <Name>
ligand

>  <RI>
0

>  <Rbt.Current_Directory>
/home/itssahil/PROJECTS/Mol_Feturizer/New_Systems/rnas/4LVX

>  <Rbt.Executable>
rbdock ($Id: //depot/dev/client3/rdock/2013.1/src/exe/rbdock.cxx#4 $)

>  <Rbt.Library>
libRbt.so (2013.1, Build901 2013/11/27)

>  <Rbt.Parameter_File>
/export/apps/rDock/src/rDock_2013.1_src/data/scripts/dock_solv.prm

>  <Rbt.Receptor>
prm/pocket_docking_2.prm

>  <SCORE>
-14.8061

>  <SCORE.INTER>
-8.41586

>  <SCORE.INTER.CONST>
1

>  <SCORE.INTER.POLAR>
0

>  <SCORE.INTER.ROT>
2

>  <SCORE.INTER.SOLV>
24.4354

>  <SCORE.INTER.VDW>
-18.6891

>  <SCORE.INTER.norm>
-0.495051

>  <SCORE.INTRA>
-6.39023

>  <SCORE.INTRA.DIHEDRAL>
-9.68504

>  <SCORE.INTRA.DIHEDRAL.0>
10.3255

>  <SCORE.INTRA.POLAR>
0

>  <SCORE.INTRA.POLAR.0>
0

>  <SCORE.INTRA.REPUL>
0

>  <SCORE.INTRA.REPUL.0>
0

>  <SCORE.INTRA.SOLV>
-0.575445

>  <SCORE.INTRA.SOLV.lig_0>
-53.4755

>  <SCORE.INTRA.VDW>
-1.25999

>  <SCORE.INTRA.VDW.0>
2.32763

>  <SCORE.INTRA.norm>
-0.375896

>  <SCORE.RESTR>
0

>  <SCORE.RESTR.CAVITY>
0

>  <SCORE.RESTR.norm>
0

>  <SCORE.SYSTEM>
0

>  <SCORE.SYSTEM.CONST>
0

>  <SCORE.SYSTEM.DIHEDRAL>
0

>  <SCORE.SYSTEM.SOLV>
0

>  <SCORE.SYSTEM.norm>
0

>  <SCORE.heavy>
17

>  <SCORE.norm>
-0.870947

>  <RMSD>
0.746

$$$$
ligand
 OpenBabel11021811503D
libRbt.so/2013.1/901 2013/11/27
 17 18  0  0  0  0  0  0  0  0999 V2000
   -2.7991    6.1034   23.8417 N   0  0  0  0  0  0  0  0  0  0  0  0
   -2.6616    6.7942   25.0525 C   0  0  0  0  0  0  0  0  0  0  0  0
   -3.7847    6.9071   25.9375 N   0  0  0  0  0  0  0  0  0  0  0  0
   -1.4627    7.3652   25.4213 N   0  0  0  0  0  0  0  0  0  0  0  0
   -0.3542    7.2806   24.6046 C   0  0  0  0  0  0  0  0  0  0  0  0
   -0.4385    6.5926   23.3537 C   0  0  0  0  0  0  0  0  0  0  0  0
    0.6951    7.7921   24.9463 O   0  0  0  0  0  0  0  0  0  0  0  0
    0.7116    6.4860   22.4595 N   0  0  0  0  0  0  0  0  0  0  0  0
    0.6426    5.6348   21.3259 C   0  0  2  0  0  0  0  0  0  0  0  0
   -0.7922    5.4735   20.7568 C   0  0  0  0  0  0  0  0  0  0  0  0
   -1.6875    6.0031   22.9928 C   0  0  0  0  0  0  0  0  0  0  0  0
   -1.7980    5.2858   21.7092 N   0  0  0  0  0  0  0  0  0  0  0  0
    1.3020    4.3163   21.6867 C   0  0  1  0  0  0  0  0  0  0  0  0
    1.0947    3.3814   20.6920 O   0  0  0  0  0  0  0  0  0  0  0  0
    2.7696    4.5146   21.9221 C   0  0  1  0  0  0  0  0  0  0  0  0
    3.3236    3.4011   22.4222 O   0  0  0  0  0  0  0  0  0  0  0  0
    3.5011    4.8677   20.6095 C   0  0  0  0  0  0  0  0  0  0  0  0
  1  2  2  0  0  0  0
  1 11  1  0  0  0  0
  2  3  1  0  0  0  0
  2  4  1  0  0  0  0
  4  5  1  0  0  0  0
  5  6  1  0  0  0  0
  5  7  2  0  0  0  0
  6  8  1  0  0  0  0
  6 11  2  0  0  0  0
  9  8  1  1  0  0  0
  9 10  1  0  0  0  0
  9 13  1  0  0  0  0
 10 12  1  0  0  0  0
 11 12  1  0  0  0  0
 13 14  1  6  0  0  0
 13 15  1  0  0  0  0
 15 16  1  6  0  0  0
 15 17  1  0  0  0  0
M  END
>  <CHROM.1>
171.29785398,171.29859413,-0.02121738,5.73068191,22.88864528,2.36880997,-0.04487851
0.97669628

>  <Name>
ligand

>  <RI>
0

>  <Rbt.Current_Directory>
/home/itssahil/PROJECTS/Mol_Feturizer/New_Systems/rnas/4LVX

>  <Rbt.Executable>
rbdock ($Id: //depot/dev/client3/rdock/2013.1/src/exe/rbdock.cxx#4 $)

>  <Rbt.Library>
libRbt.so (2013.1, Build901 2013/11/27)

>  <Rbt.Parameter_File>
/export/apps/rDock/src/rDock_2013.1_src/data/scripts/dock_solv.prm

>  <Rbt.Receptor>
prm/pocket_docking_2.prm

>  <SCORE>
-14.8381

>  <SCORE.INTER>
-8.45365

>  <SCORE.INTER.CONST>
1

>  <SCORE.INTER.POLAR>
0

>  <SCORE.INTER.ROT>
2

>  <SCORE.INTER.SOLV>
24.6942

>  <SCORE.INTER.VDW>
-18.8005

>  <SCORE.INTER.norm>
-0.497274

>  <SCORE.INTRA>
-6.38446

>  <SCORE.INTRA.DIHEDRAL>
-9.61788

>  <SCORE.INTRA.DIHEDRAL.0>
10.3255

>  <SCORE.INTRA.POLAR>
0

>  <SCORE.INTRA.POLAR.0>
0

>  <SCORE.INTRA.REPUL>
0

>  <SCORE.INTRA.REPUL.0>
0

>  <SCORE.INTRA.SOLV>
-0.578921

>  <SCORE.INTRA.SOLV.lig_0>
-53.4755

>  <SCORE.INTRA.VDW>
-1.28606

>  <SCORE.INTRA.VDW.0>
2.32763

>  <SCORE.INTRA.norm>
-0.375556

>  <SCORE.RESTR>
0

>  <SCORE.RESTR.CAVITY>
0

>  <SCORE.RESTR.norm>
0

>  <SCORE.SYSTEM>
0

>  <SCORE.SYSTEM.CONST>
0

>  <SCORE.SYSTEM.DIHEDRAL>
0

>  <SCORE.SYSTEM.SOLV>
0

>  <SCORE.SYSTEM.norm>
0

>  <SCORE.heavy>
17

>  <SCORE.norm>
-0.87283

>  <RMSD>
0.747

$$$$
ligand
 OpenBabel11021811503D
libRbt.so/2013.1/901 2013/11/27
 17 18  0  0  0  0  0  0  0  0999 V2000
   -2.4510    5.9123   23.7584 N   0  0  0  0  0  0  0  0  0  0  0  0
   -2.4401    6.7130   24.9077 C   0  0  0  0  0  0  0  0  0  0  0  0
   -3.5301    6.6370   25.8368 N   0  0  0  0  0  0  0  0  0  0  0  0
   -1.3961    7.5722   25.1742 N   0  0  0  0  0  0  0  0  0  0  0  0
   -0.3246    7.6779   24.3118 C   0  0  0  0  0  0  0  0  0  0  0  0
   -0.2858    6.8887   23.1197 C   0  0  0  0  0  0  0  0  0  0  0  0
    0.5870    8.4428   24.5631 O   0  0  0  0  0  0  0  0  0  0  0  0
    0.8288    6.9763   22.1796 N   0  0  0  0  0  0  0  0  0  0  0  0
    0.9241    6.0421   21.1153 C   0  0  2  0  0  0  0  0  0  0  0  0
   -0.4509    5.5096   20.6313 C   0  0  0  0  0  0  0  0  0  0  0  0
   -1.3740    6.0007   22.8648 C   0  0  0  0  0  0  0  0  0  0  0  0
   -1.3549    5.1746   21.6436 N   0  0  0  0  0  0  0  0  0  0  0  0
    1.8834    4.9443   21.5374 C   0  0  1  0  0  0  0  0  0  0  0  0
    1.1950    3.8871   22.0987 O   0  0  0  0  0  0  0  0  0  0  0  0
    2.6923    4.4791   20.3636 C   0  0  1  0  0  0  0  0  0  0  0  0
    1.9001    4.2322   19.3108 O   0  0  0  0  0  0  0  0  0  0  0  0
    3.7294    5.5432   19.9456 C   0  0  0  0  0  0  0  0  0  0  0  0
  1  2  2  0  0  0  0
  1 11  1  0  0  0  0
  2  3  1  0  0  0  0
  2  4  1  0  0  0  0
  4  5  1  0  0  0  0
  5  6  1  0  0  0  0
  5  7  2  0  0  0  0
  6  8  1  0  0  0  0
  6 11  2  0  0  0  0
  9  8  1  1  0  0  0
  9 10  1  0  0  0  0
  9 13  1  0  0  0  0
 10 12  1  0  0  0  0
 11 12  1  0  0  0  0
 13 14  1  6  0  0  0
 13 15  1  0  0  0  0
 15 16  1  6  0  0  0
 15 17  1  0  0  0  0
M  END
>  <CHROM.1>
93.64532411,-48.48768193,0.07010359,6.00631128,22.50176762,2.32809709,0.36877740
0.79009967

>  <Name>
ligand

>  <RI>
0

>  <Rbt.Current_Directory>
/home/itssahil/PROJECTS/Mol_Feturizer/New_Systems/rnas/4LVX

>  <Rbt.Executable>
rbdock ($Id: //depot/dev/client3/rdock/2013.1/src/exe/rbdock.cxx#4 $)

>  <Rbt.Library>
libRbt.so (2013.1, Build901 2013/11/27)

>  <Rbt.Parameter_File>
/export/apps/rDock/src/rDock_2013.1_src/data/scripts/dock_solv.prm

>  <Rbt.Receptor>
prm/pocket_docking_2.prm

>  <SCORE>
-13.4035

>  <SCORE.INTER>
-8.57255

>  <SCORE.INTER.CONST>
1

>  <SCORE.INTER.POLAR>
0

>  <SCORE.INTER.ROT>
2

>  <SCORE.INTER.SOLV>
22.8258

>  <SCORE.INTER.VDW>
-18.257

>  <SCORE.INTER.norm>
-0.504268

>  <SCORE.INTRA>
-4.83091

>  <SCORE.INTRA.DIHEDRAL>
-6.68277

>  <SCORE.INTRA.DIHEDRAL.0>
10.3255

>  <SCORE.INTRA.POLAR>
0

>  <SCORE.INTRA.POLAR.0>
0

>  <SCORE.INTRA.REPUL>
0

>  <SCORE.INTRA.REPUL.0>
0

>  <SCORE.INTRA.SOLV>
0.205892

>  <SCORE.INTRA.SOLV.lig_0>
-53.4755

>  <SCORE.INTRA.VDW>
-1.59247

>  <SCORE.INTRA.VDW.0>
2.32763

>  <SCORE.INTRA.norm>
-0.284171

>  <SCORE.RESTR>
0

>  <SCORE.RESTR.CAVITY>
0

>  <SCORE.RESTR.norm>
0

>  <SCORE.SYSTEM>
0

>  <SCORE.SYSTEM.CONST>
0

>  <SCORE.SYSTEM.DIHEDRAL>
0

>  <SCORE.SYSTEM.SOLV>
0

>  <SCORE.SYSTEM.norm>
0

>  <SCORE.heavy>
17

>  <SCORE.norm>
-0.788439

>  <RMSD>
0.749

$$$$
ligand
 OpenBabel11021811503D
libRbt.so/2013.1/901 2013/11/27
 17 18  0  0  0  0  0  0  0  0999 V2000
   -2.4526    5.9118   23.7555 N   0  0  0  0  0  0  0  0  0  0  0  0
   -2.4423    6.7120   24.9051 C   0  0  0  0  0  0  0  0  0  0  0  0
   -3.5332    6.6363   25.8332 N   0  0  0  0  0  0  0  0  0  0  0  0
   -1.3980    7.5706   25.1729 N   0  0  0  0  0  0  0  0  0  0  0  0
   -0.3257    7.6759   24.3115 C   0  0  0  0  0  0  0  0  0  0  0  0
   -0.2863    6.8873   23.1191 C   0  0  0  0  0  0  0  0  0  0  0  0
    0.5861    8.4403   24.5639 O   0  0  0  0  0  0  0  0  0  0  0  0
    0.8292    6.9745   22.1800 N   0  0  0  0  0  0  0  0  0  0  0  0
    0.9250    6.0407   21.1155 C   0  0  2  0  0  0  0  0  0  0  0  0
   -0.4499    5.5092   20.6300 C   0  0  0  0  0  0  0  0  0  0  0  0
   -1.3747    6.0000   22.8629 C   0  0  0  0  0  0  0  0  0  0  0  0
   -1.3550    5.1743   21.6414 N   0  0  0  0  0  0  0  0  0  0  0  0
    1.8833    4.9422   21.5380 C   0  0  1  0  0  0  0  0  0  0  0  0
    1.1939    3.8855   22.0990 O   0  0  0  0  0  0  0  0  0  0  0  0
    2.6923    4.4765   20.3646 C   0  0  1  0  0  0  0  0  0  0  0  0
    1.9001    4.2267   19.3125 O   0  0  0  0  0  0  0  0  0  0  0  0
    3.7277    5.5414   19.9446 C   0  0  0  0  0  0  0  0  0  0  0  0
  1  2  2  0  0  0  0
  1 11  1  0  0  0  0
  2  3  1  0  0  0  0
  2  4  1  0  0  0  0
  4  5  1  0  0  0  0
  5  6  1  0  0  0  0
  5  7  2  0  0  0  0
  6  8  1  0  0  0  0
  6 11  2  0  0  0  0
  9  8  1  1  0  0  0
  9 10  1  0  0  0  0
  9 13  1  0  0  0  0
 10 12  1  0  0  0  0
 11 12  1  0  0  0  0
 13 14  1  6  0  0  0
 13 15  1  0  0  0  0
 15 16  1  6  0  0  0
 15 17  1  0  0  0  0
M  END
>  <CHROM.1>
93.61047988,-48.65134136,0.06934419,6.00460927,22.50107986,2.32816330,0.36808726
0.79010100

>  <Name>
ligand

>  <RI>
0

>  <Rbt.Current_Directory>
/home/itssahil/PROJECTS/Mol_Feturizer/New_Systems/rnas/4LVX

>  <Rbt.Executable>
rbdock ($Id: //depot/dev/client3/rdock/2013.1/src/exe/rbdock.cxx#4 $)

>  <Rbt.Library>
libRbt.so (2013.1, Build901 2013/11/27)

>  <Rbt.Parameter_File>
/export/apps/rDock/src/rDock_2013.1_src/data/scripts/dock_solv.prm

>  <Rbt.Receptor>
prm/pocket_docking_2.prm

>  <SCORE>
-13.4014

>  <SCORE.INTER>
-8.56308

>  <SCORE.INTER.CONST>
1

>  <SCORE.INTER.POLAR>
0

>  <SCORE.INTER.ROT>
2

>  <SCORE.INTER.SOLV>
22.8333

>  <SCORE.INTER.VDW>
-18.2532

>  <SCORE.INTER.norm>
-0.503711

>  <SCORE.INTRA>
-4.83836

>  <SCORE.INTRA.DIHEDRAL>
-6.7001

>  <SCORE.INTRA.DIHEDRAL.0>
10.3255

>  <SCORE.INTRA.POLAR>
0

>  <SCORE.INTRA.POLAR.0>
0

>  <SCORE.INTRA.REPUL>
0

>  <SCORE.INTRA.REPUL.0>
0

>  <SCORE.INTRA.SOLV>
0.206366

>  <SCORE.INTRA.SOLV.lig_0>
-53.4755

>  <SCORE.INTRA.VDW>
-1.59149

>  <SCORE.INTRA.VDW.0>
2.32763

>  <SCORE.INTRA.norm>
-0.284609

>  <SCORE.RESTR>
0

>  <SCORE.RESTR.CAVITY>
0

>  <SCORE.RESTR.norm>
0

>  <SCORE.SYSTEM>
0

>  <SCORE.SYSTEM.CONST>
0

>  <SCORE.SYSTEM.DIHEDRAL>
0

>  <SCORE.SYSTEM.SOLV>
0

>  <SCORE.SYSTEM.norm>
0

>  <SCORE.heavy>
17

>  <SCORE.norm>
-0.78832

>  <RMSD>
0.749

$$$$
ligand
 OpenBabel11021811503D
libRbt.so/2013.1/901 2013/11/27
 17 18  0  0  0  0  0  0  0  0999 V2000
   -2.4508    5.9112   23.7596 N   0  0  0  0  0  0  0  0  0  0  0  0
   -2.4400    6.7109   24.9095 C   0  0  0  0  0  0  0  0  0  0  0  0
   -3.5305    6.6346   25.8381 N   0  0  0  0  0  0  0  0  0  0  0  0
   -1.3958    7.5695   25.1773 N   0  0  0  0  0  0  0  0  0  0  0  0
   -0.3240    7.6755   24.3154 C   0  0  0  0  0  0  0  0  0  0  0  0
   -0.2850    6.8874   23.1226 C   0  0  0  0  0  0  0  0  0  0  0  0
    0.5879    8.4399   24.5677 O   0  0  0  0  0  0  0  0  0  0  0  0
    0.8300    6.9753   22.1830 N   0  0  0  0  0  0  0  0  0  0  0  0
    0.9255    6.0420   21.1180 C   0  0  2  0  0  0  0  0  0  0  0  0
   -0.4496    5.5104   20.6330 C   0  0  0  0  0  0  0  0  0  0  0  0
   -1.3734    6.0000   22.8665 C   0  0  0  0  0  0  0  0  0  0  0  0
   -1.3540    5.1749   21.6445 N   0  0  0  0  0  0  0  0  0  0  0  0
    1.8842    4.9434   21.5396 C   0  0  1  0  0  0  0  0  0  0  0  0
    1.1951    3.8859   22.0993 O   0  0  0  0  0  0  0  0  0  0  0  0
    2.6936    4.4792   20.3657 C   0  0  1  0  0  0  0  0  0  0  0  0
    1.8999    4.2145   19.3184 O   0  0  0  0  0  0  0  0  0  0  0  0
    3.7158    5.5526   19.9351 C   0  0  0  0  0  0  0  0  0  0  0  0
  1  2  2  0  0  0  0
  1 11  1  0  0  0  0
  2  3  1  0  0  0  0
  2  4  1  0  0  0  0
  4  5  1  0  0  0  0
  5  6  1  0  0  0  0
  5  7  2  0  0  0  0
  6  8  1  0  0  0  0
  6 11  2  0  0  0  0
  9  8  1  1  0  0  0
  9 10  1  0  0  0  0
  9 13  1  0  0  0  0
 10 12  1  0  0  0  0
 11 12  1  0  0  0  0
 13 14  1  6  0  0  0
 13 15  1  0  0  0  0
 15 16  1  6  0  0  0
 15 17  1  0  0  0  0
M  END
>  <CHROM.1>
93.65868321,-49.40832943,0.06979840,6.00467335,22.50357300,2.32774187,0.37015976
0.78928551

>  <Name>
ligand

>  <RI>
0

>  <Rbt.Current_Directory>
/home/itssahil/PROJECTS/Mol_Feturizer/New_Systems/rnas/4LVX

>  <Rbt.Executable>
rbdock ($Id: //depot/dev/client3/rdock/2013.1/src/exe/rbdock.cxx#4 $)

>  <Rbt.Library>
libRbt.so (2013.1, Build901 2013/11/27)

>  <Rbt.Parameter_File>
/export/apps/rDock/src/rDock_2013.1_src/data/scripts/dock_solv.prm

>  <Rbt.Receptor>
prm/pocket_docking_2.prm

>  <SCORE>
-13.395

>  <SCORE.INTER>
-8.53805

>  <SCORE.INTER.CONST>
1

>  <SCORE.INTER.POLAR>
0

>  <SCORE.INTER.ROT>
2

>  <SCORE.INTER.SOLV>
22.8359

>  <SCORE.INTER.VDW>
-18.2373

>  <SCORE.INTER.norm>
-0.502238

>  <SCORE.INTRA>
-4.857

>  <SCORE.INTRA.DIHEDRAL>
-6.75048

>  <SCORE.INTRA.DIHEDRAL.0>
10.3255

>  <SCORE.INTRA.POLAR>
0

>  <SCORE.INTRA.POLAR.0>
0

>  <SCORE.INTRA.REPUL>
0

>  <SCORE.INTRA.REPUL.0>
0

>  <SCORE.INTRA.SOLV>
0.205063

>  <SCORE.INTRA.SOLV.lig_0>
-53.4755

>  <SCORE.INTRA.VDW>
-1.58429

>  <SCORE.INTRA.VDW.0>
2.32763

>  <SCORE.INTRA.norm>
-0.285706

>  <SCORE.RESTR>
5.89548e-05

>  <SCORE.RESTR.CAVITY>
5.89548e-05

>  <SCORE.RESTR.norm>
3.46793e-06

>  <SCORE.SYSTEM>
0

>  <SCORE.SYSTEM.CONST>
0

>  <SCORE.SYSTEM.DIHEDRAL>
0

>  <SCORE.SYSTEM.SOLV>
0

>  <SCORE.SYSTEM.norm>
0

>  <SCORE.heavy>
17

>  <SCORE.norm>
-0.787941

>  <RMSD>
0.753

$$$$
ligand
 OpenBabel11021811503D
libRbt.so/2013.1/901 2013/11/27
 17 18  0  0  0  0  0  0  0  0999 V2000
   -2.8574    6.1854   23.8271 N   0  0  0  0  0  0  0  0  0  0  0  0
   -2.6639    6.6974   25.1165 C   0  0  0  0  0  0  0  0  0  0  0  0
   -3.7945    6.9130   25.9723 N   0  0  0  0  0  0  0  0  0  0  0  0
   -1.4039    6.9934   25.5899 N   0  0  0  0  0  0  0  0  0  0  0  0
   -0.2862    6.8004   24.8048 C   0  0  0  0  0  0  0  0  0  0  0  0
   -0.4248    6.2859   23.4777 C   0  0  0  0  0  0  0  0  0  0  0  0
    0.8177    7.0687   25.2394 O   0  0  0  0  0  0  0  0  0  0  0  0
    0.7340    6.0726   22.6143 N   0  0  0  0  0  0  0  0  0  0  0  0
    0.5751    5.3827   21.3842 C   0  0  2  0  0  0  0  0  0  0  0  0
   -0.8330    5.5527   20.7542 C   0  0  0  0  0  0  0  0  0  0  0  0
   -1.7378    5.9801   23.0082 C   0  0  0  0  0  0  0  0  0  0  0  0
   -1.9056    5.4456   21.6442 N   0  0  0  0  0  0  0  0  0  0  0  0
    0.9688    3.9334   21.6032 C   0  0  1  0  0  0  0  0  0  0  0  0
    0.2954    3.1090   20.7238 O   0  0  0  0  0  0  0  0  0  0  0  0
    2.4509    3.7666   21.4478 C   0  0  1  0  0  0  0  0  0  0  0  0
    2.8806    4.3696   20.3304 O   0  0  0  0  0  0  0  0  0  0  0  0
    3.2084    4.3780   22.6457 C   0  0  0  0  0  0  0  0  0  0  0  0
  1  2  2  0  0  0  0
  1 11  1  0  0  0  0
  2  3  1  0  0  0  0
  2  4  1  0  0  0  0
  4  5  1  0  0  0  0
  5  6  1  0  0  0  0
  5  7  2  0  0  0  0
  6  8  1  0  0  0  0
  6 11  2  0  0  0  0
  9  8  1  1  0  0  0
  9 10  1  0  0  0  0
  9 13  1  0  0  0  0
 10 12  1  0  0  0  0
 11 12  1  0  0  0  0
 13 14  1  6  0  0  0
 13 15  1  0  0  0  0
 15 16  1  6  0  0  0
 15 17  1  0  0  0  0
M  END
>  <CHROM.1>
152.27240001,-47.77911049,-0.16309715,5.54659569,22.90809934,2.29978419,-0.10214356
1.07053515

>  <Name>
ligand

>  <RI>
0

>  <Rbt.Current_Directory>
/home/itssahil/PROJECTS/Mol_Feturizer/New_Systems/rnas/4LVX

>  <Rbt.Executable>
rbdock ($Id: //depot/dev/client3/rdock/2013.1/src/exe/rbdock.cxx#4 $)

>  <Rbt.Library>
libRbt.so (2013.1, Build901 2013/11/27)

>  <Rbt.Parameter_File>
/export/apps/rDock/src/rDock_2013.1_src/data/scripts/dock_solv.prm

>  <Rbt.Receptor>
prm/pocket_docking_2.prm

>  <SCORE>
-13.8132

>  <SCORE.INTER>
-8.98642

>  <SCORE.INTER.CONST>
1

>  <SCORE.INTER.POLAR>
0

>  <SCORE.INTER.ROT>
2

>  <SCORE.INTER.SOLV>
26.1581

>  <SCORE.INTER.VDW>
-19.6437

>  <SCORE.INTER.norm>
-0.528613

>  <SCORE.INTRA>
-4.82681

>  <SCORE.INTRA.DIHEDRAL>
-7.38812

>  <SCORE.INTRA.DIHEDRAL.0>
10.3255

>  <SCORE.INTRA.POLAR>
0

>  <SCORE.INTRA.POLAR.0>
0

>  <SCORE.INTRA.REPUL>
0

>  <SCORE.INTRA.REPUL.0>
0

>  <SCORE.INTRA.SOLV>
0.190599

>  <SCORE.INTRA.SOLV.lig_0>
-53.4755

>  <SCORE.INTRA.VDW>
-1.22805

>  <SCORE.INTRA.VDW.0>
2.32763

>  <SCORE.INTRA.norm>
-0.28393

>  <SCORE.RESTR>
0

>  <SCORE.RESTR.CAVITY>
0

>  <SCORE.RESTR.norm>
0

>  <SCORE.SYSTEM>
0

>  <SCORE.SYSTEM.CONST>
0

>  <SCORE.SYSTEM.DIHEDRAL>
0

>  <SCORE.SYSTEM.SOLV>
0

>  <SCORE.SYSTEM.norm>
0

>  <SCORE.heavy>
17

>  <SCORE.norm>
-0.812543

>  <RMSD>
0.859

$$$$
ligand
 OpenBabel11021811503D
libRbt.so/2013.1/901 2013/11/27
 17 18  0  0  0  0  0  0  0  0999 V2000
   -2.9070    6.1820   23.8868 N   0  0  0  0  0  0  0  0  0  0  0  0
   -2.7027    6.6969   25.1733 C   0  0  0  0  0  0  0  0  0  0  0  0
   -3.8254    6.9081   26.0406 N   0  0  0  0  0  0  0  0  0  0  0  0
   -1.4394    7.0001   25.6332 N   0  0  0  0  0  0  0  0  0  0  0  0
   -0.3289    6.8115   24.8367 C   0  0  0  0  0  0  0  0  0  0  0  0
   -0.4788    6.2943   23.5118 C   0  0  0  0  0  0  0  0  0  0  0  0
    0.7780    7.0861   25.2593 O   0  0  0  0  0  0  0  0  0  0  0  0
    0.6720    6.0855   22.6367 N   0  0  0  0  0  0  0  0  0  0  0  0
    0.5039    5.3930   21.4093 C   0  0  2  0  0  0  0  0  0  0  0  0
   -0.9116    5.5549   20.7938 C   0  0  0  0  0  0  0  0  0  0  0  0
   -1.7950    5.9812   23.0566 C   0  0  0  0  0  0  0  0  0  0  0  0
   -1.9743    5.4437   21.6952 N   0  0  0  0  0  0  0  0  0  0  0  0
    0.9072    3.9460   21.6264 C   0  0  1  0  0  0  0  0  0  0  0  0
    0.2350    3.1177   20.7497 O   0  0  0  0  0  0  0  0  0  0  0  0
    2.3896    3.7882   21.4647 C   0  0  1  0  0  0  0  0  0  0  0  0
    2.8040    4.3537   20.3222 O   0  0  0  0  0  0  0  0  0  0  0  0
    3.1505    4.4508   22.6328 C   0  0  0  0  0  0  0  0  0  0  0  0
  1  2  2  0  0  0  0
  1 11  1  0  0  0  0
  2  3  1  0  0  0  0
  2  4  1  0  0  0  0
  4  5  1  0  0  0  0
  5  6  1  0  0  0  0
  5  7  2  0  0  0  0
  6  8  1  0  0  0  0
  6 11  2  0  0  0  0
  9  8  1  1  0  0  0
  9 10  1  0  0  0  0
  9 13  1  0  0  0  0
 10 12  1  0  0  0  0
 11 12  1  0  0  0  0
 13 14  1  6  0  0  0
 13 15  1  0  0  0  0
 15 16  1  6  0  0  0
 15 17  1  0  0  0  0
M  END
>  <CHROM.1>
152.64495144,-49.92746262,-0.21901536,5.55615857,22.93923638,2.29189135,-0.09034757
1.06680709

>  <Name>
ligand

>  <RI>
0

>  <Rbt.Current_Directory>
/home/itssahil/PROJECTS/Mol_Feturizer/New_Systems/rnas/4LVX

>  <Rbt.Executable>
rbdock ($Id: //depot/dev/client3/rdock/2013.1/src/exe/rbdock.cxx#4 $)

>  <Rbt.Library>
libRbt.so (2013.1, Build901 2013/11/27)

>  <Rbt.Parameter_File>
/export/apps/rDock/src/rDock_2013.1_src/data/scripts/dock_solv.prm

>  <Rbt.Receptor>
prm/pocket_docking_2.prm

>  <SCORE>
-13.9579

>  <SCORE.INTER>
-9.10894

>  <SCORE.INTER.CONST>
1

>  <SCORE.INTER.POLAR>
0

>  <SCORE.INTER.ROT>
2

>  <SCORE.INTER.SOLV>
26.2429

>  <SCORE.INTER.VDW>
-19.7536

>  <SCORE.INTER.norm>
-0.53582

>  <SCORE.INTRA>
-4.84897

>  <SCORE.INTRA.DIHEDRAL>
-7.60107

>  <SCORE.INTRA.DIHEDRAL.0>
10.3255

>  <SCORE.INTRA.POLAR>
0

>  <SCORE.INTRA.POLAR.0>
0

>  <SCORE.INTRA.REPUL>
0

>  <SCORE.INTRA.REPUL.0>
0

>  <SCORE.INTRA.SOLV>
0.193628

>  <SCORE.INTRA.SOLV.lig_0>
-53.4755

>  <SCORE.INTRA.VDW>
-1.14525

>  <SCORE.INTRA.VDW.0>
2.32763

>  <SCORE.INTRA.norm>
-0.285234

>  <SCORE.RESTR>
0

>  <SCORE.RESTR.CAVITY>
0

>  <SCORE.RESTR.norm>
0

>  <SCORE.SYSTEM>
0

>  <SCORE.SYSTEM.CONST>
0

>  <SCORE.SYSTEM.DIHEDRAL>
0

>  <SCORE.SYSTEM.SOLV>
0

>  <SCORE.SYSTEM.norm>
0

>  <SCORE.heavy>
17

>  <SCORE.norm>
-0.821054

>  <RMSD>
0.890

$$$$
ligand
 OpenBabel11021811503D
libRbt.so/2013.1/901 2013/11/27
 17 18  0  0  0  0  0  0  0  0999 V2000
   -2.9110    6.1577   23.9168 N   0  0  0  0  0  0  0  0  0  0  0  0
   -2.7061    6.6856   25.1980 C   0  0  0  0  0  0  0  0  0  0  0  0
   -3.8276    6.8980   26.0665 N   0  0  0  0  0  0  0  0  0  0  0  0
   -1.4433    7.0003   25.6514 N   0  0  0  0  0  0  0  0  0  0  0  0
   -0.3340    6.8110   24.8536 C   0  0  0  0  0  0  0  0  0  0  0  0
   -0.4845    6.2809   23.5339 C   0  0  0  0  0  0  0  0  0  0  0  0
    0.7725    7.0960   25.2705 O   0  0  0  0  0  0  0  0  0  0  0  0
    0.6651    6.0709   22.6575 N   0  0  0  0  0  0  0  0  0  0  0  0
    0.4975    5.3661   21.4370 C   0  0  2  0  0  0  0  0  0  0  0  0
   -0.9206    5.5141   20.8240 C   0  0  0  0  0  0  0  0  0  0  0  0
   -1.8001    5.9558   23.0853 C   0  0  0  0  0  0  0  0  0  0  0  0
   -1.9801    5.4049   21.7294 N   0  0  0  0  0  0  0  0  0  0  0  0
    0.9100    3.9236   21.6661 C   0  0  1  0  0  0  0  0  0  0  0  0
    0.2291    3.0818   20.8092 O   0  0  0  0  0  0  0  0  0  0  0  0
    2.3906    3.7698   21.4854 C   0  0  1  0  0  0  0  0  0  0  0  0
    2.7882    4.3323   20.3354 O   0  0  0  0  0  0  0  0  0  0  0  0
    3.1648    4.4392   22.6408 C   0  0  0  0  0  0  0  0  0  0  0  0
  1  2  2  0  0  0  0
  1 11  1  0  0  0  0
  2  3  1  0  0  0  0
  2  4  1  0  0  0  0
  4  5  1  0  0  0  0
  5  6  1  0  0  0  0
  5  7  2  0  0  0  0
  6  8  1  0  0  0  0
  6 11  2  0  0  0  0
  9  8  1  1  0  0  0
  9 10  1  0  0  0  0
  9 13  1  0  0  0  0
 10 12  1  0  0  0  0
 11 12  1  0  0  0  0
 13 14  1  6  0  0  0
 13 15  1  0  0  0  0
 15 16  1  6  0  0  0
 15 17  1  0  0  0  0
M  END
>  <CHROM.1>
151.96675422,-49.43232646,-0.22300926,5.53814703,22.96465154,2.29138665,-0.08283509
1.05727180

>  <Name>
ligand

>  <RI>
0

>  <Rbt.Current_Directory>
/home/itssahil/PROJECTS/Mol_Feturizer/New_Systems/rnas/4LVX

>  <Rbt.Executable>
rbdock ($Id: //depot/dev/client3/rdock/2013.1/src/exe/rbdock.cxx#4 $)

>  <Rbt.Library>
libRbt.so (2013.1, Build901 2013/11/27)

>  <Rbt.Parameter_File>
/export/apps/rDock/src/rDock_2013.1_src/data/scripts/dock_solv.prm

>  <Rbt.Receptor>
prm/pocket_docking_2.prm

>  <SCORE>
-13.9867

>  <SCORE.INTER>
-9.17621

>  <SCORE.INTER.CONST>
1

>  <SCORE.INTER.POLAR>
0

>  <SCORE.INTER.ROT>
2

>  <SCORE.INTER.SOLV>
26.2261

>  <SCORE.INTER.VDW>
-19.7928

>  <SCORE.INTER.norm>
-0.539777

>  <SCORE.INTRA>
-4.81051

>  <SCORE.INTRA.DIHEDRAL>
-7.47555

>  <SCORE.INTRA.DIHEDRAL.0>
10.3255

>  <SCORE.INTRA.POLAR>
0

>  <SCORE.INTRA.POLAR.0>
0

>  <SCORE.INTRA.REPUL>
0

>  <SCORE.INTRA.REPUL.0>
0

>  <SCORE.INTRA.SOLV>
0.186513

>  <SCORE.INTRA.SOLV.lig_0>
-53.4755

>  <SCORE.INTRA.VDW>
-1.16599

>  <SCORE.INTRA.VDW.0>
2.32763

>  <SCORE.INTRA.norm>
-0.282971

>  <SCORE.RESTR>
5.50265e-05

>  <SCORE.RESTR.CAVITY>
5.50265e-05

>  <SCORE.RESTR.norm>
3.23685e-06

>  <SCORE.SYSTEM>
0

>  <SCORE.SYSTEM.CONST>
0

>  <SCORE.SYSTEM.DIHEDRAL>
0

>  <SCORE.SYSTEM.SOLV>
0

>  <SCORE.SYSTEM.norm>
0

>  <SCORE.heavy>
17

>  <SCORE.norm>
-0.822745

>  <RMSD>
0.904

$$$$
ligand
 OpenBabel11021811503D
libRbt.so/2013.1/901 2013/11/27
 17 18  0  0  0  0  0  0  0  0999 V2000
   -2.9188    6.1793   23.8869 N   0  0  0  0  0  0  0  0  0  0  0  0
   -2.7211    6.6995   25.1723 C   0  0  0  0  0  0  0  0  0  0  0  0
   -3.8484    6.9165   26.0321 N   0  0  0  0  0  0  0  0  0  0  0  0
   -1.4599    7.0026   25.6381 N   0  0  0  0  0  0  0  0  0  0  0  0
   -0.3452    6.8086   24.8489 C   0  0  0  0  0  0  0  0  0  0  0  0
   -0.4883    6.2857   23.5255 C   0  0  0  0  0  0  0  0  0  0  0  0
    0.7598    7.0832   25.2767 O   0  0  0  0  0  0  0  0  0  0  0  0
    0.6672    6.0711   22.6580 N   0  0  0  0  0  0  0  0  0  0  0  0
    0.5049    5.3733   21.4328 C   0  0  2  0  0  0  0  0  0  0  0  0
   -0.9067    5.5349   20.8084 C   0  0  0  0  0  0  0  0  0  0  0  0
   -1.8024    5.9728   23.0640 C   0  0  0  0  0  0  0  0  0  0  0  0
   -1.9748    5.4295   21.7040 N   0  0  0  0  0  0  0  0  0  0  0  0
    0.9045    3.9266   21.6586 C   0  0  1  0  0  0  0  0  0  0  0  0
    0.2146    3.0927   20.8012 O   0  0  0  0  0  0  0  0  0  0  0  0
    2.3833    3.7596   21.4755 C   0  0  1  0  0  0  0  0  0  0  0  0
    2.7856    4.3270   20.3296 O   0  0  0  0  0  0  0  0  0  0  0  0
    3.1650    4.4124   22.6354 C   0  0  0  0  0  0  0  0  0  0  0  0
  1  2  2  0  0  0  0
  1 11  1  0  0  0  0
  2  3  1  0  0  0  0
  2  4  1  0  0  0  0
  4  5  1  0  0  0  0
  5  6  1  0  0  0  0
  5  7  2  0  0  0  0
  6  8  1  0  0  0  0
  6 11  2  0  0  0  0
  9  8  1  1  0  0  0
  9 10  1  0  0  0  0
  9 13  1  0  0  0  0
 10 12  1  0  0  0  0
 11 12  1  0  0  0  0
 13 14  1  6  0  0  0
 13 15  1  0  0  0  0
 15 16  1  6  0  0  0
 15 17  1  0  0  0  0
M  END
>  <CHROM.1>
151.36118813,-49.09219659,-0.22839917,5.54290632,22.95244511,2.29429999,-0.09264426
1.06181615

>  <Name>
ligand

>  <RI>
0

>  <Rbt.Current_Directory>
/home/itssahil/PROJECTS/Mol_Feturizer/New_Systems/rnas/4LVX

>  <Rbt.Executable>
rbdock ($Id: //depot/dev/client3/rdock/2013.1/src/exe/rbdock.cxx#4 $)

>  <Rbt.Library>
libRbt.so (2013.1, Build901 2013/11/27)

>  <Rbt.Parameter_File>
/export/apps/rDock/src/rDock_2013.1_src/data/scripts/dock_solv.prm

>  <Rbt.Receptor>
prm/pocket_docking_2.prm

>  <SCORE>
-13.9283

>  <SCORE.INTER>
-9.15601

>  <SCORE.INTER.CONST>
1

>  <SCORE.INTER.POLAR>
0

>  <SCORE.INTER.ROT>
2

>  <SCORE.INTER.SOLV>
26.3132

>  <SCORE.INTER.VDW>
-19.8084

>  <SCORE.INTER.norm>
-0.538589

>  <SCORE.INTRA>
-4.77233

>  <SCORE.INTRA.DIHEDRAL>
-7.36953

>  <SCORE.INTRA.DIHEDRAL.0>
10.3255

>  <SCORE.INTRA.POLAR>
0

>  <SCORE.INTRA.POLAR.0>
0

>  <SCORE.INTRA.REPUL>
0

>  <SCORE.INTRA.REPUL.0>
0

>  <SCORE.INTRA.SOLV>
0.180104

>  <SCORE.INTRA.SOLV.lig_0>
-53.4755

>  <SCORE.INTRA.VDW>
-1.17761

>  <SCORE.INTRA.VDW.0>
2.32763

>  <SCORE.INTRA.norm>
-0.280725

>  <SCORE.RESTR>
0

>  <SCORE.RESTR.CAVITY>
0

>  <SCORE.RESTR.norm>
0

>  <SCORE.SYSTEM>
0

>  <SCORE.SYSTEM.CONST>
0

>  <SCORE.SYSTEM.DIHEDRAL>
0

>  <SCORE.SYSTEM.SOLV>
0

>  <SCORE.SYSTEM.norm>
0

>  <SCORE.heavy>
17

>  <SCORE.norm>
-0.819314

>  <RMSD>
0.905

$$$$
ligand
 OpenBabel11021811503D
libRbt.so/2013.1/901 2013/11/27
 17 18  0  0  0  0  0  0  0  0999 V2000
   -2.9123    6.1749   23.8947 N   0  0  0  0  0  0  0  0  0  0  0  0
   -2.6827    6.6633   25.1873 C   0  0  0  0  0  0  0  0  0  0  0  0
   -3.7897    6.8720   26.0750 N   0  0  0  0  0  0  0  0  0  0  0  0
   -1.4090    6.9426   25.6336 N   0  0  0  0  0  0  0  0  0  0  0  0
   -0.3129    6.7554   24.8172 C   0  0  0  0  0  0  0  0  0  0  0  0
   -0.4887    6.2647   23.4855 C   0  0  0  0  0  0  0  0  0  0  0  0
    0.8035    7.0087   25.2281 O   0  0  0  0  0  0  0  0  0  0  0  0
    0.6464    6.0582   22.5895 N   0  0  0  0  0  0  0  0  0  0  0  0
    0.4515    5.3906   21.3523 C   0  0  2  0  0  0  0  0  0  0  0  0
   -0.9708    5.5810   20.7612 C   0  0  0  0  0  0  0  0  0  0  0  0
   -1.8152    5.9760   23.0443 C   0  0  0  0  0  0  0  0  0  0  0  0
   -2.0213    5.4660   21.6761 N   0  0  0  0  0  0  0  0  0  0  0  0
    0.8400    3.9350   21.5367 C   0  0  1  0  0  0  0  0  0  0  0  0
    0.1778    3.1364   20.6256 O   0  0  0  0  0  0  0  0  0  0  0  0
    2.3239    3.7699   21.3973 C   0  0  1  0  0  0  0  0  0  0  0  0
    2.7649    4.3731   20.2844 O   0  0  0  0  0  0  0  0  0  0  0  0
    3.0677    4.3826   22.6031 C   0  0  0  0  0  0  0  0  0  0  0  0
  1  2  2  0  0  0  0
  1 11  1  0  0  0  0
  2  3  1  0  0  0  0
  2  4  1  0  0  0  0
  4  5  1  0  0  0  0
  5  6  1  0  0  0  0
  5  7  2  0  0  0  0
  6  8  1  0  0  0  0
  6 11  2  0  0  0  0
  9  8  1  1  0  0  0
  9 10  1  0  0  0  0
  9 13  1  0  0  0  0
 10 12  1  0  0  0  0
 11 12  1  0  0  0  0
 13 14  1  6  0  0  0
 13 15  1  0  0  0  0
 15 16  1  6  0  0  0
 15 17  1  0  0  0  0
M  END
>  <CHROM.1>
154.61796863,-49.39649721,-0.24341420,5.53619588,22.90662106,2.27715231,-0.10003837
1.08661085

>  <Name>
ligand

>  <RI>
0

>  <Rbt.Current_Directory>
/home/itssahil/PROJECTS/Mol_Feturizer/New_Systems/rnas/4LVX

>  <Rbt.Executable>
rbdock ($Id: //depot/dev/client3/rdock/2013.1/src/exe/rbdock.cxx#4 $)

>  <Rbt.Library>
libRbt.so (2013.1, Build901 2013/11/27)

>  <Rbt.Parameter_File>
/export/apps/rDock/src/rDock_2013.1_src/data/scripts/dock_solv.prm

>  <Rbt.Receptor>
prm/pocket_docking_2.prm

>  <SCORE>
-13.9617

>  <SCORE.INTER>
-8.97651

>  <SCORE.INTER.CONST>
1

>  <SCORE.INTER.POLAR>
0

>  <SCORE.INTER.ROT>
2

>  <SCORE.INTER.SOLV>
26.4896

>  <SCORE.INTER.VDW>
-19.7475

>  <SCORE.INTER.norm>
-0.52803

>  <SCORE.INTRA>
-4.98515

>  <SCORE.INTRA.DIHEDRAL>
-7.8236

>  <SCORE.INTRA.DIHEDRAL.0>
10.3255

>  <SCORE.INTRA.POLAR>
0

>  <SCORE.INTRA.POLAR.0>
0

>  <SCORE.INTRA.REPUL>
0

>  <SCORE.INTRA.REPUL.0>
0

>  <SCORE.INTRA.SOLV>
0.215551

>  <SCORE.INTRA.SOLV.lig_0>
-53.4755

>  <SCORE.INTRA.VDW>
-1.18113

>  <SCORE.INTRA.VDW.0>
2.32763

>  <SCORE.INTRA.norm>
-0.293244

>  <SCORE.RESTR>
0

>  <SCORE.RESTR.CAVITY>
0

>  <SCORE.RESTR.norm>
0

>  <SCORE.SYSTEM>
0

>  <SCORE.SYSTEM.CONST>
0

>  <SCORE.SYSTEM.DIHEDRAL>
0

>  <SCORE.SYSTEM.SOLV>
0

>  <SCORE.SYSTEM.norm>
0

>  <SCORE.heavy>
17

>  <SCORE.norm>
-0.821274

>  <RMSD>
0.907

$$$$
ligand
 OpenBabel11021811503D
libRbt.so/2013.1/901 2013/11/27
 17 18  0  0  0  0  0  0  0  0999 V2000
   -2.9257    6.2034   23.8693 N   0  0  0  0  0  0  0  0  0  0  0  0
   -2.7091    6.6957   25.1626 C   0  0  0  0  0  0  0  0  0  0  0  0
   -3.8255    6.9119   26.0367 N   0  0  0  0  0  0  0  0  0  0  0  0
   -1.4396    6.9715   25.6227 N   0  0  0  0  0  0  0  0  0  0  0  0
   -0.3348    6.7770   24.8198 C   0  0  0  0  0  0  0  0  0  0  0  0
   -0.4971    6.2821   23.4878 C   0  0  0  0  0  0  0  0  0  0  0  0
    0.7778    7.0274   25.2427 O   0  0  0  0  0  0  0  0  0  0  0  0
    0.6474    6.0679   22.6059 N   0  0  0  0  0  0  0  0  0  0  0  0
    0.4643    5.3966   21.3689 C   0  0  2  0  0  0  0  0  0  0  0  0
   -0.9503    5.5905   20.7606 C   0  0  0  0  0  0  0  0  0  0  0  0
   -1.8196    5.9971   23.0324 C   0  0  0  0  0  0  0  0  0  0  0  0
   -2.0118    5.4830   21.6638 N   0  0  0  0  0  0  0  0  0  0  0  0
    0.8448    3.9402   21.5630 C   0  0  1  0  0  0  0  0  0  0  0  0
    0.1647    3.1373   20.6691 O   0  0  0  0  0  0  0  0  0  0  0  0
    2.3254    3.7629   21.4057 C   0  0  1  0  0  0  0  0  0  0  0  0
    2.7585    4.3658   20.2894 O   0  0  0  0  0  0  0  0  0  0  0  0
    3.0886    4.3654   22.6044 C   0  0  0  0  0  0  0  0  0  0  0  0
  1  2  2  0  0  0  0
  1 11  1  0  0  0  0
  2  3  1  0  0  0  0
  2  4  1  0  0  0  0
  4  5  1  0  0  0  0
  5  6  1  0  0  0  0
  5  7  2  0  0  0  0
  6  8  1  0  0  0  0
  6 11  2  0  0  0  0
  9  8  1  1  0  0  0
  9 10  1  0  0  0  0
  9 13  1  0  0  0  0
 10 12  1  0  0  0  0
 11 12  1  0  0  0  0
 13 14  1  6  0  0  0
 13 15  1  0  0  0  0
 15 16  1  6  0  0  0
 15 17  1  0  0  0  0
M  END
>  <CHROM.1>
153.12997338,-48.62494723,-0.25016178,5.54890518,22.90799171,2.28340623,-0.10624900
1.08259930

>  <Name>
ligand

>  <RI>
0

>  <Rbt.Current_Directory>
/home/itssahil/PROJECTS/Mol_Feturizer/New_Systems/rnas/4LVX

>  <Rbt.Executable>
rbdock ($Id: //depot/dev/client3/rdock/2013.1/src/exe/rbdock.cxx#4 $)

>  <Rbt.Library>
libRbt.so (2013.1, Build901 2013/11/27)

>  <Rbt.Parameter_File>
/export/apps/rDock/src/rDock_2013.1_src/data/scripts/dock_solv.prm

>  <Rbt.Receptor>
prm/pocket_docking_2.prm

>  <SCORE>
-13.9994

>  <SCORE.INTER>
-9.11473

>  <SCORE.INTER.CONST>
1

>  <SCORE.INTER.POLAR>
0

>  <SCORE.INTER.ROT>
2

>  <SCORE.INTER.SOLV>
26.5281

>  <SCORE.INTER.VDW>
-19.8525

>  <SCORE.INTER.norm>
-0.536161

>  <SCORE.INTRA>
-4.88465

>  <SCORE.INTRA.DIHEDRAL>
-7.56986

>  <SCORE.INTRA.DIHEDRAL.0>
10.3255

>  <SCORE.INTRA.POLAR>
0

>  <SCORE.INTRA.POLAR.0>
0

>  <SCORE.INTRA.REPUL>
0

>  <SCORE.INTRA.REPUL.0>
0

>  <SCORE.INTRA.SOLV>
0.199619

>  <SCORE.INTRA.SOLV.lig_0>
-53.4755

>  <SCORE.INTRA.VDW>
-1.19953

>  <SCORE.INTRA.VDW.0>
2.32763

>  <SCORE.INTRA.norm>
-0.287332

>  <SCORE.RESTR>
0

>  <SCORE.RESTR.CAVITY>
0

>  <SCORE.RESTR.norm>
0

>  <SCORE.SYSTEM>
0

>  <SCORE.SYSTEM.CONST>
0

>  <SCORE.SYSTEM.DIHEDRAL>
0

>  <SCORE.SYSTEM.SOLV>
0

>  <SCORE.SYSTEM.norm>
0

>  <SCORE.heavy>
17

>  <SCORE.norm>
-0.823493

>  <RMSD>
0.907

$$$$
ligand
 OpenBabel11021811503D
libRbt.so/2013.1/901 2013/11/27
 17 18  0  0  0  0  0  0  0  0999 V2000
   -2.9273    6.2078   23.8669 N   0  0  0  0  0  0  0  0  0  0  0  0
   -2.7133    6.6968   25.1620 C   0  0  0  0  0  0  0  0  0  0  0  0
   -3.8319    6.9135   26.0333 N   0  0  0  0  0  0  0  0  0  0  0  0
   -1.4446    6.9689   25.6263 N   0  0  0  0  0  0  0  0  0  0  0  0
   -0.3380    6.7738   24.8261 C   0  0  0  0  0  0  0  0  0  0  0  0
   -0.4975    6.2821   23.4927 C   0  0  0  0  0  0  0  0  0  0  0  0
    0.7739    7.0209   25.2528 O   0  0  0  0  0  0  0  0  0  0  0  0
    0.6492    6.0674   22.6135 N   0  0  0  0  0  0  0  0  0  0  0  0
    0.4681    5.3991   21.3746 C   0  0  2  0  0  0  0  0  0  0  0  0
   -0.9443    5.5973   20.7627 C   0  0  0  0  0  0  0  0  0  0  0  0
   -1.8192    6.0009   23.0328 C   0  0  0  0  0  0  0  0  0  0  0  0
   -2.0086    5.4901   21.6625 N   0  0  0  0  0  0  0  0  0  0  0  0
    0.8450    3.9415   21.5667 C   0  0  1  0  0  0  0  0  0  0  0  0
    0.1656    3.1419   20.6692 O   0  0  0  0  0  0  0  0  0  0  0  0
    2.3257    3.7613   21.4130 C   0  0  1  0  0  0  0  0  0  0  0  0
    2.7623    4.3616   20.2967 O   0  0  0  0  0  0  0  0  0  0  0  0
    3.0873    4.3644   22.6125 C   0  0  0  0  0  0  0  0  0  0  0  0
  1  2  2  0  0  0  0
  1 11  1  0  0  0  0
  2  3  1  0  0  0  0
  2  4  1  0  0  0  0
  4  5  1  0  0  0  0
  5  6  1  0  0  0  0
  5  7  2  0  0  0  0
  6  8  1  0  0  0  0
  6 11  2  0  0  0  0
  9  8  1  1  0  0  0
  9 10  1  0  0  0  0
  9 13  1  0  0  0  0
 10 12  1  0  0  0  0
 11 12  1  0  0  0  0
 13 14  1  6  0  0  0
 13 15  1  0  0  0  0
 15 16  1  6  0  0  0
 15 17  1  0  0  0  0
M  END
>  <CHROM.1>
153.11982840,-48.84177142,-0.25043522,5.54963815,22.91156592,2.28475114,-0.10911689
1.08469051

>  <Name>
ligand

>  <RI>
0

>  <Rbt.Current_Directory>
/home/itssahil/PROJECTS/Mol_Feturizer/New_Systems/rnas/4LVX

>  <Rbt.Executable>
rbdock ($Id: //depot/dev/client3/rdock/2013.1/src/exe/rbdock.cxx#4 $)

>  <Rbt.Library>
libRbt.so (2013.1, Build901 2013/11/27)

>  <Rbt.Parameter_File>
/export/apps/rDock/src/rDock_2013.1_src/data/scripts/dock_solv.prm

>  <Rbt.Receptor>
prm/pocket_docking_2.prm

>  <SCORE>
-14.0053

>  <SCORE.INTER>
-9.12152

>  <SCORE.INTER.CONST>
1

>  <SCORE.INTER.POLAR>
0

>  <SCORE.INTER.ROT>
2

>  <SCORE.INTER.SOLV>
26.5336

>  <SCORE.INTER.VDW>
-19.8589

>  <SCORE.INTER.norm>
-0.53656

>  <SCORE.INTRA>
-4.88376

>  <SCORE.INTRA.DIHEDRAL>
-7.58517

>  <SCORE.INTRA.DIHEDRAL.0>
10.3255

>  <SCORE.INTRA.POLAR>
0

>  <SCORE.INTRA.POLAR.0>
0

>  <SCORE.INTRA.REPUL>
0

>  <SCORE.INTRA.REPUL.0>
0

>  <SCORE.INTRA.SOLV>
0.199416

>  <SCORE.INTRA.SOLV.lig_0>
-53.4755

>  <SCORE.INTRA.VDW>
-1.19089

>  <SCORE.INTRA.VDW.0>
2.32763

>  <SCORE.INTRA.norm>
-0.28728

>  <SCORE.RESTR>
0

>  <SCORE.RESTR.CAVITY>
0

>  <SCORE.RESTR.norm>
0

>  <SCORE.SYSTEM>
0

>  <SCORE.SYSTEM.CONST>
0

>  <SCORE.SYSTEM.DIHEDRAL>
0

>  <SCORE.SYSTEM.SOLV>
0

>  <SCORE.SYSTEM.norm>
0

>  <SCORE.heavy>
17

>  <SCORE.norm>
-0.82384

>  <RMSD>
0.910

$$$$
ligand
 OpenBabel11021811503D
libRbt.so/2013.1/901 2013/11/27
 17 18  0  0  0  0  0  0  0  0999 V2000
   -2.9274    6.1890   23.8919 N   0  0  0  0  0  0  0  0  0  0  0  0
   -2.7051    6.6823   25.1839 C   0  0  0  0  0  0  0  0  0  0  0  0
   -3.8173    6.8948   26.0643 N   0  0  0  0  0  0  0  0  0  0  0  0
   -1.4340    6.9627   25.6366 N   0  0  0  0  0  0  0  0  0  0  0  0
   -0.3332    6.7718   24.8274 C   0  0  0  0  0  0  0  0  0  0  0  0
   -0.5014    6.2761   23.4966 C   0  0  0  0  0  0  0  0  0  0  0  0
    0.7809    7.0262   25.2440 O   0  0  0  0  0  0  0  0  0  0  0  0
    0.6389    6.0657   22.6081 N   0  0  0  0  0  0  0  0  0  0  0  0
    0.4509    5.3935   21.3723 C   0  0  2  0  0  0  0  0  0  0  0  0
   -0.9678    5.5823   20.7721 C   0  0  0  0  0  0  0  0  0  0  0  0
   -1.8254    5.9863   23.0488 C   0  0  0  0  0  0  0  0  0  0  0  0
   -2.0237    5.4712   21.6814 N   0  0  0  0  0  0  0  0  0  0  0  0
    0.8377    3.9385   21.5646 C   0  0  1  0  0  0  0  0  0  0  0  0
    0.1568    3.1331   20.6734 O   0  0  0  0  0  0  0  0  0  0  0  0
    2.3183    3.7667   21.4009 C   0  0  1  0  0  0  0  0  0  0  0  0
    2.7428    4.3629   20.2778 O   0  0  0  0  0  0  0  0  0  0  0  0
    3.0849    4.3818   22.5910 C   0  0  0  0  0  0  0  0  0  0  0  0
  1  2  2  0  0  0  0
  1 11  1  0  0  0  0
  2  3  1  0  0  0  0
  2  4  1  0  0  0  0
  4  5  1  0  0  0  0
  5  6  1  0  0  0  0
  5  7  2  0  0  0  0
  6  8  1  0  0  0  0
  6 11  2  0  0  0  0
  9  8  1  1  0  0  0
  9 10  1  0  0  0  0
  9 13  1  0  0  0  0
 10 12  1  0  0  0  0
 11 12  1  0  0  0  0
 13 14  1  6  0  0  0
 13 15  1  0  0  0  0
 15 16  1  6  0  0  0
 15 17  1  0  0  0  0
M  END
>  <CHROM.1>
153.21904654,-49.08181107,-0.25509807,5.54376874,22.91521254,2.27974104,-0.10000062
1.08171374

>  <Name>
ligand

>  <RI>
0

>  <Rbt.Current_Directory>
/home/itssahil/PROJECTS/Mol_Feturizer/New_Systems/rnas/4LVX

>  <Rbt.Executable>
rbdock ($Id: //depot/dev/client3/rdock/2013.1/src/exe/rbdock.cxx#4 $)

>  <Rbt.Library>
libRbt.so (2013.1, Build901 2013/11/27)

>  <Rbt.Parameter_File>
/export/apps/rDock/src/rDock_2013.1_src/data/scripts/dock_solv.prm

>  <Rbt.Receptor>
prm/pocket_docking_2.prm

>  <SCORE>
-13.9941

>  <SCORE.INTER>
-9.10509

>  <SCORE.INTER.CONST>
1

>  <SCORE.INTER.POLAR>
0

>  <SCORE.INTER.ROT>
2

>  <SCORE.INTER.SOLV>
26.5128

>  <SCORE.INTER.VDW>
-19.841

>  <SCORE.INTER.norm>
-0.535593

>  <SCORE.INTRA>
-4.88905

>  <SCORE.INTRA.DIHEDRAL>
-7.61641

>  <SCORE.INTRA.DIHEDRAL.0>
10.3255

>  <SCORE.INTRA.POLAR>
0

>  <SCORE.INTRA.POLAR.0>
0

>  <SCORE.INTRA.REPUL>
0

>  <SCORE.INTRA.REPUL.0>
0

>  <SCORE.INTRA.SOLV>
0.200388

>  <SCORE.INTRA.SOLV.lig_0>
-53.4755

>  <SCORE.INTRA.VDW>
-1.18103

>  <SCORE.INTRA.VDW.0>
2.32763

>  <SCORE.INTRA.norm>
-0.287591

>  <SCORE.RESTR>
0

>  <SCORE.RESTR.CAVITY>
0

>  <SCORE.RESTR.norm>
0

>  <SCORE.SYSTEM>
0

>  <SCORE.SYSTEM.CONST>
0

>  <SCORE.SYSTEM.DIHEDRAL>
0

>  <SCORE.SYSTEM.SOLV>
0

>  <SCORE.SYSTEM.norm>
0

>  <SCORE.heavy>
17

>  <SCORE.norm>
-0.823184

>  <RMSD>
0.911

$$$$
ligand
 OpenBabel11021811503D
libRbt.so/2013.1/901 2013/11/27
 17 18  0  0  0  0  0  0  0  0999 V2000
   -2.9385    6.2129   23.8457 N   0  0  0  0  0  0  0  0  0  0  0  0
   -2.7348    6.6921   25.1461 C   0  0  0  0  0  0  0  0  0  0  0  0
   -3.8606    6.9086   26.0079 N   0  0  0  0  0  0  0  0  0  0  0  0
   -1.4693    6.9547   25.6246 N   0  0  0  0  0  0  0  0  0  0  0  0
   -0.3558    6.7593   24.8340 C   0  0  0  0  0  0  0  0  0  0  0  0
   -0.5048    6.2775   23.4957 C   0  0  0  0  0  0  0  0  0  0  0  0
    0.7530    6.9979   25.2731 O   0  0  0  0  0  0  0  0  0  0  0  0
    0.6494    6.0629   22.6263 N   0  0  0  0  0  0  0  0  0  0  0  0
    0.4771    5.4039   21.3812 C   0  0  2  0  0  0  0  0  0  0  0  0
   -0.9283    5.6134   20.7569 C   0  0  0  0  0  0  0  0  0  0  0  0
   -1.8234    6.0060   23.0211 C   0  0  0  0  0  0  0  0  0  0  0  0
   -2.0019    5.5055   21.6456 N   0  0  0  0  0  0  0  0  0  0  0  0
    0.8448    3.9431   21.5670 C   0  0  1  0  0  0  0  0  0  0  0  0
    0.1577    3.1513   20.6685 O   0  0  0  0  0  0  0  0  0  0  0  0
    2.3238    3.7537   21.4087 C   0  0  1  0  0  0  0  0  0  0  0  0
    2.7631    4.3639   20.2989 O   0  0  0  0  0  0  0  0  0  0  0  0
    3.0918    4.3368   22.6139 C   0  0  0  0  0  0  0  0  0  0  0  0
  1  2  2  0  0  0  0
  1 11  1  0  0  0  0
  2  3  1  0  0  0  0
  2  4  1  0  0  0  0
  4  5  1  0  0  0  0
  5  6  1  0  0  0  0
  5  7  2  0  0  0  0
  6  8  1  0  0  0  0
  6 11  2  0  0  0  0
  9  8  1  1  0  0  0
  9 10  1  0  0  0  0
  9 13  1  0  0  0  0
 10 12  1  0  0  0  0
 11 12  1  0  0  0  0
 13 14  1  6  0  0  0
 13 15  1  0  0  0  0
 15 16  1  6  0  0  0
 15 17  1  0  0  0  0
M  END
>  <CHROM.1>
152.37804197,-48.36260674,-0.25675701,5.54683010,22.90895196,2.29006888,-0.11692435
1.09164169

>  <Name>
ligand

>  <RI>
0

>  <Rbt.Current_Directory>
/home/itssahil/PROJECTS/Mol_Feturizer/New_Systems/rnas/4LVX

>  <Rbt.Executable>
rbdock ($Id: //depot/dev/client3/rdock/2013.1/src/exe/rbdock.cxx#4 $)

>  <Rbt.Library>
libRbt.so (2013.1, Build901 2013/11/27)

>  <Rbt.Parameter_File>
/export/apps/rDock/src/rDock_2013.1_src/data/scripts/dock_solv.prm

>  <Rbt.Receptor>
prm/pocket_docking_2.prm

>  <SCORE>
-13.9829

>  <SCORE.INTER>
-9.14602

>  <SCORE.INTER.CONST>
1

>  <SCORE.INTER.POLAR>
0

>  <SCORE.INTER.ROT>
2

>  <SCORE.INTER.SOLV>
26.5619

>  <SCORE.INTER.VDW>
-19.8847

>  <SCORE.INTER.norm>
-0.538001

>  <SCORE.INTRA>
-4.83693

>  <SCORE.INTRA.DIHEDRAL>
-7.44937

>  <SCORE.INTRA.DIHEDRAL.0>
10.3255

>  <SCORE.INTRA.POLAR>
0

>  <SCORE.INTRA.POLAR.0>
0

>  <SCORE.INTRA.REPUL>
0

>  <SCORE.INTRA.REPUL.0>
0

>  <SCORE.INTRA.SOLV>
0.191535

>  <SCORE.INTRA.SOLV.lig_0>
-53.4755

>  <SCORE.INTRA.VDW>
-1.20801

>  <SCORE.INTRA.VDW.0>
2.32763

>  <SCORE.INTRA.norm>
-0.284525

>  <SCORE.RESTR>
0

>  <SCORE.RESTR.CAVITY>
0

>  <SCORE.RESTR.norm>
0

>  <SCORE.SYSTEM>
0

>  <SCORE.SYSTEM.CONST>
0

>  <SCORE.SYSTEM.DIHEDRAL>
0

>  <SCORE.SYSTEM.SOLV>
0

>  <SCORE.SYSTEM.norm>
0

>  <SCORE.heavy>
17

>  <SCORE.norm>
-0.822526

>  <RMSD>
0.916

$$$$
ligand
 OpenBabel11021811503D
libRbt.so/2013.1/901 2013/11/27
 17 18  0  0  0  0  0  0  0  0999 V2000
   -2.6459    5.9418   23.9684 N   0  0  0  0  0  0  0  0  0  0  0  0
   -2.5932    6.7886   25.0829 C   0  0  0  0  0  0  0  0  0  0  0  0
   -3.6617    6.7711   26.0395 N   0  0  0  0  0  0  0  0  0  0  0  0
   -1.5281    7.6385   25.2893 N   0  0  0  0  0  0  0  0  0  0  0  0
   -0.4760    7.6887   24.3985 C   0  0  0  0  0  0  0  0  0  0  0  0
   -0.4798    6.8508   23.2395 C   0  0  0  0  0  0  0  0  0  0  0  0
    0.4548    8.4462   24.5966 O   0  0  0  0  0  0  0  0  0  0  0  0
    0.6133    6.8789   22.2709 N   0  0  0  0  0  0  0  0  0  0  0  0
    0.6666    5.9003   21.2444 C   0  0  2  0  0  0  0  0  0  0  0  0
   -0.7289    5.3740   20.8149 C   0  0  0  0  0  0  0  0  0  0  0  0
   -1.5892    5.9735   23.0471 C   0  0  0  0  0  0  0  0  0  0  0  0
   -1.6140    5.0977   21.8610 N   0  0  0  0  0  0  0  0  0  0  0  0
    1.6162    4.8030   21.6891 C   0  0  1  0  0  0  0  0  0  0  0  0
    1.5237    3.7108   20.8495 O   0  0  0  0  0  0  0  0  0  0  0  0
    3.0245    5.3166   21.7280 C   0  0  1  0  0  0  0  0  0  0  0  0
    3.1341    6.3324   22.5958 O   0  0  0  0  0  0  0  0  0  0  0  0
    4.0093    4.2086   22.1580 C   0  0  0  0  0  0  0  0  0  0  0  0
  1  2  2  0  0  0  0
  1 11  1  0  0  0  0
  2  3  1  0  0  0  0
  2  4  1  0  0  0  0
  4  5  1  0  0  0  0
  5  6  1  0  0  0  0
  5  7  2  0  0  0  0
  6  8  1  0  0  0  0
  6 11  2  0  0  0  0
  9  8  1  1  0  0  0
  9 10  1  0  0  0  0
  9 13  1  0  0  0  0
 10 12  1  0  0  0  0
 11 12  1  0  0  0  0
 13 14  1  6  0  0  0
 13 15  1  0  0  0  0
 15 16  1  1  0  0  0
 15 17  1  0  0  0  0
M  END
>  <CHROM.1>
169.02547722,60.66711055,0.06602721,6.07942963,22.96657524,2.46829771,0.12540915
0.84438853

>  <Name>
ligand

>  <RI>
0

>  <Rbt.Current_Directory>
/home/itssahil/PROJECTS/Mol_Feturizer/New_Systems/rnas/4LVX

>  <Rbt.Executable>
rbdock ($Id: //depot/dev/client3/rdock/2013.1/src/exe/rbdock.cxx#4 $)

>  <Rbt.Library>
libRbt.so (2013.1, Build901 2013/11/27)

>  <Rbt.Parameter_File>
/export/apps/rDock/src/rDock_2013.1_src/data/scripts/dock_solv.prm

>  <Rbt.Receptor>
prm/pocket_docking_4.prm

>  <SCORE>
-14.1902

>  <SCORE.INTER>
-7.48091

>  <SCORE.INTER.CONST>
1

>  <SCORE.INTER.POLAR>
0

>  <SCORE.INTER.ROT>
2

>  <SCORE.INTER.SOLV>
22.3528

>  <SCORE.INTER.VDW>
-17.3715

>  <SCORE.INTER.norm>
-0.440054

>  <SCORE.INTRA>
-6.7093

>  <SCORE.INTRA.DIHEDRAL>
-9.7536

>  <SCORE.INTRA.DIHEDRAL.0>
10.3255

>  <SCORE.INTRA.POLAR>
0

>  <SCORE.INTRA.POLAR.0>
0

>  <SCORE.INTRA.REPUL>
0

>  <SCORE.INTRA.REPUL.0>
0

>  <SCORE.INTRA.SOLV>
-0.0473905

>  <SCORE.INTRA.SOLV.lig_0>
-53.4755

>  <SCORE.INTRA.VDW>
-1.8088

>  <SCORE.INTRA.VDW.0>
2.32763

>  <SCORE.INTRA.norm>
-0.394665

>  <SCORE.RESTR>
0

>  <SCORE.RESTR.CAVITY>
0

>  <SCORE.RESTR.norm>
0

>  <SCORE.SYSTEM>
0

>  <SCORE.SYSTEM.CONST>
0

>  <SCORE.SYSTEM.DIHEDRAL>
0

>  <SCORE.SYSTEM.SOLV>
0

>  <SCORE.SYSTEM.norm>
0

>  <SCORE.heavy>
17

>  <SCORE.norm>
-0.834719

>  <RMSD>
0.921

$$$$
ligand
 OpenBabel11021811503D
libRbt.so/2013.1/901 2013/11/27
 17 18  0  0  0  0  0  0  0  0999 V2000
   -2.9447    6.1770   23.9020 N   0  0  0  0  0  0  0  0  0  0  0  0
   -2.7432    6.7076   25.1825 C   0  0  0  0  0  0  0  0  0  0  0  0
   -3.8684    6.9346   26.0426 N   0  0  0  0  0  0  0  0  0  0  0  0
   -1.4804    7.0115   25.6433 N   0  0  0  0  0  0  0  0  0  0  0  0
   -0.3677    6.8081   24.8537 C   0  0  0  0  0  0  0  0  0  0  0  0
   -0.5146    6.2744   23.5350 C   0  0  0  0  0  0  0  0  0  0  0  0
    0.7388    7.0836   25.2770 O   0  0  0  0  0  0  0  0  0  0  0  0
    0.6387    6.0496   22.6672 N   0  0  0  0  0  0  0  0  0  0  0  0
    0.4724    5.3420   21.4482 C   0  0  2  0  0  0  0  0  0  0  0  0
   -0.9401    5.5017   20.8252 C   0  0  0  0  0  0  0  0  0  0  0  0
   -1.8303    5.9608   23.0787 C   0  0  0  0  0  0  0  0  0  0  0  0
   -2.0066    5.4065   21.7237 N   0  0  0  0  0  0  0  0  0  0  0  0
    0.8688    3.8962   21.6855 C   0  0  1  0  0  0  0  0  0  0  0  0
    0.1607    3.0551   20.8504 O   0  0  0  0  0  0  0  0  0  0  0  0
    2.3436    3.7196   21.4797 C   0  0  1  0  0  0  0  0  0  0  0  0
    2.7285    4.2676   20.3184 O   0  0  0  0  0  0  0  0  0  0  0  0
    3.1479    4.3865   22.6159 C   0  0  0  0  0  0  0  0  0  0  0  0
  1  2  2  0  0  0  0
  1 11  1  0  0  0  0
  2  3  1  0  0  0  0
  2  4  1  0  0  0  0
  4  5  1  0  0  0  0
  5  6  1  0  0  0  0
  5  7  2  0  0  0  0
  6  8  1  0  0  0  0
  6 11  2  0  0  0  0
  9  8  1  1  0  0  0
  9 10  1  0  0  0  0
  9 13  1  0  0  0  0
 10 12  1  0  0  0  0
 11 12  1  0  0  0  0
 13 14  1  6  0  0  0
 13 15  1  0  0  0  0
 15 16  1  6  0  0  0
 15 17  1  0  0  0  0
M  END
>  <CHROM.1>
150.46209945,-49.25370455,-0.25916136,5.52501356,22.96298793,2.28944776,-0.09130643
1.05175408

>  <Name>
ligand

>  <RI>
0

>  <Rbt.Current_Directory>
/home/itssahil/PROJECTS/Mol_Feturizer/New_Systems/rnas/4LVX

>  <Rbt.Executable>
rbdock ($Id: //depot/dev/client3/rdock/2013.1/src/exe/rbdock.cxx#4 $)

>  <Rbt.Library>
libRbt.so (2013.1, Build901 2013/11/27)

>  <Rbt.Parameter_File>
/export/apps/rDock/src/rDock_2013.1_src/data/scripts/dock_solv.prm

>  <Rbt.Receptor>
prm/pocket_docking_2.prm

>  <SCORE>
-13.9825

>  <SCORE.INTER>
-9.28628

>  <SCORE.INTER.CONST>
1

>  <SCORE.INTER.POLAR>
0

>  <SCORE.INTER.ROT>
2

>  <SCORE.INTER.SOLV>
26.5302

>  <SCORE.INTER.VDW>
-19.9676

>  <SCORE.INTER.norm>
-0.546252

>  <SCORE.INTRA>
-4.69621

>  <SCORE.INTRA.DIHEDRAL>
-7.26093

>  <SCORE.INTRA.DIHEDRAL.0>
10.3255

>  <SCORE.INTRA.POLAR>
0

>  <SCORE.INTRA.POLAR.0>
0

>  <SCORE.INTRA.REPUL>
0

>  <SCORE.INTRA.REPUL.0>
0

>  <SCORE.INTRA.SOLV>
0.17021

>  <SCORE.INTRA.SOLV.lig_0>
-53.4755

>  <SCORE.INTRA.VDW>
-1.15085

>  <SCORE.INTRA.VDW.0>
2.32763

>  <SCORE.INTRA.norm>
-0.276247

>  <SCORE.RESTR>
0

>  <SCORE.RESTR.CAVITY>
0

>  <SCORE.RESTR.norm>
0

>  <SCORE.SYSTEM>
0

>  <SCORE.SYSTEM.CONST>
0

>  <SCORE.SYSTEM.DIHEDRAL>
0

>  <SCORE.SYSTEM.SOLV>
0

>  <SCORE.SYSTEM.norm>
0

>  <SCORE.heavy>
17

>  <SCORE.norm>
-0.822499

>  <RMSD>
0.935

$$$$
ligand
 OpenBabel11021811503D
libRbt.so/2013.1/901 2013/11/27
 17 18  0  0  0  0  0  0  0  0999 V2000
   -2.3572    5.6364   24.3012 N   0  0  0  0  0  0  0  0  0  0  0  0
   -2.3439    6.7291   25.1775 C   0  0  0  0  0  0  0  0  0  0  0  0
   -3.3675    6.8526   26.1745 N   0  0  0  0  0  0  0  0  0  0  0  0
   -1.3596    7.6914   25.1105 N   0  0  0  0  0  0  0  0  0  0  0  0
   -0.3529    7.6140   24.1704 C   0  0  0  0  0  0  0  0  0  0  0  0
   -0.3201    6.5233   23.2460 C   0  0  0  0  0  0  0  0  0  0  0  0
    0.5065    8.4735   24.1256 O   0  0  0  0  0  0  0  0  0  0  0  0
    0.7263    6.4092   22.2332 N   0  0  0  0  0  0  0  0  0  0  0  0
    0.8347    5.2195   21.4671 C   0  0  2  0  0  0  0  0  0  0  0  0
   -0.5185    4.4878   21.2613 C   0  0  0  0  0  0  0  0  0  0  0  0
   -1.3454    5.5341   23.3357 C   0  0  0  0  0  0  0  0  0  0  0  0
   -1.3309    4.3984   22.3953 N   0  0  0  0  0  0  0  0  0  0  0  0
    1.9035    4.3476   22.1005 C   0  0  1  0  0  0  0  0  0  0  0  0
    1.6116    3.0107   21.9166 O   0  0  0  0  0  0  0  0  0  0  0  0
    3.2500    4.6741   21.5269 C   0  0  1  0  0  0  0  0  0  0  0  0
    3.4419    6.0004   21.4947 O   0  0  0  0  0  0  0  0  0  0  0  0
    4.3808    4.0450   22.3684 C   0  0  0  0  0  0  0  0  0  0  0  0
  1  2  2  0  0  0  0
  1 11  1  0  0  0  0
  2  3  1  0  0  0  0
  2  4  1  0  0  0  0
  4  5  1  0  0  0  0
  5  6  1  0  0  0  0
  5  7  2  0  0  0  0
  6  8  1  0  0  0  0
  6 11  2  0  0  0  0
  9  8  1  1  0  0  0
  9 10  1  0  0  0  0
  9 13  1  0  0  0  0
 10 12  1  0  0  0  0
 11 12  1  0  0  0  0
 13 14  1  6  0  0  0
 13 15  1  0  0  0  0
 15 16  1  1  0  0  0
 15 17  1  0  0  0  0
M  END
>  <CHROM.1>
148.45173850,46.81844528,0.27933037,5.72196317,23.05166437,2.51516956,0.30538558
0.52716098

>  <Name>
ligand

>  <RI>
0

>  <Rbt.Current_Directory>
/home/itssahil/PROJECTS/Mol_Feturizer/New_Systems/rnas/4LVX

>  <Rbt.Executable>
rbdock ($Id: //depot/dev/client3/rdock/2013.1/src/exe/rbdock.cxx#4 $)

>  <Rbt.Library>
libRbt.so (2013.1, Build901 2013/11/27)

>  <Rbt.Parameter_File>
/export/apps/rDock/src/rDock_2013.1_src/data/scripts/dock_solv.prm

>  <Rbt.Receptor>
prm/pocket_docking_2.prm

>  <SCORE>
-13.0537

>  <SCORE.INTER>
-8.1389

>  <SCORE.INTER.CONST>
1

>  <SCORE.INTER.POLAR>
0

>  <SCORE.INTER.ROT>
2

>  <SCORE.INTER.SOLV>
22.5125

>  <SCORE.INTER.VDW>
-17.8634

>  <SCORE.INTER.norm>
-0.478759

>  <SCORE.INTRA>
-4.92851

>  <SCORE.INTRA.DIHEDRAL>
-6.7534

>  <SCORE.INTRA.DIHEDRAL.0>
10.3255

>  <SCORE.INTRA.POLAR>
0

>  <SCORE.INTRA.POLAR.0>
0

>  <SCORE.INTRA.REPUL>
0

>  <SCORE.INTRA.REPUL.0>
0

>  <SCORE.INTRA.SOLV>
-0.136495

>  <SCORE.INTRA.SOLV.lig_0>
-53.4755

>  <SCORE.INTRA.VDW>
-1.48357

>  <SCORE.INTRA.VDW.0>
2.32763

>  <SCORE.INTRA.norm>
-0.289913

>  <SCORE.RESTR>
0.0137086

>  <SCORE.RESTR.CAVITY>
0.0137086

>  <SCORE.RESTR.norm>
0.00080639

>  <SCORE.SYSTEM>
0

>  <SCORE.SYSTEM.CONST>
0

>  <SCORE.SYSTEM.DIHEDRAL>
0

>  <SCORE.SYSTEM.SOLV>
0

>  <SCORE.SYSTEM.norm>
0

>  <SCORE.heavy>
17

>  <SCORE.norm>
-0.767865

>  <RMSD>
0.939

$$$$
ligand
 OpenBabel11021811503D
libRbt.so/2013.1/901 2013/11/27
 17 18  0  0  0  0  0  0  0  0999 V2000
   -2.9636    6.2040   23.9189 N   0  0  0  0  0  0  0  0  0  0  0  0
   -2.7589    6.7470   25.1937 C   0  0  0  0  0  0  0  0  0  0  0  0
   -3.8815    6.9783   26.0560 N   0  0  0  0  0  0  0  0  0  0  0  0
   -1.4953    7.0592   25.6468 N   0  0  0  0  0  0  0  0  0  0  0  0
   -0.3850    6.8521   24.8548 C   0  0  0  0  0  0  0  0  0  0  0  0
   -0.5352    6.3059   23.5416 C   0  0  0  0  0  0  0  0  0  0  0  0
    0.7222    7.1351   25.2713 O   0  0  0  0  0  0  0  0  0  0  0  0
    0.6154    6.0768   22.6714 N   0  0  0  0  0  0  0  0  0  0  0  0
    0.4467    5.3575   21.4597 C   0  0  2  0  0  0  0  0  0  0  0  0
   -0.9686    5.5070   20.8406 C   0  0  0  0  0  0  0  0  0  0  0  0
   -1.8517    5.9839   23.0934 C   0  0  0  0  0  0  0  0  0  0  0  0
   -2.0314    5.4166   21.7442 N   0  0  0  0  0  0  0  0  0  0  0  0
    0.8488    3.9153   21.7087 C   0  0  1  0  0  0  0  0  0  0  0  0
    0.1464    3.0650   20.8780 O   0  0  0  0  0  0  0  0  0  0  0  0
    2.3248    3.7436   21.5079 C   0  0  1  0  0  0  0  0  0  0  0  0
    2.7066    4.2648   20.3334 O   0  0  0  0  0  0  0  0  0  0  0  0
    3.1240    4.4441   22.6272 C   0  0  0  0  0  0  0  0  0  0  0  0
  1  2  2  0  0  0  0
  1 11  1  0  0  0  0
  2  3  1  0  0  0  0
  2  4  1  0  0  0  0
  4  5  1  0  0  0  0
  5  6  1  0  0  0  0
  5  7  2  0  0  0  0
  6  8  1  0  0  0  0
  6 11  2  0  0  0  0
  9  8  1  1  0  0  0
  9 10  1  0  0  0  0
  9 13  1  0  0  0  0
 10 12  1  0  0  0  0
 11 12  1  0  0  0  0
 13 14  1  6  0  0  0
 13 15  1  0  0  0  0
 15 16  1  6  0  0  0
 15 17  1  0  0  0  0
M  END
>  <CHROM.1>
150.84769940,-50.28336224,-0.27912498,5.55267332,22.97587453,2.28757907,-0.08596109
1.04191628

>  <Name>
ligand

>  <RI>
0

>  <Rbt.Current_Directory>
/home/itssahil/PROJECTS/Mol_Feturizer/New_Systems/rnas/4LVX

>  <Rbt.Executable>
rbdock ($Id: //depot/dev/client3/rdock/2013.1/src/exe/rbdock.cxx#4 $)

>  <Rbt.Library>
libRbt.so (2013.1, Build901 2013/11/27)

>  <Rbt.Parameter_File>
/export/apps/rDock/src/rDock_2013.1_src/data/scripts/dock_solv.prm

>  <Rbt.Receptor>
prm/pocket_docking_2.prm

>  <SCORE>
-13.9262

>  <SCORE.INTER>
-9.19155

>  <SCORE.INTER.CONST>
1

>  <SCORE.INTER.POLAR>
0

>  <SCORE.INTER.ROT>
2

>  <SCORE.INTER.SOLV>
26.5437

>  <SCORE.INTER.VDW>
-19.9089

>  <SCORE.INTER.norm>
-0.540679

>  <SCORE.INTRA>
-4.73463

>  <SCORE.INTRA.DIHEDRAL>
-7.38505

>  <SCORE.INTRA.DIHEDRAL.0>
10.3255

>  <SCORE.INTRA.POLAR>
0

>  <SCORE.INTRA.POLAR.0>
0

>  <SCORE.INTRA.REPUL>
0

>  <SCORE.INTRA.REPUL.0>
0

>  <SCORE.INTRA.SOLV>
0.173681

>  <SCORE.INTRA.SOLV.lig_0>
-53.4755

>  <SCORE.INTRA.VDW>
-1.12895

>  <SCORE.INTRA.VDW.0>
2.32763

>  <SCORE.INTRA.norm>
-0.278508

>  <SCORE.RESTR>
0

>  <SCORE.RESTR.CAVITY>
0

>  <SCORE.RESTR.norm>
0

>  <SCORE.SYSTEM>
0

>  <SCORE.SYSTEM.CONST>
0

>  <SCORE.SYSTEM.DIHEDRAL>
0

>  <SCORE.SYSTEM.SOLV>
0

>  <SCORE.SYSTEM.norm>
0

>  <SCORE.heavy>
17

>  <SCORE.norm>
-0.819187

>  <RMSD>
0.942

$$$$
ligand
 OpenBabel11021811503D
libRbt.so/2013.1/901 2013/11/27
 17 18  0  0  0  0  0  0  0  0999 V2000
   -2.3411    5.6489   24.3367 N   0  0  0  0  0  0  0  0  0  0  0  0
   -2.3163    6.7454   25.2078 C   0  0  0  0  0  0  0  0  0  0  0  0
   -3.3293    6.8759   26.2148 N   0  0  0  0  0  0  0  0  0  0  0  0
   -1.3303    7.7050   25.1264 N   0  0  0  0  0  0  0  0  0  0  0  0
   -0.3336    7.6209   24.1765 C   0  0  0  0  0  0  0  0  0  0  0  0
   -0.3129    6.5260   23.2567 C   0  0  0  0  0  0  0  0  0  0  0  0
    0.5274    8.4781   24.1190 O   0  0  0  0  0  0  0  0  0  0  0  0
    0.7229    6.4048   22.2338 N   0  0  0  0  0  0  0  0  0  0  0  0
    0.8206    5.2114   21.4720 C   0  0  2  0  0  0  0  0  0  0  0  0
   -0.5364    4.4822   21.2833 C   0  0  0  0  0  0  0  0  0  0  0  0
   -1.3396    5.5398   23.3614 C   0  0  0  0  0  0  0  0  0  0  0  0
   -1.3374    4.3999   22.4259 N   0  0  0  0  0  0  0  0  0  0  0  0
    1.8936    4.3398   22.0983 C   0  0  1  0  0  0  0  0  0  0  0  0
    1.6091    3.0029   21.9025 O   0  0  0  0  0  0  0  0  0  0  0  0
    3.2387    4.6785   21.5284 C   0  0  1  0  0  0  0  0  0  0  0  0
    3.4370    6.0041   21.5388 O   0  0  0  0  0  0  0  0  0  0  0  0
    4.3708    4.0166   22.3425 C   0  0  0  0  0  0  0  0  0  0  0  0
  1  2  2  0  0  0  0
  1 11  1  0  0  0  0
  2  3  1  0  0  0  0
  2  4  1  0  0  0  0
  4  5  1  0  0  0  0
  5  6  1  0  0  0  0
  5  7  2  0  0  0  0
  6  8  1  0  0  0  0
  6 11  2  0  0  0  0
  9  8  1  1  0  0  0
  9 10  1  0  0  0  0
  9 13  1  0  0  0  0
 10 12  1  0  0  0  0
 11 12  1  0  0  0  0
 13 14  1  6  0  0  0
 13 15  1  0  0  0  0
 15 16  1  1  0  0  0
 15 17  1  0  0  0  0
M  END
>  <CHROM.1>
149.52994040,48.35914035,0.28405104,5.72360004,23.06423719,2.50721577,0.30857947
0.52733178

>  <Name>
ligand

>  <RI>
0

>  <Rbt.Current_Directory>
/home/itssahil/PROJECTS/Mol_Feturizer/New_Systems/rnas/4LVX

>  <Rbt.Executable>
rbdock ($Id: //depot/dev/client3/rdock/2013.1/src/exe/rbdock.cxx#4 $)

>  <Rbt.Library>
libRbt.so (2013.1, Build901 2013/11/27)

>  <Rbt.Parameter_File>
/export/apps/rDock/src/rDock_2013.1_src/data/scripts/dock_solv.prm

>  <Rbt.Receptor>
prm/pocket_docking_2.prm

>  <SCORE>
-13.3094

>  <SCORE.INTER>
-8.21188

>  <SCORE.INTER.CONST>
1

>  <SCORE.INTER.POLAR>
0

>  <SCORE.INTER.ROT>
2

>  <SCORE.INTER.SOLV>
22.5702

>  <SCORE.INTER.VDW>
-17.9313

>  <SCORE.INTER.norm>
-0.483052

>  <SCORE.INTRA>
-5.10715

>  <SCORE.INTRA.DIHEDRAL>
-7.03091

>  <SCORE.INTRA.DIHEDRAL.0>
10.3255

>  <SCORE.INTRA.POLAR>
0

>  <SCORE.INTRA.POLAR.0>
0

>  <SCORE.INTRA.REPUL>
0

>  <SCORE.INTRA.REPUL.0>
0

>  <SCORE.INTRA.SOLV>
-0.141214

>  <SCORE.INTRA.SOLV.lig_0>
-53.4755

>  <SCORE.INTRA.VDW>
-1.52109

>  <SCORE.INTRA.VDW.0>
2.32763

>  <SCORE.INTRA.norm>
-0.300421

>  <SCORE.RESTR>
0.00960878

>  <SCORE.RESTR.CAVITY>
0.00960878

>  <SCORE.RESTR.norm>
0.000565223

>  <SCORE.SYSTEM>
0

>  <SCORE.SYSTEM.CONST>
0

>  <SCORE.SYSTEM.DIHEDRAL>
0

>  <SCORE.SYSTEM.SOLV>
0

>  <SCORE.SYSTEM.norm>
0

>  <SCORE.heavy>
17

>  <SCORE.norm>
-0.782907

>  <RMSD>
0.949

$$$$
ligand
 OpenBabel11021811503D
libRbt.so/2013.1/901 2013/11/27
 17 18  0  0  0  0  0  0  0  0999 V2000
   -2.9157    6.1475   23.8545 N   0  0  0  0  0  0  0  0  0  0  0  0
   -2.7619    6.7403   25.1143 C   0  0  0  0  0  0  0  0  0  0  0  0
   -3.9025    6.8971   25.9696 N   0  0  0  0  0  0  0  0  0  0  0  0
   -1.5311    7.1722   25.5592 N   0  0  0  0  0  0  0  0  0  0  0  0
   -0.4050    7.0403   24.7734 C   0  0  0  0  0  0  0  0  0  0  0  0
   -0.5041    6.4480   23.4755 C   0  0  0  0  0  0  0  0  0  0  0  0
    0.6726    7.4286   25.1825 O   0  0  0  0  0  0  0  0  0  0  0  0
    0.6643    6.2955   22.6122 N   0  0  0  0  0  0  0  0  0  0  0  0
    0.5614    5.5320   21.4203 C   0  0  2  0  0  0  0  0  0  0  0  0
   -0.8599    5.5423   20.7969 C   0  0  0  0  0  0  0  0  0  0  0  0
   -1.7868    6.0018   23.0356 C   0  0  0  0  0  0  0  0  0  0  0  0
   -1.9134    5.3851   21.7022 N   0  0  0  0  0  0  0  0  0  0  0  0
    1.0854    4.1370   21.7083 C   0  0  1  0  0  0  0  0  0  0  0  0
    0.9001    3.3133   20.6158 O   0  0  0  0  0  0  0  0  0  0  0  0
    2.5363    4.1923   22.0830 C   0  0  1  0  0  0  0  0  0  0  0  0
    2.9769    2.9808   22.4505 O   0  0  0  0  0  0  0  0  0  0  0  0
    3.3988    4.6787   20.8989 C   0  0  0  0  0  0  0  0  0  0  0  0
  1  2  2  0  0  0  0
  1 11  1  0  0  0  0
  2  3  1  0  0  0  0
  2  4  1  0  0  0  0
  4  5  1  0  0  0  0
  5  6  1  0  0  0  0
  5  7  2  0  0  0  0
  6  8  1  0  0  0  0
  6 11  2  0  0  0  0
  9  8  1  1  0  0  0
  9 10  1  0  0  0  0
  9 13  1  0  0  0  0
 10 12  1  0  0  0  0
 11 12  1  0  0  0  0
 13 14  1  6  0  0  0
 13 15  1  0  0  0  0
 15 16  1  6  0  0  0
 15 17  1  0  0  0  0
M  END
>  <CHROM.1>
174.68987427,174.66842329,-0.14392243,5.59334143,22.97780876,2.35654002,-0.14013550
1.04334391

>  <Name>
ligand

>  <RI>
0

>  <Rbt.Current_Directory>
/home/itssahil/PROJECTS/Mol_Feturizer/New_Systems/rnas/4LVX

>  <Rbt.Executable>
rbdock ($Id: //depot/dev/client3/rdock/2013.1/src/exe/rbdock.cxx#4 $)

>  <Rbt.Library>
libRbt.so (2013.1, Build901 2013/11/27)

>  <Rbt.Parameter_File>
/export/apps/rDock/src/rDock_2013.1_src/data/scripts/dock_solv.prm

>  <Rbt.Receptor>
prm/pocket_docking_5.prm

>  <SCORE>
-15.3848

>  <SCORE.INTER>
-8.85833

>  <SCORE.INTER.CONST>
1

>  <SCORE.INTER.POLAR>
0

>  <SCORE.INTER.ROT>
2

>  <SCORE.INTER.SOLV>
25.9439

>  <SCORE.INTER.VDW>
-19.4869

>  <SCORE.INTER.norm>
-0.521078

>  <SCORE.INTRA>
-6.52645

>  <SCORE.INTRA.DIHEDRAL>
-9.95851

>  <SCORE.INTRA.DIHEDRAL.0>
10.3255

>  <SCORE.INTRA.POLAR>
0

>  <SCORE.INTRA.POLAR.0>
0

>  <SCORE.INTRA.REPUL>
0

>  <SCORE.INTRA.REPUL.0>
0

>  <SCORE.INTRA.SOLV>
-0.548508

>  <SCORE.INTRA.SOLV.lig_0>
-53.4755

>  <SCORE.INTRA.VDW>
-1.27294

>  <SCORE.INTRA.VDW.0>
2.32763

>  <SCORE.INTRA.norm>
-0.383909

>  <SCORE.RESTR>
0

>  <SCORE.RESTR.CAVITY>
0

>  <SCORE.RESTR.norm>
0

>  <SCORE.SYSTEM>
0

>  <SCORE.SYSTEM.CONST>
0

>  <SCORE.SYSTEM.DIHEDRAL>
0

>  <SCORE.SYSTEM.SOLV>
0

>  <SCORE.SYSTEM.norm>
0

>  <SCORE.heavy>
17

>  <SCORE.norm>
-0.904987

>  <RMSD>
0.952

$$$$
ligand
 OpenBabel11021811503D
libRbt.so/2013.1/901 2013/11/27
 17 18  0  0  0  0  0  0  0  0999 V2000
   -2.9286    6.1710   23.8599 N   0  0  0  0  0  0  0  0  0  0  0  0
   -2.7789    6.7280   25.1364 C   0  0  0  0  0  0  0  0  0  0  0  0
   -3.9257    6.8791   25.9845 N   0  0  0  0  0  0  0  0  0  0  0  0
   -1.5465    7.1297   25.6045 N   0  0  0  0  0  0  0  0  0  0  0  0
   -0.4145    7.0018   24.8265 C   0  0  0  0  0  0  0  0  0  0  0  0
   -0.5092    6.4455   23.5124 C   0  0  0  0  0  0  0  0  0  0  0  0
    0.6645    7.3632   25.2561 O   0  0  0  0  0  0  0  0  0  0  0  0
    0.6655    6.2985   22.6567 N   0  0  0  0  0  0  0  0  0  0  0  0
    0.5635    5.5683   21.4440 C   0  0  2  0  0  0  0  0  0  0  0  0
   -0.8511    5.6161   20.8074 C   0  0  0  0  0  0  0  0  0  0  0  0
   -1.7937    6.0302   23.0484 C   0  0  0  0  0  0  0  0  0  0  0  0
   -1.9158    5.4508   21.6979 N   0  0  0  0  0  0  0  0  0  0  0  0
    1.0642    4.1585   21.7001 C   0  0  1  0  0  0  0  0  0  0  0  0
    0.8740    3.3657   20.5858 O   0  0  0  0  0  0  0  0  0  0  0  0
    2.5131    4.1820   22.0857 C   0  0  1  0  0  0  0  0  0  0  0  0
    2.9290    2.9575   22.4386 O   0  0  0  0  0  0  0  0  0  0  0  0
    3.3928    4.6696   20.9149 C   0  0  0  0  0  0  0  0  0  0  0  0
  1  2  2  0  0  0  0
  1 11  1  0  0  0  0
  2  3  1  0  0  0  0
  2  4  1  0  0  0  0
  4  5  1  0  0  0  0
  5  6  1  0  0  0  0
  5  7  2  0  0  0  0
  6  8  1  0  0  0  0
  6 11  2  0  0  0  0
  9  8  1  1  0  0  0
  9 10  1  0  0  0  0
  9 13  1  0  0  0  0
 10 12  1  0  0  0  0
 11 12  1  0  0  0  0
 13 14  1  6  0  0  0
 13 15  1  0  0  0  0
 15 16  1  6  0  0  0
 15 17  1  0  0  0  0
M  END
>  <CHROM.1>
174.49944093,174.02729813,-0.15686912,5.59795519,22.99536442,2.35762795,-0.15886067
1.07069511

>  <Name>
ligand

>  <RI>
0

>  <Rbt.Current_Directory>
/home/itssahil/PROJECTS/Mol_Feturizer/New_Systems/rnas/4LVX

>  <Rbt.Executable>
rbdock ($Id: //depot/dev/client3/rdock/2013.1/src/exe/rbdock.cxx#4 $)

>  <Rbt.Library>
libRbt.so (2013.1, Build901 2013/11/27)

>  <Rbt.Parameter_File>
/export/apps/rDock/src/rDock_2013.1_src/data/scripts/dock_solv.prm

>  <Rbt.Receptor>
prm/pocket_docking_3.prm

>  <SCORE>
-15.443

>  <SCORE.INTER>
-8.91984

>  <SCORE.INTER.CONST>
1

>  <SCORE.INTER.POLAR>
0

>  <SCORE.INTER.ROT>
2

>  <SCORE.INTER.SOLV>
26.0176

>  <SCORE.INTER.VDW>
-19.5524

>  <SCORE.INTER.norm>
-0.524697

>  <SCORE.INTRA>
-6.52313

>  <SCORE.INTRA.DIHEDRAL>
-9.92393

>  <SCORE.INTRA.DIHEDRAL.0>
10.3255

>  <SCORE.INTRA.POLAR>
0

>  <SCORE.INTRA.POLAR.0>
0

>  <SCORE.INTRA.REPUL>
0

>  <SCORE.INTRA.REPUL.0>
0

>  <SCORE.INTRA.SOLV>
-0.552155

>  <SCORE.INTRA.SOLV.lig_0>
-53.4755

>  <SCORE.INTRA.VDW>
-1.28509

>  <SCORE.INTRA.VDW.0>
2.32763

>  <SCORE.INTRA.norm>
-0.383713

>  <SCORE.RESTR>
0

>  <SCORE.RESTR.CAVITY>
0

>  <SCORE.RESTR.norm>
0

>  <SCORE.SYSTEM>
0

>  <SCORE.SYSTEM.CONST>
0

>  <SCORE.SYSTEM.DIHEDRAL>
0

>  <SCORE.SYSTEM.SOLV>
0

>  <SCORE.SYSTEM.norm>
0

>  <SCORE.heavy>
17

>  <SCORE.norm>
-0.90841

>  <RMSD>
0.972

$$$$
ligand
 OpenBabel11021811503D
libRbt.so/2013.1/901 2013/11/27
 17 18  0  0  0  0  0  0  0  0999 V2000
   -2.9285    6.1685   23.8635 N   0  0  0  0  0  0  0  0  0  0  0  0
   -2.7779    6.7265   25.1394 C   0  0  0  0  0  0  0  0  0  0  0  0
   -3.9239    6.8769   25.9887 N   0  0  0  0  0  0  0  0  0  0  0  0
   -1.5454    7.1299   25.6058 N   0  0  0  0  0  0  0  0  0  0  0  0
   -0.4142    7.0028   24.8266 C   0  0  0  0  0  0  0  0  0  0  0  0
   -0.5098    6.4455   23.5129 C   0  0  0  0  0  0  0  0  0  0  0  0
    0.6648    7.3657   25.2547 O   0  0  0  0  0  0  0  0  0  0  0  0
    0.6641    6.2993   22.6560 N   0  0  0  0  0  0  0  0  0  0  0  0
    0.5615    5.5682   21.4439 C   0  0  2  0  0  0  0  0  0  0  0  0
   -0.8539    5.6140   20.8089 C   0  0  0  0  0  0  0  0  0  0  0  0
   -1.7943    6.0285   23.0508 C   0  0  0  0  0  0  0  0  0  0  0  0
   -1.9174    5.4480   21.7008 N   0  0  0  0  0  0  0  0  0  0  0  0
    1.0641    4.1592   21.7003 C   0  0  1  0  0  0  0  0  0  0  0  0
    0.8798    3.3672   20.5844 O   0  0  0  0  0  0  0  0  0  0  0  0
    2.5115    4.1851   22.0915 C   0  0  1  0  0  0  0  0  0  0  0  0
    2.9278    2.9616   22.4473 O   0  0  0  0  0  0  0  0  0  0  0  0
    3.3950    4.6727   20.9235 C   0  0  0  0  0  0  0  0  0  0  0  0
  1  2  2  0  0  0  0
  1 11  1  0  0  0  0
  2  3  1  0  0  0  0
  2  4  1  0  0  0  0
  4  5  1  0  0  0  0
  5  6  1  0  0  0  0
  5  7  2  0  0  0  0
  6  8  1  0  0  0  0
  6 11  2  0  0  0  0
  9  8  1  1  0  0  0
  9 10  1  0  0  0  0
  9 13  1  0  0  0  0
 10 12  1  0  0  0  0
 11 12  1  0  0  0  0
 13 14  1  6  0  0  0
 13 15  1  0  0  0  0
 15 16  1  6  0  0  0
 15 17  1  0  0  0  0
M  END
>  <CHROM.1>
174.80521918,173.89402168,-0.15675624,5.59829776,22.99773066,2.35789389,-0.15827309
1.07063249

>  <Name>
ligand

>  <RI>
0

>  <Rbt.Current_Directory>
/home/itssahil/PROJECTS/Mol_Feturizer/New_Systems/rnas/4LVX

>  <Rbt.Executable>
rbdock ($Id: //depot/dev/client3/rdock/2013.1/src/exe/rbdock.cxx#4 $)

>  <Rbt.Library>
libRbt.so (2013.1, Build901 2013/11/27)

>  <Rbt.Parameter_File>
/export/apps/rDock/src/rDock_2013.1_src/data/scripts/dock_solv.prm

>  <Rbt.Receptor>
prm/pocket_docking_3.prm

>  <SCORE>
-15.4408

>  <SCORE.INTER>
-8.91044

>  <SCORE.INTER.CONST>
1

>  <SCORE.INTER.POLAR>
0

>  <SCORE.INTER.ROT>
2

>  <SCORE.INTER.SOLV>
26.0001

>  <SCORE.INTER.VDW>
-19.5403

>  <SCORE.INTER.norm>
-0.524144

>  <SCORE.INTRA>
-6.5304

>  <SCORE.INTRA.DIHEDRAL>
-9.92946

>  <SCORE.INTRA.DIHEDRAL.0>
10.3255

>  <SCORE.INTRA.POLAR>
0

>  <SCORE.INTRA.POLAR.0>
0

>  <SCORE.INTRA.REPUL>
0

>  <SCORE.INTRA.REPUL.0>
0

>  <SCORE.INTRA.SOLV>
-0.551066

>  <SCORE.INTRA.SOLV.lig_0>
-53.4755

>  <SCORE.INTRA.VDW>
-1.29014

>  <SCORE.INTRA.VDW.0>
2.32763

>  <SCORE.INTRA.norm>
-0.384141

>  <SCORE.RESTR>
0

>  <SCORE.RESTR.CAVITY>
0

>  <SCORE.RESTR.norm>
0

>  <SCORE.SYSTEM>
0

>  <SCORE.SYSTEM.CONST>
0

>  <SCORE.SYSTEM.DIHEDRAL>
0

>  <SCORE.SYSTEM.SOLV>
0

>  <SCORE.SYSTEM.norm>
0

>  <SCORE.heavy>
17

>  <SCORE.norm>
-0.908285

>  <RMSD>
0.973

$$$$
ligand
 OpenBabel11021811503D
libRbt.so/2013.1/901 2013/11/27
 17 18  0  0  0  0  0  0  0  0999 V2000
   -2.9295    6.1669   23.8627 N   0  0  0  0  0  0  0  0  0  0  0  0
   -2.7799    6.7296   25.1368 C   0  0  0  0  0  0  0  0  0  0  0  0
   -3.9267    6.8841   25.9842 N   0  0  0  0  0  0  0  0  0  0  0  0
   -1.5476    7.1336   25.6031 N   0  0  0  0  0  0  0  0  0  0  0  0
   -0.4156    7.0026   24.8257 C   0  0  0  0  0  0  0  0  0  0  0  0
   -0.5102    6.4405   23.5140 C   0  0  0  0  0  0  0  0  0  0  0  0
    0.6633    7.3662   25.2537 O   0  0  0  0  0  0  0  0  0  0  0  0
    0.6646    6.2901   22.6590 N   0  0  0  0  0  0  0  0  0  0  0  0
    0.5628    5.5545   21.4496 C   0  0  2  0  0  0  0  0  0  0  0  0
   -0.8519    5.5992   20.8127 C   0  0  0  0  0  0  0  0  0  0  0  0
   -1.7946    6.0229   23.0519 C   0  0  0  0  0  0  0  0  0  0  0  0
   -1.9166    5.4375   21.7040 N   0  0  0  0  0  0  0  0  0  0  0  0
    1.0638    4.1461   21.7118 C   0  0  1  0  0  0  0  0  0  0  0  0
    0.8795    3.3499   20.5988 O   0  0  0  0  0  0  0  0  0  0  0  0
    2.5109    4.1722   22.1039 C   0  0  1  0  0  0  0  0  0  0  0  0
    2.9264    2.9492   22.4626 O   0  0  0  0  0  0  0  0  0  0  0  0
    3.3955    4.6568   20.9354 C   0  0  0  0  0  0  0  0  0  0  0  0
  1  2  2  0  0  0  0
  1 11  1  0  0  0  0
  2  3  1  0  0  0  0
  2  4  1  0  0  0  0
  4  5  1  0  0  0  0
  5  6  1  0  0  0  0
  5  7  2  0  0  0  0
  6  8  1  0  0  0  0
  6 11  2  0  0  0  0
  9  8  1  1  0  0  0
  9 10  1  0  0  0  0
  9 13  1  0  0  0  0
 10 12  1  0  0  0  0
 11 12  1  0  0  0  0
 13 14  1  6  0  0  0
 13 15  1  0  0  0  0
 15 16  1  6  0  0  0
 15 17  1  0  0  0  0
M  END
>  <CHROM.1>
174.77861597,173.99589765,-0.15729070,5.59118066,23.00215746,2.35841516,-0.15931407
1.06680662

>  <Name>
ligand

>  <RI>
0

>  <Rbt.Current_Directory>
/home/itssahil/PROJECTS/Mol_Feturizer/New_Systems/rnas/4LVX

>  <Rbt.Executable>
rbdock ($Id: //depot/dev/client3/rdock/2013.1/src/exe/rbdock.cxx#4 $)

>  <Rbt.Library>
libRbt.so (2013.1, Build901 2013/11/27)

>  <Rbt.Parameter_File>
/export/apps/rDock/src/rDock_2013.1_src/data/scripts/dock_solv.prm

>  <Rbt.Receptor>
prm/pocket_docking_3.prm

>  <SCORE>
-15.4308

>  <SCORE.INTER>
-8.90093

>  <SCORE.INTER.CONST>
1

>  <SCORE.INTER.POLAR>
0

>  <SCORE.INTER.ROT>
2

>  <SCORE.INTER.SOLV>
26.0174

>  <SCORE.INTER.VDW>
-19.5397

>  <SCORE.INTER.norm>
-0.523584

>  <SCORE.INTRA>
-6.5299

>  <SCORE.INTRA.DIHEDRAL>
-9.9331

>  <SCORE.INTRA.DIHEDRAL.0>
10.3255

>  <SCORE.INTRA.POLAR>
0

>  <SCORE.INTRA.POLAR.0>
0

>  <SCORE.INTRA.REPUL>
0

>  <SCORE.INTRA.REPUL.0>
0

>  <SCORE.INTRA.SOLV>
-0.550795

>  <SCORE.INTRA.SOLV.lig_0>
-53.4755

>  <SCORE.INTRA.VDW>
-1.28795

>  <SCORE.INTRA.VDW.0>
2.32763

>  <SCORE.INTRA.norm>
-0.384112

>  <SCORE.RESTR>
0

>  <SCORE.RESTR.CAVITY>
0

>  <SCORE.RESTR.norm>
0

>  <SCORE.SYSTEM>
0

>  <SCORE.SYSTEM.CONST>
0

>  <SCORE.SYSTEM.DIHEDRAL>
0

>  <SCORE.SYSTEM.SOLV>
0

>  <SCORE.SYSTEM.norm>
0

>  <SCORE.heavy>
17

>  <SCORE.norm>
-0.907696

>  <RMSD>
0.980

$$$$
ligand
 OpenBabel11021811503D
libRbt.so/2013.1/901 2013/11/27
 17 18  0  0  0  0  0  0  0  0999 V2000
   -2.9006    6.1621   23.8968 N   0  0  0  0  0  0  0  0  0  0  0  0
   -2.7949    6.7643   25.1570 C   0  0  0  0  0  0  0  0  0  0  0  0
   -3.9089    6.7238   26.0594 N   0  0  0  0  0  0  0  0  0  0  0  0
   -1.6354    7.3923   25.5577 N   0  0  0  0  0  0  0  0  0  0  0  0
   -0.5368    7.4545   24.7257 C   0  0  0  0  0  0  0  0  0  0  0  0
   -0.5904    6.8621   23.4251 C   0  0  0  0  0  0  0  0  0  0  0  0
    0.4775    8.0143   25.0962 O   0  0  0  0  0  0  0  0  0  0  0  0
    0.5501    6.9116   22.5137 N   0  0  0  0  0  0  0  0  0  0  0  0
    0.5256    6.1490   21.3170 C   0  0  2  0  0  0  0  0  0  0  0  0
   -0.9024    5.9264   20.7514 C   0  0  0  0  0  0  0  0  0  0  0  0
   -1.7984    6.2114   23.0314 C   0  0  0  0  0  0  0  0  0  0  0  0
   -1.8764    5.5905   21.6961 N   0  0  0  0  0  0  0  0  0  0  0  0
    1.2856    4.8589   21.5655 C   0  0  1  0  0  0  0  0  0  0  0  0
    0.4550    3.9048   22.1189 O   0  0  0  0  0  0  0  0  0  0  0  0
    1.8865    4.3535   20.2880 C   0  0  1  0  0  0  0  0  0  0  0  0
    0.9918    4.4052   19.2911 O   0  0  0  0  0  0  0  0  0  0  0  0
    3.1125    5.1968   19.8778 C   0  0  0  0  0  0  0  0  0  0  0  0
  1  2  2  0  0  0  0
  1 11  1  0  0  0  0
  2  3  1  0  0  0  0
  2  4  1  0  0  0  0
  4  5  1  0  0  0  0
  5  6  1  0  0  0  0
  5  7  2  0  0  0  0
  6  8  1  0  0  0  0
  6 11  2  0  0  0  0
  9  8  1  1  0  0  0
  9 10  1  0  0  0  0
  9 13  1  0  0  0  0
 10 12  1  0  0  0  0
 11 12  1  0  0  0  0
 13 14  1  6  0  0  0
 13 15  1  0  0  0  0
 15 16  1  6  0  0  0
 15 17  1  0  0  0  0
M  END
>  <CHROM.1>
85.78978222,-45.80873817,-0.39499572,6.01799992,22.67550394,2.20886078,0.22738991
0.97765929

>  <Name>
ligand

>  <RI>
0

>  <Rbt.Current_Directory>
/home/itssahil/PROJECTS/Mol_Feturizer/New_Systems/rnas/4LVX

>  <Rbt.Executable>
rbdock ($Id: //depot/dev/client3/rdock/2013.1/src/exe/rbdock.cxx#4 $)

>  <Rbt.Library>
libRbt.so (2013.1, Build901 2013/11/27)

>  <Rbt.Parameter_File>
/export/apps/rDock/src/rDock_2013.1_src/data/scripts/dock_solv.prm

>  <Rbt.Receptor>
prm/pocket_docking_2.prm

>  <SCORE>
-13.4217

>  <SCORE.INTER>
-8.48877

>  <SCORE.INTER.CONST>
1

>  <SCORE.INTER.POLAR>
0

>  <SCORE.INTER.ROT>
2

>  <SCORE.INTER.SOLV>
24.4595

>  <SCORE.INTER.VDW>
-18.7457

>  <SCORE.INTER.norm>
-0.49934

>  <SCORE.INTRA>
-5.11231

>  <SCORE.INTRA.DIHEDRAL>
-7.4986

>  <SCORE.INTRA.DIHEDRAL.0>
10.3255

>  <SCORE.INTRA.POLAR>
0

>  <SCORE.INTRA.POLAR.0>
0

>  <SCORE.INTRA.REPUL>
0

>  <SCORE.INTRA.REPUL.0>
0

>  <SCORE.INTRA.SOLV>
0.33917

>  <SCORE.INTRA.SOLV.lig_0>
-53.4755

>  <SCORE.INTRA.VDW>
-1.53259

>  <SCORE.INTRA.VDW.0>
2.32763

>  <SCORE.INTRA.norm>
-0.300724

>  <SCORE.RESTR>
0.179376

>  <SCORE.RESTR.CAVITY>
0.179376

>  <SCORE.RESTR.norm>
0.0105515

>  <SCORE.SYSTEM>
0

>  <SCORE.SYSTEM.CONST>
0

>  <SCORE.SYSTEM.DIHEDRAL>
0

>  <SCORE.SYSTEM.SOLV>
0

>  <SCORE.SYSTEM.norm>
0

>  <SCORE.heavy>
17

>  <SCORE.norm>
-0.789512

>  <RMSD>
0.988

$$$$
ligand
 OpenBabel11021811503D
libRbt.so/2013.1/901 2013/11/27
 17 18  0  0  0  0  0  0  0  0999 V2000
   -2.8650    6.1038   23.9363 N   0  0  0  0  0  0  0  0  0  0  0  0
   -2.8056    6.9261   25.0687 C   0  0  0  0  0  0  0  0  0  0  0  0
   -3.9207    6.9764   25.9694 N   0  0  0  0  0  0  0  0  0  0  0  0
   -1.6906    7.6873   25.3456 N   0  0  0  0  0  0  0  0  0  0  0  0
   -0.5928    7.6698   24.5104 C   0  0  0  0  0  0  0  0  0  0  0  0
   -0.6005    6.8533   23.3364 C   0  0  0  0  0  0  0  0  0  0  0  0
    0.3818    8.3495   24.7705 O   0  0  0  0  0  0  0  0  0  0  0  0
    0.5403    6.8118   22.4251 N   0  0  0  0  0  0  0  0  0  0  0  0
    0.5717    5.8485   21.3833 C   0  0  2  0  0  0  0  0  0  0  0  0
   -0.8358    5.4391   20.8734 C   0  0  0  0  0  0  0  0  0  0  0  0
   -1.7625    6.0679   23.0706 C   0  0  0  0  0  0  0  0  0  0  0  0
   -1.7927    5.2157   21.8676 N   0  0  0  0  0  0  0  0  0  0  0  0
    1.4099    4.6738   21.8537 C   0  0  1  0  0  0  0  0  0  0  0  0
    1.3292    3.6288   20.9549 O   0  0  0  0  0  0  0  0  0  0  0  0
    2.8369    5.0941   22.0423 C   0  0  1  0  0  0  0  0  0  0  0  0
    2.9278    6.0591   22.9683 O   0  0  0  0  0  0  0  0  0  0  0  0
    3.7113    3.9066   22.4981 C   0  0  0  0  0  0  0  0  0  0  0  0
  1  2  2  0  0  0  0
  1 11  1  0  0  0  0
  2  3  1  0  0  0  0
  2  4  1  0  0  0  0
  4  5  1  0  0  0  0
  5  6  1  0  0  0  0
  5  7  2  0  0  0  0
  6  8  1  0  0  0  0
  6 11  2  0  0  0  0
  9  8  1  1  0  0  0
  9 10  1  0  0  0  0
  9 13  1  0  0  0  0
 10 12  1  0  0  0  0
 11 12  1  0  0  0  0
 13 14  1  6  0  0  0
 13 15  1  0  0  0  0
 15 16  1  1  0  0  0
 15 17  1  0  0  0  0
M  END
>  <CHROM.1>
171.94974453,60.76993088,-0.10435728,6.04960054,23.08885004,2.45665551,0.02211677
0.87341299

>  <Name>
ligand

>  <RI>
0

>  <Rbt.Current_Directory>
/home/itssahil/PROJECTS/Mol_Feturizer/New_Systems/rnas/4LVX

>  <Rbt.Executable>
rbdock ($Id: //depot/dev/client3/rdock/2013.1/src/exe/rbdock.cxx#4 $)

>  <Rbt.Library>
libRbt.so (2013.1, Build901 2013/11/27)

>  <Rbt.Parameter_File>
/export/apps/rDock/src/rDock_2013.1_src/data/scripts/dock_solv.prm

>  <Rbt.Receptor>
prm/pocket_docking_3.prm

>  <SCORE>
-14.2688

>  <SCORE.INTER>
-7.52478

>  <SCORE.INTER.CONST>
1

>  <SCORE.INTER.POLAR>
0

>  <SCORE.INTER.ROT>
2

>  <SCORE.INTER.SOLV>
23.2443

>  <SCORE.INTER.VDW>
-17.698

>  <SCORE.INTER.norm>
-0.442634

>  <SCORE.INTRA>
-6.74398

>  <SCORE.INTRA.DIHEDRAL>
-9.94249

>  <SCORE.INTRA.DIHEDRAL.0>
10.3255

>  <SCORE.INTRA.POLAR>
0

>  <SCORE.INTRA.POLAR.0>
0

>  <SCORE.INTRA.REPUL>
0

>  <SCORE.INTRA.REPUL.0>
0

>  <SCORE.INTRA.SOLV>
-0.00618872

>  <SCORE.INTRA.SOLV.lig_0>
-53.4755

>  <SCORE.INTRA.VDW>
-1.76964

>  <SCORE.INTRA.VDW.0>
2.32763

>  <SCORE.INTRA.norm>
-0.396705

>  <SCORE.RESTR>
0

>  <SCORE.RESTR.CAVITY>
0

>  <SCORE.RESTR.norm>
0

>  <SCORE.SYSTEM>
0

>  <SCORE.SYSTEM.CONST>
0

>  <SCORE.SYSTEM.DIHEDRAL>
0

>  <SCORE.SYSTEM.SOLV>
0

>  <SCORE.SYSTEM.norm>
0

>  <SCORE.heavy>
17

>  <SCORE.norm>
-0.839339

>  <RMSD>
1.075

$$$$
ligand
 OpenBabel11021811503D
libRbt.so/2013.1/901 2013/11/27
 17 18  0  0  0  0  0  0  0  0999 V2000
   -3.0559    6.2105   23.9047 N   0  0  0  0  0  0  0  0  0  0  0  0
   -2.8630    6.7357   25.1888 C   0  0  0  0  0  0  0  0  0  0  0  0
   -3.9958    6.9800   26.0340 N   0  0  0  0  0  0  0  0  0  0  0  0
   -1.6017    7.0177   25.6673 N   0  0  0  0  0  0  0  0  0  0  0  0
   -0.4819    6.7971   24.8924 C   0  0  0  0  0  0  0  0  0  0  0  0
   -0.6197    6.2681   23.5709 C   0  0  0  0  0  0  0  0  0  0  0  0
    0.6232    7.0535   25.3312 O   0  0  0  0  0  0  0  0  0  0  0  0
    0.5413    6.0255   22.7183 N   0  0  0  0  0  0  0  0  0  0  0  0
    0.3798    5.3226   21.4960 C   0  0  2  0  0  0  0  0  0  0  0  0
   -1.0212    5.5069   20.8541 C   0  0  0  0  0  0  0  0  0  0  0  0
   -1.9342    5.9772   23.0963 C   0  0  0  0  0  0  0  0  0  0  0  0
   -2.1013    5.4281   21.7379 N   0  0  0  0  0  0  0  0  0  0  0  0
    0.7489    3.8701   21.7359 C   0  0  1  0  0  0  0  0  0  0  0  0
    0.2049    3.0626   20.7569 O   0  0  0  0  0  0  0  0  0  0  0  0
    2.2394    3.7112   21.7783 C   0  0  1  0  0  0  0  0  0  0  0  0
    2.8165    4.3895   20.7764 O   0  0  0  0  0  0  0  0  0  0  0  0
    2.8174    4.2360   23.1098 C   0  0  0  0  0  0  0  0  0  0  0  0
  1  2  2  0  0  0  0
  1 11  1  0  0  0  0
  2  3  1  0  0  0  0
  2  4  1  0  0  0  0
  4  5  1  0  0  0  0
  5  6  1  0  0  0  0
  5  7  2  0  0  0  0
  6  8  1  0  0  0  0
  6 11  2  0  0  0  0
  9  8  1  1  0  0  0
  9 10  1  0  0  0  0
  9 13  1  0  0  0  0
 10 12  1  0  0  0  0
 11 12  1  0  0  0  0
 13 14  1  6  0  0  0
 13 15  1  0  0  0  0
 15 16  1  6  0  0  0
 15 17  1  0  0  0  0
M  END
>  <CHROM.1>
159.96288140,-44.97860853,-0.35742954,5.52577963,23.05712492,2.31447228,-0.14334230
1.07102177

>  <Name>
ligand

>  <RI>
0

>  <Rbt.Current_Directory>
/home/itssahil/PROJECTS/Mol_Feturizer/New_Systems/rnas/4LVX

>  <Rbt.Executable>
rbdock ($Id: //depot/dev/client3/rdock/2013.1/src/exe/rbdock.cxx#4 $)

>  <Rbt.Library>
libRbt.so (2013.1, Build901 2013/11/27)

>  <Rbt.Parameter_File>
/export/apps/rDock/src/rDock_2013.1_src/data/scripts/dock_solv.prm

>  <Rbt.Receptor>
prm/pocket_docking_3.prm

>  <SCORE>
-14.4902

>  <SCORE.INTER>
-9.21234

>  <SCORE.INTER.CONST>
1

>  <SCORE.INTER.POLAR>
0

>  <SCORE.INTER.ROT>
2

>  <SCORE.INTER.SOLV>
26.6297

>  <SCORE.INTER.VDW>
-19.9514

>  <SCORE.INTER.norm>
-0.541902

>  <SCORE.INTRA>
-5.27789

>  <SCORE.INTRA.DIHEDRAL>
-8.10933

>  <SCORE.INTRA.DIHEDRAL.0>
10.3255

>  <SCORE.INTRA.POLAR>
0

>  <SCORE.INTRA.POLAR.0>
0

>  <SCORE.INTRA.REPUL>
0

>  <SCORE.INTRA.REPUL.0>
0

>  <SCORE.INTRA.SOLV>
0.273164

>  <SCORE.INTRA.SOLV.lig_0>
-53.4755

>  <SCORE.INTRA.VDW>
-1.35981

>  <SCORE.INTRA.VDW.0>
2.32763

>  <SCORE.INTRA.norm>
-0.310464

>  <SCORE.RESTR>
0

>  <SCORE.RESTR.CAVITY>
0

>  <SCORE.RESTR.norm>
0

>  <SCORE.SYSTEM>
0

>  <SCORE.SYSTEM.CONST>
0

>  <SCORE.SYSTEM.DIHEDRAL>
0

>  <SCORE.SYSTEM.SOLV>
0

>  <SCORE.SYSTEM.norm>
0

>  <SCORE.heavy>
17

>  <SCORE.norm>
-0.852366

>  <RMSD>
1.091

$$$$
ligand
 OpenBabel11021811503D
libRbt.so/2013.1/901 2013/11/27
 17 18  0  0  0  0  0  0  0  0999 V2000
   -2.9418    6.1453   23.9959 N   0  0  0  0  0  0  0  0  0  0  0  0
   -2.8598    6.9302   25.1531 C   0  0  0  0  0  0  0  0  0  0  0  0
   -3.9785    6.9950   26.0483 N   0  0  0  0  0  0  0  0  0  0  0  0
   -1.7192    7.6405   25.4596 N   0  0  0  0  0  0  0  0  0  0  0  0
   -0.6170    7.6071   24.6308 C   0  0  0  0  0  0  0  0  0  0  0  0
   -0.6468    6.8273   23.4324 C   0  0  0  0  0  0  0  0  0  0  0  0
    0.3804    8.2417   24.9172 O   0  0  0  0  0  0  0  0  0  0  0  0
    0.4981    6.7707   22.5271 N   0  0  0  0  0  0  0  0  0  0  0  0
    0.5010    5.8387   21.4567 C   0  0  2  0  0  0  0  0  0  0  0  0
   -0.9171    5.4979   20.9262 C   0  0  0  0  0  0  0  0  0  0  0  0
   -1.8353    6.0944   23.1360 C   0  0  0  0  0  0  0  0  0  0  0  0
   -1.8887    5.2805   21.9074 N   0  0  0  0  0  0  0  0  0  0  0  0
    1.2915    4.6198   21.8960 C   0  0  1  0  0  0  0  0  0  0  0  0
    1.1414    3.5904   20.9882 O   0  0  0  0  0  0  0  0  0  0  0  0
    2.7408    4.9690   22.0577 C   0  0  1  0  0  0  0  0  0  0  0  0
    2.8929    5.9574   22.9505 O   0  0  0  0  0  0  0  0  0  0  0  0
    3.5556    3.7519   22.5447 C   0  0  0  0  0  0  0  0  0  0  0  0
  1  2  2  0  0  0  0
  1 11  1  0  0  0  0
  2  3  1  0  0  0  0
  2  4  1  0  0  0  0
  4  5  1  0  0  0  0
  5  6  1  0  0  0  0
  5  7  2  0  0  0  0
  6  8  1  0  0  0  0
  6 11  2  0  0  0  0
  9  8  1  1  0  0  0
  9 10  1  0  0  0  0
  9 13  1  0  0  0  0
 10 12  1  0  0  0  0
 11 12  1  0  0  0  0
 13 14  1  6  0  0  0
 13 15  1  0  0  0  0
 15 16  1  1  0  0  0
 15 17  1  0  0  0  0
M  END
>  <CHROM.1>
169.90231962,58.14207419,-0.17855145,6.01499849,23.15573837,2.43885188,-0.00120516
0.89643743

>  <Name>
ligand

>  <RI>
0

>  <Rbt.Current_Directory>
/home/itssahil/PROJECTS/Mol_Feturizer/New_Systems/rnas/4LVX

>  <Rbt.Executable>
rbdock ($Id: //depot/dev/client3/rdock/2013.1/src/exe/rbdock.cxx#4 $)

>  <Rbt.Library>
libRbt.so (2013.1, Build901 2013/11/27)

>  <Rbt.Parameter_File>
/export/apps/rDock/src/rDock_2013.1_src/data/scripts/dock_solv.prm

>  <Rbt.Receptor>
prm/pocket_docking_7.prm

>  <SCORE>
-14.2603

>  <SCORE.INTER>
-7.56265

>  <SCORE.INTER.CONST>
1

>  <SCORE.INTER.POLAR>
0

>  <SCORE.INTER.ROT>
2

>  <SCORE.INTER.SOLV>
23.5551

>  <SCORE.INTER.VDW>
-17.8268

>  <SCORE.INTER.norm>
-0.444862

>  <SCORE.INTRA>
-6.69763

>  <SCORE.INTRA.DIHEDRAL>
-9.80057

>  <SCORE.INTRA.DIHEDRAL.0>
10.3255

>  <SCORE.INTRA.POLAR>
0

>  <SCORE.INTRA.POLAR.0>
0

>  <SCORE.INTRA.REPUL>
0

>  <SCORE.INTRA.REPUL.0>
0

>  <SCORE.INTRA.SOLV>
-0.0116783

>  <SCORE.INTRA.SOLV.lig_0>
-53.4755

>  <SCORE.INTRA.VDW>
-1.7915

>  <SCORE.INTRA.VDW.0>
2.32763

>  <SCORE.INTRA.norm>
-0.393978

>  <SCORE.RESTR>
0

>  <SCORE.RESTR.CAVITY>
0

>  <SCORE.RESTR.norm>
0

>  <SCORE.SYSTEM>
0

>  <SCORE.SYSTEM.CONST>
0

>  <SCORE.SYSTEM.DIHEDRAL>
0

>  <SCORE.SYSTEM.SOLV>
0

>  <SCORE.SYSTEM.norm>
0

>  <SCORE.heavy>
17

>  <SCORE.norm>
-0.83884

>  <RMSD>
1.107

$$$$
ligand
 OpenBabel11021811503D
libRbt.so/2013.1/901 2013/11/27
 17 18  0  0  0  0  0  0  0  0999 V2000
   -2.9637    6.1546   23.9731 N   0  0  0  0  0  0  0  0  0  0  0  0
   -2.8801    6.9393   25.1304 C   0  0  0  0  0  0  0  0  0  0  0  0
   -4.0040    7.0179   26.0181 N   0  0  0  0  0  0  0  0  0  0  0  0
   -1.7333    7.6363   25.4441 N   0  0  0  0  0  0  0  0  0  0  0  0
   -0.6261    7.5894   24.6227 C   0  0  0  0  0  0  0  0  0  0  0  0
   -0.6571    6.8091   23.4246 C   0  0  0  0  0  0  0  0  0  0  0  0
    0.3768    8.2124   24.9153 O   0  0  0  0  0  0  0  0  0  0  0  0
    0.4931    6.7385   22.5269 N   0  0  0  0  0  0  0  0  0  0  0  0
    0.4921    5.8058   21.4571 C   0  0  2  0  0  0  0  0  0  0  0  0
   -0.9264    5.4814   20.9174 C   0  0  0  0  0  0  0  0  0  0  0  0
   -1.8522    6.0901   23.1206 C   0  0  0  0  0  0  0  0  0  0  0  0
   -1.9070    5.2761   21.8922 N   0  0  0  0  0  0  0  0  0  0  0  0
    1.2653    4.5780   21.9024 C   0  0  1  0  0  0  0  0  0  0  0  0
    1.1821    3.5804   20.9515 O   0  0  0  0  0  0  0  0  0  0  0  0
    2.6982    4.9320   22.1670 C   0  0  1  0  0  0  0  0  0  0  0  0
    2.7878    5.8420   23.1472 O   0  0  0  0  0  0  0  0  0  0  0  0
    3.5097    3.6888   22.5895 C   0  0  0  0  0  0  0  0  0  0  0  0
  1  2  2  0  0  0  0
  1 11  1  0  0  0  0
  2  3  1  0  0  0  0
  2  4  1  0  0  0  0
  4  5  1  0  0  0  0
  5  6  1  0  0  0  0
  5  7  2  0  0  0  0
  6  8  1  0  0  0  0
  6 11  2  0  0  0  0
  9  8  1  1  0  0  0
  9 10  1  0  0  0  0
  9 13  1  0  0  0  0
 10 12  1  0  0  0  0
 11 12  1  0  0  0  0
 13 14  1  6  0  0  0
 13 15  1  0  0  0  0
 15 16  1  1  0  0  0
 15 17  1  0  0  0  0
M  END
>  <CHROM.1>
173.89072059,61.14777678,-0.19900915,5.99105741,23.16756467,2.43642949,-0.03213755
0.90991303

>  <Name>
ligand

>  <RI>
0

>  <Rbt.Current_Directory>
/home/itssahil/PROJECTS/Mol_Feturizer/New_Systems/rnas/4LVX

>  <Rbt.Executable>
rbdock ($Id: //depot/dev/client3/rdock/2013.1/src/exe/rbdock.cxx#4 $)

>  <Rbt.Library>
libRbt.so (2013.1, Build901 2013/11/27)

>  <Rbt.Parameter_File>
/export/apps/rDock/src/rDock_2013.1_src/data/scripts/dock_solv.prm

>  <Rbt.Receptor>
prm/pocket_docking_3.prm

>  <SCORE>
-14.2906

>  <SCORE.INTER>
-7.55148

>  <SCORE.INTER.CONST>
1

>  <SCORE.INTER.POLAR>
0

>  <SCORE.INTER.ROT>
2

>  <SCORE.INTER.SOLV>
23.6971

>  <SCORE.INTER.VDW>
-17.8667

>  <SCORE.INTER.norm>
-0.444205

>  <SCORE.INTRA>
-6.73909

>  <SCORE.INTRA.DIHEDRAL>
-10.0362

>  <SCORE.INTRA.DIHEDRAL.0>
10.3255

>  <SCORE.INTRA.POLAR>
0

>  <SCORE.INTRA.POLAR.0>
0

>  <SCORE.INTRA.REPUL>
0

>  <SCORE.INTRA.REPUL.0>
0

>  <SCORE.INTRA.SOLV>
0.017304

>  <SCORE.INTRA.SOLV.lig_0>
-53.4755

>  <SCORE.INTRA.VDW>
-1.72967

>  <SCORE.INTRA.VDW.0>
2.32763

>  <SCORE.INTRA.norm>
-0.396417

>  <SCORE.RESTR>
0

>  <SCORE.RESTR.CAVITY>
0

>  <SCORE.RESTR.norm>
0

>  <SCORE.SYSTEM>
0

>  <SCORE.SYSTEM.CONST>
0

>  <SCORE.SYSTEM.DIHEDRAL>
0

>  <SCORE.SYSTEM.SOLV>
0

>  <SCORE.SYSTEM.norm>
0

>  <SCORE.heavy>
17

>  <SCORE.norm>
-0.840622

>  <RMSD>
1.161

$$$$
ligand
 OpenBabel11021811503D
libRbt.so/2013.1/901 2013/11/27
 17 18  0  0  0  0  0  0  0  0999 V2000
   -2.8556    6.0639   24.0675 N   0  0  0  0  0  0  0  0  0  0  0  0
   -2.8709    6.9176   25.1779 C   0  0  0  0  0  0  0  0  0  0  0  0
   -3.9946    6.9038   26.0692 N   0  0  0  0  0  0  0  0  0  0  0  0
   -1.8214    7.7709   25.4421 N   0  0  0  0  0  0  0  0  0  0  0  0
   -0.7181    7.8177   24.6154 C   0  0  0  0  0  0  0  0  0  0  0  0
   -0.6514    6.9727   23.4635 C   0  0  0  0  0  0  0  0  0  0  0  0
    0.1979    8.5783   24.8639 O   0  0  0  0  0  0  0  0  0  0  0  0
    0.4975    6.9971   22.5616 N   0  0  0  0  0  0  0  0  0  0  0  0
    0.6135    6.0124   21.5462 C   0  0  2  0  0  0  0  0  0  0  0  0
   -0.7530    5.4807   21.0376 C   0  0  0  0  0  0  0  0  0  0  0  0
   -1.7459    6.0920   23.2107 C   0  0  0  0  0  0  0  0  0  0  0  0
   -1.6985    5.2090   22.0307 N   0  0  0  0  0  0  0  0  0  0  0  0
    1.5367    4.9197   22.0536 C   0  0  1  0  0  0  0  0  0  0  0  0
    0.8810    4.1129   22.9622 O   0  0  0  0  0  0  0  0  0  0  0  0
    2.0576    4.1039   20.9084 C   0  0  1  0  0  0  0  0  0  0  0  0
    1.0463    3.6194   20.1737 O   0  0  0  0  0  0  0  0  0  0  0  0
    2.9590    4.9516   19.9857 C   0  0  0  0  0  0  0  0  0  0  0  0
  1  2  2  0  0  0  0
  1 11  1  0  0  0  0
  2  3  1  0  0  0  0
  2  4  1  0  0  0  0
  4  5  1  0  0  0  0
  5  6  1  0  0  0  0
  5  7  2  0  0  0  0
  6  8  1  0  0  0  0
  6 11  2  0  0  0  0
  9  8  1  1  0  0  0
  9 10  1  0  0  0  0
  9 13  1  0  0  0  0
 10 12  1  0  0  0  0
 11 12  1  0  0  0  0
 13 14  1  1  0  0  0
 13 15  1  0  0  0  0
 15 16  1  6  0  0  0
 15 17  1  0  0  0  0
M  END
>  <CHROM.1>
76.13591171,-54.87881527,-0.37351836,5.99241703,22.90932719,2.27850325,0.34008746
0.72593933

>  <Name>
ligand

>  <RI>
0

>  <Rbt.Current_Directory>
/home/itssahil/PROJECTS/Mol_Feturizer/New_Systems/rnas/4LVX

>  <Rbt.Executable>
rbdock ($Id: //depot/dev/client3/rdock/2013.1/src/exe/rbdock.cxx#4 $)

>  <Rbt.Library>
libRbt.so (2013.1, Build901 2013/11/27)

>  <Rbt.Parameter_File>
/export/apps/rDock/src/rDock_2013.1_src/data/scripts/dock_solv.prm

>  <Rbt.Receptor>
prm/pocket_docking_3.prm

>  <SCORE>
-14.8453

>  <SCORE.INTER>
-9.41086

>  <SCORE.INTER.CONST>
1

>  <SCORE.INTER.POLAR>
0

>  <SCORE.INTER.ROT>
2

>  <SCORE.INTER.SOLV>
24.5863

>  <SCORE.INTER.VDW>
-19.4027

>  <SCORE.INTER.norm>
-0.55358

>  <SCORE.INTRA>
-5.43444

>  <SCORE.INTRA.DIHEDRAL>
-9.23507

>  <SCORE.INTRA.DIHEDRAL.0>
10.3255

>  <SCORE.INTRA.POLAR>
0

>  <SCORE.INTRA.POLAR.0>
0

>  <SCORE.INTRA.REPUL>
0

>  <SCORE.INTRA.REPUL.0>
0

>  <SCORE.INTRA.SOLV>
0.509532

>  <SCORE.INTRA.SOLV.lig_0>
-53.4755

>  <SCORE.INTRA.VDW>
-1.07167

>  <SCORE.INTRA.VDW.0>
2.32763

>  <SCORE.INTRA.norm>
-0.319673

>  <SCORE.RESTR>
0

>  <SCORE.RESTR.CAVITY>
0

>  <SCORE.RESTR.norm>
0

>  <SCORE.SYSTEM>
0

>  <SCORE.SYSTEM.CONST>
0

>  <SCORE.SYSTEM.DIHEDRAL>
0

>  <SCORE.SYSTEM.SOLV>
0

>  <SCORE.SYSTEM.norm>
0

>  <SCORE.heavy>
17

>  <SCORE.norm>
-0.873253

>  <RMSD>
1.187

$$$$
ligand
 OpenBabel11021811503D
libRbt.so/2013.1/901 2013/11/27
 17 18  0  0  0  0  0  0  0  0999 V2000
   -2.1643    5.4022   24.3939 N   0  0  0  0  0  0  0  0  0  0  0  0
   -2.4246    6.5022   25.2212 C   0  0  0  0  0  0  0  0  0  0  0  0
   -3.5355    6.4622   26.1276 N   0  0  0  0  0  0  0  0  0  0  0  0
   -1.6289    7.6270   25.1918 N   0  0  0  0  0  0  0  0  0  0  0  0
   -0.5480    7.7108   24.3389 C   0  0  0  0  0  0  0  0  0  0  0  0
   -0.2387    6.6200   23.4672 C   0  0  0  0  0  0  0  0  0  0  0  0
    0.1421    8.7124   24.3259 O   0  0  0  0  0  0  0  0  0  0  0  0
    0.8941    6.6731   22.5465 N   0  0  0  0  0  0  0  0  0  0  0  0
    1.2818    5.5032   21.8427 C   0  0  2  0  0  0  0  0  0  0  0  0
    0.1064    4.5296   21.5613 C   0  0  0  0  0  0  0  0  0  0  0  0
   -1.0716    5.4618   23.5171 C   0  0  0  0  0  0  0  0  0  0  0  0
   -0.7707    4.3230   22.6299 N   0  0  0  0  0  0  0  0  0  0  0  0
    2.4325    4.8607   22.5955 C   0  0  1  0  0  0  0  0  0  0  0  0
    1.9610    3.9361   23.5062 O   0  0  0  0  0  0  0  0  0  0  0  0
    3.3858    4.2128   21.6364 C   0  0  1  0  0  0  0  0  0  0  0  0
    3.5993    5.0029   20.5748 O   0  0  0  0  0  0  0  0  0  0  0  0
    4.7467    3.9323   22.3084 C   0  0  0  0  0  0  0  0  0  0  0  0
  1  2  2  0  0  0  0
  1 11  1  0  0  0  0
  2  3  1  0  0  0  0
  2  4  1  0  0  0  0
  4  5  1  0  0  0  0
  5  6  1  0  0  0  0
  5  7  2  0  0  0  0
  6  8  1  0  0  0  0
  6 11  2  0  0  0  0
  9  8  1  1  0  0  0
  9 10  1  0  0  0  0
  9 13  1  0  0  0  0
 10 12  1  0  0  0  0
 11 12  1  0  0  0  0
 13 14  1  1  0  0  0
 13 15  1  0  0  0  0
 15 16  1  6  0  0  0
 15 17  1  0  0  0  0
M  END
>  <CHROM.1>
91.45085417,42.73143999,0.44479696,5.71192743,23.25161325,2.62374299,0.41052687
0.32274810

>  <Name>
ligand

>  <RI>
0

>  <Rbt.Current_Directory>
/home/itssahil/PROJECTS/Mol_Feturizer/New_Systems/rnas/4LVX

>  <Rbt.Executable>
rbdock ($Id: //depot/dev/client3/rdock/2013.1/src/exe/rbdock.cxx#4 $)

>  <Rbt.Library>
libRbt.so (2013.1, Build901 2013/11/27)

>  <Rbt.Parameter_File>
/export/apps/rDock/src/rDock_2013.1_src/data/scripts/dock_solv.prm

>  <Rbt.Receptor>
prm/pocket_docking_3.prm

>  <SCORE>
-12.6182

>  <SCORE.INTER>
-7.38723

>  <SCORE.INTER.CONST>
1

>  <SCORE.INTER.POLAR>
0

>  <SCORE.INTER.ROT>
2

>  <SCORE.INTER.SOLV>
22.0439

>  <SCORE.INTER.VDW>
-17.2061

>  <SCORE.INTER.norm>
-0.434543

>  <SCORE.INTRA>
-5.23093

>  <SCORE.INTRA.DIHEDRAL>
-6.38003

>  <SCORE.INTRA.DIHEDRAL.0>
10.3255

>  <SCORE.INTRA.POLAR>
0

>  <SCORE.INTRA.POLAR.0>
0

>  <SCORE.INTRA.REPUL>
0

>  <SCORE.INTRA.REPUL.0>
0

>  <SCORE.INTRA.SOLV>
-0.180386

>  <SCORE.INTRA.SOLV.lig_0>
-53.4755

>  <SCORE.INTRA.VDW>
-1.95072

>  <SCORE.INTRA.VDW.0>
2.32763

>  <SCORE.INTRA.norm>
-0.307702

>  <SCORE.RESTR>
0

>  <SCORE.RESTR.CAVITY>
0

>  <SCORE.RESTR.norm>
0

>  <SCORE.SYSTEM>
0

>  <SCORE.SYSTEM.CONST>
0

>  <SCORE.SYSTEM.DIHEDRAL>
0

>  <SCORE.SYSTEM.SOLV>
0

>  <SCORE.SYSTEM.norm>
0

>  <SCORE.heavy>
17

>  <SCORE.norm>
-0.742245

>  <RMSD>
1.210

$$$$
ligand
 OpenBabel11021811503D
libRbt.so/2013.1/901 2013/11/27
 17 18  0  0  0  0  0  0  0  0999 V2000
   -2.9336    6.1299   24.0459 N   0  0  0  0  0  0  0  0  0  0  0  0
   -2.9184    6.9393   25.1890 C   0  0  0  0  0  0  0  0  0  0  0  0
   -4.0411    6.9292   26.0815 N   0  0  0  0  0  0  0  0  0  0  0  0
   -1.8399    7.7450   25.4840 N   0  0  0  0  0  0  0  0  0  0  0  0
   -0.7364    7.7863   24.6573 C   0  0  0  0  0  0  0  0  0  0  0  0
   -0.6999    6.9854   23.4730 C   0  0  0  0  0  0  0  0  0  0  0  0
    0.2055    8.5046   24.9334 O   0  0  0  0  0  0  0  0  0  0  0  0
    0.4483    7.0056   22.5701 N   0  0  0  0  0  0  0  0  0  0  0  0
    0.5294    6.0581   21.5166 C   0  0  2  0  0  0  0  0  0  0  0  0
   -0.8551    5.5941   20.9907 C   0  0  0  0  0  0  0  0  0  0  0  0
   -1.8244    6.1534   23.1883 C   0  0  0  0  0  0  0  0  0  0  0  0
   -1.8085    5.3163   21.9745 N   0  0  0  0  0  0  0  0  0  0  0  0
    1.4148    4.9152   21.9787 C   0  0  1  0  0  0  0  0  0  0  0  0
    0.7361    4.1027   22.8650 O   0  0  0  0  0  0  0  0  0  0  0  0
    1.8964    4.1203   20.8020 C   0  0  1  0  0  0  0  0  0  0  0  0
    0.8608    3.6478   20.0941 O   0  0  0  0  0  0  0  0  0  0  0  0
    2.7652    4.9852   19.8641 C   0  0  0  0  0  0  0  0  0  0  0  0
  1  2  2  0  0  0  0
  1 11  1  0  0  0  0
  2  3  1  0  0  0  0
  2  4  1  0  0  0  0
  4  5  1  0  0  0  0
  5  6  1  0  0  0  0
  5  7  2  0  0  0  0
  6  8  1  0  0  0  0
  6 11  2  0  0  0  0
  9  8  1  1  0  0  0
  9 10  1  0  0  0  0
  9 13  1  0  0  0  0
 10 12  1  0  0  0  0
 11 12  1  0  0  0  0
 13 14  1  1  0  0  0
 13 15  1  0  0  0  0
 15 16  1  6  0  0  0
 15 17  1  0  0  0  0
M  END
>  <CHROM.1>
75.63741369,-57.68961888,-0.46250036,6.01490823,22.88080142,2.24742089,0.32351092
0.76932652

>  <Name>
ligand

>  <RI>
0

>  <Rbt.Current_Directory>
/home/itssahil/PROJECTS/Mol_Feturizer/New_Systems/rnas/4LVX

>  <Rbt.Executable>
rbdock ($Id: //depot/dev/client3/rdock/2013.1/src/exe/rbdock.cxx#4 $)

>  <Rbt.Library>
libRbt.so (2013.1, Build901 2013/11/27)

>  <Rbt.Parameter_File>
/export/apps/rDock/src/rDock_2013.1_src/data/scripts/dock_solv.prm

>  <Rbt.Receptor>
prm/pocket_docking_3.prm

>  <SCORE>
-15.099

>  <SCORE.INTER>
-9.64233

>  <SCORE.INTER.CONST>
1

>  <SCORE.INTER.POLAR>
0

>  <SCORE.INTER.ROT>
2

>  <SCORE.INTER.SOLV>
24.9127

>  <SCORE.INTER.VDW>
-19.6658

>  <SCORE.INTER.norm>
-0.567196

>  <SCORE.INTRA>
-5.45672

>  <SCORE.INTRA.DIHEDRAL>
-9.35598

>  <SCORE.INTRA.DIHEDRAL.0>
10.3255

>  <SCORE.INTRA.POLAR>
0

>  <SCORE.INTRA.POLAR.0>
0

>  <SCORE.INTRA.REPUL>
0

>  <SCORE.INTRA.REPUL.0>
0

>  <SCORE.INTRA.SOLV>
0.513086

>  <SCORE.INTRA.SOLV.lig_0>
-53.4755

>  <SCORE.INTRA.VDW>
-1.03527

>  <SCORE.INTRA.VDW.0>
2.32763

>  <SCORE.INTRA.norm>
-0.320983

>  <SCORE.RESTR>
0

>  <SCORE.RESTR.CAVITY>
0

>  <SCORE.RESTR.norm>
0

>  <SCORE.SYSTEM>
0

>  <SCORE.SYSTEM.CONST>
0

>  <SCORE.SYSTEM.DIHEDRAL>
0

>  <SCORE.SYSTEM.SOLV>
0

>  <SCORE.SYSTEM.norm>
0

>  <SCORE.heavy>
17

>  <SCORE.norm>
-0.888179

>  <RMSD>
1.229

$$$$
ligand
 OpenBabel11021811503D
libRbt.so/2013.1/901 2013/11/27
 17 18  0  0  0  0  0  0  0  0999 V2000
   -2.8767    6.1158   24.0548 N   0  0  0  0  0  0  0  0  0  0  0  0
   -2.8765    6.9562   25.1754 C   0  0  0  0  0  0  0  0  0  0  0  0
   -4.0006    6.9526   26.0662 N   0  0  0  0  0  0  0  0  0  0  0  0
   -1.8114    7.7865   25.4501 N   0  0  0  0  0  0  0  0  0  0  0  0
   -0.7071    7.8228   24.6241 C   0  0  0  0  0  0  0  0  0  0  0  0
   -0.6557    6.9906   23.4621 C   0  0  0  0  0  0  0  0  0  0  0  0
    0.2228    8.5632   24.8820 O   0  0  0  0  0  0  0  0  0  0  0  0
    0.4938    7.0045   22.5608 N   0  0  0  0  0  0  0  0  0  0  0  0
    0.5919    6.0301   21.5336 C   0  0  2  0  0  0  0  0  0  0  0  0
   -0.7841    5.5301   21.0184 C   0  0  0  0  0  0  0  0  0  0  0  0
   -1.7663    6.1336   23.1986 C   0  0  0  0  0  0  0  0  0  0  0  0
   -1.7349    5.2641   22.0080 N   0  0  0  0  0  0  0  0  0  0  0  0
    1.4944    4.9144   22.0280 C   0  0  1  0  0  0  0  0  0  0  0  0
    0.8356    4.1316   22.9552 O   0  0  0  0  0  0  0  0  0  0  0  0
    1.9673    4.0778   20.8769 C   0  0  1  0  0  0  0  0  0  0  0  0
    0.9272    3.5474   20.2184 O   0  0  0  0  0  0  0  0  0  0  0  0
    2.7900    4.9194   19.8782 C   0  0  0  0  0  0  0  0  0  0  0  0
  1  2  2  0  0  0  0
  1 11  1  0  0  0  0
  2  3  1  0  0  0  0
  2  4  1  0  0  0  0
  4  5  1  0  0  0  0
  5  6  1  0  0  0  0
  5  7  2  0  0  0  0
  6  8  1  0  0  0  0
  6 11  2  0  0  0  0
  9  8  1  1  0  0  0
  9 10  1  0  0  0  0
  9 13  1  0  0  0  0
 10 12  1  0  0  0  0
 11 12  1  0  0  0  0
 13 14  1  1  0  0  0
 13 15  1  0  0  0  0
 15 16  1  6  0  0  0
 15 17  1  0  0  0  0
M  END
>  <CHROM.1>
74.43713911,-58.88513775,-0.40875608,6.00384037,22.89895708,2.25614228,0.33471808
0.73577750

>  <Name>
ligand

>  <RI>
0

>  <Rbt.Current_Directory>
/home/itssahil/PROJECTS/Mol_Feturizer/New_Systems/rnas/4LVX

>  <Rbt.Executable>
rbdock ($Id: //depot/dev/client3/rdock/2013.1/src/exe/rbdock.cxx#4 $)

>  <Rbt.Library>
libRbt.so (2013.1, Build901 2013/11/27)

>  <Rbt.Parameter_File>
/export/apps/rDock/src/rDock_2013.1_src/data/scripts/dock_solv.prm

>  <Rbt.Receptor>
prm/pocket_docking_3.prm

>  <SCORE>
-15.0448

>  <SCORE.INTER>
-9.62911

>  <SCORE.INTER.CONST>
1

>  <SCORE.INTER.POLAR>
0

>  <SCORE.INTER.ROT>
2

>  <SCORE.INTER.SOLV>
24.8018

>  <SCORE.INTER.VDW>
-19.62

>  <SCORE.INTER.norm>
-0.566418

>  <SCORE.INTRA>
-5.41571

>  <SCORE.INTRA.DIHEDRAL>
-9.48252

>  <SCORE.INTRA.DIHEDRAL.0>
10.3255

>  <SCORE.INTRA.POLAR>
0

>  <SCORE.INTRA.POLAR.0>
0

>  <SCORE.INTRA.REPUL>
0

>  <SCORE.INTRA.REPUL.0>
0

>  <SCORE.INTRA.SOLV>
0.532779

>  <SCORE.INTRA.SOLV.lig_0>
-53.4755

>  <SCORE.INTRA.VDW>
-0.940836

>  <SCORE.INTRA.VDW.0>
2.32763

>  <SCORE.INTRA.norm>
-0.318571

>  <SCORE.RESTR>
0

>  <SCORE.RESTR.CAVITY>
0

>  <SCORE.RESTR.norm>
0

>  <SCORE.SYSTEM>
0

>  <SCORE.SYSTEM.CONST>
0

>  <SCORE.SYSTEM.DIHEDRAL>
0

>  <SCORE.SYSTEM.SOLV>
0

>  <SCORE.SYSTEM.norm>
0

>  <SCORE.heavy>
17

>  <SCORE.norm>
-0.884989

>  <RMSD>
1.231

$$$$
ligand
 OpenBabel11021811503D
libRbt.so/2013.1/901 2013/11/27
 17 18  0  0  0  0  0  0  0  0999 V2000
   -2.9017    6.1317   24.0457 N   0  0  0  0  0  0  0  0  0  0  0  0
   -2.8889    6.9530   25.1803 C   0  0  0  0  0  0  0  0  0  0  0  0
   -4.0031    6.9344   26.0833 N   0  0  0  0  0  0  0  0  0  0  0  0
   -1.8206    7.7785   25.4573 N   0  0  0  0  0  0  0  0  0  0  0  0
   -0.7255    7.8286   24.6199 C   0  0  0  0  0  0  0  0  0  0  0  0
   -0.6871    7.0163   23.4435 C   0  0  0  0  0  0  0  0  0  0  0  0
    0.2075    8.5644   24.8800 O   0  0  0  0  0  0  0  0  0  0  0  0
    0.4523    7.0453   22.5299 N   0  0  0  0  0  0  0  0  0  0  0  0
    0.5388    6.0884   21.4854 C   0  0  2  0  0  0  0  0  0  0  0  0
   -0.8429    5.5974   20.9770 C   0  0  0  0  0  0  0  0  0  0  0  0
   -1.8008    6.1639   23.1777 C   0  0  0  0  0  0  0  0  0  0  0  0
   -1.7827    5.3147   21.9723 N   0  0  0  0  0  0  0  0  0  0  0  0
    1.4464    4.9644   21.9508 C   0  0  1  0  0  0  0  0  0  0  0  0
    0.7968    4.1645   22.8698 O   0  0  0  0  0  0  0  0  0  0  0  0
    1.9087    4.1491   20.7802 C   0  0  1  0  0  0  0  0  0  0  0  0
    0.8619    3.6488   20.1088 O   0  0  0  0  0  0  0  0  0  0  0  0
    2.7435    5.0030   19.8022 C   0  0  0  0  0  0  0  0  0  0  0  0
  1  2  2  0  0  0  0
  1 11  1  0  0  0  0
  2  3  1  0  0  0  0
  2  4  1  0  0  0  0
  4  5  1  0  0  0  0
  5  6  1  0  0  0  0
  5  7  2  0  0  0  0
  6  8  1  0  0  0  0
  6 11  2  0  0  0  0
  9  8  1  1  0  0  0
  9 10  1  0  0  0  0
  9 13  1  0  0  0  0
 10 12  1  0  0  0  0
 11 12  1  0  0  0  0
 13 14  1  1  0  0  0
 13 15  1  0  0  0  0
 15 16  1  6  0  0  0
 15 17  1  0  0  0  0
M  END
>  <CHROM.1>
74.55563790,-57.83981126,-0.44479260,6.04034752,22.86074167,2.24903086,0.34058539
0.75722170

>  <Name>
ligand

>  <RI>
0

>  <Rbt.Current_Directory>
/home/itssahil/PROJECTS/Mol_Feturizer/New_Systems/rnas/4LVX

>  <Rbt.Executable>
rbdock ($Id: //depot/dev/client3/rdock/2013.1/src/exe/rbdock.cxx#4 $)

>  <Rbt.Library>
libRbt.so (2013.1, Build901 2013/11/27)

>  <Rbt.Parameter_File>
/export/apps/rDock/src/rDock_2013.1_src/data/scripts/dock_solv.prm

>  <Rbt.Receptor>
prm/pocket_docking_3.prm

>  <SCORE>
-15.1111

>  <SCORE.INTER>
-9.69281

>  <SCORE.INTER.CONST>
1

>  <SCORE.INTER.POLAR>
0

>  <SCORE.INTER.ROT>
2

>  <SCORE.INTER.SOLV>
24.8505

>  <SCORE.INTER.VDW>
-19.6787

>  <SCORE.INTER.norm>
-0.570165

>  <SCORE.INTRA>
-5.41832

>  <SCORE.INTRA.DIHEDRAL>
-9.4608

>  <SCORE.INTRA.DIHEDRAL.0>
10.3255

>  <SCORE.INTRA.POLAR>
0

>  <SCORE.INTRA.POLAR.0>
0

>  <SCORE.INTRA.REPUL>
0

>  <SCORE.INTRA.REPUL.0>
0

>  <SCORE.INTRA.SOLV>
0.533262

>  <SCORE.INTRA.SOLV.lig_0>
-53.4755

>  <SCORE.INTRA.VDW>
-0.954545

>  <SCORE.INTRA.VDW.0>
2.32763

>  <SCORE.INTRA.norm>
-0.318724

>  <SCORE.RESTR>
0

>  <SCORE.RESTR.CAVITY>
0

>  <SCORE.RESTR.norm>
0

>  <SCORE.SYSTEM>
0

>  <SCORE.SYSTEM.CONST>
0

>  <SCORE.SYSTEM.DIHEDRAL>
0

>  <SCORE.SYSTEM.SOLV>
0

>  <SCORE.SYSTEM.norm>
0

>  <SCORE.heavy>
17

>  <SCORE.norm>
-0.88889

>  <RMSD>
1.232

$$$$
ligand
 OpenBabel11021811503D
libRbt.so/2013.1/901 2013/11/27
 17 18  0  0  0  0  0  0  0  0999 V2000
   -2.9261    6.1389   24.0516 N   0  0  0  0  0  0  0  0  0  0  0  0
   -2.9098    6.9634   25.1838 C   0  0  0  0  0  0  0  0  0  0  0  0
   -4.0255    6.9548   26.0851 N   0  0  0  0  0  0  0  0  0  0  0  0
   -1.8365    7.7826   25.4601 N   0  0  0  0  0  0  0  0  0  0  0  0
   -0.7397    7.8231   24.6244 C   0  0  0  0  0  0  0  0  0  0  0  0
   -0.7047    7.0071   23.4505 C   0  0  0  0  0  0  0  0  0  0  0  0
    0.1976    8.5535   24.8839 O   0  0  0  0  0  0  0  0  0  0  0  0
    0.4363    7.0259   22.5387 N   0  0  0  0  0  0  0  0  0  0  0  0
    0.5182    6.0654   21.4970 C   0  0  2  0  0  0  0  0  0  0  0  0
   -0.8659    5.5820   20.9878 C   0  0  0  0  0  0  0  0  0  0  0  0
   -1.8237    6.1613   23.1853 C   0  0  0  0  0  0  0  0  0  0  0  0
   -1.8092    5.3084   21.9825 N   0  0  0  0  0  0  0  0  0  0  0  0
    1.4176    4.9368   21.9672 C   0  0  1  0  0  0  0  0  0  0  0  0
    0.7515    4.1271   22.8656 O   0  0  0  0  0  0  0  0  0  0  0  0
    1.9018    4.1341   20.7969 C   0  0  1  0  0  0  0  0  0  0  0  0
    0.8677    3.6437   20.0989 O   0  0  0  0  0  0  0  0  0  0  0  0
    2.7575    4.9974   19.8456 C   0  0  0  0  0  0  0  0  0  0  0  0
  1  2  2  0  0  0  0
  1 11  1  0  0  0  0
  2  3  1  0  0  0  0
  2  4  1  0  0  0  0
  4  5  1  0  0  0  0
  5  6  1  0  0  0  0
  5  7  2  0  0  0  0
  6  8  1  0  0  0  0
  6 11  2  0  0  0  0
  9  8  1  1  0  0  0
  9 10  1  0  0  0  0
  9 13  1  0  0  0  0
 10 12  1  0  0  0  0
 11 12  1  0  0  0  0
 13 14  1  1  0  0  0
 13 15  1  0  0  0  0
 15 16  1  6  0  0  0
 15 17  1  0  0  0  0
M  END
>  <CHROM.1>
75.85224335,-57.66894183,-0.46193707,6.03177520,22.86888108,2.24959839,0.33543126
0.75578691

>  <Name>
ligand

>  <RI>
0

>  <Rbt.Current_Directory>
/home/itssahil/PROJECTS/Mol_Feturizer/New_Systems/rnas/4LVX

>  <Rbt.Executable>
rbdock ($Id: //depot/dev/client3/rdock/2013.1/src/exe/rbdock.cxx#4 $)

>  <Rbt.Library>
libRbt.so (2013.1, Build901 2013/11/27)

>  <Rbt.Parameter_File>
/export/apps/rDock/src/rDock_2013.1_src/data/scripts/dock_solv.prm

>  <Rbt.Receptor>
prm/pocket_docking_3.prm

>  <SCORE>
-15.0702

>  <SCORE.INTER>
-9.60702

>  <SCORE.INTER.CONST>
1

>  <SCORE.INTER.POLAR>
0

>  <SCORE.INTER.ROT>
2

>  <SCORE.INTER.SOLV>
24.9731

>  <SCORE.INTER.VDW>
-19.6624

>  <SCORE.INTER.norm>
-0.565119

>  <SCORE.INTRA>
-5.46313

>  <SCORE.INTRA.DIHEDRAL>
-9.3346

>  <SCORE.INTRA.DIHEDRAL.0>
10.3255

>  <SCORE.INTRA.POLAR>
0

>  <SCORE.INTRA.POLAR.0>
0

>  <SCORE.INTRA.REPUL>
0

>  <SCORE.INTRA.REPUL.0>
0

>  <SCORE.INTRA.SOLV>
0.509068

>  <SCORE.INTRA.SOLV.lig_0>
-53.4755

>  <SCORE.INTRA.VDW>
-1.05036

>  <SCORE.INTRA.VDW.0>
2.32763

>  <SCORE.INTRA.norm>
-0.321361

>  <SCORE.RESTR>
0

>  <SCORE.RESTR.CAVITY>
0

>  <SCORE.RESTR.norm>
0

>  <SCORE.SYSTEM>
0

>  <SCORE.SYSTEM.CONST>
0

>  <SCORE.SYSTEM.DIHEDRAL>
0

>  <SCORE.SYSTEM.SOLV>
0

>  <SCORE.SYSTEM.norm>
0

>  <SCORE.heavy>
17

>  <SCORE.norm>
-0.886479

>  <RMSD>
1.234

$$$$
ligand
 OpenBabel11021811503D
libRbt.so/2013.1/901 2013/11/27
 17 18  0  0  0  0  0  0  0  0999 V2000
   -2.8944    6.1055   24.0813 N   0  0  0  0  0  0  0  0  0  0  0  0
   -2.8834    6.9497   25.1991 C   0  0  0  0  0  0  0  0  0  0  0  0
   -3.9966    6.9454   26.1035 N   0  0  0  0  0  0  0  0  0  0  0  0
   -1.8179    7.7845   25.4580 N   0  0  0  0  0  0  0  0  0  0  0  0
   -0.7238    7.8217   24.6185 C   0  0  0  0  0  0  0  0  0  0  0  0
   -0.6837    6.9858   23.4588 C   0  0  0  0  0  0  0  0  0  0  0  0
    0.2067    8.5660   24.8626 O   0  0  0  0  0  0  0  0  0  0  0  0
    0.4546    7.0004   22.5435 N   0  0  0  0  0  0  0  0  0  0  0  0
    0.5435    6.0229   21.5185 C   0  0  2  0  0  0  0  0  0  0  0  0
   -0.8369    5.5166   21.0217 C   0  0  0  0  0  0  0  0  0  0  0  0
   -1.7946    6.1242   23.2116 C   0  0  0  0  0  0  0  0  0  0  0  0
   -1.7747    5.2507   22.0237 N   0  0  0  0  0  0  0  0  0  0  0  0
    1.4557    4.9119   22.0055 C   0  0  1  0  0  0  0  0  0  0  0  0
    0.8085    4.1257   22.9379 O   0  0  0  0  0  0  0  0  0  0  0  0
    1.9237    4.0777   20.8506 C   0  0  1  0  0  0  0  0  0  0  0  0
    0.8808    3.5475   20.1963 O   0  0  0  0  0  0  0  0  0  0  0  0
    2.7406    4.9219   19.8493 C   0  0  0  0  0  0  0  0  0  0  0  0
  1  2  2  0  0  0  0
  1 11  1  0  0  0  0
  2  3  1  0  0  0  0
  2  4  1  0  0  0  0
  4  5  1  0  0  0  0
  5  6  1  0  0  0  0
  5  7  2  0  0  0  0
  6  8  1  0  0  0  0
  6 11  2  0  0  0  0
  9  8  1  1  0  0  0
  9 10  1  0  0  0  0
  9 13  1  0  0  0  0
 10 12  1  0  0  0  0
 11 12  1  0  0  0  0
 13 14  1  1  0  0  0
 13 15  1  0  0  0  0
 15 16  1  6  0  0  0
 15 17  1  0  0  0  0
M  END
>  <CHROM.1>
74.75987274,-58.57064287,-0.43849264,5.99911342,22.89535043,2.25137742,0.34556567
0.73496468

>  <Name>
ligand

>  <RI>
0

>  <Rbt.Current_Directory>
/home/itssahil/PROJECTS/Mol_Feturizer/New_Systems/rnas/4LVX

>  <Rbt.Executable>
rbdock ($Id: //depot/dev/client3/rdock/2013.1/src/exe/rbdock.cxx#4 $)

>  <Rbt.Library>
libRbt.so (2013.1, Build901 2013/11/27)

>  <Rbt.Parameter_File>
/export/apps/rDock/src/rDock_2013.1_src/data/scripts/dock_solv.prm

>  <Rbt.Receptor>
prm/pocket_docking_3.prm

>  <SCORE>
-15.0624

>  <SCORE.INTER>
-9.63423

>  <SCORE.INTER.CONST>
1

>  <SCORE.INTER.POLAR>
0

>  <SCORE.INTER.ROT>
2

>  <SCORE.INTER.SOLV>
24.9001

>  <SCORE.INTER.VDW>
-19.6562

>  <SCORE.INTER.norm>
-0.566719

>  <SCORE.INTRA>
-5.42819

>  <SCORE.INTRA.DIHEDRAL>
-9.4503

>  <SCORE.INTRA.DIHEDRAL.0>
10.3255

>  <SCORE.INTRA.POLAR>
0

>  <SCORE.INTRA.POLAR.0>
0

>  <SCORE.INTRA.REPUL>
0

>  <SCORE.INTRA.REPUL.0>
0

>  <SCORE.INTRA.SOLV>
0.52749

>  <SCORE.INTRA.SOLV.lig_0>
-53.4755

>  <SCORE.INTRA.VDW>
-0.96679

>  <SCORE.INTRA.VDW.0>
2.32763

>  <SCORE.INTRA.norm>
-0.319306

>  <SCORE.RESTR>
0

>  <SCORE.RESTR.CAVITY>
0

>  <SCORE.RESTR.norm>
0

>  <SCORE.SYSTEM>
0

>  <SCORE.SYSTEM.CONST>
0

>  <SCORE.SYSTEM.DIHEDRAL>
0

>  <SCORE.SYSTEM.SOLV>
0

>  <SCORE.SYSTEM.norm>
0

>  <SCORE.heavy>
17

>  <SCORE.norm>
-0.886025

>  <RMSD>
1.247

$$$$
ligand
 OpenBabel11021811503D
libRbt.so/2013.1/901 2013/11/27
 17 18  0  0  0  0  0  0  0  0999 V2000
   -2.9388    6.1557   24.0605 N   0  0  0  0  0  0  0  0  0  0  0  0
   -2.9284    6.9778   25.1945 C   0  0  0  0  0  0  0  0  0  0  0  0
   -4.0483    6.9663   26.0906 N   0  0  0  0  0  0  0  0  0  0  0  0
   -1.8571    7.7974   25.4774 N   0  0  0  0  0  0  0  0  0  0  0  0
   -0.7566    7.8406   24.6469 C   0  0  0  0  0  0  0  0  0  0  0  0
   -0.7155    7.0271   23.4714 C   0  0  0  0  0  0  0  0  0  0  0  0
    0.1789    8.5713   24.9122 O   0  0  0  0  0  0  0  0  0  0  0  0
    0.4297    7.0489   22.5649 N   0  0  0  0  0  0  0  0  0  0  0  0
    0.5173    6.0907   21.5216 C   0  0  2  0  0  0  0  0  0  0  0  0
   -0.8641    5.6071   21.0050 C   0  0  0  0  0  0  0  0  0  0  0  0
   -1.8324    6.1809   23.1993 C   0  0  0  0  0  0  0  0  0  0  0  0
   -1.8117    5.3306   21.9947 N   0  0  0  0  0  0  0  0  0  0  0  0
    1.4155    4.9619   21.9935 C   0  0  1  0  0  0  0  0  0  0  0  0
    0.7492    4.1553   22.8945 O   0  0  0  0  0  0  0  0  0  0  0  0
    1.8973    4.1557   20.8246 C   0  0  1  0  0  0  0  0  0  0  0  0
    0.8619    3.6604   20.1321 O   0  0  0  0  0  0  0  0  0  0  0  0
    2.7478    5.0173   19.8670 C   0  0  0  0  0  0  0  0  0  0  0  0
  1  2  2  0  0  0  0
  1 11  1  0  0  0  0
  2  3  1  0  0  0  0
  2  4  1  0  0  0  0
  4  5  1  0  0  0  0
  5  6  1  0  0  0  0
  5  7  2  0  0  0  0
  6  8  1  0  0  0  0
  6 11  2  0  0  0  0
  9  8  1  1  0  0  0
  9 10  1  0  0  0  0
  9 13  1  0  0  0  0
 10 12  1  0  0  0  0
 11 12  1  0  0  0  0
 13 14  1  1  0  0  0
 13 15  1  0  0  0  0
 15 16  1  6  0  0  0
 15 17  1  0  0  0  0
M  END
>  <CHROM.1>
75.42127615,-57.93735954,-0.47140845,6.05179441,22.88950830,2.25201493,0.33297195
0.75614139

>  <Name>
ligand

>  <RI>
0

>  <Rbt.Current_Directory>
/home/itssahil/PROJECTS/Mol_Feturizer/New_Systems/rnas/4LVX

>  <Rbt.Executable>
rbdock ($Id: //depot/dev/client3/rdock/2013.1/src/exe/rbdock.cxx#4 $)

>  <Rbt.Library>
libRbt.so (2013.1, Build901 2013/11/27)

>  <Rbt.Parameter_File>
/export/apps/rDock/src/rDock_2013.1_src/data/scripts/dock_solv.prm

>  <Rbt.Receptor>
prm/pocket_docking_7.prm

>  <SCORE>
-15.04

>  <SCORE.INTER>
-9.58949

>  <SCORE.INTER.CONST>
1

>  <SCORE.INTER.POLAR>
0

>  <SCORE.INTER.ROT>
2

>  <SCORE.INTER.SOLV>
24.9453

>  <SCORE.INTER.VDW>
-19.6414

>  <SCORE.INTER.norm>
-0.564088

>  <SCORE.INTRA>
-5.4505

>  <SCORE.INTRA.DIHEDRAL>
-9.38051

>  <SCORE.INTRA.DIHEDRAL.0>
10.3255

>  <SCORE.INTRA.POLAR>
0

>  <SCORE.INTRA.POLAR.0>
0

>  <SCORE.INTRA.REPUL>
0

>  <SCORE.INTRA.REPUL.0>
0

>  <SCORE.INTRA.SOLV>
0.516569

>  <SCORE.INTRA.SOLV.lig_0>
-53.4755

>  <SCORE.INTRA.VDW>
-1.01853

>  <SCORE.INTRA.VDW.0>
2.32763

>  <SCORE.INTRA.norm>
-0.320618

>  <SCORE.RESTR>
0

>  <SCORE.RESTR.CAVITY>
0

>  <SCORE.RESTR.norm>
0

>  <SCORE.SYSTEM>
0

>  <SCORE.SYSTEM.CONST>
0

>  <SCORE.SYSTEM.DIHEDRAL>
0

>  <SCORE.SYSTEM.SOLV>
0

>  <SCORE.SYSTEM.norm>
0

>  <SCORE.heavy>
17

>  <SCORE.norm>
-0.884705

>  <RMSD>
1.247

$$$$
ligand
 OpenBabel11021811503D
libRbt.so/2013.1/901 2013/11/27
 17 18  0  0  0  0  0  0  0  0999 V2000
   -2.3231    5.4778   24.4337 N   0  0  0  0  0  0  0  0  0  0  0  0
   -2.4070    6.6309   25.2245 C   0  0  0  0  0  0  0  0  0  0  0  0
   -3.4893    6.7775   26.1542 N   0  0  0  0  0  0  0  0  0  0  0  0
   -1.4638    7.6319   25.1368 N   0  0  0  0  0  0  0  0  0  0  0  0
   -0.4038    7.5347   24.2594 C   0  0  0  0  0  0  0  0  0  0  0  0
   -0.2713    6.3822   23.4230 C   0  0  0  0  0  0  0  0  0  0  0  0
    0.4181    8.4289   24.1950 O   0  0  0  0  0  0  0  0  0  0  0  0
    0.8342    6.2450   22.4781 N   0  0  0  0  0  0  0  0  0  0  0  0
    1.0376    5.0091   21.8107 C   0  0  2  0  0  0  0  0  0  0  0  0
   -0.2684    4.2002   21.5899 C   0  0  0  0  0  0  0  0  0  0  0  0
   -1.2554    5.3541   23.5332 C   0  0  0  0  0  0  0  0  0  0  0  0
   -1.1382    4.1548   22.6832 N   0  0  0  0  0  0  0  0  0  0  0  0
    2.1067    4.2382   22.5634 C   0  0  1  0  0  0  0  0  0  0  0  0
    2.0768    2.9021   22.2167 O   0  0  0  0  0  0  0  0  0  0  0  0
    3.4606    4.8211   22.2884 C   0  0  1  0  0  0  0  0  0  0  0  0
    3.6178    5.0556   20.9780 O   0  0  0  0  0  0  0  0  0  0  0  0
    3.6564    6.1537   23.0422 C   0  0  0  0  0  0  0  0  0  0  0  0
  1  2  2  0  0  0  0
  1 11  1  0  0  0  0
  2  3  1  0  0  0  0
  2  4  1  0  0  0  0
  4  5  1  0  0  0  0
  5  6  1  0  0  0  0
  5  7  2  0  0  0  0
  6  8  1  0  0  0  0
  6 11  2  0  0  0  0
  9  8  1  1  0  0  0
  9 10  1  0  0  0  0
  9 13  1  0  0  0  0
 10 12  1  0  0  0  0
 11 12  1  0  0  0  0
 13 14  1  6  0  0  0
 13 15  1  0  0  0  0
 15 16  1  6  0  0  0
 15 17  1  0  0  0  0
M  END
>  <CHROM.1>
162.46823374,-45.59294260,0.32762201,5.68799298,23.25804971,2.56492304,0.33511584
0.48932903

>  <Name>
ligand

>  <RI>
0

>  <Rbt.Current_Directory>
/home/itssahil/PROJECTS/Mol_Feturizer/New_Systems/rnas/4LVX

>  <Rbt.Executable>
rbdock ($Id: //depot/dev/client3/rdock/2013.1/src/exe/rbdock.cxx#4 $)

>  <Rbt.Library>
libRbt.so (2013.1, Build901 2013/11/27)

>  <Rbt.Parameter_File>
/export/apps/rDock/src/rDock_2013.1_src/data/scripts/dock_solv.prm

>  <Rbt.Receptor>
prm/pocket_docking_3.prm

>  <SCORE>
-13.6952

>  <SCORE.INTER>
-8.32057

>  <SCORE.INTER.CONST>
1

>  <SCORE.INTER.POLAR>
0

>  <SCORE.INTER.ROT>
2

>  <SCORE.INTER.SOLV>
22.8723

>  <SCORE.INTER.VDW>
-18.1045

>  <SCORE.INTER.norm>
-0.489445

>  <SCORE.INTRA>
-5.37459

>  <SCORE.INTRA.DIHEDRAL>
-8.44952

>  <SCORE.INTRA.DIHEDRAL.0>
10.3255

>  <SCORE.INTRA.POLAR>
0

>  <SCORE.INTRA.POLAR.0>
0

>  <SCORE.INTRA.REPUL>
0

>  <SCORE.INTRA.REPUL.0>
0

>  <SCORE.INTRA.SOLV>
0.300173

>  <SCORE.INTRA.SOLV.lig_0>
-53.4755

>  <SCORE.INTRA.VDW>
-1.29991

>  <SCORE.INTRA.VDW.0>
2.32763

>  <SCORE.INTRA.norm>
-0.316152

>  <SCORE.RESTR>
0

>  <SCORE.RESTR.CAVITY>
0

>  <SCORE.RESTR.norm>
0

>  <SCORE.SYSTEM>
0

>  <SCORE.SYSTEM.CONST>
0

>  <SCORE.SYSTEM.DIHEDRAL>
0

>  <SCORE.SYSTEM.SOLV>
0

>  <SCORE.SYSTEM.norm>
0

>  <SCORE.heavy>
17

>  <SCORE.norm>
-0.805597

>  <RMSD>
1.255

$$$$
ligand
 OpenBabel11021811503D
libRbt.so/2013.1/901 2013/11/27
 17 18  0  0  0  0  0  0  0  0999 V2000
   -2.9701    6.1371   24.0594 N   0  0  0  0  0  0  0  0  0  0  0  0
   -2.9583    6.9626   25.1909 C   0  0  0  0  0  0  0  0  0  0  0  0
   -4.0817    6.9618   26.0827 N   0  0  0  0  0  0  0  0  0  0  0  0
   -1.8824    7.7756   25.4755 N   0  0  0  0  0  0  0  0  0  0  0  0
   -0.7784    7.8085   24.6490 C   0  0  0  0  0  0  0  0  0  0  0  0
   -0.7384    6.9911   23.4762 C   0  0  0  0  0  0  0  0  0  0  0  0
    0.1612    8.5335   24.9157 O   0  0  0  0  0  0  0  0  0  0  0  0
    0.4104    7.0021   22.5741 N   0  0  0  0  0  0  0  0  0  0  0  0
    0.4952    6.0400   21.5341 C   0  0  2  0  0  0  0  0  0  0  0  0
   -0.8875    5.5646   21.0137 C   0  0  0  0  0  0  0  0  0  0  0  0
   -1.8602    6.1519   23.2024 C   0  0  0  0  0  0  0  0  0  0  0  0
   -1.8408    5.2978   22.0005 N   0  0  0  0  0  0  0  0  0  0  0  0
    1.3837    4.9065   22.0129 C   0  0  1  0  0  0  0  0  0  0  0  0
    0.7059    4.1032   22.9084 O   0  0  0  0  0  0  0  0  0  0  0  0
    1.8705    4.0979   20.8477 C   0  0  1  0  0  0  0  0  0  0  0  0
    0.8382    3.6248   20.1354 O   0  0  0  0  0  0  0  0  0  0  0  0
    2.7522    4.9491   19.9093 C   0  0  0  0  0  0  0  0  0  0  0  0
  1  2  2  0  0  0  0
  1 11  1  0  0  0  0
  2  3  1  0  0  0  0
  2  4  1  0  0  0  0
  4  5  1  0  0  0  0
  5  6  1  0  0  0  0
  5  7  2  0  0  0  0
  6  8  1  0  0  0  0
  6 11  2  0  0  0  0
  9  8  1  1  0  0  0
  9 10  1  0  0  0  0
  9 13  1  0  0  0  0
 10 12  1  0  0  0  0
 11 12  1  0  0  0  0
 13 14  1  1  0  0  0
 13 15  1  0  0  0  0
 15 16  1  6  0  0  0
 15 17  1  0  0  0  0
M  END
>  <CHROM.1>
75.73744926,-57.00930710,-0.49634346,6.01398322,22.89779345,2.25101114,0.32360503
0.75548985

>  <Name>
ligand

>  <RI>
0

>  <Rbt.Current_Directory>
/home/itssahil/PROJECTS/Mol_Feturizer/New_Systems/rnas/4LVX

>  <Rbt.Executable>
rbdock ($Id: //depot/dev/client3/rdock/2013.1/src/exe/rbdock.cxx#4 $)

>  <Rbt.Library>
libRbt.so (2013.1, Build901 2013/11/27)

>  <Rbt.Parameter_File>
/export/apps/rDock/src/rDock_2013.1_src/data/scripts/dock_solv.prm

>  <Rbt.Receptor>
prm/pocket_docking_3.prm

>  <SCORE>
-15.0444

>  <SCORE.INTER>
-9.58853

>  <SCORE.INTER.CONST>
1

>  <SCORE.INTER.POLAR>
0

>  <SCORE.INTER.ROT>
2

>  <SCORE.INTER.SOLV>
25.0761

>  <SCORE.INTER.VDW>
-19.6844

>  <SCORE.INTER.norm>
-0.564031

>  <SCORE.INTRA>
-5.4559

>  <SCORE.INTRA.DIHEDRAL>
-9.3341

>  <SCORE.INTRA.DIHEDRAL.0>
10.3255

>  <SCORE.INTRA.POLAR>
0

>  <SCORE.INTRA.POLAR.0>
0

>  <SCORE.INTRA.REPUL>
0

>  <SCORE.INTRA.REPUL.0>
0

>  <SCORE.INTRA.SOLV>
0.512796

>  <SCORE.INTRA.SOLV.lig_0>
-53.4755

>  <SCORE.INTRA.VDW>
-1.04525

>  <SCORE.INTRA.VDW.0>
2.32763

>  <SCORE.INTRA.norm>
-0.320935

>  <SCORE.RESTR>
0

>  <SCORE.RESTR.CAVITY>
0

>  <SCORE.RESTR.norm>
0

>  <SCORE.SYSTEM>
0

>  <SCORE.SYSTEM.CONST>
0

>  <SCORE.SYSTEM.DIHEDRAL>
0

>  <SCORE.SYSTEM.SOLV>
0

>  <SCORE.SYSTEM.norm>
0

>  <SCORE.heavy>
17

>  <SCORE.norm>
-0.884966

>  <RMSD>
1.257

$$$$
ligand
 OpenBabel11021811503D
libRbt.so/2013.1/901 2013/11/27
 17 18  0  0  0  0  0  0  0  0999 V2000
   -1.8375    4.9750   23.8727 N   0  0  0  0  0  0  0  0  0  0  0  0
   -2.0996    6.1127   24.6467 C   0  0  0  0  0  0  0  0  0  0  0  0
   -3.0274    6.0315   25.7375 N   0  0  0  0  0  0  0  0  0  0  0  0
   -1.4773    7.3151   24.3895 N   0  0  0  0  0  0  0  0  0  0  0  0
   -0.5756    7.4413   23.3531 C   0  0  0  0  0  0  0  0  0  0  0  0
   -0.2743    6.3140   22.5262 C   0  0  0  0  0  0  0  0  0  0  0  0
   -0.0372    8.5111   23.1405 O   0  0  0  0  0  0  0  0  0  0  0  0
    0.6708    6.4093   21.4165 N   0  0  0  0  0  0  0  0  0  0  0  0
    1.0874    5.2297   20.7462 C   0  0  2  0  0  0  0  0  0  0  0  0
    0.0218    4.1013   20.7548 C   0  0  0  0  0  0  0  0  0  0  0  0
   -0.9251    5.0763   22.8127 C   0  0  0  0  0  0  0  0  0  0  0  0
   -0.6283    3.8991   21.9757 N   0  0  0  0  0  0  0  0  0  0  0  0
    2.4232    4.8047   21.3281 C   0  0  1  0  0  0  0  0  0  0  0  0
    2.4919    3.4296   21.4326 O   0  0  0  0  0  0  0  0  0  0  0  0
    3.5484    5.3232   20.4833 C   0  0  1  0  0  0  0  0  0  0  0  0
    3.4058    4.9277   19.2104 O   0  0  0  0  0  0  0  0  0  0  0  0
    3.5956    6.8658   20.5051 C   0  0  0  0  0  0  0  0  0  0  0  0
  1  2  2  0  0  0  0
  1 11  1  0  0  0  0
  2  3  1  0  0  0  0
  2  4  1  0  0  0  0
  4  5  1  0  0  0  0
  5  6  1  0  0  0  0
  5  7  2  0  0  0  0
  6  8  1  0  0  0  0
  6 11  2  0  0  0  0
  9  8  1  1  0  0  0
  9 10  1  0  0  0  0
  9 13  1  0  0  0  0
 10 12  1  0  0  0  0
 11 12  1  0  0  0  0
 13 14  1  6  0  0  0
 13 15  1  0  0  0  0
 15 16  1  6  0  0  0
 15 17  1  0  0  0  0
M  END
>  <CHROM.1>
141.60772064,-55.42668586,0.44942884,5.68415817,22.20255177,2.75773115,0.63501848
0.28351989

>  <Name>
ligand

>  <RI>
0

>  <Rbt.Current_Directory>
/home/itssahil/PROJECTS/Mol_Feturizer/New_Systems/rnas/4LVX

>  <Rbt.Executable>
rbdock ($Id: //depot/dev/client3/rdock/2013.1/src/exe/rbdock.cxx#4 $)

>  <Rbt.Library>
libRbt.so (2013.1, Build901 2013/11/27)

>  <Rbt.Parameter_File>
/export/apps/rDock/src/rDock_2013.1_src/data/scripts/dock_solv.prm

>  <Rbt.Receptor>
prm/pocket_docking_2.prm

>  <SCORE>
-10.7457

>  <SCORE.INTER>
-7.0273

>  <SCORE.INTER.CONST>
1

>  <SCORE.INTER.POLAR>
0

>  <SCORE.INTER.ROT>
2

>  <SCORE.INTER.SOLV>
22.9943

>  <SCORE.INTER.VDW>
-17.283

>  <SCORE.INTER.norm>
-0.41337

>  <SCORE.INTRA>
-4.01258

>  <SCORE.INTRA.DIHEDRAL>
-6.43747

>  <SCORE.INTRA.DIHEDRAL.0>
10.3255

>  <SCORE.INTRA.POLAR>
0

>  <SCORE.INTRA.POLAR.0>
0

>  <SCORE.INTRA.REPUL>
0

>  <SCORE.INTRA.REPUL.0>
0

>  <SCORE.INTRA.SOLV>
0.0778338

>  <SCORE.INTRA.SOLV.lig_0>
-53.4755

>  <SCORE.INTRA.VDW>
-0.832758

>  <SCORE.INTRA.VDW.0>
2.32763

>  <SCORE.INTRA.norm>
-0.236034

>  <SCORE.RESTR>
0.294187

>  <SCORE.RESTR.CAVITY>
0.294187

>  <SCORE.RESTR.norm>
0.0173051

>  <SCORE.SYSTEM>
0

>  <SCORE.SYSTEM.CONST>
0

>  <SCORE.SYSTEM.DIHEDRAL>
0

>  <SCORE.SYSTEM.SOLV>
0

>  <SCORE.SYSTEM.norm>
0

>  <SCORE.heavy>
17

>  <SCORE.norm>
-0.632099

>  <RMSD>
1.289

$$$$
ligand
 OpenBabel11021811503D
libRbt.so/2013.1/901 2013/11/27
 17 18  0  0  0  0  0  0  0  0999 V2000
   -2.4312    5.5588   24.4870 N   0  0  0  0  0  0  0  0  0  0  0  0
   -2.4888    6.7054   25.2895 C   0  0  0  0  0  0  0  0  0  0  0  0
   -3.5807    6.8790   26.2032 N   0  0  0  0  0  0  0  0  0  0  0  0
   -1.5106    7.6743   25.2286 N   0  0  0  0  0  0  0  0  0  0  0  0
   -0.4400    7.5503   24.3675 C   0  0  0  0  0  0  0  0  0  0  0  0
   -0.3332    6.4032   23.5201 C   0  0  0  0  0  0  0  0  0  0  0  0
    0.4129    8.4164   24.3266 O   0  0  0  0  0  0  0  0  0  0  0  0
    0.7825    6.2384   22.5917 N   0  0  0  0  0  0  0  0  0  0  0  0
    0.9545    5.0035   21.9135 C   0  0  2  0  0  0  0  0  0  0  0  0
   -0.3745    4.2425   21.6624 C   0  0  0  0  0  0  0  0  0  0  0  0
   -1.3536    5.4083   23.6025 C   0  0  0  0  0  0  0  0  0  0  0  0
   -1.2635    4.2151   22.7408 N   0  0  0  0  0  0  0  0  0  0  0  0
    1.9839    4.1882   22.6746 C   0  0  1  0  0  0  0  0  0  0  0  0
    2.0505    2.9025   22.1756 O   0  0  0  0  0  0  0  0  0  0  0  0
    3.3283    4.8485   22.6031 C   0  0  1  0  0  0  0  0  0  0  0  0
    4.2132    4.2060   23.3784 O   0  0  0  0  0  0  0  0  0  0  0  0
    3.8699    4.8533   21.1577 C   0  0  0  0  0  0  0  0  0  0  0  0
  1  2  2  0  0  0  0
  1 11  1  0  0  0  0
  2  3  1  0  0  0  0
  2  4  1  0  0  0  0
  4  5  1  0  0  0  0
  5  6  1  0  0  0  0
  5  7  2  0  0  0  0
  6  8  1  0  0  0  0
  6 11  2  0  0  0  0
  9  8  1  1  0  0  0
  9 10  1  0  0  0  0
  9 13  1  0  0  0  0
 10 12  1  0  0  0  0
 11 12  1  0  0  0  0
 13 14  1  6  0  0  0
 13 15  1  0  0  0  0
 15 16  1  1  0  0  0
 15 17  1  0  0  0  0
M  END
>  <CHROM.1>
171.25645811,174.01421279,0.31512307,5.57174210,23.38022438,2.52941574,0.22064715
0.52385572

>  <Name>
ligand

>  <RI>
0

>  <Rbt.Current_Directory>
/home/itssahil/PROJECTS/Mol_Feturizer/New_Systems/rnas/4LVX

>  <Rbt.Executable>
rbdock ($Id: //depot/dev/client3/rdock/2013.1/src/exe/rbdock.cxx#4 $)

>  <Rbt.Library>
libRbt.so (2013.1, Build901 2013/11/27)

>  <Rbt.Parameter_File>
/export/apps/rDock/src/rDock_2013.1_src/data/scripts/dock_solv.prm

>  <Rbt.Receptor>
prm/pocket_docking_4.prm

>  <SCORE>
-15.9306

>  <SCORE.INTER>
-9.51481

>  <SCORE.INTER.CONST>
1

>  <SCORE.INTER.POLAR>
0

>  <SCORE.INTER.ROT>
2

>  <SCORE.INTER.SOLV>
23.4103

>  <SCORE.INTER.VDW>
-19.08

>  <SCORE.INTER.norm>
-0.559694

>  <SCORE.INTRA>
-6.41583

>  <SCORE.INTRA.DIHEDRAL>
-9.76268

>  <SCORE.INTRA.DIHEDRAL.0>
10.3255

>  <SCORE.INTRA.POLAR>
0

>  <SCORE.INTRA.POLAR.0>
0

>  <SCORE.INTRA.REPUL>
0

>  <SCORE.INTRA.REPUL.0>
0

>  <SCORE.INTRA.SOLV>
-0.569233

>  <SCORE.INTRA.SOLV.lig_0>
-53.4755

>  <SCORE.INTRA.VDW>
-1.24988

>  <SCORE.INTRA.VDW.0>
2.32763

>  <SCORE.INTRA.norm>
-0.377402

>  <SCORE.RESTR>
0

>  <SCORE.RESTR.CAVITY>
0

>  <SCORE.RESTR.norm>
0

>  <SCORE.SYSTEM>
0

>  <SCORE.SYSTEM.CONST>
0

>  <SCORE.SYSTEM.DIHEDRAL>
0

>  <SCORE.SYSTEM.SOLV>
0

>  <SCORE.SYSTEM.norm>
0

>  <SCORE.heavy>
17

>  <SCORE.norm>
-0.937096

>  <RMSD>
1.293

$$$$
ligand
 OpenBabel11021811503D
libRbt.so/2013.1/901 2013/11/27
 17 18  0  0  0  0  0  0  0  0999 V2000
   -2.4300    5.5718   24.4860 N   0  0  0  0  0  0  0  0  0  0  0  0
   -2.4862    6.7213   25.2843 C   0  0  0  0  0  0  0  0  0  0  0  0
   -3.5793    6.9006   26.1955 N   0  0  0  0  0  0  0  0  0  0  0  0
   -1.5057    7.6877   25.2218 N   0  0  0  0  0  0  0  0  0  0  0  0
   -0.4339    7.5581   24.3631 C   0  0  0  0  0  0  0  0  0  0  0  0
   -0.3282    6.4078   23.5199 C   0  0  0  0  0  0  0  0  0  0  0  0
    0.4212    8.4221   24.3208 O   0  0  0  0  0  0  0  0  0  0  0  0
    0.7887    6.2372   22.5941 N   0  0  0  0  0  0  0  0  0  0  0  0
    0.9591    4.9996   21.9205 C   0  0  2  0  0  0  0  0  0  0  0  0
   -0.3713    4.2408   21.6696 C   0  0  0  0  0  0  0  0  0  0  0  0
   -1.3511    5.4157   23.6040 C   0  0  0  0  0  0  0  0  0  0  0  0
   -1.2622    4.2192   22.7466 N   0  0  0  0  0  0  0  0  0  0  0  0
    1.9852    4.1845   22.6862 C   0  0  1  0  0  0  0  0  0  0  0  0
    2.0560    2.8995   22.1861 O   0  0  0  0  0  0  0  0  0  0  0  0
    3.3292    4.8465   22.6230 C   0  0  1  0  0  0  0  0  0  0  0  0
    4.2055    4.2156   23.4174 O   0  0  0  0  0  0  0  0  0  0  0  0
    3.8887    4.8339   21.1846 C   0  0  0  0  0  0  0  0  0  0  0  0
  1  2  2  0  0  0  0
  1 11  1  0  0  0  0
  2  3  1  0  0  0  0
  2  4  1  0  0  0  0
  4  5  1  0  0  0  0
  5  6  1  0  0  0  0
  5  7  2  0  0  0  0
  6  8  1  0  0  0  0
  6 11  2  0  0  0  0
  9  8  1  1  0  0  0
  9 10  1  0  0  0  0
  9 13  1  0  0  0  0
 10 12  1  0  0  0  0
 11 12  1  0  0  0  0
 13 14  1  6  0  0  0
 13 15  1  0  0  0  0
 15 16  1  1  0  0  0
 15 17  1  0  0  0  0
M  END
>  <CHROM.1>
171.65627210,173.12065895,0.31902776,5.57558109,23.38664592,2.52858889,0.21542865
0.52309335

>  <Name>
ligand

>  <RI>
0

>  <Rbt.Current_Directory>
/home/itssahil/PROJECTS/Mol_Feturizer/New_Systems/rnas/4LVX

>  <Rbt.Executable>
rbdock ($Id: //depot/dev/client3/rdock/2013.1/src/exe/rbdock.cxx#4 $)

>  <Rbt.Library>
libRbt.so (2013.1, Build901 2013/11/27)

>  <Rbt.Parameter_File>
/export/apps/rDock/src/rDock_2013.1_src/data/scripts/dock_solv.prm

>  <Rbt.Receptor>
prm/pocket_docking_8.prm

>  <SCORE>
-15.9218

>  <SCORE.INTER>
-9.49417

>  <SCORE.INTER.CONST>
1

>  <SCORE.INTER.POLAR>
0

>  <SCORE.INTER.ROT>
2

>  <SCORE.INTER.SOLV>
23.425

>  <SCORE.INTER.VDW>
-19.0711

>  <SCORE.INTER.norm>
-0.558481

>  <SCORE.INTRA>
-6.42761

>  <SCORE.INTRA.DIHEDRAL>
-9.74325

>  <SCORE.INTRA.DIHEDRAL.0>
10.3255

>  <SCORE.INTRA.POLAR>
0

>  <SCORE.INTRA.POLAR.0>
0

>  <SCORE.INTRA.REPUL>
0

>  <SCORE.INTRA.REPUL.0>
0

>  <SCORE.INTRA.SOLV>
-0.57056

>  <SCORE.INTRA.SOLV.lig_0>
-53.4755

>  <SCORE.INTRA.VDW>
-1.2707

>  <SCORE.INTRA.VDW.0>
2.32763

>  <SCORE.INTRA.norm>
-0.378095

>  <SCORE.RESTR>
0

>  <SCORE.RESTR.CAVITY>
0

>  <SCORE.RESTR.norm>
0

>  <SCORE.SYSTEM>
0

>  <SCORE.SYSTEM.CONST>
0

>  <SCORE.SYSTEM.DIHEDRAL>
0

>  <SCORE.SYSTEM.SOLV>
0

>  <SCORE.SYSTEM.norm>
0

>  <SCORE.heavy>
17

>  <SCORE.norm>
-0.936575

>  <RMSD>
1.304

$$$$
ligand
 OpenBabel11021811503D
libRbt.so/2013.1/901 2013/11/27
 17 18  0  0  0  0  0  0  0  0999 V2000
   -2.4243    5.5698   24.4781 N   0  0  0  0  0  0  0  0  0  0  0  0
   -2.4911    6.7186   25.2766 C   0  0  0  0  0  0  0  0  0  0  0  0
   -3.5911    6.8926   26.1805 N   0  0  0  0  0  0  0  0  0  0  0  0
   -1.5145    7.6895   25.2211 N   0  0  0  0  0  0  0  0  0  0  0  0
   -0.4364    7.5651   24.3695 C   0  0  0  0  0  0  0  0  0  0  0  0
   -0.3199    6.4157   23.5265 C   0  0  0  0  0  0  0  0  0  0  0  0
    0.4151    8.4330   24.3333 O   0  0  0  0  0  0  0  0  0  0  0  0
    0.8039    6.2505   22.6081 N   0  0  0  0  0  0  0  0  0  0  0  0
    0.9844    5.0140   21.9351 C   0  0  2  0  0  0  0  0  0  0  0  0
   -0.3409    4.2494   21.6750 C   0  0  0  0  0  0  0  0  0  0  0  0
   -1.3389    5.4190   23.6032 C   0  0  0  0  0  0  0  0  0  0  0  0
   -1.2389    4.2233   22.7459 N   0  0  0  0  0  0  0  0  0  0  0  0
    2.0090    4.2032   22.7073 C   0  0  1  0  0  0  0  0  0  0  0  0
    2.1104    2.9278   22.1881 O   0  0  0  0  0  0  0  0  0  0  0  0
    3.3429    4.8876   22.6806 C   0  0  1  0  0  0  0  0  0  0  0  0
    4.2179    4.2504   23.4714 O   0  0  0  0  0  0  0  0  0  0  0  0
    3.9229    4.9208   21.2506 C   0  0  0  0  0  0  0  0  0  0  0  0
  1  2  2  0  0  0  0
  1 11  1  0  0  0  0
  2  3  1  0  0  0  0
  2  4  1  0  0  0  0
  4  5  1  0  0  0  0
  5  6  1  0  0  0  0
  5  7  2  0  0  0  0
  6  8  1  0  0  0  0
  6 11  2  0  0  0  0
  9  8  1  1  0  0  0
  9 10  1  0  0  0  0
  9 13  1  0  0  0  0
 10 12  1  0  0  0  0
 11 12  1  0  0  0  0
 13 14  1  6  0  0  0
 13 15  1  0  0  0  0
 15 16  1  1  0  0  0
 15 17  1  0  0  0  0
M  END
>  <CHROM.1>
172.98625739,173.72310495,0.33276821,5.59219639,23.40068273,2.53863492,0.21063103
0.52330300

>  <Name>
ligand

>  <RI>
0

>  <Rbt.Current_Directory>
/home/itssahil/PROJECTS/Mol_Feturizer/New_Systems/rnas/4LVX

>  <Rbt.Executable>
rbdock ($Id: //depot/dev/client3/rdock/2013.1/src/exe/rbdock.cxx#4 $)

>  <Rbt.Library>
libRbt.so (2013.1, Build901 2013/11/27)

>  <Rbt.Parameter_File>
/export/apps/rDock/src/rDock_2013.1_src/data/scripts/dock_solv.prm

>  <Rbt.Receptor>
prm/pocket_docking_3.prm

>  <SCORE>
-15.8858

>  <SCORE.INTER>
-9.40694

>  <SCORE.INTER.CONST>
1

>  <SCORE.INTER.POLAR>
0

>  <SCORE.INTER.ROT>
2

>  <SCORE.INTER.SOLV>
23.2677

>  <SCORE.INTER.VDW>
-18.9605

>  <SCORE.INTER.norm>
-0.553349

>  <SCORE.INTRA>
-6.47886

>  <SCORE.INTRA.DIHEDRAL>
-9.84355

>  <SCORE.INTRA.DIHEDRAL.0>
10.3255

>  <SCORE.INTRA.POLAR>
0

>  <SCORE.INTRA.POLAR.0>
0

>  <SCORE.INTRA.REPUL>
0

>  <SCORE.INTRA.REPUL.0>
0

>  <SCORE.INTRA.SOLV>
-0.561354

>  <SCORE.INTRA.SOLV.lig_0>
-53.4755

>  <SCORE.INTRA.VDW>
-1.27641

>  <SCORE.INTRA.VDW.0>
2.32763

>  <SCORE.INTRA.norm>
-0.381109

>  <SCORE.RESTR>
0

>  <SCORE.RESTR.CAVITY>
0

>  <SCORE.RESTR.norm>
0

>  <SCORE.SYSTEM>
0

>  <SCORE.SYSTEM.CONST>
0

>  <SCORE.SYSTEM.DIHEDRAL>
0

>  <SCORE.SYSTEM.SOLV>
0

>  <SCORE.SYSTEM.norm>
0

>  <SCORE.heavy>
17

>  <SCORE.norm>
-0.934459

>  <RMSD>
1.320

$$$$
ligand
 OpenBabel11021811503D
libRbt.so/2013.1/901 2013/11/27
 17 18  0  0  0  0  0  0  0  0999 V2000
   -2.4355    5.5725   24.4929 N   0  0  0  0  0  0  0  0  0  0  0  0
   -2.4957    6.7269   25.2839 C   0  0  0  0  0  0  0  0  0  0  0  0
   -3.5930    6.9115   26.1889 N   0  0  0  0  0  0  0  0  0  0  0  0
   -1.5150    7.6931   25.2200 N   0  0  0  0  0  0  0  0  0  0  0  0
   -0.4393    7.5586   24.3670 C   0  0  0  0  0  0  0  0  0  0  0  0
   -0.3295    6.4031   23.5314 C   0  0  0  0  0  0  0  0  0  0  0  0
    0.4157    8.4225   24.3233 O   0  0  0  0  0  0  0  0  0  0  0  0
    0.7917    6.2271   22.6118 N   0  0  0  0  0  0  0  0  0  0  0  0
    0.9655    4.9854   21.9467 C   0  0  2  0  0  0  0  0  0  0  0  0
   -0.3636    4.2247   21.6943 C   0  0  0  0  0  0  0  0  0  0  0  0
   -1.3525    5.4113   23.6169 C   0  0  0  0  0  0  0  0  0  0  0  0
   -1.2594    4.2096   22.7673 N   0  0  0  0  0  0  0  0  0  0  0  0
    1.9883    4.1753   22.7221 C   0  0  1  0  0  0  0  0  0  0  0  0
    2.0821    2.8957   22.2121 O   0  0  0  0  0  0  0  0  0  0  0  0
    3.3254    4.8531   22.6867 C   0  0  1  0  0  0  0  0  0  0  0  0
    4.1967    4.2235   23.4876 O   0  0  0  0  0  0  0  0  0  0  0  0
    3.9069    4.8627   21.2570 C   0  0  0  0  0  0  0  0  0  0  0  0
  1  2  2  0  0  0  0
  1 11  1  0  0  0  0
  2  3  1  0  0  0  0
  2  4  1  0  0  0  0
  4  5  1  0  0  0  0
  5  6  1  0  0  0  0
  5  7  2  0  0  0  0
  6  8  1  0  0  0  0
  6 11  2  0  0  0  0
  9  8  1  1  0  0  0
  9 10  1  0  0  0  0
  9 13  1  0  0  0  0
 10 12  1  0  0  0  0
 11 12  1  0  0  0  0
 13 14  1  6  0  0  0
 13 15  1  0  0  0  0
 15 16  1  1  0  0  0
 15 17  1  0  0  0  0
M  END
>  <CHROM.1>
172.92018413,173.25889270,0.31953297,5.57552066,23.41014066,2.53348795,0.20954224
0.51846656

>  <Name>
ligand

>  <RI>
0

>  <Rbt.Current_Directory>
/home/itssahil/PROJECTS/Mol_Feturizer/New_Systems/rnas/4LVX

>  <Rbt.Executable>
rbdock ($Id: //depot/dev/client3/rdock/2013.1/src/exe/rbdock.cxx#4 $)

>  <Rbt.Library>
libRbt.so (2013.1, Build901 2013/11/27)

>  <Rbt.Parameter_File>
/export/apps/rDock/src/rDock_2013.1_src/data/scripts/dock_solv.prm

>  <Rbt.Receptor>
prm/pocket_docking_3.prm

>  <SCORE>
-15.8845

>  <SCORE.INTER>
-9.41022

>  <SCORE.INTER.CONST>
1

>  <SCORE.INTER.POLAR>
0

>  <SCORE.INTER.ROT>
2

>  <SCORE.INTER.SOLV>
23.4406

>  <SCORE.INTER.VDW>
-19.0204

>  <SCORE.INTER.norm>
-0.553543

>  <SCORE.INTRA>
-6.47426

>  <SCORE.INTRA.DIHEDRAL>
-9.81776

>  <SCORE.INTRA.DIHEDRAL.0>
10.3255

>  <SCORE.INTRA.POLAR>
0

>  <SCORE.INTRA.POLAR.0>
0

>  <SCORE.INTRA.REPUL>
0

>  <SCORE.INTRA.REPUL.0>
0

>  <SCORE.INTRA.SOLV>
-0.563496

>  <SCORE.INTRA.SOLV.lig_0>
-53.4755

>  <SCORE.INTRA.VDW>
-1.28363

>  <SCORE.INTRA.VDW.0>
2.32763

>  <SCORE.INTRA.norm>
-0.380839

>  <SCORE.RESTR>
0

>  <SCORE.RESTR.CAVITY>
0

>  <SCORE.RESTR.norm>
0

>  <SCORE.SYSTEM>
0

>  <SCORE.SYSTEM.CONST>
0

>  <SCORE.SYSTEM.DIHEDRAL>
0

>  <SCORE.SYSTEM.SOLV>
0

>  <SCORE.SYSTEM.norm>
0

>  <SCORE.heavy>
17

>  <SCORE.norm>
-0.934382

>  <RMSD>
1.333

$$$$
ligand
 OpenBabel11021811503D
libRbt.so/2013.1/901 2013/11/27
 17 18  0  0  0  0  0  0  0  0999 V2000
   -2.4257    5.5722   24.4782 N   0  0  0  0  0  0  0  0  0  0  0  0
   -2.4923    6.7226   25.2744 C   0  0  0  0  0  0  0  0  0  0  0  0
   -3.5947    6.9008   26.1745 N   0  0  0  0  0  0  0  0  0  0  0  0
   -1.5131    7.6910   25.2202 N   0  0  0  0  0  0  0  0  0  0  0  0
   -0.4327    7.5626   24.3722 C   0  0  0  0  0  0  0  0  0  0  0  0
   -0.3163    6.4114   23.5317 C   0  0  0  0  0  0  0  0  0  0  0  0
    0.4209    8.4283   24.3372 O   0  0  0  0  0  0  0  0  0  0  0  0
    0.8100    6.2419   22.6171 N   0  0  0  0  0  0  0  0  0  0  0  0
    0.9896    5.0037   21.9470 C   0  0  2  0  0  0  0  0  0  0  0  0
   -0.3367    4.2418   21.6840 C   0  0  0  0  0  0  0  0  0  0  0  0
   -1.3379    5.4172   23.6070 C   0  0  0  0  0  0  0  0  0  0  0  0
   -1.2381    4.2198   22.7522 N   0  0  0  0  0  0  0  0  0  0  0  0
    2.0099    4.1918   22.7238 C   0  0  1  0  0  0  0  0  0  0  0  0
    2.1242    2.9216   22.1949 O   0  0  0  0  0  0  0  0  0  0  0  0
    3.3402    4.8838   22.7183 C   0  0  1  0  0  0  0  0  0  0  0  0
    4.2062    4.2511   23.5224 O   0  0  0  0  0  0  0  0  0  0  0  0
    3.9423    4.9209   21.2976 C   0  0  0  0  0  0  0  0  0  0  0  0
  1  2  2  0  0  0  0
  1 11  1  0  0  0  0
  2  3  1  0  0  0  0
  2  4  1  0  0  0  0
  4  5  1  0  0  0  0
  5  6  1  0  0  0  0
  5  7  2  0  0  0  0
  6  8  1  0  0  0  0
  6 11  2  0  0  0  0
  9  8  1  1  0  0  0
  9 10  1  0  0  0  0
  9 13  1  0  0  0  0
 10 12  1  0  0  0  0
 11 12  1  0  0  0  0
 13 14  1  6  0  0  0
 13 15  1  0  0  0  0
 15 16  1  1  0  0  0
 15 17  1  0  0  0  0
M  END
>  <CHROM.1>
173.87315637,173.19322128,0.33556554,5.58939701,23.41313488,2.53947045,0.20405389
0.52431090

>  <Name>
ligand

>  <RI>
0

>  <Rbt.Current_Directory>
/home/itssahil/PROJECTS/Mol_Feturizer/New_Systems/rnas/4LVX

>  <Rbt.Executable>
rbdock ($Id: //depot/dev/client3/rdock/2013.1/src/exe/rbdock.cxx#4 $)

>  <Rbt.Library>
libRbt.so (2013.1, Build901 2013/11/27)

>  <Rbt.Parameter_File>
/export/apps/rDock/src/rDock_2013.1_src/data/scripts/dock_solv.prm

>  <Rbt.Receptor>
prm/pocket_docking_8.prm

>  <SCORE>
-15.8948

>  <SCORE.INTER>
-9.39185

>  <SCORE.INTER.CONST>
1

>  <SCORE.INTER.POLAR>
0

>  <SCORE.INTER.ROT>
2

>  <SCORE.INTER.SOLV>
23.2712

>  <SCORE.INTER.VDW>
-18.9516

>  <SCORE.INTER.norm>
-0.552462

>  <SCORE.INTRA>
-6.50299

>  <SCORE.INTRA.DIHEDRAL>
-9.85847

>  <SCORE.INTRA.DIHEDRAL.0>
10.3255

>  <SCORE.INTRA.POLAR>
0

>  <SCORE.INTRA.POLAR.0>
0

>  <SCORE.INTRA.REPUL>
0

>  <SCORE.INTRA.REPUL.0>
0

>  <SCORE.INTRA.SOLV>
-0.558769

>  <SCORE.INTRA.SOLV.lig_0>
-53.4755

>  <SCORE.INTRA.VDW>
-1.29437

>  <SCORE.INTRA.VDW.0>
2.32763

>  <SCORE.INTRA.norm>
-0.382529

>  <SCORE.RESTR>
0

>  <SCORE.RESTR.CAVITY>
0

>  <SCORE.RESTR.norm>
0

>  <SCORE.SYSTEM>
0

>  <SCORE.SYSTEM.CONST>
0

>  <SCORE.SYSTEM.DIHEDRAL>
0

>  <SCORE.SYSTEM.SOLV>
0

>  <SCORE.SYSTEM.norm>
0

>  <SCORE.heavy>
17

>  <SCORE.norm>
-0.934991

>  <RMSD>
1.337

$$$$
ligand
 OpenBabel11021811503D
libRbt.so/2013.1/901 2013/11/27
 17 18  0  0  0  0  0  0  0  0999 V2000
   -2.4339    5.6205   24.4222 N   0  0  0  0  0  0  0  0  0  0  0  0
   -2.4706    6.7412   25.2617 C   0  0  0  0  0  0  0  0  0  0  0  0
   -3.5730    6.9186   26.1620 N   0  0  0  0  0  0  0  0  0  0  0  0
   -1.4620    7.6803   25.2503 N   0  0  0  0  0  0  0  0  0  0  0  0
   -0.3804    7.5513   24.4039 C   0  0  0  0  0  0  0  0  0  0  0  0
   -0.2936    6.4301   23.5203 C   0  0  0  0  0  0  0  0  0  0  0  0
    0.4995    8.3910   24.4069 O   0  0  0  0  0  0  0  0  0  0  0  0
    0.8331    6.2611   22.6061 N   0  0  0  0  0  0  0  0  0  0  0  0
    0.9793    5.0447   21.8898 C   0  0  2  0  0  0  0  0  0  0  0  0
   -0.3679    4.3345   21.5904 C   0  0  0  0  0  0  0  0  0  0  0  0
   -1.3455    5.4656   23.5517 C   0  0  0  0  0  0  0  0  0  0  0  0
   -1.2766    4.2994   22.6520 N   0  0  0  0  0  0  0  0  0  0  0  0
    1.9690    4.1726   22.6404 C   0  0  1  0  0  0  0  0  0  0  0  0
    1.9744    2.8911   22.1265 O   0  0  0  0  0  0  0  0  0  0  0  0
    3.3432    4.7692   22.5756 C   0  0  1  0  0  0  0  0  0  0  0  0
    3.3763    5.9514   23.2067 O   0  0  0  0  0  0  0  0  0  0  0  0
    4.3845    3.8417   23.2373 C   0  0  0  0  0  0  0  0  0  0  0  0
  1  2  2  0  0  0  0
  1 11  1  0  0  0  0
  2  3  1  0  0  0  0
  2  4  1  0  0  0  0
  4  5  1  0  0  0  0
  5  6  1  0  0  0  0
  5  7  2  0  0  0  0
  6  8  1  0  0  0  0
  6 11  2  0  0  0  0
  9  8  1  1  0  0  0
  9 10  1  0  0  0  0
  9 13  1  0  0  0  0
 10 12  1  0  0  0  0
 11 12  1  0  0  0  0
 13 14  1  6  0  0  0
 13 15  1  0  0  0  0
 15 16  1  1  0  0  0
 15 17  1  0  0  0  0
M  END
>  <CHROM.1>
169.38388274,64.29152182,0.30534949,5.64507823,23.48342146,2.53208070,0.13630306
0.56017192

>  <Name>
ligand

>  <RI>
0

>  <Rbt.Current_Directory>
/home/itssahil/PROJECTS/Mol_Feturizer/New_Systems/rnas/4LVX

>  <Rbt.Executable>
rbdock ($Id: //depot/dev/client3/rdock/2013.1/src/exe/rbdock.cxx#4 $)

>  <Rbt.Library>
libRbt.so (2013.1, Build901 2013/11/27)

>  <Rbt.Parameter_File>
/export/apps/rDock/src/rDock_2013.1_src/data/scripts/dock_solv.prm

>  <Rbt.Receptor>
prm/pocket_docking_5.prm

>  <SCORE>
-15.4959

>  <SCORE.INTER>
-8.8213

>  <SCORE.INTER.CONST>
1

>  <SCORE.INTER.POLAR>
0

>  <SCORE.INTER.ROT>
2

>  <SCORE.INTER.SOLV>
22.8524

>  <SCORE.INTER.VDW>
-18.4317

>  <SCORE.INTER.norm>
-0.5189

>  <SCORE.INTRA>
-6.6746

>  <SCORE.INTRA.DIHEDRAL>
-9.71976

>  <SCORE.INTRA.DIHEDRAL.0>
10.3255

>  <SCORE.INTRA.POLAR>
0

>  <SCORE.INTRA.POLAR.0>
0

>  <SCORE.INTRA.REPUL>
0

>  <SCORE.INTRA.REPUL.0>
0

>  <SCORE.INTRA.SOLV>
-0.0769833

>  <SCORE.INTRA.SOLV.lig_0>
-53.4755

>  <SCORE.INTRA.VDW>
-1.77623

>  <SCORE.INTRA.VDW.0>
2.32763

>  <SCORE.INTRA.norm>
-0.392624

>  <SCORE.RESTR>
0

>  <SCORE.RESTR.CAVITY>
0

>  <SCORE.RESTR.norm>
0

>  <SCORE.SYSTEM>
0

>  <SCORE.SYSTEM.CONST>
0

>  <SCORE.SYSTEM.DIHEDRAL>
0

>  <SCORE.SYSTEM.SOLV>
0

>  <SCORE.SYSTEM.norm>
0

>  <SCORE.heavy>
17

>  <SCORE.norm>
-0.911523

>  <RMSD>
1.443

$$$$
ligand
 OpenBabel11021811503D
libRbt.so/2013.1/901 2013/11/27
 17 18  0  0  0  0  0  0  0  0999 V2000
   -2.3921    5.4943   24.4719 N   0  0  0  0  0  0  0  0  0  0  0  0
   -2.4712    6.6292   25.2891 C   0  0  0  0  0  0  0  0  0  0  0  0
   -3.5617    6.7664   26.2106 N   0  0  0  0  0  0  0  0  0  0  0  0
   -1.5157    7.6209   25.2352 N   0  0  0  0  0  0  0  0  0  0  0  0
   -0.4474    7.5320   24.3670 C   0  0  0  0  0  0  0  0  0  0  0  0
   -0.3191    6.3983   23.5048 C   0  0  0  0  0  0  0  0  0  0  0  0
    0.3854    8.4178   24.3327 O   0  0  0  0  0  0  0  0  0  0  0  0
    0.7948    6.2706   22.5685 N   0  0  0  0  0  0  0  0  0  0  0  0
    0.9912    5.0485   21.8740 C   0  0  2  0  0  0  0  0  0  0  0  0
   -0.3215    4.2605   21.6202 C   0  0  0  0  0  0  0  0  0  0  0  0
   -1.3161    5.3795   23.5800 C   0  0  0  0  0  0  0  0  0  0  0  0
   -1.2036    4.1994   22.7029 N   0  0  0  0  0  0  0  0  0  0  0  0
    2.0431    4.2475   22.6193 C   0  0  1  0  0  0  0  0  0  0  0  0
    2.1197    2.9627   22.1194 O   0  0  0  0  0  0  0  0  0  0  0  0
    3.3771    4.9261   22.5275 C   0  0  1  0  0  0  0  0  0  0  0  0
    3.3345    6.1342   23.1070 O   0  0  0  0  0  0  0  0  0  0  0  0
    4.4735    4.0954   23.2277 C   0  0  0  0  0  0  0  0  0  0  0  0
  1  2  2  0  0  0  0
  1 11  1  0  0  0  0
  2  3  1  0  0  0  0
  2  4  1  0  0  0  0
  4  5  1  0  0  0  0
  5  6  1  0  0  0  0
  5  7  2  0  0  0  0
  6  8  1  0  0  0  0
  6 11  2  0  0  0  0
  9  8  1  1  0  0  0
  9 10  1  0  0  0  0
  9 13  1  0  0  0  0
 10 12  1  0  0  0  0
 11 12  1  0  0  0  0
 13 14  1  6  0  0  0
 13 15  1  0  0  0  0
 15 16  1  1  0  0  0
 15 17  1  0  0  0  0
M  END
>  <CHROM.1>
170.20355829,62.27236864,0.31855576,5.65084823,23.47344787,2.56790560,0.18209107
0.53606596

>  <Name>
ligand

>  <RI>
0

>  <Rbt.Current_Directory>
/home/itssahil/PROJECTS/Mol_Feturizer/New_Systems/rnas/4LVX

>  <Rbt.Executable>
rbdock ($Id: //depot/dev/client3/rdock/2013.1/src/exe/rbdock.cxx#4 $)

>  <Rbt.Library>
libRbt.so (2013.1, Build901 2013/11/27)

>  <Rbt.Parameter_File>
/export/apps/rDock/src/rDock_2013.1_src/data/scripts/dock_solv.prm

>  <Rbt.Receptor>
prm/pocket_docking_3.prm

>  <SCORE>
-15.5572

>  <SCORE.INTER>
-8.83171

>  <SCORE.INTER.CONST>
1

>  <SCORE.INTER.POLAR>
0

>  <SCORE.INTER.ROT>
2

>  <SCORE.INTER.SOLV>
22.8078

>  <SCORE.INTER.VDW>
-18.4238

>  <SCORE.INTER.norm>
-0.519512

>  <SCORE.INTRA>
-6.72547

>  <SCORE.INTRA.DIHEDRAL>
-9.8215

>  <SCORE.INTRA.DIHEDRAL.0>
10.3255

>  <SCORE.INTRA.POLAR>
0

>  <SCORE.INTRA.POLAR.0>
0

>  <SCORE.INTRA.REPUL>
0

>  <SCORE.INTRA.REPUL.0>
0

>  <SCORE.INTRA.SOLV>
-0.0454739

>  <SCORE.INTRA.SOLV.lig_0>
-53.4755

>  <SCORE.INTRA.VDW>
-1.79199

>  <SCORE.INTRA.VDW.0>
2.32763

>  <SCORE.INTRA.norm>
-0.395616

>  <SCORE.RESTR>
0

>  <SCORE.RESTR.CAVITY>
0

>  <SCORE.RESTR.norm>
0

>  <SCORE.SYSTEM>
0

>  <SCORE.SYSTEM.CONST>
0

>  <SCORE.SYSTEM.DIHEDRAL>
0

>  <SCORE.SYSTEM.SOLV>
0

>  <SCORE.SYSTEM.norm>
0

>  <SCORE.heavy>
17

>  <SCORE.norm>
-0.915128

>  <RMSD>
1.447

$$$$
ligand
 OpenBabel11021811503D
libRbt.so/2013.1/901 2013/11/27
 17 18  0  0  0  0  0  0  0  0999 V2000
   -2.4315    5.5469   24.5092 N   0  0  0  0  0  0  0  0  0  0  0  0
   -2.4981    6.6945   25.3096 C   0  0  0  0  0  0  0  0  0  0  0  0
   -3.5822    6.8529   26.2353 N   0  0  0  0  0  0  0  0  0  0  0  0
   -1.5362    7.6786   25.2353 N   0  0  0  0  0  0  0  0  0  0  0  0
   -0.4737    7.5695   24.3624 C   0  0  0  0  0  0  0  0  0  0  0  0
   -0.3583    6.4221   23.5164 C   0  0  0  0  0  0  0  0  0  0  0  0
    0.3649    8.4489   24.3098 O   0  0  0  0  0  0  0  0  0  0  0  0
    0.7492    6.2727   22.5758 N   0  0  0  0  0  0  0  0  0  0  0  0
    0.9332    5.0391   21.8985 C   0  0  2  0  0  0  0  0  0  0  0  0
   -0.3864    4.2564   21.6643 C   0  0  0  0  0  0  0  0  0  0  0  0
   -1.3617    5.4114   23.6128 C   0  0  0  0  0  0  0  0  0  0  0  0
   -1.2624    4.2176   22.7529 N   0  0  0  0  0  0  0  0  0  0  0  0
    1.9840    4.2421   22.6496 C   0  0  1  0  0  0  0  0  0  0  0  0
    2.0408    2.9462   22.1765 O   0  0  0  0  0  0  0  0  0  0  0  0
    3.3245    4.9033   22.5293 C   0  0  1  0  0  0  0  0  0  0  0  0
    3.3055    6.1184   23.0952 O   0  0  0  0  0  0  0  0  0  0  0  0
    4.4216    4.0674   23.2220 C   0  0  0  0  0  0  0  0  0  0  0  0
  1  2  2  0  0  0  0
  1 11  1  0  0  0  0
  2  3  1  0  0  0  0
  2  4  1  0  0  0  0
  4  5  1  0  0  0  0
  5  6  1  0  0  0  0
  5  7  2  0  0  0  0
  6  8  1  0  0  0  0
  6 11  2  0  0  0  0
  9  8  1  1  0  0  0
  9 10  1  0  0  0  0
  9 13  1  0  0  0  0
 10 12  1  0  0  0  0
 11 12  1  0  0  0  0
 13 14  1  6  0  0  0
 13 15  1  0  0  0  0
 15 16  1  1  0  0  0
 15 17  1  0  0  0  0
M  END
>  <CHROM.1>
169.68238490,62.90137291,0.27501361,5.66775338,23.49063749,2.55875264,0.18511916
0.52088656

>  <Name>
ligand

>  <RI>
0

>  <Rbt.Current_Directory>
/home/itssahil/PROJECTS/Mol_Feturizer/New_Systems/rnas/4LVX

>  <Rbt.Executable>
rbdock ($Id: //depot/dev/client3/rdock/2013.1/src/exe/rbdock.cxx#4 $)

>  <Rbt.Library>
libRbt.so (2013.1, Build901 2013/11/27)

>  <Rbt.Parameter_File>
/export/apps/rDock/src/rDock_2013.1_src/data/scripts/dock_solv.prm

>  <Rbt.Receptor>
prm/pocket_docking_3.prm

>  <SCORE>
-15.5838

>  <SCORE.INTER>
-8.87549

>  <SCORE.INTER.CONST>
1

>  <SCORE.INTER.POLAR>
0

>  <SCORE.INTER.ROT>
2

>  <SCORE.INTER.SOLV>
23.0767

>  <SCORE.INTER.VDW>
-18.5426

>  <SCORE.INTER.norm>
-0.522088

>  <SCORE.INTRA>
-6.70828

>  <SCORE.INTRA.DIHEDRAL>
-9.77511

>  <SCORE.INTRA.DIHEDRAL.0>
10.3255

>  <SCORE.INTRA.POLAR>
0

>  <SCORE.INTRA.POLAR.0>
0

>  <SCORE.INTRA.REPUL>
0

>  <SCORE.INTRA.REPUL.0>
0

>  <SCORE.INTRA.SOLV>
-0.0590431

>  <SCORE.INTRA.SOLV.lig_0>
-53.4755

>  <SCORE.INTRA.VDW>
-1.79121

>  <SCORE.INTRA.VDW.0>
2.32763

>  <SCORE.INTRA.norm>
-0.394605

>  <SCORE.RESTR>
0

>  <SCORE.RESTR.CAVITY>
0

>  <SCORE.RESTR.norm>
0

>  <SCORE.SYSTEM>
0

>  <SCORE.SYSTEM.CONST>
0

>  <SCORE.SYSTEM.DIHEDRAL>
0

>  <SCORE.SYSTEM.SOLV>
0

>  <SCORE.SYSTEM.norm>
0

>  <SCORE.heavy>
17

>  <SCORE.norm>
-0.916693

>  <RMSD>
1.454

$$$$
ligand
 OpenBabel11021811503D
libRbt.so/2013.1/901 2013/11/27
 17 18  0  0  0  0  0  0  0  0999 V2000
   -2.4313    5.5730   24.4797 N   0  0  0  0  0  0  0  0  0  0  0  0
   -2.4849    6.7183   25.2843 C   0  0  0  0  0  0  0  0  0  0  0  0
   -3.5755    6.8932   26.1993 N   0  0  0  0  0  0  0  0  0  0  0  0
   -1.5040    7.6845   25.2244 N   0  0  0  0  0  0  0  0  0  0  0  0
   -0.4346    7.5590   24.3621 C   0  0  0  0  0  0  0  0  0  0  0  0
   -0.3318    6.4132   23.5125 C   0  0  0  0  0  0  0  0  0  0  0  0
    0.4208    8.4228   24.3221 O   0  0  0  0  0  0  0  0  0  0  0  0
    0.7826    6.2469   22.5829 N   0  0  0  0  0  0  0  0  0  0  0  0
    0.9506    5.0129   21.9023 C   0  0  2  0  0  0  0  0  0  0  0  0
   -0.3808    4.2560   21.6509 C   0  0  0  0  0  0  0  0  0  0  0  0
   -1.3549    5.4211   23.5940 C   0  0  0  0  0  0  0  0  0  0  0  0
   -1.2689    4.2292   22.7300 N   0  0  0  0  0  0  0  0  0  0  0  0
    1.9784    4.1932   22.6609 C   0  0  1  0  0  0  0  0  0  0  0  0
    2.0142    2.8978   22.1844 O   0  0  0  0  0  0  0  0  0  0  0  0
    3.3326    4.8283   22.5553 C   0  0  1  0  0  0  0  0  0  0  0  0
    3.3272    6.0495   23.1082 O   0  0  0  0  0  0  0  0  0  0  0  0
    4.4029    3.9798   23.2744 C   0  0  0  0  0  0  0  0  0  0  0  0
  1  2  2  0  0  0  0
  1 11  1  0  0  0  0
  2  3  1  0  0  0  0
  2  4  1  0  0  0  0
  4  5  1  0  0  0  0
  5  6  1  0  0  0  0
  5  7  2  0  0  0  0
  6  8  1  0  0  0  0
  6 11  2  0  0  0  0
  9  8  1  1  0  0  0
  9 10  1  0  0  0  0
  9 13  1  0  0  0  0
 10 12  1  0  0  0  0
 11 12  1  0  0  0  0
 13 14  1  6  0  0  0
 13 15  1  0  0  0  0
 15 16  1  1  0  0  0
 15 17  1  0  0  0  0
M  END
>  <CHROM.1>
169.57772854,62.03647434,0.28706310,5.64815497,23.48976437,2.54812234,0.16755791
0.52635218

>  <Name>
ligand

>  <RI>
0

>  <Rbt.Current_Directory>
/home/itssahil/PROJECTS/Mol_Feturizer/New_Systems/rnas/4LVX

>  <Rbt.Executable>
rbdock ($Id: //depot/dev/client3/rdock/2013.1/src/exe/rbdock.cxx#4 $)

>  <Rbt.Library>
libRbt.so (2013.1, Build901 2013/11/27)

>  <Rbt.Parameter_File>
/export/apps/rDock/src/rDock_2013.1_src/data/scripts/dock_solv.prm

>  <Rbt.Receptor>
prm/pocket_docking_3.prm

>  <SCORE>
-15.6098

>  <SCORE.INTER>
-8.89427

>  <SCORE.INTER.CONST>
1

>  <SCORE.INTER.POLAR>
0

>  <SCORE.INTER.ROT>
2

>  <SCORE.INTER.SOLV>
23.0878

>  <SCORE.INTER.VDW>
-18.5588

>  <SCORE.INTER.norm>
-0.523192

>  <SCORE.INTRA>
-6.71553

>  <SCORE.INTRA.DIHEDRAL>
-9.78202

>  <SCORE.INTRA.DIHEDRAL.0>
10.3255

>  <SCORE.INTRA.POLAR>
0

>  <SCORE.INTRA.POLAR.0>
0

>  <SCORE.INTRA.REPUL>
0

>  <SCORE.INTRA.REPUL.0>
0

>  <SCORE.INTRA.SOLV>
-0.0522206

>  <SCORE.INTRA.SOLV.lig_0>
-53.4755

>  <SCORE.INTRA.VDW>
-1.79842

>  <SCORE.INTRA.VDW.0>
2.32763

>  <SCORE.INTRA.norm>
-0.395031

>  <SCORE.RESTR>
0

>  <SCORE.RESTR.CAVITY>
0

>  <SCORE.RESTR.norm>
0

>  <SCORE.SYSTEM>
0

>  <SCORE.SYSTEM.CONST>
0

>  <SCORE.SYSTEM.DIHEDRAL>
0

>  <SCORE.SYSTEM.SOLV>
0

>  <SCORE.SYSTEM.norm>
0

>  <SCORE.heavy>
17

>  <SCORE.norm>
-0.918224

>  <RMSD>
1.458

$$$$
ligand
 OpenBabel11021811503D
libRbt.so/2013.1/901 2013/11/27
 17 18  0  0  0  0  0  0  0  0999 V2000
   -2.4299    5.5456   24.5001 N   0  0  0  0  0  0  0  0  0  0  0  0
   -2.4946    6.6915   25.3032 C   0  0  0  0  0  0  0  0  0  0  0  0
   -3.5816    6.8523   26.2250 N   0  0  0  0  0  0  0  0  0  0  0  0
   -1.5281    7.6716   25.2352 N   0  0  0  0  0  0  0  0  0  0  0  0
   -0.4627    7.5599   24.3661 C   0  0  0  0  0  0  0  0  0  0  0  0
   -0.3489    6.4142   23.5177 C   0  0  0  0  0  0  0  0  0  0  0  0
    0.3799    8.4359   24.3191 O   0  0  0  0  0  0  0  0  0  0  0  0
    0.7616    6.2624   22.5810 N   0  0  0  0  0  0  0  0  0  0  0  0
    0.9428    5.0297   21.9014 C   0  0  2  0  0  0  0  0  0  0  0  0
   -0.3792    4.2533   21.6600 C   0  0  0  0  0  0  0  0  0  0  0  0
   -1.3571    5.4077   23.6076 C   0  0  0  0  0  0  0  0  0  0  0  0
   -1.2597    4.2156   22.7450 N   0  0  0  0  0  0  0  0  0  0  0  0
    1.9872    4.2262   22.6546 C   0  0  1  0  0  0  0  0  0  0  0  0
    2.0420    2.9320   22.1766 O   0  0  0  0  0  0  0  0  0  0  0  0
    3.3304    4.8834   22.5436 C   0  0  1  0  0  0  0  0  0  0  0  0
    3.3134    6.0951   23.1166 O   0  0  0  0  0  0  0  0  0  0  0  0
    4.4218    4.0396   23.2359 C   0  0  0  0  0  0  0  0  0  0  0  0
  1  2  2  0  0  0  0
  1 11  1  0  0  0  0
  2  3  1  0  0  0  0
  2  4  1  0  0  0  0
  4  5  1  0  0  0  0
  5  6  1  0  0  0  0
  5  7  2  0  0  0  0
  6  8  1  0  0  0  0
  6 11  2  0  0  0  0
  9  8  1  1  0  0  0
  9 10  1  0  0  0  0
  9 13  1  0  0  0  0
 10 12  1  0  0  0  0
 11 12  1  0  0  0  0
 13 14  1  6  0  0  0
 13 15  1  0  0  0  0
 15 16  1  1  0  0  0
 15 17  1  0  0  0  0
M  END
>  <CHROM.1>
169.80106425,63.02117512,0.28111957,5.65729907,23.49293848,2.55678988,0.17904228
0.52425486

>  <Name>
ligand

>  <RI>
0

>  <Rbt.Current_Directory>
/home/itssahil/PROJECTS/Mol_Feturizer/New_Systems/rnas/4LVX

>  <Rbt.Executable>
rbdock ($Id: //depot/dev/client3/rdock/2013.1/src/exe/rbdock.cxx#4 $)

>  <Rbt.Library>
libRbt.so (2013.1, Build901 2013/11/27)

>  <Rbt.Parameter_File>
/export/apps/rDock/src/rDock_2013.1_src/data/scripts/dock_solv.prm

>  <Rbt.Receptor>
prm/pocket_docking_6.prm

>  <SCORE>
-15.5968

>  <SCORE.INTER>
-8.88762

>  <SCORE.INTER.CONST>
1

>  <SCORE.INTER.POLAR>
0

>  <SCORE.INTER.ROT>
2

>  <SCORE.INTER.SOLV>
23.0651

>  <SCORE.INTER.VDW>
-18.5468

>  <SCORE.INTER.norm>
-0.522801

>  <SCORE.INTRA>
-6.70915

>  <SCORE.INTRA.DIHEDRAL>
-9.78093

>  <SCORE.INTRA.DIHEDRAL.0>
10.3255

>  <SCORE.INTRA.POLAR>
0

>  <SCORE.INTRA.POLAR.0>
0

>  <SCORE.INTRA.REPUL>
0

>  <SCORE.INTRA.REPUL.0>
0

>  <SCORE.INTRA.SOLV>
-0.0585054

>  <SCORE.INTRA.SOLV.lig_0>
-53.4755

>  <SCORE.INTRA.VDW>
-1.78943

>  <SCORE.INTRA.VDW.0>
2.32763

>  <SCORE.INTRA.norm>
-0.394656

>  <SCORE.RESTR>
0

>  <SCORE.RESTR.CAVITY>
0

>  <SCORE.RESTR.norm>
0

>  <SCORE.SYSTEM>
0

>  <SCORE.SYSTEM.CONST>
0

>  <SCORE.SYSTEM.DIHEDRAL>
0

>  <SCORE.SYSTEM.SOLV>
0

>  <SCORE.SYSTEM.norm>
0

>  <SCORE.heavy>
17

>  <SCORE.norm>
-0.917457

>  <RMSD>
1.459

$$$$
ligand
 OpenBabel11021811503D
libRbt.so/2013.1/901 2013/11/27
 17 18  0  0  0  0  0  0  0  0999 V2000
   -2.4243    5.5454   24.4993 N   0  0  0  0  0  0  0  0  0  0  0  0
   -2.4885    6.6934   25.2994 C   0  0  0  0  0  0  0  0  0  0  0  0
   -3.5759    6.8576   26.2201 N   0  0  0  0  0  0  0  0  0  0  0  0
   -1.5211    7.6724   25.2294 N   0  0  0  0  0  0  0  0  0  0  0  0
   -0.4552    7.5576   24.3613 C   0  0  0  0  0  0  0  0  0  0  0  0
   -0.3420    6.4096   23.5160 C   0  0  0  0  0  0  0  0  0  0  0  0
    0.3882    8.4326   24.3125 O   0  0  0  0  0  0  0  0  0  0  0  0
    0.7690    6.2543   22.5803 N   0  0  0  0  0  0  0  0  0  0  0  0
    0.9495    5.0197   21.9040 C   0  0  2  0  0  0  0  0  0  0  0  0
   -0.3731    4.2439   21.6638 C   0  0  0  0  0  0  0  0  0  0  0  0
   -1.3512    5.4042   23.6078 C   0  0  0  0  0  0  0  0  0  0  0  0
   -1.2543    4.2098   22.7484 N   0  0  0  0  0  0  0  0  0  0  0  0
    1.9927    4.2172   22.6599 C   0  0  1  0  0  0  0  0  0  0  0  0
    2.0492    2.9227   22.1828 O   0  0  0  0  0  0  0  0  0  0  0  0
    3.3358    4.8750   22.5513 C   0  0  1  0  0  0  0  0  0  0  0  0
    3.3093    6.0986   23.0982 O   0  0  0  0  0  0  0  0  0  0  0  0
    4.4204    4.0486   23.2745 C   0  0  0  0  0  0  0  0  0  0  0  0
  1  2  2  0  0  0  0
  1 11  1  0  0  0  0
  2  3  1  0  0  0  0
  2  4  1  0  0  0  0
  4  5  1  0  0  0  0
  5  6  1  0  0  0  0
  5  7  2  0  0  0  0
  6  8  1  0  0  0  0
  6 11  2  0  0  0  0
  9  8  1  1  0  0  0
  9 10  1  0  0  0  0
  9 13  1  0  0  0  0
 10 12  1  0  0  0  0
 11 12  1  0  0  0  0
 13 14  1  6  0  0  0
 13 15  1  0  0  0  0
 15 16  1  1  0  0  0
 15 17  1  0  0  0  0
M  END
>  <CHROM.1>
169.96347093,61.70886565,0.28638020,5.65425327,23.49418316,2.55694170,0.17834237
0.52195022

>  <Name>
ligand

>  <RI>
0

>  <Rbt.Current_Directory>
/home/itssahil/PROJECTS/Mol_Feturizer/New_Systems/rnas/4LVX

>  <Rbt.Executable>
rbdock ($Id: //depot/dev/client3/rdock/2013.1/src/exe/rbdock.cxx#4 $)

>  <Rbt.Library>
libRbt.so (2013.1, Build901 2013/11/27)

>  <Rbt.Parameter_File>
/export/apps/rDock/src/rDock_2013.1_src/data/scripts/dock_solv.prm

>  <Rbt.Receptor>
prm/pocket_docking_6.prm

>  <SCORE>
-15.6081

>  <SCORE.INTER>
-8.88311

>  <SCORE.INTER.CONST>
1

>  <SCORE.INTER.POLAR>
0

>  <SCORE.INTER.ROT>
2

>  <SCORE.INTER.SOLV>
23.0717

>  <SCORE.INTER.VDW>
-18.546

>  <SCORE.INTER.norm>
-0.522536

>  <SCORE.INTRA>
-6.72502

>  <SCORE.INTRA.DIHEDRAL>
-9.81265

>  <SCORE.INTRA.DIHEDRAL.0>
10.3255

>  <SCORE.INTRA.POLAR>
0

>  <SCORE.INTRA.POLAR.0>
0

>  <SCORE.INTRA.REPUL>
0

>  <SCORE.INTRA.REPUL.0>
0

>  <SCORE.INTRA.SOLV>
-0.0435266

>  <SCORE.INTRA.SOLV.lig_0>
-53.4755

>  <SCORE.INTRA.VDW>
-1.79693

>  <SCORE.INTRA.VDW.0>
2.32763

>  <SCORE.INTRA.norm>
-0.395589

>  <SCORE.RESTR>
0

>  <SCORE.RESTR.CAVITY>
0

>  <SCORE.RESTR.norm>
0

>  <SCORE.SYSTEM>
0

>  <SCORE.SYSTEM.CONST>
0

>  <SCORE.SYSTEM.DIHEDRAL>
0

>  <SCORE.SYSTEM.SOLV>
0

>  <SCORE.SYSTEM.norm>
0

>  <SCORE.heavy>
17

>  <SCORE.norm>
-0.918125

>  <RMSD>
1.462

$$$$
ligand
 OpenBabel11021811503D
libRbt.so/2013.1/901 2013/11/27
 17 18  0  0  0  0  0  0  0  0999 V2000
   -2.4233    5.5728   24.4704 N   0  0  0  0  0  0  0  0  0  0  0  0
   -2.4814    6.7156   25.2783 C   0  0  0  0  0  0  0  0  0  0  0  0
   -3.5776    6.8882   26.1870 N   0  0  0  0  0  0  0  0  0  0  0  0
   -1.4998    7.6816   25.2274 N   0  0  0  0  0  0  0  0  0  0  0  0
   -0.4250    7.5583   24.3714 C   0  0  0  0  0  0  0  0  0  0  0  0
   -0.3174    6.4150   23.5189 C   0  0  0  0  0  0  0  0  0  0  0  0
    0.4309    8.4219   24.3394 O   0  0  0  0  0  0  0  0  0  0  0  0
    0.8027    6.2512   22.5957 N   0  0  0  0  0  0  0  0  0  0  0  0
    0.9744    5.0192   21.9124 C   0  0  2  0  0  0  0  0  0  0  0  0
   -0.3557    4.2637   21.6503 C   0  0  0  0  0  0  0  0  0  0  0  0
   -1.3414    5.4231   23.5910 C   0  0  0  0  0  0  0  0  0  0  0  0
   -1.2505    4.2339   22.7239 N   0  0  0  0  0  0  0  0  0  0  0  0
    1.9971    4.1967   22.6748 C   0  0  1  0  0  0  0  0  0  0  0  0
    2.0431    2.9057   22.1874 O   0  0  0  0  0  0  0  0  0  0  0  0
    3.3500    4.8378   22.5894 C   0  0  1  0  0  0  0  0  0  0  0  0
    3.3275    6.0645   23.1294 O   0  0  0  0  0  0  0  0  0  0  0  0
    4.4101    4.0023   23.3381 C   0  0  0  0  0  0  0  0  0  0  0  0
  1  2  2  0  0  0  0
  1 11  1  0  0  0  0
  2  3  1  0  0  0  0
  2  4  1  0  0  0  0
  4  5  1  0  0  0  0
  5  6  1  0  0  0  0
  5  7  2  0  0  0  0
  6  8  1  0  0  0  0
  6 11  2  0  0  0  0
  9  8  1  1  0  0  0
  9 10  1  0  0  0  0
  9 13  1  0  0  0  0
 10 12  1  0  0  0  0
 11 12  1  0  0  0  0
 13 14  1  6  0  0  0
 13 15  1  0  0  0  0
 15 16  1  1  0  0  0
 15 17  1  0  0  0  0
M  END
>  <CHROM.1>
170.05722955,60.83168672,0.30006957,5.65271107,23.49951291,2.55142436,0.16109471
0.53046124

>  <Name>
ligand

>  <RI>
0

>  <Rbt.Current_Directory>
/home/itssahil/PROJECTS/Mol_Feturizer/New_Systems/rnas/4LVX

>  <Rbt.Executable>
rbdock ($Id: //depot/dev/client3/rdock/2013.1/src/exe/rbdock.cxx#4 $)

>  <Rbt.Library>
libRbt.so (2013.1, Build901 2013/11/27)

>  <Rbt.Parameter_File>
/export/apps/rDock/src/rDock_2013.1_src/data/scripts/dock_solv.prm

>  <Rbt.Receptor>
prm/pocket_docking_3.prm

>  <SCORE>
-15.6058

>  <SCORE.INTER>
-8.87775

>  <SCORE.INTER.CONST>
1

>  <SCORE.INTER.POLAR>
0

>  <SCORE.INTER.ROT>
2

>  <SCORE.INTER.SOLV>
22.9963

>  <SCORE.INTER.VDW>
-18.5173

>  <SCORE.INTER.norm>
-0.522221

>  <SCORE.INTRA>
-6.72803

>  <SCORE.INTRA.DIHEDRAL>
-9.82573

>  <SCORE.INTRA.DIHEDRAL.0>
10.3255

>  <SCORE.INTRA.POLAR>
0

>  <SCORE.INTRA.POLAR.0>
0

>  <SCORE.INTRA.REPUL>
0

>  <SCORE.INTRA.REPUL.0>
0

>  <SCORE.INTRA.SOLV>
-0.0338887

>  <SCORE.INTRA.SOLV.lig_0>
-53.4755

>  <SCORE.INTRA.VDW>
-1.79822

>  <SCORE.INTRA.VDW.0>
2.32763

>  <SCORE.INTRA.norm>
-0.395767

>  <SCORE.RESTR>
0

>  <SCORE.RESTR.CAVITY>
0

>  <SCORE.RESTR.norm>
0

>  <SCORE.SYSTEM>
0

>  <SCORE.SYSTEM.CONST>
0

>  <SCORE.SYSTEM.DIHEDRAL>
0

>  <SCORE.SYSTEM.SOLV>
0

>  <SCORE.SYSTEM.norm>
0

>  <SCORE.heavy>
17

>  <SCORE.norm>
-0.917987

>  <RMSD>
1.468

$$$$
ligand
 OpenBabel11021811503D
libRbt.so/2013.1/901 2013/11/27
 17 18  0  0  0  0  0  0  0  0999 V2000
   -2.4237    5.5445   24.4930 N   0  0  0  0  0  0  0  0  0  0  0  0
   -2.4839    6.6903   25.2965 C   0  0  0  0  0  0  0  0  0  0  0  0
   -3.5736    6.8582   26.2138 N   0  0  0  0  0  0  0  0  0  0  0  0
   -1.5103    7.6637   25.2332 N   0  0  0  0  0  0  0  0  0  0  0  0
   -0.4420    7.5451   24.3686 C   0  0  0  0  0  0  0  0  0  0  0  0
   -0.3326    6.3991   23.5201 C   0  0  0  0  0  0  0  0  0  0  0  0
    0.4069    8.4152   24.3257 O   0  0  0  0  0  0  0  0  0  0  0  0
    0.7809    6.2401   22.5880 N   0  0  0  0  0  0  0  0  0  0  0  0
    0.9564    5.0065   21.9084 C   0  0  2  0  0  0  0  0  0  0  0  0
   -0.3699    4.2396   21.6609 C   0  0  0  0  0  0  0  0  0  0  0  0
   -1.3481    5.3996   23.6050 C   0  0  0  0  0  0  0  0  0  0  0  0
   -1.2553    4.2074   22.7422 N   0  0  0  0  0  0  0  0  0  0  0  0
    1.9920    4.1953   22.6656 C   0  0  1  0  0  0  0  0  0  0  0  0
    2.0488    2.9046   22.1786 O   0  0  0  0  0  0  0  0  0  0  0  0
    3.3375    4.8507   22.5724 C   0  0  1  0  0  0  0  0  0  0  0  0
    3.3124    6.0659   23.1376 O   0  0  0  0  0  0  0  0  0  0  0  0
    4.4167    4.0101   23.2874 C   0  0  0  0  0  0  0  0  0  0  0  0
  1  2  2  0  0  0  0
  1 11  1  0  0  0  0
  2  3  1  0  0  0  0
  2  4  1  0  0  0  0
  4  5  1  0  0  0  0
  5  6  1  0  0  0  0
  5  7  2  0  0  0  0
  6  8  1  0  0  0  0
  6 11  2  0  0  0  0
  9  8  1  1  0  0  0
  9 10  1  0  0  0  0
  9 13  1  0  0  0  0
 10 12  1  0  0  0  0
 11 12  1  0  0  0  0
 13 14  1  6  0  0  0
 13 15  1  0  0  0  0
 15 16  1  1  0  0  0
 15 17  1  0  0  0  0
M  END
>  <CHROM.1>
170.37394210,62.15795845,0.29123723,5.64047227,23.49972825,2.55310088,0.17042971
0.52745111

>  <Name>
ligand

>  <RI>
0

>  <Rbt.Current_Directory>
/home/itssahil/PROJECTS/Mol_Feturizer/New_Systems/rnas/4LVX

>  <Rbt.Executable>
rbdock ($Id: //depot/dev/client3/rdock/2013.1/src/exe/rbdock.cxx#4 $)

>  <Rbt.Library>
libRbt.so (2013.1, Build901 2013/11/27)

>  <Rbt.Parameter_File>
/export/apps/rDock/src/rDock_2013.1_src/data/scripts/dock_solv.prm

>  <Rbt.Receptor>
prm/pocket_docking_3.prm

>  <SCORE>
-15.6396

>  <SCORE.INTER>
-8.91042

>  <SCORE.INTER.CONST>
1

>  <SCORE.INTER.POLAR>
0

>  <SCORE.INTER.ROT>
2

>  <SCORE.INTER.SOLV>
23.0754

>  <SCORE.INTER.VDW>
-18.5654

>  <SCORE.INTER.norm>
-0.524142

>  <SCORE.INTRA>
-6.72919

>  <SCORE.INTRA.DIHEDRAL>
-9.83442

>  <SCORE.INTRA.DIHEDRAL.0>
10.3255

>  <SCORE.INTRA.POLAR>
0

>  <SCORE.INTRA.POLAR.0>
0

>  <SCORE.INTRA.REPUL>
0

>  <SCORE.INTRA.REPUL.0>
0

>  <SCORE.INTRA.SOLV>
-0.0419295

>  <SCORE.INTRA.SOLV.lig_0>
-53.4755

>  <SCORE.INTRA.VDW>
-1.79102

>  <SCORE.INTRA.VDW.0>
2.32763

>  <SCORE.INTRA.norm>
-0.395835

>  <SCORE.RESTR>
0

>  <SCORE.RESTR.CAVITY>
0

>  <SCORE.RESTR.norm>
0

>  <SCORE.SYSTEM>
0

>  <SCORE.SYSTEM.CONST>
0

>  <SCORE.SYSTEM.DIHEDRAL>
0

>  <SCORE.SYSTEM.SOLV>
0

>  <SCORE.SYSTEM.norm>
0

>  <SCORE.heavy>
17

>  <SCORE.norm>
-0.919977

>  <RMSD>
1.470

$$$$
ligand
 OpenBabel11021811503D
libRbt.so/2013.1/901 2013/11/27
 17 18  0  0  0  0  0  0  0  0999 V2000
   -2.4329    5.5570   24.4900 N   0  0  0  0  0  0  0  0  0  0  0  0
   -2.4944    6.7049   25.2905 C   0  0  0  0  0  0  0  0  0  0  0  0
   -3.5860    6.8753   26.2051 N   0  0  0  0  0  0  0  0  0  0  0  0
   -1.5205    7.6779   25.2267 N   0  0  0  0  0  0  0  0  0  0  0  0
   -0.4504    7.5569   24.3646 C   0  0  0  0  0  0  0  0  0  0  0  0
   -0.3396    6.4087   23.5192 C   0  0  0  0  0  0  0  0  0  0  0  0
    0.3988    8.4266   24.3212 O   0  0  0  0  0  0  0  0  0  0  0  0
    0.7757    6.2470   22.5898 N   0  0  0  0  0  0  0  0  0  0  0  0
    0.9524    5.0117   21.9137 C   0  0  2  0  0  0  0  0  0  0  0  0
   -0.3737    4.2445   21.6654 C   0  0  0  0  0  0  0  0  0  0  0  0
   -1.3556    5.4096   23.6046 C   0  0  0  0  0  0  0  0  0  0  0  0
   -1.2613    4.2152   22.7449 N   0  0  0  0  0  0  0  0  0  0  0  0
    1.9861    4.2022   22.6750 C   0  0  1  0  0  0  0  0  0  0  0  0
    2.0457    2.9110   22.1894 O   0  0  0  0  0  0  0  0  0  0  0  0
    3.3314    4.8586   22.5855 C   0  0  1  0  0  0  0  0  0  0  0  0
    3.2972    6.0840   23.1279 O   0  0  0  0  0  0  0  0  0  0  0  0
    4.4037    4.0337   23.3285 C   0  0  0  0  0  0  0  0  0  0  0  0
  1  2  2  0  0  0  0
  1 11  1  0  0  0  0
  2  3  1  0  0  0  0
  2  4  1  0  0  0  0
  4  5  1  0  0  0  0
  5  6  1  0  0  0  0
  5  7  2  0  0  0  0
  6  8  1  0  0  0  0
  6 11  2  0  0  0  0
  9  8  1  1  0  0  0
  9 10  1  0  0  0  0
  9 13  1  0  0  0  0
 10 12  1  0  0  0  0
 11 12  1  0  0  0  0
 13 14  1  6  0  0  0
 13 15  1  0  0  0  0
 15 16  1  1  0  0  0
 15 17  1  0  0  0  0
M  END
>  <CHROM.1>
170.50224304,61.04203882,0.28320977,5.65170437,23.50256928,2.55446184,0.16881540
0.52493812

>  <Name>
ligand

>  <RI>
0

>  <Rbt.Current_Directory>
/home/itssahil/PROJECTS/Mol_Feturizer/New_Systems/rnas/4LVX

>  <Rbt.Executable>
rbdock ($Id: //depot/dev/client3/rdock/2013.1/src/exe/rbdock.cxx#4 $)

>  <Rbt.Library>
libRbt.so (2013.1, Build901 2013/11/27)

>  <Rbt.Parameter_File>
/export/apps/rDock/src/rDock_2013.1_src/data/scripts/dock_solv.prm

>  <Rbt.Receptor>
prm/pocket_docking_3.prm

>  <SCORE>
-15.6337

>  <SCORE.INTER>
-8.89929

>  <SCORE.INTER.CONST>
1

>  <SCORE.INTER.POLAR>
0

>  <SCORE.INTER.ROT>
2

>  <SCORE.INTER.SOLV>
23.0863

>  <SCORE.INTER.VDW>
-18.5616

>  <SCORE.INTER.norm>
-0.523488

>  <SCORE.INTRA>
-6.7344

>  <SCORE.INTRA.DIHEDRAL>
-9.85403

>  <SCORE.INTRA.DIHEDRAL.0>
10.3255

>  <SCORE.INTRA.POLAR>
0

>  <SCORE.INTRA.POLAR.0>
0

>  <SCORE.INTRA.REPUL>
0

>  <SCORE.INTRA.REPUL.0>
0

>  <SCORE.INTRA.SOLV>
-0.0294417

>  <SCORE.INTRA.SOLV.lig_0>
-53.4755

>  <SCORE.INTRA.VDW>
-1.79266

>  <SCORE.INTRA.VDW.0>
2.32763

>  <SCORE.INTRA.norm>
-0.396141

>  <SCORE.RESTR>
0

>  <SCORE.RESTR.CAVITY>
0

>  <SCORE.RESTR.norm>
0

>  <SCORE.SYSTEM>
0

>  <SCORE.SYSTEM.CONST>
0

>  <SCORE.SYSTEM.DIHEDRAL>
0

>  <SCORE.SYSTEM.SOLV>
0

>  <SCORE.SYSTEM.norm>
0

>  <SCORE.heavy>
17

>  <SCORE.norm>
-0.919628

>  <RMSD>
1.473

$$$$
ligand
 OpenBabel11021811503D
libRbt.so/2013.1/901 2013/11/27
 17 18  0  0  0  0  0  0  0  0999 V2000
   -2.4312    5.5691   24.4807 N   0  0  0  0  0  0  0  0  0  0  0  0
   -2.4862    6.7156   25.2837 C   0  0  0  0  0  0  0  0  0  0  0  0
   -3.5785    6.8919   26.1963 N   0  0  0  0  0  0  0  0  0  0  0  0
   -1.5051    7.6816   25.2242 N   0  0  0  0  0  0  0  0  0  0  0  0
   -0.4341    7.5548   24.3641 C   0  0  0  0  0  0  0  0  0  0  0  0
   -0.3297    6.4078   23.5163 C   0  0  0  0  0  0  0  0  0  0  0  0
    0.4215    8.4185   24.3245 O   0  0  0  0  0  0  0  0  0  0  0  0
    0.7864    6.2401   22.5890 N   0  0  0  0  0  0  0  0  0  0  0  0
    0.9556    5.0051   21.9105 C   0  0  2  0  0  0  0  0  0  0  0  0
   -0.3754    4.2480   21.6577 C   0  0  0  0  0  0  0  0  0  0  0  0
   -1.3530    5.4159   23.5973 C   0  0  0  0  0  0  0  0  0  0  0  0
   -1.2655    4.2227   22.7352 N   0  0  0  0  0  0  0  0  0  0  0  0
    1.9819    4.1864   22.6723 C   0  0  1  0  0  0  0  0  0  0  0  0
    2.0446    2.9004   22.1734 O   0  0  0  0  0  0  0  0  0  0  0  0
    3.3284    4.8424   22.6017 C   0  0  1  0  0  0  0  0  0  0  0  0
    3.3042    6.0391   23.2051 O   0  0  0  0  0  0  0  0  0  0  0  0
    4.4054    3.9780   23.2912 C   0  0  0  0  0  0  0  0  0  0  0  0
  1  2  2  0  0  0  0
  1 11  1  0  0  0  0
  2  3  1  0  0  0  0
  2  4  1  0  0  0  0
  4  5  1  0  0  0  0
  5  6  1  0  0  0  0
  5  7  2  0  0  0  0
  6  8  1  0  0  0  0
  6 11  2  0  0  0  0
  9  8  1  1  0  0  0
  9 10  1  0  0  0  0
  9 13  1  0  0  0  0
 10 12  1  0  0  0  0
 11 12  1  0  0  0  0
 13 14  1  6  0  0  0
 13 15  1  0  0  0  0
 15 16  1  1  0  0  0
 15 17  1  0  0  0  0
M  END
>  <CHROM.1>
171.21746805,63.55781502,0.28869384,5.64453086,23.50192978,2.54768175,0.15923573
0.53163863

>  <Name>
ligand

>  <RI>
0

>  <Rbt.Current_Directory>
/home/itssahil/PROJECTS/Mol_Feturizer/New_Systems/rnas/4LVX

>  <Rbt.Executable>
rbdock ($Id: //depot/dev/client3/rdock/2013.1/src/exe/rbdock.cxx#4 $)

>  <Rbt.Library>
libRbt.so (2013.1, Build901 2013/11/27)

>  <Rbt.Parameter_File>
/export/apps/rDock/src/rDock_2013.1_src/data/scripts/dock_solv.prm

>  <Rbt.Receptor>
prm/pocket_docking_7.prm

>  <SCORE>
-15.6272

>  <SCORE.INTER>
-8.90103

>  <SCORE.INTER.CONST>
1

>  <SCORE.INTER.POLAR>
0

>  <SCORE.INTER.ROT>
2

>  <SCORE.INTER.SOLV>
23.0961

>  <SCORE.INTER.VDW>
-18.5661

>  <SCORE.INTER.norm>
-0.52359

>  <SCORE.INTRA>
-6.72614

>  <SCORE.INTRA.DIHEDRAL>
-9.86044

>  <SCORE.INTRA.DIHEDRAL.0>
10.3255

>  <SCORE.INTRA.POLAR>
0

>  <SCORE.INTRA.POLAR.0>
0

>  <SCORE.INTRA.REPUL>
0

>  <SCORE.INTRA.REPUL.0>
0

>  <SCORE.INTRA.SOLV>
-0.0436829

>  <SCORE.INTRA.SOLV.lig_0>
-53.4755

>  <SCORE.INTRA.VDW>
-1.77408

>  <SCORE.INTRA.VDW.0>
2.32763

>  <SCORE.INTRA.norm>
-0.395655

>  <SCORE.RESTR>
0

>  <SCORE.RESTR.CAVITY>
0

>  <SCORE.RESTR.norm>
0

>  <SCORE.SYSTEM>
0

>  <SCORE.SYSTEM.CONST>
0

>  <SCORE.SYSTEM.DIHEDRAL>
0

>  <SCORE.SYSTEM.SOLV>
0

>  <SCORE.SYSTEM.norm>
0

>  <SCORE.heavy>
17

>  <SCORE.norm>
-0.919245

>  <RMSD>
1.479

$$$$
ligand
 OpenBabel11021811503D
libRbt.so/2013.1/901 2013/11/27
 17 18  0  0  0  0  0  0  0  0999 V2000
   -2.4240    5.5753   24.4715 N   0  0  0  0  0  0  0  0  0  0  0  0
   -2.4880    6.7221   25.2732 C   0  0  0  0  0  0  0  0  0  0  0  0
   -3.5886    6.8972   26.1761 N   0  0  0  0  0  0  0  0  0  0  0  0
   -1.5081    7.6898   25.2217 N   0  0  0  0  0  0  0  0  0  0  0  0
   -0.4293    7.5643   24.3712 C   0  0  0  0  0  0  0  0  0  0  0  0
   -0.3156    6.4169   23.5251 C   0  0  0  0  0  0  0  0  0  0  0  0
    0.4251    8.4294   24.3386 O   0  0  0  0  0  0  0  0  0  0  0  0
    0.8089    6.2505   22.6077 N   0  0  0  0  0  0  0  0  0  0  0  0
    0.9861    5.0154   21.9315 C   0  0  2  0  0  0  0  0  0  0  0  0
   -0.3413    4.2559   21.6674 C   0  0  0  0  0  0  0  0  0  0  0  0
   -1.3379    5.4233   23.5977 C   0  0  0  0  0  0  0  0  0  0  0  0
   -1.2408    4.2298   22.7371 N   0  0  0  0  0  0  0  0  0  0  0  0
    2.0070    4.1989   22.7027 C   0  0  1  0  0  0  0  0  0  0  0  0
    2.0643    2.9081   22.2160 O   0  0  0  0  0  0  0  0  0  0  0  0
    3.3569    4.8476   22.6284 C   0  0  1  0  0  0  0  0  0  0  0  0
    3.3317    6.0598   23.2003 O   0  0  0  0  0  0  0  0  0  0  0  0
    4.4235    3.9974   23.3508 C   0  0  0  0  0  0  0  0  0  0  0  0
  1  2  2  0  0  0  0
  1 11  1  0  0  0  0
  2  3  1  0  0  0  0
  2  4  1  0  0  0  0
  4  5  1  0  0  0  0
  5  6  1  0  0  0  0
  5  7  2  0  0  0  0
  6  8  1  0  0  0  0
  6 11  2  0  0  0  0
  9  8  1  1  0  0  0
  9 10  1  0  0  0  0
  9 13  1  0  0  0  0
 10 12  1  0  0  0  0
 11 12  1  0  0  0  0
 13 14  1  6  0  0  0
 13 15  1  0  0  0  0
 15 16  1  1  0  0  0
 15 17  1  0  0  0  0
M  END
>  <CHROM.1>
170.47487096,62.49891533,0.30417370,5.65437928,23.51383203,2.55442315,0.15573446
0.52685022

>  <Name>
ligand

>  <RI>
0

>  <Rbt.Current_Directory>
/home/itssahil/PROJECTS/Mol_Feturizer/New_Systems/rnas/4LVX

>  <Rbt.Executable>
rbdock ($Id: //depot/dev/client3/rdock/2013.1/src/exe/rbdock.cxx#4 $)

>  <Rbt.Library>
libRbt.so (2013.1, Build901 2013/11/27)

>  <Rbt.Parameter_File>
/export/apps/rDock/src/rDock_2013.1_src/data/scripts/dock_solv.prm

>  <Rbt.Receptor>
prm/pocket_docking_5.prm

>  <SCORE>
-15.6214

>  <SCORE.INTER>
-8.89344

>  <SCORE.INTER.CONST>
1

>  <SCORE.INTER.POLAR>
0

>  <SCORE.INTER.ROT>
2

>  <SCORE.INTER.SOLV>
23.0183

>  <SCORE.INTER.VDW>
-18.5351

>  <SCORE.INTER.norm>
-0.523143

>  <SCORE.INTRA>
-6.728

>  <SCORE.INTRA.DIHEDRAL>
-9.83573

>  <SCORE.INTRA.DIHEDRAL.0>
10.3255

>  <SCORE.INTRA.POLAR>
0

>  <SCORE.INTRA.POLAR.0>
0

>  <SCORE.INTRA.REPUL>
0

>  <SCORE.INTRA.REPUL.0>
0

>  <SCORE.INTRA.SOLV>
-0.043785

>  <SCORE.INTRA.SOLV.lig_0>
-53.4755

>  <SCORE.INTRA.VDW>
-1.78825

>  <SCORE.INTRA.VDW.0>
2.32763

>  <SCORE.INTRA.norm>
-0.395765

>  <SCORE.RESTR>
0

>  <SCORE.RESTR.CAVITY>
0

>  <SCORE.RESTR.norm>
0

>  <SCORE.SYSTEM>
0

>  <SCORE.SYSTEM.CONST>
0

>  <SCORE.SYSTEM.DIHEDRAL>
0

>  <SCORE.SYSTEM.SOLV>
0

>  <SCORE.SYSTEM.norm>
0

>  <SCORE.heavy>
17

>  <SCORE.norm>
-0.918908

>  <RMSD>
1.490

$$$$
ligand
 OpenBabel11021811503D
libRbt.so/2013.1/901 2013/11/27
 17 18  0  0  0  0  0  0  0  0999 V2000
   -2.3870    5.5689   24.4188 N   0  0  0  0  0  0  0  0  0  0  0  0
   -2.4404    6.6853   25.2631 C   0  0  0  0  0  0  0  0  0  0  0  0
   -3.5568    6.8544   26.1474 N   0  0  0  0  0  0  0  0  0  0  0  0
   -1.4351    7.6280   25.2713 N   0  0  0  0  0  0  0  0  0  0  0  0
   -0.3404    7.5069   24.4406 C   0  0  0  0  0  0  0  0  0  0  0  0
   -0.2363    6.3904   23.5531 C   0  0  0  0  0  0  0  0  0  0  0  0
    0.5363    8.3498   24.4609 O   0  0  0  0  0  0  0  0  0  0  0  0
    0.9046    6.2299   22.6551 N   0  0  0  0  0  0  0  0  0  0  0  0
    1.0659    5.0174   21.9352 C   0  0  2  0  0  0  0  0  0  0  0  0
   -0.2740    4.3040   21.6122 C   0  0  0  0  0  0  0  0  0  0  0  0
   -1.2851    5.4221   23.5640 C   0  0  0  0  0  0  0  0  0  0  0  0
   -1.1985    4.2604   22.6598 N   0  0  0  0  0  0  0  0  0  0  0  0
    2.0475    4.1453   22.6965 C   0  0  1  0  0  0  0  0  0  0  0  0
    2.0821    2.8726   22.1620 O   0  0  0  0  0  0  0  0  0  0  0  0
    3.4151    4.7598   22.6763 C   0  0  1  0  0  0  0  0  0  0  0  0
    3.4073    5.9524   23.2884 O   0  0  0  0  0  0  0  0  0  0  0  0
    4.4413    3.8576   23.3944 C   0  0  0  0  0  0  0  0  0  0  0  0
  1  2  2  0  0  0  0
  1 11  1  0  0  0  0
  2  3  1  0  0  0  0
  2  4  1  0  0  0  0
  4  5  1  0  0  0  0
  5  6  1  0  0  0  0
  5  7  2  0  0  0  0
  6  8  1  0  0  0  0
  6 11  2  0  0  0  0
  9  8  1  1  0  0  0
  9 10  1  0  0  0  0
  9 13  1  0  0  0  0
 10 12  1  0  0  0  0
 11 12  1  0  0  0  0
 13 14  1  6  0  0  0
 13 15  1  0  0  0  0
 15 16  1  1  0  0  0
 15 17  1  0  0  0  0
M  END
>  <CHROM.1>
170.41091810,62.22510391,0.36374774,5.61304035,23.52560133,2.54415718,0.12321247
0.56677379

>  <Name>
ligand

>  <RI>
0

>  <Rbt.Current_Directory>
/home/itssahil/PROJECTS/Mol_Feturizer/New_Systems/rnas/4LVX

>  <Rbt.Executable>
rbdock ($Id: //depot/dev/client3/rdock/2013.1/src/exe/rbdock.cxx#4 $)

>  <Rbt.Library>
libRbt.so (2013.1, Build901 2013/11/27)

>  <Rbt.Parameter_File>
/export/apps/rDock/src/rDock_2013.1_src/data/scripts/dock_solv.prm

>  <Rbt.Receptor>
prm/pocket_docking_8.prm

>  <SCORE>
-15.5712

>  <SCORE.INTER>
-8.84191

>  <SCORE.INTER.CONST>
1

>  <SCORE.INTER.POLAR>
0

>  <SCORE.INTER.ROT>
2

>  <SCORE.INTER.SOLV>
22.6736

>  <SCORE.INTER.VDW>
-18.3858

>  <SCORE.INTER.norm>
-0.520112

>  <SCORE.INTRA>
-6.72929

>  <SCORE.INTRA.DIHEDRAL>
-9.83586

>  <SCORE.INTRA.DIHEDRAL.0>
10.3255

>  <SCORE.INTRA.POLAR>
0

>  <SCORE.INTRA.POLAR.0>
0

>  <SCORE.INTRA.REPUL>
0

>  <SCORE.INTRA.REPUL.0>
0

>  <SCORE.INTRA.SOLV>
-0.042048

>  <SCORE.INTRA.SOLV.lig_0>
-53.4755

>  <SCORE.INTRA.VDW>
-1.79033

>  <SCORE.INTRA.VDW.0>
2.32763

>  <SCORE.INTRA.norm>
-0.39584

>  <SCORE.RESTR>
0

>  <SCORE.RESTR.CAVITY>
0

>  <SCORE.RESTR.norm>
0

>  <SCORE.SYSTEM>
0

>  <SCORE.SYSTEM.CONST>
0

>  <SCORE.SYSTEM.DIHEDRAL>
0

>  <SCORE.SYSTEM.SOLV>
0

>  <SCORE.SYSTEM.norm>
0

>  <SCORE.heavy>
17

>  <SCORE.norm>
-0.915952

>  <RMSD>
1.494

$$$$
ligand
 OpenBabel11021811503D
libRbt.so/2013.1/901 2013/11/27
 17 18  0  0  0  0  0  0  0  0999 V2000
   -2.3875    5.5596   24.4167 N   0  0  0  0  0  0  0  0  0  0  0  0
   -2.4470    6.6820   25.2525 C   0  0  0  0  0  0  0  0  0  0  0  0
   -3.5642    6.8515   26.1359 N   0  0  0  0  0  0  0  0  0  0  0  0
   -1.4472    7.6306   25.2533 N   0  0  0  0  0  0  0  0  0  0  0  0
   -0.3520    7.5094   24.4233 C   0  0  0  0  0  0  0  0  0  0  0  0
   -0.2417    6.3868   23.5442 C   0  0  0  0  0  0  0  0  0  0  0  0
    0.5199    8.3574   24.4369 O   0  0  0  0  0  0  0  0  0  0  0  0
    0.8999    6.2260   22.6472 N   0  0  0  0  0  0  0  0  0  0  0  0
    1.0679    5.0091   21.9364 C   0  0  2  0  0  0  0  0  0  0  0  0
   -0.2680    4.2855   21.6192 C   0  0  0  0  0  0  0  0  0  0  0  0
   -1.2850    5.4126   23.5627 C   0  0  0  0  0  0  0  0  0  0  0  0
   -1.1919    4.2447   22.6673 N   0  0  0  0  0  0  0  0  0  0  0  0
    2.0546    4.1482   22.7040 C   0  0  1  0  0  0  0  0  0  0  0  0
    2.0984    2.8726   22.1774 O   0  0  0  0  0  0  0  0  0  0  0  0
    3.4181    4.7719   22.6814 C   0  0  1  0  0  0  0  0  0  0  0  0
    3.4005    5.9703   23.2818 O   0  0  0  0  0  0  0  0  0  0  0  0
    4.4484    3.8838   23.4108 C   0  0  0  0  0  0  0  0  0  0  0  0
  1  2  2  0  0  0  0
  1 11  1  0  0  0  0
  2  3  1  0  0  0  0
  2  4  1  0  0  0  0
  4  5  1  0  0  0  0
  5  6  1  0  0  0  0
  5  7  2  0  0  0  0
  6  8  1  0  0  0  0
  6 11  2  0  0  0  0
  9  8  1  1  0  0  0
  9 10  1  0  0  0  0
  9 13  1  0  0  0  0
 10 12  1  0  0  0  0
 11 12  1  0  0  0  0
 13 14  1  6  0  0  0
 13 15  1  0  0  0  0
 15 16  1  1  0  0  0
 15 17  1  0  0  0  0
M  END
>  <CHROM.1>
170.53647326,62.00190696,0.36248897,5.61326807,23.52293976,2.54895885,0.12616348
0.55902961

>  <Name>
ligand

>  <RI>
0

>  <Rbt.Current_Directory>
/home/itssahil/PROJECTS/Mol_Feturizer/New_Systems/rnas/4LVX

>  <Rbt.Executable>
rbdock ($Id: //depot/dev/client3/rdock/2013.1/src/exe/rbdock.cxx#4 $)

>  <Rbt.Library>
libRbt.so (2013.1, Build901 2013/11/27)

>  <Rbt.Parameter_File>
/export/apps/rDock/src/rDock_2013.1_src/data/scripts/dock_solv.prm

>  <Rbt.Receptor>
prm/pocket_docking_6.prm

>  <SCORE>
-15.5854

>  <SCORE.INTER>
-8.8527

>  <SCORE.INTER.CONST>
1

>  <SCORE.INTER.POLAR>
0

>  <SCORE.INTER.ROT>
2

>  <SCORE.INTER.SOLV>
22.6926

>  <SCORE.INTER.VDW>
-18.3993

>  <SCORE.INTER.norm>
-0.520747

>  <SCORE.INTRA>
-6.73267

>  <SCORE.INTRA.DIHEDRAL>
-9.8471

>  <SCORE.INTRA.DIHEDRAL.0>
10.3255

>  <SCORE.INTRA.POLAR>
0

>  <SCORE.INTRA.POLAR.0>
0

>  <SCORE.INTRA.REPUL>
0

>  <SCORE.INTRA.REPUL.0>
0

>  <SCORE.INTRA.SOLV>
-0.0381005

>  <SCORE.INTRA.SOLV.lig_0>
-53.4755

>  <SCORE.INTRA.VDW>
-1.79007

>  <SCORE.INTRA.VDW.0>
2.32763

>  <SCORE.INTRA.norm>
-0.396039

>  <SCORE.RESTR>
0

>  <SCORE.RESTR.CAVITY>
0

>  <SCORE.RESTR.norm>
0

>  <SCORE.SYSTEM>
0

>  <SCORE.SYSTEM.CONST>
0

>  <SCORE.SYSTEM.DIHEDRAL>
0

>  <SCORE.SYSTEM.SOLV>
0

>  <SCORE.SYSTEM.norm>
0

>  <SCORE.heavy>
17

>  <SCORE.norm>
-0.916786

>  <RMSD>
1.500

$$$$
ligand
 OpenBabel11021811503D
libRbt.so/2013.1/901 2013/11/27
 17 18  0  0  0  0  0  0  0  0999 V2000
   -2.4450    5.6686   24.2727 N   0  0  0  0  0  0  0  0  0  0  0  0
   -2.4974    6.7460   25.1663 C   0  0  0  0  0  0  0  0  0  0  0  0
   -3.6628    6.9381   25.9800 N   0  0  0  0  0  0  0  0  0  0  0  0
   -1.4457    7.6280   25.2901 N   0  0  0  0  0  0  0  0  0  0  0  0
   -0.3031    7.4827   24.5309 C   0  0  0  0  0  0  0  0  0  0  0  0
   -0.1971    6.4041   23.5977 C   0  0  0  0  0  0  0  0  0  0  0  0
    0.6143    8.2719   24.6530 O   0  0  0  0  0  0  0  0  0  0  0  0
    0.9941    6.2199   22.7726 N   0  0  0  0  0  0  0  0  0  0  0  0
    1.1400    5.0347   22.0056 C   0  0  2  0  0  0  0  0  0  0  0  0
   -0.2103    4.4152   21.5568 C   0  0  0  0  0  0  0  0  0  0  0  0
   -1.2950    5.4983   23.4887 C   0  0  0  0  0  0  0  0  0  0  0  0
   -1.2076    4.3766   22.5355 N   0  0  0  0  0  0  0  0  0  0  0  0
    2.0165    4.0733   22.7872 C   0  0  1  0  0  0  0  0  0  0  0  0
    2.0546    2.8391   22.1694 O   0  0  0  0  0  0  0  0  0  0  0  0
    3.4013    4.6302   22.9316 C   0  0  1  0  0  0  0  0  0  0  0  0
    3.3848    5.7579   23.6563 O   0  0  0  0  0  0  0  0  0  0  0  0
    4.3364    3.6220   23.6326 C   0  0  0  0  0  0  0  0  0  0  0  0
  1  2  2  0  0  0  0
  1 11  1  0  0  0  0
  2  3  1  0  0  0  0
  2  4  1  0  0  0  0
  4  5  1  0  0  0  0
  5  6  1  0  0  0  0
  5  7  2  0  0  0  0
  6  8  1  0  0  0  0
  6 11  2  0  0  0  0
  9  8  1  1  0  0  0
  9 10  1  0  0  0  0
  9 13  1  0  0  0  0
 10 12  1  0  0  0  0
 11 12  1  0  0  0  0
 13 14  1  6  0  0  0
 13 15  1  0  0  0  0
 15 16  1  1  0  0  0
 15 17  1  0  0  0  0
M  END
>  <CHROM.1>
172.35584273,64.01524716,0.35922744,5.59724248,23.57955153,2.53590315,0.02633592
0.62362463

>  <Name>
ligand

>  <RI>
0

>  <Rbt.Current_Directory>
/home/itssahil/PROJECTS/Mol_Feturizer/New_Systems/rnas/4LVX

>  <Rbt.Executable>
rbdock ($Id: //depot/dev/client3/rdock/2013.1/src/exe/rbdock.cxx#4 $)

>  <Rbt.Library>
libRbt.so (2013.1, Build901 2013/11/27)

>  <Rbt.Parameter_File>
/export/apps/rDock/src/rDock_2013.1_src/data/scripts/dock_solv.prm

>  <Rbt.Receptor>
prm/pocket_docking_4.prm

>  <SCORE>
-15.3364

>  <SCORE.INTER>
-8.605

>  <SCORE.INTER.CONST>
1

>  <SCORE.INTER.POLAR>
0

>  <SCORE.INTER.ROT>
2

>  <SCORE.INTER.SOLV>
22.3825

>  <SCORE.INTER.VDW>
-18.1308

>  <SCORE.INTER.norm>
-0.506177

>  <SCORE.INTRA>
-6.73135

>  <SCORE.INTRA.DIHEDRAL>
-9.913

>  <SCORE.INTRA.DIHEDRAL.0>
10.3255

>  <SCORE.INTRA.POLAR>
0

>  <SCORE.INTRA.POLAR.0>
0

>  <SCORE.INTRA.REPUL>
0

>  <SCORE.INTRA.REPUL.0>
0

>  <SCORE.INTRA.SOLV>
-0.0324184

>  <SCORE.INTRA.SOLV.lig_0>
-53.4755

>  <SCORE.INTRA.VDW>
-1.75864

>  <SCORE.INTRA.VDW.0>
2.32763

>  <SCORE.INTRA.norm>
-0.395962

>  <SCORE.RESTR>
0

>  <SCORE.RESTR.CAVITY>
0

>  <SCORE.RESTR.norm>
0

>  <SCORE.SYSTEM>
0

>  <SCORE.SYSTEM.CONST>
0

>  <SCORE.SYSTEM.DIHEDRAL>
0

>  <SCORE.SYSTEM.SOLV>
0

>  <SCORE.SYSTEM.norm>
0

>  <SCORE.heavy>
17

>  <SCORE.norm>
-0.902138

>  <RMSD>
1.576

$$$$
ligand
 OpenBabel11021811503D
libRbt.so/2013.1/901 2013/11/27
 17 18  0  0  0  0  0  0  0  0999 V2000
   -2.4306    5.9545   23.6722 N   0  0  0  0  0  0  0  0  0  0  0  0
   -2.3337    6.6505   24.8840 C   0  0  0  0  0  0  0  0  0  0  0  0
   -3.3786    6.5283   25.8589 N   0  0  0  0  0  0  0  0  0  0  0  0
   -1.2471    7.4491   25.1685 N   0  0  0  0  0  0  0  0  0  0  0  0
   -0.2164    7.5955   24.2634 C   0  0  0  0  0  0  0  0  0  0  0  0
   -0.2653    6.9132   23.0075 C   0  0  0  0  0  0  0  0  0  0  0  0
    0.7339    8.3058   24.5316 O   0  0  0  0  0  0  0  0  0  0  0  0
    0.8040    7.0471   22.0213 N   0  0  0  0  0  0  0  0  0  0  0  0
    0.8126    6.2074   20.8772 C   0  0  2  0  0  0  0  0  0  0  0  0
   -0.6032    5.7638   20.4217 C   0  0  0  0  0  0  0  0  0  0  0  0
   -1.3964    6.0864   22.7345 C   0  0  0  0  0  0  0  0  0  0  0  0
   -1.4677    5.3704   21.4473 N   0  0  0  0  0  0  0  0  0  0  0  0
    1.7508    5.0465   21.1525 C   0  0  1  0  0  0  0  0  0  0  0  0
    3.0114    5.5072   21.4765 O   0  0  0  0  0  0  0  0  0  0  0  0
    1.2073    4.1871   22.2546 C   0  0  1  0  0  0  0  0  0  0  0  0
    1.6310    2.9224   22.1215 O   0  0  0  0  0  0  0  0  0  0  0  0
    1.6601    4.7028   23.6372 C   0  0  0  0  0  0  0  0  0  0  0  0
  1  2  2  0  0  0  0
  1 11  1  0  0  0  0
  2  3  1  0  0  0  0
  2  4  1  0  0  0  0
  4  5  1  0  0  0  0
  5  6  1  0  0  0  0
  5  7  2  0  0  0  0
  6  8  1  0  0  0  0
  6 11  2  0  0  0  0
  9  8  1  1  0  0  0
  9 10  1  0  0  0  0
  9 13  1  0  0  0  0
 10 12  1  0  0  0  0
 11 12  1  0  0  0  0
 13 14  1  1  0  0  0
 13 15  1  0  0  0  0
 15 16  1  6  0  0  0
 15 17  1  0  0  0  0
M  END
>  <CHROM.1>
-56.58340220,152.24200777,-0.03035997,5.98089370,22.90254496,2.33655273,0.19654120
0.79927856

>  <Name>
ligand

>  <RI>
0

>  <Rbt.Current_Directory>
/home/itssahil/PROJECTS/Mol_Feturizer/New_Systems/rnas/4LVX

>  <Rbt.Executable>
rbdock ($Id: //depot/dev/client3/rdock/2013.1/src/exe/rbdock.cxx#4 $)

>  <Rbt.Library>
libRbt.so (2013.1, Build901 2013/11/27)

>  <Rbt.Parameter_File>
/export/apps/rDock/src/rDock_2013.1_src/data/scripts/dock_solv.prm

>  <Rbt.Receptor>
prm/pocket_docking_3.prm

>  <SCORE>
-11.5797

>  <SCORE.INTER>
-7.81991

>  <SCORE.INTER.CONST>
1

>  <SCORE.INTER.POLAR>
0

>  <SCORE.INTER.ROT>
2

>  <SCORE.INTER.SOLV>
22.2827

>  <SCORE.INTER.VDW>
-17.5742

>  <SCORE.INTER.norm>
-0.459994

>  <SCORE.INTRA>
-3.75974

>  <SCORE.INTRA.DIHEDRAL>
-7.73341

>  <SCORE.INTRA.DIHEDRAL.0>
10.3255

>  <SCORE.INTRA.POLAR>
0

>  <SCORE.INTRA.POLAR.0>
0

>  <SCORE.INTRA.REPUL>
0

>  <SCORE.INTRA.REPUL.0>
0

>  <SCORE.INTRA.SOLV>
1.10324

>  <SCORE.INTRA.SOLV.lig_0>
-53.4755

>  <SCORE.INTRA.VDW>
-0.444657

>  <SCORE.INTRA.VDW.0>
2.32763

>  <SCORE.INTRA.norm>
-0.221161

>  <SCORE.RESTR>
0

>  <SCORE.RESTR.CAVITY>
0

>  <SCORE.RESTR.norm>
0

>  <SCORE.SYSTEM>
0

>  <SCORE.SYSTEM.CONST>
0

>  <SCORE.SYSTEM.DIHEDRAL>
0

>  <SCORE.SYSTEM.SOLV>
0

>  <SCORE.SYSTEM.norm>
0

>  <SCORE.heavy>
17

>  <SCORE.norm>
-0.681156

>  <RMSD>
1.580

$$$$
ligand
 OpenBabel11021811503D
libRbt.so/2013.1/901 2013/11/27
 17 18  0  0  0  0  0  0  0  0999 V2000
   -2.3542    5.5906   24.5333 N   0  0  0  0  0  0  0  0  0  0  0  0
   -2.6399    6.7237   25.3056 C   0  0  0  0  0  0  0  0  0  0  0  0
   -3.8614    6.7830   26.0550 N   0  0  0  0  0  0  0  0  0  0  0  0
   -1.7661    7.7874   25.3706 N   0  0  0  0  0  0  0  0  0  0  0  0
   -0.5780    7.7750   24.6696 C   0  0  0  0  0  0  0  0  0  0  0  0
   -0.2374    6.6466   23.8598 C   0  0  0  0  0  0  0  0  0  0  0  0
    0.1801    8.7237   24.7381 O   0  0  0  0  0  0  0  0  0  0  0  0
    1.0087    6.5984   23.0991 N   0  0  0  0  0  0  0  0  0  0  0  0
    1.3987    5.3889   22.4670 C   0  0  2  0  0  0  0  0  0  0  0  0
    0.2022    4.4968   22.0414 C   0  0  0  0  0  0  0  0  0  0  0  0
   -1.1531    5.5527   23.8106 C   0  0  0  0  0  0  0  0  0  0  0  0
   -0.8222    4.3766   22.9848 N   0  0  0  0  0  0  0  0  0  0  0  0
    2.3880    4.6813   23.3748 C   0  0  1  0  0  0  0  0  0  0  0  0
    1.7472    4.1675   24.4847 O   0  0  0  0  0  0  0  0  0  0  0  0
    3.0949    3.5912   22.6261 C   0  0  1  0  0  0  0  0  0  0  0  0
    3.5841    4.0534   21.4668 O   0  0  0  0  0  0  0  0  0  0  0  0
    4.2690    3.0211   23.4501 C   0  0  0  0  0  0  0  0  0  0  0  0
  1  2  2  0  0  0  0
  1 11  1  0  0  0  0
  2  3  1  0  0  0  0
  2  4  1  0  0  0  0
  4  5  1  0  0  0  0
  5  6  1  0  0  0  0
  5  7  2  0  0  0  0
  6  8  1  0  0  0  0
  6 11  2  0  0  0  0
  9  8  1  1  0  0  0
  9 10  1  0  0  0  0
  9 13  1  0  0  0  0
 10 12  1  0  0  0  0
 11 12  1  0  0  0  0
 13 14  1  1  0  0  0
 13 15  1  0  0  0  0
 15 16  1  6  0  0  0
 15 17  1  0  0  0  0
M  END
>  <CHROM.1>
71.82984967,50.07998398,0.34269234,5.61175387,23.76808924,2.52720820,0.25339770
0.31333606

>  <Name>
ligand

>  <RI>
0

>  <Rbt.Current_Directory>
/home/itssahil/PROJECTS/Mol_Feturizer/New_Systems/rnas/4LVX

>  <Rbt.Executable>
rbdock ($Id: //depot/dev/client3/rdock/2013.1/src/exe/rbdock.cxx#4 $)

>  <Rbt.Library>
libRbt.so (2013.1, Build901 2013/11/27)

>  <Rbt.Parameter_File>
/export/apps/rDock/src/rDock_2013.1_src/data/scripts/dock_solv.prm

>  <Rbt.Receptor>
prm/pocket_docking_8.prm

>  <SCORE>
-15.6325

>  <SCORE.INTER>
-8.59184

>  <SCORE.INTER.CONST>
1

>  <SCORE.INTER.POLAR>
0

>  <SCORE.INTER.ROT>
2

>  <SCORE.INTER.SOLV>
24.1066

>  <SCORE.INTER.VDW>
-18.6968

>  <SCORE.INTER.norm>
-0.505402

>  <SCORE.INTRA>
-7.04063

>  <SCORE.INTRA.DIHEDRAL>
-9.33576

>  <SCORE.INTRA.DIHEDRAL.0>
10.3255

>  <SCORE.INTRA.POLAR>
0

>  <SCORE.INTRA.POLAR.0>
0

>  <SCORE.INTRA.REPUL>
0

>  <SCORE.INTRA.REPUL.0>
0

>  <SCORE.INTRA.SOLV>
-0.139013

>  <SCORE.INTRA.SOLV.lig_0>
-53.4755

>  <SCORE.INTRA.VDW>
-2.30324

>  <SCORE.INTRA.VDW.0>
2.32763

>  <SCORE.INTRA.norm>
-0.414155

>  <SCORE.RESTR>
0

>  <SCORE.RESTR.CAVITY>
0

>  <SCORE.RESTR.norm>
0

>  <SCORE.SYSTEM>
0

>  <SCORE.SYSTEM.CONST>
0

>  <SCORE.SYSTEM.DIHEDRAL>
0

>  <SCORE.SYSTEM.SOLV>
0

>  <SCORE.SYSTEM.norm>
0

>  <SCORE.heavy>
17

>  <SCORE.norm>
-0.919557

>  <RMSD>
1.752

$$$$
ligand
 OpenBabel11021811503D
libRbt.so/2013.1/901 2013/11/27
 17 18  0  0  0  0  0  0  0  0999 V2000
   -2.3856    5.5818   24.5298 N   0  0  0  0  0  0  0  0  0  0  0  0
   -2.6662    6.7252   25.2886 C   0  0  0  0  0  0  0  0  0  0  0  0
   -3.8871    6.7988   26.0376 N   0  0  0  0  0  0  0  0  0  0  0  0
   -1.7877    7.7859   25.3405 N   0  0  0  0  0  0  0  0  0  0  0  0
   -0.6000    7.7600   24.6394 C   0  0  0  0  0  0  0  0  0  0  0  0
   -0.2645    6.6205   23.8430 C   0  0  0  0  0  0  0  0  0  0  0  0
    0.1622    8.7062   24.6963 O   0  0  0  0  0  0  0  0  0  0  0  0
    0.9811    6.5578   23.0825 N   0  0  0  0  0  0  0  0  0  0  0  0
    1.3656    5.3392   22.4649 C   0  0  2  0  0  0  0  0  0  0  0  0
    0.1651    4.4472   22.0503 C   0  0  0  0  0  0  0  0  0  0  0  0
   -1.1850    5.5300   23.8072 C   0  0  0  0  0  0  0  0  0  0  0  0
   -0.8595    4.3428   22.9954 N   0  0  0  0  0  0  0  0  0  0  0  0
    2.3522    4.6382   23.3807 C   0  0  1  0  0  0  0  0  0  0  0  0
    1.7033    4.1059   24.4771 O   0  0  0  0  0  0  0  0  0  0  0  0
    3.0853    3.5647   22.6332 C   0  0  1  0  0  0  0  0  0  0  0  0
    3.5690    4.0392   21.4766 O   0  0  0  0  0  0  0  0  0  0  0  0
    4.2681    3.0186   23.4610 C   0  0  0  0  0  0  0  0  0  0  0  0
  1  2  2  0  0  0  0
  1 11  1  0  0  0  0
  2  3  1  0  0  0  0
  2  4  1  0  0  0  0
  4  5  1  0  0  0  0
  5  6  1  0  0  0  0
  5  7  2  0  0  0  0
  6  8  1  0  0  0  0
  6 11  2  0  0  0  0
  9  8  1  1  0  0  0
  9 10  1  0  0  0  0
  9 13  1  0  0  0  0
 10 12  1  0  0  0  0
 11 12  1  0  0  0  0
 13 14  1  1  0  0  0
 13 15  1  0  0  0  0
 15 16  1  6  0  0  0
 15 17  1  0  0  0  0
M  END
>  <CHROM.1>
73.62020162,49.27267247,0.31668540,5.58829951,23.76035486,2.52900079,0.25376700
0.30257187

>  <Name>
ligand

>  <RI>
0

>  <Rbt.Current_Directory>
/home/itssahil/PROJECTS/Mol_Feturizer/New_Systems/rnas/4LVX

>  <Rbt.Executable>
rbdock ($Id: //depot/dev/client3/rdock/2013.1/src/exe/rbdock.cxx#4 $)

>  <Rbt.Library>
libRbt.so (2013.1, Build901 2013/11/27)

>  <Rbt.Parameter_File>
/export/apps/rDock/src/rDock_2013.1_src/data/scripts/dock_solv.prm

>  <Rbt.Receptor>
prm/pocket_docking_4.prm

>  <SCORE>
-15.606

>  <SCORE.INTER>
-8.66174

>  <SCORE.INTER.CONST>
1

>  <SCORE.INTER.POLAR>
0

>  <SCORE.INTER.ROT>
2

>  <SCORE.INTER.SOLV>
24.3007

>  <SCORE.INTER.VDW>
-18.8081

>  <SCORE.INTER.norm>
-0.509514

>  <SCORE.INTRA>
-6.94425

>  <SCORE.INTRA.DIHEDRAL>
-9.12879

>  <SCORE.INTRA.DIHEDRAL.0>
10.3255

>  <SCORE.INTRA.POLAR>
0

>  <SCORE.INTRA.POLAR.0>
0

>  <SCORE.INTRA.REPUL>
0

>  <SCORE.INTRA.REPUL.0>
0

>  <SCORE.INTRA.SOLV>
-0.144365

>  <SCORE.INTRA.SOLV.lig_0>
-53.4755

>  <SCORE.INTRA.VDW>
-2.30768

>  <SCORE.INTRA.VDW.0>
2.32763

>  <SCORE.INTRA.norm>
-0.408486

>  <SCORE.RESTR>
0

>  <SCORE.RESTR.CAVITY>
0

>  <SCORE.RESTR.norm>
0

>  <SCORE.SYSTEM>
0

>  <SCORE.SYSTEM.CONST>
0

>  <SCORE.SYSTEM.DIHEDRAL>
0

>  <SCORE.SYSTEM.SOLV>
0

>  <SCORE.SYSTEM.norm>
0

>  <SCORE.heavy>
17

>  <SCORE.norm>
-0.918

>  <RMSD>
1.755

$$$$
ligand
 OpenBabel11021811503D
libRbt.so/2013.1/901 2013/11/27
 17 18  0  0  0  0  0  0  0  0999 V2000
    0.9806    8.1369   24.9930 N   0  0  0  0  0  0  0  0  0  0  0  0
    1.7274    9.1679   24.4087 C   0  0  0  0  0  0  0  0  0  0  0  0
    2.6643    9.9059   25.2053 N   0  0  0  0  0  0  0  0  0  0  0  0
    1.5895    9.4876   23.0752 N   0  0  0  0  0  0  0  0  0  0  0  0
    0.7033    8.8043   22.2685 C   0  0  0  0  0  0  0  0  0  0  0  0
   -0.0897    7.7462   22.8133 C   0  0  0  0  0  0  0  0  0  0  0  0
    0.5943    9.1016   21.0942 O   0  0  0  0  0  0  0  0  0  0  0  0
   -1.0424    7.0028   21.9925 N   0  0  0  0  0  0  0  0  0  0  0  0
   -1.6642    5.8403   22.5181 C   0  0  2  0  0  0  0  0  0  0  0  0
   -1.8373    5.8719   24.0601 C   0  0  0  0  0  0  0  0  0  0  0  0
    0.0723    7.4267   24.1950 C   0  0  0  0  0  0  0  0  0  0  0  0
   -0.7323    6.3374   24.7786 N   0  0  0  0  0  0  0  0  0  0  0  0
   -0.8958    4.6298   22.0204 C   0  0  1  0  0  0  0  0  0  0  0  0
   -1.0670    4.4718   20.6594 O   0  0  0  0  0  0  0  0  0  0  0  0
    0.5600    4.7633   22.3537 C   0  0  1  0  0  0  0  0  0  0  0  0
    1.1319    3.5564   22.4690 O   0  0  0  0  0  0  0  0  0  0  0  0
    1.3120    5.5489   21.2584 C   0  0  0  0  0  0  0  0  0  0  0  0
  1  2  2  0  0  0  0
  1 11  1  0  0  0  0
  2  3  1  0  0  0  0
  2  4  1  0  0  0  0
  4  5  1  0  0  0  0
  5  6  1  0  0  0  0
  5  7  2  0  0  0  0
  6  8  1  0  0  0  0
  6 11  2  0  0  0  0
  9  8  1  1  0  0  0
  9 10  1  0  0  0  0
  9 13  1  0  0  0  0
 10 12  1  0  0  0  0
 11 12  1  0  0  0  0
 13 14  1  6  0  0  0
 13 15  1  0  0  0  0
 15 16  1  6  0  0  0
 15 17  1  0  0  0  0
M  END
>  <CHROM.1>
-68.50572603,153.21630595,0.23872551,6.86928546,22.89628806,0.59403306,1.11001218
1.35286680

>  <Name>
ligand

>  <RI>
0

>  <Rbt.Current_Directory>
/home/itssahil/PROJECTS/Mol_Feturizer/New_Systems/rnas/4LVX

>  <Rbt.Executable>
rbdock ($Id: //depot/dev/client3/rdock/2013.1/src/exe/rbdock.cxx#4 $)

>  <Rbt.Library>
libRbt.so (2013.1, Build901 2013/11/27)

>  <Rbt.Parameter_File>
/export/apps/rDock/src/rDock_2013.1_src/data/scripts/dock_solv.prm

>  <Rbt.Receptor>
prm/pocket_docking_4.prm

>  <SCORE>
-11.6265

>  <SCORE.INTER>
-7.93455

>  <SCORE.INTER.CONST>
1

>  <SCORE.INTER.POLAR>
0

>  <SCORE.INTER.ROT>
2

>  <SCORE.INTER.SOLV>
15.3457

>  <SCORE.INTER.VDW>
-15.3383

>  <SCORE.INTER.norm>
-0.466738

>  <SCORE.INTRA>
-3.69199

>  <SCORE.INTRA.DIHEDRAL>
-7.65131

>  <SCORE.INTRA.DIHEDRAL.0>
10.3255

>  <SCORE.INTRA.POLAR>
0

>  <SCORE.INTRA.POLAR.0>
0

>  <SCORE.INTRA.REPUL>
0

>  <SCORE.INTRA.REPUL.0>
0

>  <SCORE.INTRA.SOLV>
0.999659

>  <SCORE.INTRA.SOLV.lig_0>
-53.4755

>  <SCORE.INTRA.VDW>
-0.366161

>  <SCORE.INTRA.VDW.0>
2.32763

>  <SCORE.INTRA.norm>
-0.217176

>  <SCORE.RESTR>
0

>  <SCORE.RESTR.CAVITY>
0

>  <SCORE.RESTR.norm>
0

>  <SCORE.SYSTEM>
0

>  <SCORE.SYSTEM.CONST>
0

>  <SCORE.SYSTEM.DIHEDRAL>
0

>  <SCORE.SYSTEM.SOLV>
0

>  <SCORE.SYSTEM.norm>
0

>  <SCORE.heavy>
17

>  <SCORE.norm>
-0.683914

>  <RMSD>
3.551

$$$$
ligand
 OpenBabel11021811503D
libRbt.so/2013.1/901 2013/11/27
 17 18  0  0  0  0  0  0  0  0999 V2000
    0.9249    8.2408   25.0440 N   0  0  0  0  0  0  0  0  0  0  0  0
    1.7243    9.2326   24.4615 C   0  0  0  0  0  0  0  0  0  0  0  0
    2.6325    9.9839   25.2787 N   0  0  0  0  0  0  0  0  0  0  0  0
    1.6655    9.5008   23.1109 N   0  0  0  0  0  0  0  0  0  0  0  0
    0.8097    8.8028   22.2843 C   0  0  0  0  0  0  0  0  0  0  0  0
   -0.0343    7.7831   22.8259 C   0  0  0  0  0  0  0  0  0  0  0  0
    0.7707    9.0544   21.0949 O   0  0  0  0  0  0  0  0  0  0  0  0
   -0.9571    7.0259   21.9840 N   0  0  0  0  0  0  0  0  0  0  0  0
   -1.6314    5.8979   22.5200 C   0  0  2  0  0  0  0  0  0  0  0  0
   -1.8868    5.9952   24.0477 C   0  0  0  0  0  0  0  0  0  0  0  0
    0.0458    7.5167   24.2260 C   0  0  0  0  0  0  0  0  0  0  0  0
   -0.8125    6.4678   24.8069 N   0  0  0  0  0  0  0  0  0  0  0  0
   -0.8636    4.6535   22.1131 C   0  0  1  0  0  0  0  0  0  0  0  0
   -1.0298    4.3990   20.7663 O   0  0  0  0  0  0  0  0  0  0  0  0
    0.5913    4.8079   22.4419 C   0  0  1  0  0  0  0  0  0  0  0  0
    0.7859    4.7499   23.7669 O   0  0  0  0  0  0  0  0  0  0  0  0
    1.4320    3.6936   21.7832 C   0  0  0  0  0  0  0  0  0  0  0  0
  1  2  2  0  0  0  0
  1 11  1  0  0  0  0
  2  3  1  0  0  0  0
  2  4  1  0  0  0  0
  4  5  1  0  0  0  0
  5  6  1  0  0  0  0
  5  7  2  0  0  0  0
  6  8  1  0  0  0  0
  6 11  2  0  0  0  0
  9  8  1  1  0  0  0
  9 10  1  0  0  0  0
  9 13  1  0  0  0  0
 10 12  1  0  0  0  0
 11 12  1  0  0  0  0
 13 14  1  6  0  0  0
 13 15  1  0  0  0  0
 15 16  1  1  0  0  0
 15 17  1  0  0  0  0
M  END
>  <CHROM.1>
-72.08499522,71.47035475,0.24617880,6.86850752,23.05193634,0.23449853,1.18572381
1.71449348

>  <Name>
ligand

>  <RI>
0

>  <Rbt.Current_Directory>
/home/itssahil/PROJECTS/Mol_Feturizer/New_Systems/rnas/4LVX

>  <Rbt.Executable>
rbdock ($Id: //depot/dev/client3/rdock/2013.1/src/exe/rbdock.cxx#4 $)

>  <Rbt.Library>
libRbt.so (2013.1, Build901 2013/11/27)

>  <Rbt.Parameter_File>
/export/apps/rDock/src/rDock_2013.1_src/data/scripts/dock_solv.prm

>  <Rbt.Receptor>
prm/pocket_docking_4.prm

>  <SCORE>
-15.5385

>  <SCORE.INTER>
-10.0381

>  <SCORE.INTER.CONST>
1

>  <SCORE.INTER.POLAR>
0

>  <SCORE.INTER.ROT>
2

>  <SCORE.INTER.SOLV>
15.6354

>  <SCORE.INTER.VDW>
-16.8372

>  <SCORE.INTER.norm>
-0.590478

>  <SCORE.INTRA>
-5.50036

>  <SCORE.INTRA.DIHEDRAL>
-9.21712

>  <SCORE.INTRA.DIHEDRAL.0>
10.3255

>  <SCORE.INTRA.POLAR>
0

>  <SCORE.INTRA.POLAR.0>
0

>  <SCORE.INTRA.REPUL>
0

>  <SCORE.INTRA.REPUL.0>
0

>  <SCORE.INTRA.SOLV>
1.48197

>  <SCORE.INTRA.SOLV.lig_0>
-53.4755

>  <SCORE.INTRA.VDW>
-1.63279

>  <SCORE.INTRA.VDW.0>
2.32763

>  <SCORE.INTRA.norm>
-0.323551

>  <SCORE.RESTR>
0

>  <SCORE.RESTR.CAVITY>
0

>  <SCORE.RESTR.norm>
0

>  <SCORE.SYSTEM>
0

>  <SCORE.SYSTEM.CONST>
0

>  <SCORE.SYSTEM.DIHEDRAL>
0

>  <SCORE.SYSTEM.SOLV>
0

>  <SCORE.SYSTEM.norm>
0

>  <SCORE.heavy>
17

>  <SCORE.norm>
-0.914029

>  <RMSD>
3.646

$$$$
ligand
 OpenBabel11021811503D
libRbt.so/2013.1/901 2013/11/27
 17 18  0  0  0  0  0  0  0  0999 V2000
    0.8941    8.2164   25.0435 N   0  0  0  0  0  0  0  0  0  0  0  0
    1.6989    9.2031   24.4600 C   0  0  0  0  0  0  0  0  0  0  0  0
    2.6163    9.9454   25.2753 N   0  0  0  0  0  0  0  0  0  0  0  0
    1.6370    9.4748   23.1103 N   0  0  0  0  0  0  0  0  0  0  0  0
    0.7724    8.7854   22.2856 C   0  0  0  0  0  0  0  0  0  0  0  0
   -0.0775    7.7713   22.8282 C   0  0  0  0  0  0  0  0  0  0  0  0
    0.7307    9.0401   21.0969 O   0  0  0  0  0  0  0  0  0  0  0  0
   -1.0096    7.0233   21.9883 N   0  0  0  0  0  0  0  0  0  0  0  0
   -1.6906    5.8994   22.5244 C   0  0  2  0  0  0  0  0  0  0  0  0
   -1.9392    5.9953   24.0534 C   0  0  0  0  0  0  0  0  0  0  0  0
    0.0061    7.5011   24.2274 C   0  0  0  0  0  0  0  0  0  0  0  0
   -0.8582    6.4576   24.8094 N   0  0  0  0  0  0  0  0  0  0  0  0
   -0.9343    4.6499   22.1118 C   0  0  1  0  0  0  0  0  0  0  0  0
   -1.0922    4.4105   20.7612 O   0  0  0  0  0  0  0  0  0  0  0  0
    0.5195    4.7837   22.4540 C   0  0  1  0  0  0  0  0  0  0  0  0
    0.7029    4.7057   23.7796 O   0  0  0  0  0  0  0  0  0  0  0  0
    1.3532    3.6691   21.7870 C   0  0  0  0  0  0  0  0  0  0  0  0
  1  2  2  0  0  0  0
  1 11  1  0  0  0  0
  2  3  1  0  0  0  0
  2  4  1  0  0  0  0
  4  5  1  0  0  0  0
  5  6  1  0  0  0  0
  5  7  2  0  0  0  0
  6  8  1  0  0  0  0
  6 11  2  0  0  0  0
  9  8  1  1  0  0  0
  9 10  1  0  0  0  0
  9 13  1  0  0  0  0
 10 12  1  0  0  0  0
 11 12  1  0  0  0  0
 13 14  1  6  0  0  0
 13 15  1  0  0  0  0
 15 16  1  1  0  0  0
 15 17  1  0  0  0  0
M  END
>  <CHROM.1>
-71.22881686,71.69368695,0.19624035,6.85236755,23.05432610,0.19953003,1.18037849
1.75069843

>  <Name>
ligand

>  <RI>
0

>  <Rbt.Current_Directory>
/home/itssahil/PROJECTS/Mol_Feturizer/New_Systems/rnas/4LVX

>  <Rbt.Executable>
rbdock ($Id: //depot/dev/client3/rdock/2013.1/src/exe/rbdock.cxx#4 $)

>  <Rbt.Library>
libRbt.so (2013.1, Build901 2013/11/27)

>  <Rbt.Parameter_File>
/export/apps/rDock/src/rDock_2013.1_src/data/scripts/dock_solv.prm

>  <Rbt.Receptor>
prm/pocket_docking_4.prm

>  <SCORE>
-15.5333

>  <SCORE.INTER>
-10.0247

>  <SCORE.INTER.CONST>
1

>  <SCORE.INTER.POLAR>
0

>  <SCORE.INTER.ROT>
2

>  <SCORE.INTER.SOLV>
15.9351

>  <SCORE.INTER.VDW>
-16.9282

>  <SCORE.INTER.norm>
-0.58969

>  <SCORE.INTRA>
-5.50853

>  <SCORE.INTRA.DIHEDRAL>
-9.26593

>  <SCORE.INTRA.DIHEDRAL.0>
10.3255

>  <SCORE.INTRA.POLAR>
0

>  <SCORE.INTRA.POLAR.0>
0

>  <SCORE.INTRA.REPUL>
0

>  <SCORE.INTRA.REPUL.0>
0

>  <SCORE.INTRA.SOLV>
1.47847

>  <SCORE.INTRA.SOLV.lig_0>
-53.4755

>  <SCORE.INTRA.VDW>
-1.6148

>  <SCORE.INTRA.VDW.0>
2.32763

>  <SCORE.INTRA.norm>
-0.324031

>  <SCORE.RESTR>
0

>  <SCORE.RESTR.CAVITY>
0

>  <SCORE.RESTR.norm>
0

>  <SCORE.SYSTEM>
0

>  <SCORE.SYSTEM.CONST>
0

>  <SCORE.SYSTEM.DIHEDRAL>
0

>  <SCORE.SYSTEM.SOLV>
0

>  <SCORE.SYSTEM.norm>
0

>  <SCORE.heavy>
17

>  <SCORE.norm>
-0.913722

>  <RMSD>
3.653

$$$$
ligand
 OpenBabel11021811503D
libRbt.so/2013.1/901 2013/11/27
 17 18  0  0  0  0  0  0  0  0999 V2000
    0.9046    8.2375   25.0062 N   0  0  0  0  0  0  0  0  0  0  0  0
    1.6871    9.2336   24.4084 C   0  0  0  0  0  0  0  0  0  0  0  0
    2.6065    9.9902   25.2081 N   0  0  0  0  0  0  0  0  0  0  0  0
    1.6011    9.5011   23.0592 N   0  0  0  0  0  0  0  0  0  0  0  0
    0.7337    8.7981   22.2491 C   0  0  0  0  0  0  0  0  0  0  0  0
   -0.0941    7.7739   22.8068 C   0  0  0  0  0  0  0  0  0  0  0  0
    0.6706    9.0492   21.0607 O   0  0  0  0  0  0  0  0  0  0  0  0
   -1.0285    7.0112   21.9827 N   0  0  0  0  0  0  0  0  0  0  0  0
   -1.6861    5.8796   22.5316 C   0  0  2  0  0  0  0  0  0  0  0  0
   -1.9130    5.9758   24.0639 C   0  0  0  0  0  0  0  0  0  0  0  0
    0.0142    7.5082   24.2052 C   0  0  0  0  0  0  0  0  0  0  0  0
   -0.8270    6.4546   24.8025 N   0  0  0  0  0  0  0  0  0  0  0  0
   -0.9192    4.6395   22.1104 C   0  0  1  0  0  0  0  0  0  0  0  0
   -1.0640    4.4157   20.7556 O   0  0  0  0  0  0  0  0  0  0  0  0
    0.5308    4.7770   22.4670 C   0  0  1  0  0  0  0  0  0  0  0  0
    0.7007    4.7045   23.7947 O   0  0  0  0  0  0  0  0  0  0  0  0
    1.3731    3.6613   21.8128 C   0  0  0  0  0  0  0  0  0  0  0  0
  1  2  2  0  0  0  0
  1 11  1  0  0  0  0
  2  3  1  0  0  0  0
  2  4  1  0  0  0  0
  4  5  1  0  0  0  0
  5  6  1  0  0  0  0
  5  7  2  0  0  0  0
  6  8  1  0  0  0  0
  6 11  2  0  0  0  0
  9  8  1  1  0  0  0
  9 10  1  0  0  0  0
  9 13  1  0  0  0  0
 10 12  1  0  0  0  0
 11 12  1  0  0  0  0
 13 14  1  6  0  0  0
 13 15  1  0  0  0  0
 15 16  1  1  0  0  0
 15 17  1  0  0  0  0
M  END
>  <CHROM.1>
-69.56599635,70.74074362,0.19408350,6.85686271,23.03903255,0.08317132,1.19459836
1.86031101

>  <Name>
ligand

>  <RI>
0

>  <Rbt.Current_Directory>
/home/itssahil/PROJECTS/Mol_Feturizer/New_Systems/rnas/4LVX

>  <Rbt.Executable>
rbdock ($Id: //depot/dev/client3/rdock/2013.1/src/exe/rbdock.cxx#4 $)

>  <Rbt.Library>
libRbt.so (2013.1, Build901 2013/11/27)

>  <Rbt.Parameter_File>
/export/apps/rDock/src/rDock_2013.1_src/data/scripts/dock_solv.prm

>  <Rbt.Receptor>
prm/pocket_docking_6.prm

>  <SCORE>
-15.5343

>  <SCORE.INTER>
-10.0309

>  <SCORE.INTER.CONST>
1

>  <SCORE.INTER.POLAR>
0

>  <SCORE.INTER.ROT>
2

>  <SCORE.INTER.SOLV>
16.0436

>  <SCORE.INTER.VDW>
-16.9685

>  <SCORE.INTER.norm>
-0.590054

>  <SCORE.INTRA>
-5.50339

>  <SCORE.INTRA.DIHEDRAL>
-9.45545

>  <SCORE.INTRA.DIHEDRAL.0>
10.3255

>  <SCORE.INTRA.POLAR>
0

>  <SCORE.INTRA.POLAR.0>
0

>  <SCORE.INTRA.REPUL>
0

>  <SCORE.INTRA.REPUL.0>
0

>  <SCORE.INTRA.SOLV>
1.49888

>  <SCORE.INTRA.SOLV.lig_0>
-53.4755

>  <SCORE.INTRA.VDW>
-1.52511

>  <SCORE.INTRA.VDW.0>
2.32763

>  <SCORE.INTRA.norm>
-0.323729

>  <SCORE.RESTR>
0

>  <SCORE.RESTR.CAVITY>
0

>  <SCORE.RESTR.norm>
0

>  <SCORE.SYSTEM>
0

>  <SCORE.SYSTEM.CONST>
0

>  <SCORE.SYSTEM.DIHEDRAL>
0

>  <SCORE.SYSTEM.SOLV>
0

>  <SCORE.SYSTEM.norm>
0

>  <SCORE.heavy>
17

>  <SCORE.norm>
-0.913783

>  <RMSD>
3.662

$$$$
ligand
 OpenBabel11021811503D
libRbt.so/2013.1/901 2013/11/27
 17 18  0  0  0  0  0  0  0  0999 V2000
    2.3235    4.6574   24.6814 N   0  0  0  0  0  0  0  0  0  0  0  0
    2.9947    5.4631   25.6100 C   0  0  0  0  0  0  0  0  0  0  0  0
    4.1238    4.9376   26.3214 N   0  0  0  0  0  0  0  0  0  0  0  0
    2.5994    6.7609   25.8529 N   0  0  0  0  0  0  0  0  0  0  0  0
    1.5211    7.3109   25.1912 C   0  0  0  0  0  0  0  0  0  0  0  0
    0.7947    6.5321   24.2368 C   0  0  0  0  0  0  0  0  0  0  0  0
    1.1861    8.4577   25.4198 O   0  0  0  0  0  0  0  0  0  0  0  0
   -0.3553    7.0774   23.5199 N   0  0  0  0  0  0  0  0  0  0  0  0
   -0.9254    6.3442   22.4468 C   0  0  2  0  0  0  0  0  0  0  0  0
   -0.7671    4.8071   22.5916 C   0  0  0  0  0  0  0  0  0  0  0  0
    1.2236    5.1922   23.9954 C   0  0  0  0  0  0  0  0  0  0  0  0
    0.4921    4.3706   23.0134 N   0  0  0  0  0  0  0  0  0  0  0  0
   -0.3585    6.8911   21.1495 C   0  0  1  0  0  0  0  0  0  0  0  0
   -0.7504    6.1098   20.0806 O   0  0  0  0  0  0  0  0  0  0  0  0
   -0.7943    8.3117   20.9481 C   0  0  1  0  0  0  0  0  0  0  0  0
   -0.3035    9.0991   21.9156 O   0  0  0  0  0  0  0  0  0  0  0  0
   -0.3043    8.8570   19.5898 C   0  0  0  0  0  0  0  0  0  0  0  0
  1  2  2  0  0  0  0
  1 11  1  0  0  0  0
  2  3  1  0  0  0  0
  2  4  1  0  0  0  0
  4  5  1  0  0  0  0
  5  6  1  0  0  0  0
  5  7  2  0  0  0  0
  6  8  1  0  0  0  0
  6 11  2  0  0  0  0
  9  8  1  1  0  0  0
  9 10  1  0  0  0  0
  9 13  1  0  0  0  0
 10 12  1  0  0  0  0
 11 12  1  0  0  0  0
 13 14  1  6  0  0  0
 13 15  1  0  0  0  0
 15 16  1  1  0  0  0
 15 17  1  0  0  0  0
M  END
>  <CHROM.1>
172.63530507,63.51024837,0.71238180,6.59048464,23.26315525,0.22835452,0.98359895
-3.03738441

>  <Name>
ligand

>  <RI>
0

>  <Rbt.Current_Directory>
/home/itssahil/PROJECTS/Mol_Feturizer/New_Systems/rnas/4LVX

>  <Rbt.Executable>
rbdock ($Id: //depot/dev/client3/rdock/2013.1/src/exe/rbdock.cxx#4 $)

>  <Rbt.Library>
libRbt.so (2013.1, Build901 2013/11/27)

>  <Rbt.Parameter_File>
/export/apps/rDock/src/rDock_2013.1_src/data/scripts/dock_solv.prm

>  <Rbt.Receptor>
prm/pocket_docking_8.prm

>  <SCORE>
-12.7236

>  <SCORE.INTER>
-5.98353

>  <SCORE.INTER.CONST>
1

>  <SCORE.INTER.POLAR>
0

>  <SCORE.INTER.ROT>
2

>  <SCORE.INTER.SOLV>
12.0761

>  <SCORE.INTER.VDW>
-12.9477

>  <SCORE.INTER.norm>
-0.351972

>  <SCORE.INTRA>
-6.74003

>  <SCORE.INTRA.DIHEDRAL>
-9.94062

>  <SCORE.INTRA.DIHEDRAL.0>
10.3255

>  <SCORE.INTRA.POLAR>
0

>  <SCORE.INTRA.POLAR.0>
0

>  <SCORE.INTRA.REPUL>
0

>  <SCORE.INTRA.REPUL.0>
0

>  <SCORE.INTRA.SOLV>
-0.0234517

>  <SCORE.INTRA.SOLV.lig_0>
-53.4755

>  <SCORE.INTRA.VDW>
-1.75799

>  <SCORE.INTRA.VDW.0>
2.32763

>  <SCORE.INTRA.norm>
-0.396472

>  <SCORE.RESTR>
0

>  <SCORE.RESTR.CAVITY>
0

>  <SCORE.RESTR.norm>
0

>  <SCORE.SYSTEM>
0

>  <SCORE.SYSTEM.CONST>
0

>  <SCORE.SYSTEM.DIHEDRAL>
0

>  <SCORE.SYSTEM.SOLV>
0

>  <SCORE.SYSTEM.norm>
0

>  <SCORE.heavy>
17

>  <SCORE.norm>
-0.748444

>  <RMSD>
4.015

$$$$
ligand
 OpenBabel11021811503D
libRbt.so/2013.1/901 2013/11/27
 17 18  0  0  0  0  0  0  0  0999 V2000
    1.4346    8.8326   25.3423 N   0  0  0  0  0  0  0  0  0  0  0  0
    2.3472    9.6571   24.6719 C   0  0  0  0  0  0  0  0  0  0  0  0
    3.3427   10.3697   25.4192 N   0  0  0  0  0  0  0  0  0  0  0  0
    2.3175    9.7951   23.3010 N   0  0  0  0  0  0  0  0  0  0  0  0
    1.3805    9.1279   22.5397 C   0  0  0  0  0  0  0  0  0  0  0  0
    0.4201    8.2773   23.1716 C   0  0  0  0  0  0  0  0  0  0  0  0
    1.3689    9.2632   21.3309 O   0  0  0  0  0  0  0  0  0  0  0  0
   -0.5907    7.5582   22.4003 N   0  0  0  0  0  0  0  0  0  0  0  0
   -1.3959    6.5794   23.0389 C   0  0  2  0  0  0  0  0  0  0  0  0
   -1.6330    6.8580   24.5472 C   0  0  0  0  0  0  0  0  0  0  0  0
    0.4714    8.1433   24.5919 C   0  0  0  0  0  0  0  0  0  0  0  0
   -0.5067    7.2694   25.2658 N   0  0  0  0  0  0  0  0  0  0  0  0
   -0.7868    5.2166   22.7641 C   0  0  1  0  0  0  0  0  0  0  0  0
   -1.4860    4.2291   23.4291 O   0  0  0  0  0  0  0  0  0  0  0  0
   -0.7664    4.9426   21.2900 C   0  0  1  0  0  0  0  0  0  0  0  0
   -0.0214    5.8543   20.6492 O   0  0  0  0  0  0  0  0  0  0  0  0
   -0.1794    3.5465   20.9915 C   0  0  0  0  0  0  0  0  0  0  0  0
  1  2  2  0  0  0  0
  1 11  1  0  0  0  0
  2  3  1  0  0  0  0
  2  4  1  0  0  0  0
  4  5  1  0  0  0  0
  5  6  1  0  0  0  0
  5  7  2  0  0  0  0
  6  8  1  0  0  0  0
  6 11  2  0  0  0  0
  9  8  1  1  0  0  0
  9 10  1  0  0  0  0
  9 13  1  0  0  0  0
 10 12  1  0  0  0  0
 11 12  1  0  0  0  0
 13 14  1  1  0  0  0
 13 15  1  0  0  0  0
 15 16  1  6  0  0  0
 15 17  1  0  0  0  0
M  END
>  <CHROM.1>
176.45088283,61.10569126,0.31287870,7.31729546,23.16740311,0.68834504,0.89081634
1.20620032

>  <Name>
ligand

>  <RI>
0

>  <Rbt.Current_Directory>
/home/itssahil/PROJECTS/Mol_Feturizer/New_Systems/rnas/4LVX

>  <Rbt.Executable>
rbdock ($Id: //depot/dev/client3/rdock/2013.1/src/exe/rbdock.cxx#4 $)

>  <Rbt.Library>
libRbt.so (2013.1, Build901 2013/11/27)

>  <Rbt.Parameter_File>
/export/apps/rDock/src/rDock_2013.1_src/data/scripts/dock_solv.prm

>  <Rbt.Receptor>
prm/pocket_docking_7.prm

>  <SCORE>
-16.7886

>  <SCORE.INTER>
-10.1004

>  <SCORE.INTER.CONST>
1

>  <SCORE.INTER.POLAR>
0

>  <SCORE.INTER.ROT>
2

>  <SCORE.INTER.SOLV>
14.9484

>  <SCORE.INTER.VDW>
-16.6498

>  <SCORE.INTER.norm>
-0.594143

>  <SCORE.INTRA>
-6.68817

>  <SCORE.INTRA.DIHEDRAL>
-10.1242

>  <SCORE.INTRA.DIHEDRAL.0>
10.3255

>  <SCORE.INTRA.POLAR>
0

>  <SCORE.INTRA.POLAR.0>
0

>  <SCORE.INTRA.REPUL>
0

>  <SCORE.INTRA.REPUL.0>
0

>  <SCORE.INTRA.SOLV>
0.0523644

>  <SCORE.INTRA.SOLV.lig_0>
-53.4755

>  <SCORE.INTRA.VDW>
-1.65225

>  <SCORE.INTRA.VDW.0>
2.32763

>  <SCORE.INTRA.norm>
-0.393422

>  <SCORE.RESTR>
0

>  <SCORE.RESTR.CAVITY>
0

>  <SCORE.RESTR.norm>
0

>  <SCORE.SYSTEM>
0

>  <SCORE.SYSTEM.CONST>
0

>  <SCORE.SYSTEM.DIHEDRAL>
0

>  <SCORE.SYSTEM.SOLV>
0

>  <SCORE.SYSTEM.norm>
0

>  <SCORE.heavy>
17

>  <SCORE.norm>
-0.987565

>  <RMSD>
4.149

$$$$
ligand
 OpenBabel11021811503D
libRbt.so/2013.1/901 2013/11/27
 17 18  0  0  0  0  0  0  0  0999 V2000
    1.4377    8.8365   25.3455 N   0  0  0  0  0  0  0  0  0  0  0  0
    2.3460    9.6654   24.6747 C   0  0  0  0  0  0  0  0  0  0  0  0
    3.3442   10.3756   25.4207 N   0  0  0  0  0  0  0  0  0  0  0  0
    2.3096    9.8101   23.3047 N   0  0  0  0  0  0  0  0  0  0  0  0
    1.3698    9.1454   22.5446 C   0  0  0  0  0  0  0  0  0  0  0  0
    0.4134    8.2905   23.1770 C   0  0  0  0  0  0  0  0  0  0  0  0
    1.3522    9.2866   21.3366 O   0  0  0  0  0  0  0  0  0  0  0  0
   -0.6001    7.5739   22.4069 N   0  0  0  0  0  0  0  0  0  0  0  0
   -1.4010    6.5910   23.0447 C   0  0  2  0  0  0  0  0  0  0  0  0
   -1.6312    6.8619   24.5554 C   0  0  0  0  0  0  0  0  0  0  0  0
    0.4717    8.1496   24.5963 C   0  0  0  0  0  0  0  0  0  0  0  0
   -0.5020    7.2712   25.2706 N   0  0  0  0  0  0  0  0  0  0  0  0
   -0.7915    5.2303   22.7602 C   0  0  1  0  0  0  0  0  0  0  0  0
   -1.5014    4.2361   23.4036 O   0  0  0  0  0  0  0  0  0  0  0  0
   -0.7529    4.9750   21.2831 C   0  0  1  0  0  0  0  0  0  0  0  0
    0.0186    5.8810   20.6661 O   0  0  0  0  0  0  0  0  0  0  0  0
   -0.1870    3.5723   20.9754 C   0  0  0  0  0  0  0  0  0  0  0  0
  1  2  2  0  0  0  0
  1 11  1  0  0  0  0
  2  3  1  0  0  0  0
  2  4  1  0  0  0  0
  4  5  1  0  0  0  0
  5  6  1  0  0  0  0
  5  7  2  0  0  0  0
  6  8  1  0  0  0  0
  6 11  2  0  0  0  0
  9  8  1  1  0  0  0
  9 10  1  0  0  0  0
  9 13  1  0  0  0  0
 10 12  1  0  0  0  0
 11 12  1  0  0  0  0
 13 14  1  1  0  0  0
 13 15  1  0  0  0  0
 15 16  1  6  0  0  0
 15 17  1  0  0  0  0
M  END
>  <CHROM.1>
177.57085852,62.04127527,0.31180620,7.33115415,23.16845693,0.68859618,0.89046449
1.20711605

>  <Name>
ligand

>  <RI>
0

>  <Rbt.Current_Directory>
/home/itssahil/PROJECTS/Mol_Feturizer/New_Systems/rnas/4LVX

>  <Rbt.Executable>
rbdock ($Id: //depot/dev/client3/rdock/2013.1/src/exe/rbdock.cxx#4 $)

>  <Rbt.Library>
libRbt.so (2013.1, Build901 2013/11/27)

>  <Rbt.Parameter_File>
/export/apps/rDock/src/rDock_2013.1_src/data/scripts/dock_solv.prm

>  <Rbt.Receptor>
prm/pocket_docking_6.prm

>  <SCORE>
-16.7454

>  <SCORE.INTER>
-10.0763

>  <SCORE.INTER.CONST>
1

>  <SCORE.INTER.POLAR>
0

>  <SCORE.INTER.ROT>
2

>  <SCORE.INTER.SOLV>
14.961

>  <SCORE.INTER.VDW>
-16.6379

>  <SCORE.INTER.norm>
-0.592725

>  <SCORE.INTRA>
-6.66908

>  <SCORE.INTRA.DIHEDRAL>
-10.1392

>  <SCORE.INTRA.DIHEDRAL.0>
10.3255

>  <SCORE.INTRA.POLAR>
0

>  <SCORE.INTRA.POLAR.0>
0

>  <SCORE.INTRA.REPUL>
0

>  <SCORE.INTRA.REPUL.0>
0

>  <SCORE.INTRA.SOLV>
0.0575757

>  <SCORE.INTRA.SOLV.lig_0>
-53.4755

>  <SCORE.INTRA.VDW>
-1.62827

>  <SCORE.INTRA.VDW.0>
2.32763

>  <SCORE.INTRA.norm>
-0.392299

>  <SCORE.RESTR>
0

>  <SCORE.RESTR.CAVITY>
0

>  <SCORE.RESTR.norm>
0

>  <SCORE.SYSTEM>
0

>  <SCORE.SYSTEM.CONST>
0

>  <SCORE.SYSTEM.DIHEDRAL>
0

>  <SCORE.SYSTEM.SOLV>
0

>  <SCORE.SYSTEM.norm>
0

>  <SCORE.heavy>
17

>  <SCORE.norm>
-0.985024

>  <RMSD>
4.150

$$$$
ligand
 OpenBabel11021811503D
libRbt.so/2013.1/901 2013/11/27
 17 18  0  0  0  0  0  0  0  0999 V2000
    1.4362    8.8341   25.3520 N   0  0  0  0  0  0  0  0  0  0  0  0
    2.3483    9.6611   24.6839 C   0  0  0  0  0  0  0  0  0  0  0  0
    3.3471   10.3676   25.4326 N   0  0  0  0  0  0  0  0  0  0  0  0
    2.3150    9.8074   23.3140 N   0  0  0  0  0  0  0  0  0  0  0  0
    1.3748    9.1462   22.5513 C   0  0  0  0  0  0  0  0  0  0  0  0
    0.4147    8.2934   23.1808 C   0  0  0  0  0  0  0  0  0  0  0  0
    1.3600    9.2887   21.3434 O   0  0  0  0  0  0  0  0  0  0  0  0
   -0.5994    7.5806   22.4080 N   0  0  0  0  0  0  0  0  0  0  0  0
   -1.4045    6.5993   23.0431 C   0  0  2  0  0  0  0  0  0  0  0  0
   -1.6369    6.8694   24.5537 C   0  0  0  0  0  0  0  0  0  0  0  0
    0.4697    8.1509   24.6001 C   0  0  0  0  0  0  0  0  0  0  0  0
   -0.5079    7.2746   25.2715 N   0  0  0  0  0  0  0  0  0  0  0  0
   -0.7984    5.2373   22.7584 C   0  0  1  0  0  0  0  0  0  0  0  0
   -1.4937    4.2475   23.4243 O   0  0  0  0  0  0  0  0  0  0  0  0
   -0.7885    4.9692   21.2831 C   0  0  1  0  0  0  0  0  0  0  0  0
   -0.0513    5.8859   20.6403 O   0  0  0  0  0  0  0  0  0  0  0  0
   -0.1996    3.5762   20.9745 C   0  0  0  0  0  0  0  0  0  0  0  0
  1  2  2  0  0  0  0
  1 11  1  0  0  0  0
  2  3  1  0  0  0  0
  2  4  1  0  0  0  0
  4  5  1  0  0  0  0
  5  6  1  0  0  0  0
  5  7  2  0  0  0  0
  6  8  1  0  0  0  0
  6 11  2  0  0  0  0
  9  8  1  1  0  0  0
  9 10  1  0  0  0  0
  9 13  1  0  0  0  0
 10 12  1  0  0  0  0
 11 12  1  0  0  0  0
 13 14  1  1  0  0  0
 13 15  1  0  0  0  0
 15 16  1  6  0  0  0
 15 17  1  0  0  0  0
M  END
>  <CHROM.1>
176.18200177,60.87837052,0.30482066,7.33348756,23.17122184,0.68165810,0.89100869
1.21827366

>  <Name>
ligand

>  <RI>
0

>  <Rbt.Current_Directory>
/home/itssahil/PROJECTS/Mol_Feturizer/New_Systems/rnas/4LVX

>  <Rbt.Executable>
rbdock ($Id: //depot/dev/client3/rdock/2013.1/src/exe/rbdock.cxx#4 $)

>  <Rbt.Library>
libRbt.so (2013.1, Build901 2013/11/27)

>  <Rbt.Parameter_File>
/export/apps/rDock/src/rDock_2013.1_src/data/scripts/dock_solv.prm

>  <Rbt.Receptor>
prm/pocket_docking_6.prm

>  <SCORE>
-16.7841

>  <SCORE.INTER>
-10.0927

>  <SCORE.INTER.CONST>
1

>  <SCORE.INTER.POLAR>
0

>  <SCORE.INTER.ROT>
2

>  <SCORE.INTER.SOLV>
15.0723

>  <SCORE.INTER.VDW>
-16.6859

>  <SCORE.INTER.norm>
-0.593687

>  <SCORE.INTRA>
-6.69146

>  <SCORE.INTRA.DIHEDRAL>
-10.1184

>  <SCORE.INTRA.DIHEDRAL.0>
10.3255

>  <SCORE.INTRA.POLAR>
0

>  <SCORE.INTRA.POLAR.0>
0

>  <SCORE.INTRA.REPUL>
0

>  <SCORE.INTRA.REPUL.0>
0

>  <SCORE.INTRA.SOLV>
0.0510465

>  <SCORE.INTRA.SOLV.lig_0>
-53.4755

>  <SCORE.INTRA.VDW>
-1.6578

>  <SCORE.INTRA.VDW.0>
2.32763

>  <SCORE.INTRA.norm>
-0.393615

>  <SCORE.RESTR>
0

>  <SCORE.RESTR.CAVITY>
0

>  <SCORE.RESTR.norm>
0

>  <SCORE.SYSTEM>
0

>  <SCORE.SYSTEM.CONST>
0

>  <SCORE.SYSTEM.DIHEDRAL>
0

>  <SCORE.SYSTEM.SOLV>
0

>  <SCORE.SYSTEM.norm>
0

>  <SCORE.heavy>
17

>  <SCORE.norm>
-0.987302

>  <RMSD>
4.156

$$$$
ligand
 OpenBabel11021811503D
libRbt.so/2013.1/901 2013/11/27
 17 18  0  0  0  0  0  0  0  0999 V2000
    1.4485    8.8543   25.3259 N   0  0  0  0  0  0  0  0  0  0  0  0
    2.3474    9.6876   24.6478 C   0  0  0  0  0  0  0  0  0  0  0  0
    3.3470   10.4039   25.3859 N   0  0  0  0  0  0  0  0  0  0  0  0
    2.3002    9.8309   23.2780 N   0  0  0  0  0  0  0  0  0  0  0  0
    1.3585    9.1603   22.5253 C   0  0  0  0  0  0  0  0  0  0  0  0
    0.4115    8.3008   23.1653 C   0  0  0  0  0  0  0  0  0  0  0  0
    1.3313    9.3004   21.3173 O   0  0  0  0  0  0  0  0  0  0  0  0
   -0.6037    7.5779   22.4033 N   0  0  0  0  0  0  0  0  0  0  0  0
   -1.3945    6.5912   23.0477 C   0  0  2  0  0  0  0  0  0  0  0  0
   -1.6152    6.8622   24.5598 C   0  0  0  0  0  0  0  0  0  0  0  0
    0.4809    8.1614   24.5843 C   0  0  0  0  0  0  0  0  0  0  0  0
   -0.4831    7.2783   25.2664 N   0  0  0  0  0  0  0  0  0  0  0  0
   -0.7796    5.2337   22.7599 C   0  0  1  0  0  0  0  0  0  0  0  0
   -1.4674    4.2382   23.4250 O   0  0  0  0  0  0  0  0  0  0  0  0
   -0.7698    4.9682   21.2841 C   0  0  1  0  0  0  0  0  0  0  0  0
   -0.0282    5.8828   20.6435 O   0  0  0  0  0  0  0  0  0  0  0  0
   -0.1867    3.5732   20.9735 C   0  0  0  0  0  0  0  0  0  0  0  0
  1  2  2  0  0  0  0
  1 11  1  0  0  0  0
  2  3  1  0  0  0  0
  2  4  1  0  0  0  0
  4  5  1  0  0  0  0
  5  6  1  0  0  0  0
  5  7  2  0  0  0  0
  6  8  1  0  0  0  0
  6 11  2  0  0  0  0
  9  8  1  1  0  0  0
  9 10  1  0  0  0  0
  9 13  1  0  0  0  0
 10 12  1  0  0  0  0
 11 12  1  0  0  0  0
 13 14  1  1  0  0  0
 13 15  1  0  0  0  0
 15 16  1  6  0  0  0
 15 17  1  0  0  0  0
M  END
>  <CHROM.1>
176.69228578,61.52313755,0.31160328,7.33994529,23.15850859,0.67558745,0.90064357
1.21922456

>  <Name>
ligand

>  <RI>
0

>  <Rbt.Current_Directory>
/home/itssahil/PROJECTS/Mol_Feturizer/New_Systems/rnas/4LVX

>  <Rbt.Executable>
rbdock ($Id: //depot/dev/client3/rdock/2013.1/src/exe/rbdock.cxx#4 $)

>  <Rbt.Library>
libRbt.so (2013.1, Build901 2013/11/27)

>  <Rbt.Parameter_File>
/export/apps/rDock/src/rDock_2013.1_src/data/scripts/dock_solv.prm

>  <Rbt.Receptor>
prm/pocket_docking_7.prm

>  <SCORE>
-16.7433

>  <SCORE.INTER>
-10.0548

>  <SCORE.INTER.CONST>
1

>  <SCORE.INTER.POLAR>
0

>  <SCORE.INTER.ROT>
2

>  <SCORE.INTER.SOLV>
14.9841

>  <SCORE.INTER.VDW>
-16.6312

>  <SCORE.INTER.norm>
-0.591461

>  <SCORE.INTRA>
-6.68849

>  <SCORE.INTRA.DIHEDRAL>
-10.1268

>  <SCORE.INTRA.DIHEDRAL.0>
10.3255

>  <SCORE.INTRA.POLAR>
0

>  <SCORE.INTRA.POLAR.0>
0

>  <SCORE.INTRA.REPUL>
0

>  <SCORE.INTRA.REPUL.0>
0

>  <SCORE.INTRA.SOLV>
0.0513692

>  <SCORE.INTRA.SOLV.lig_0>
-53.4755

>  <SCORE.INTRA.VDW>
-1.65076

>  <SCORE.INTRA.VDW.0>
2.32763

>  <SCORE.INTRA.norm>
-0.393441

>  <SCORE.RESTR>
0

>  <SCORE.RESTR.CAVITY>
0

>  <SCORE.RESTR.norm>
0

>  <SCORE.SYSTEM>
0

>  <SCORE.SYSTEM.CONST>
0

>  <SCORE.SYSTEM.DIHEDRAL>
0

>  <SCORE.SYSTEM.SOLV>
0

>  <SCORE.SYSTEM.norm>
0

>  <SCORE.heavy>
17

>  <SCORE.norm>
-0.984902

>  <RMSD>
4.160

$$$$
ligand
 OpenBabel11021811503D
libRbt.so/2013.1/901 2013/11/27
 17 18  0  0  0  0  0  0  0  0999 V2000
    1.4514    8.8690   25.3290 N   0  0  0  0  0  0  0  0  0  0  0  0
    2.3634    9.6914   24.6550 C   0  0  0  0  0  0  0  0  0  0  0  0
    3.3610   10.4046   25.3988 N   0  0  0  0  0  0  0  0  0  0  0  0
    2.3310    9.8267   23.2839 N   0  0  0  0  0  0  0  0  0  0  0  0
    1.3918    9.1586   22.5258 C   0  0  0  0  0  0  0  0  0  0  0  0
    0.4320    8.3102   23.1615 C   0  0  0  0  0  0  0  0  0  0  0  0
    1.3779    9.2915   21.3169 O   0  0  0  0  0  0  0  0  0  0  0  0
   -0.5810    7.5904   22.3936 N   0  0  0  0  0  0  0  0  0  0  0  0
   -1.3857    6.6135   23.0359 C   0  0  2  0  0  0  0  0  0  0  0  0
   -1.6194    6.8955   24.5441 C   0  0  0  0  0  0  0  0  0  0  0  0
    0.4861    8.1790   24.5819 C   0  0  0  0  0  0  0  0  0  0  0  0
   -0.4914    7.3073   25.2595 N   0  0  0  0  0  0  0  0  0  0  0  0
   -0.7783    5.2497   22.7626 C   0  0  1  0  0  0  0  0  0  0  0  0
   -1.4805    4.2634   23.4264 O   0  0  0  0  0  0  0  0  0  0  0  0
   -0.7554    4.9753   21.2886 C   0  0  1  0  0  0  0  0  0  0  0  0
   -0.0054    5.8841   20.6494 O   0  0  0  0  0  0  0  0  0  0  0  0
   -0.1731    3.5770   20.9918 C   0  0  0  0  0  0  0  0  0  0  0  0
  1  2  2  0  0  0  0
  1 11  1  0  0  0  0
  2  3  1  0  0  0  0
  2  4  1  0  0  0  0
  4  5  1  0  0  0  0
  5  6  1  0  0  0  0
  5  7  2  0  0  0  0
  6  8  1  0  0  0  0
  6 11  2  0  0  0  0
  9  8  1  1  0  0  0
  9 10  1  0  0  0  0
  9 13  1  0  0  0  0
 10 12  1  0  0  0  0
 11 12  1  0  0  0  0
 13 14  1  1  0  0  0
 13 15  1  0  0  0  0
 15 16  1  6  0  0  0
 15 17  1  0  0  0  0
M  END
>  <CHROM.1>
176.70790499,61.23126698,0.32500341,7.35055416,23.15935964,0.68631193,0.89002948
1.20495380

>  <Name>
ligand

>  <RI>
0

>  <Rbt.Current_Directory>
/home/itssahil/PROJECTS/Mol_Feturizer/New_Systems/rnas/4LVX

>  <Rbt.Executable>
rbdock ($Id: //depot/dev/client3/rdock/2013.1/src/exe/rbdock.cxx#4 $)

>  <Rbt.Library>
libRbt.so (2013.1, Build901 2013/11/27)

>  <Rbt.Parameter_File>
/export/apps/rDock/src/rDock_2013.1_src/data/scripts/dock_solv.prm

>  <Rbt.Receptor>
prm/pocket_docking_5.prm

>  <SCORE>
-16.7247

>  <SCORE.INTER>
-10.0419

>  <SCORE.INTER.CONST>
1

>  <SCORE.INTER.POLAR>
0

>  <SCORE.INTER.ROT>
2

>  <SCORE.INTER.SOLV>
14.8512

>  <SCORE.INTER.VDW>
-16.5783

>  <SCORE.INTER.norm>
-0.590698

>  <SCORE.INTRA>
-6.68288

>  <SCORE.INTRA.DIHEDRAL>
-10.1297

>  <SCORE.INTRA.DIHEDRAL.0>
10.3255

>  <SCORE.INTRA.POLAR>
0

>  <SCORE.INTRA.POLAR.0>
0

>  <SCORE.INTRA.REPUL>
0

>  <SCORE.INTRA.REPUL.0>
0

>  <SCORE.INTRA.SOLV>
0.0545108

>  <SCORE.INTRA.SOLV.lig_0>
-53.4755

>  <SCORE.INTRA.VDW>
-1.6453

>  <SCORE.INTRA.VDW.0>
2.32763

>  <SCORE.INTRA.norm>
-0.393111

>  <SCORE.RESTR>
0

>  <SCORE.RESTR.CAVITY>
0

>  <SCORE.RESTR.norm>
0

>  <SCORE.SYSTEM>
0

>  <SCORE.SYSTEM.CONST>
0

>  <SCORE.SYSTEM.DIHEDRAL>
0

>  <SCORE.SYSTEM.SOLV>
0

>  <SCORE.SYSTEM.norm>
0

>  <SCORE.heavy>
17

>  <SCORE.norm>
-0.983809

>  <RMSD>
4.164

$$$$
ligand
 OpenBabel11021811503D
libRbt.so/2013.1/901 2013/11/27
 17 18  0  0  0  0  0  0  0  0999 V2000
    1.4387    8.8389   25.3265 N   0  0  0  0  0  0  0  0  0  0  0  0
    2.3308    9.6756   24.6437 C   0  0  0  0  0  0  0  0  0  0  0  0
    3.3378   10.3881   25.3754 N   0  0  0  0  0  0  0  0  0  0  0  0
    2.2700    9.8257   23.2751 N   0  0  0  0  0  0  0  0  0  0  0  0
    1.3207    9.1590   22.5285 C   0  0  0  0  0  0  0  0  0  0  0  0
    0.3801    8.2963   23.1737 C   0  0  0  0  0  0  0  0  0  0  0  0
    1.2816    9.3051   21.3216 O   0  0  0  0  0  0  0  0  0  0  0  0
   -0.6427    7.5773   22.4182 N   0  0  0  0  0  0  0  0  0  0  0  0
   -1.4271    6.5874   23.0655 C   0  0  2  0  0  0  0  0  0  0  0  0
   -1.6327    6.8508   24.5811 C   0  0  0  0  0  0  0  0  0  0  0  0
    0.4636    8.1498   24.5912 C   0  0  0  0  0  0  0  0  0  0  0  0
   -0.4936    7.2633   25.2784 N   0  0  0  0  0  0  0  0  0  0  0  0
   -0.8153    5.2313   22.7648 C   0  0  1  0  0  0  0  0  0  0  0  0
   -1.4984    4.2322   23.4293 O   0  0  0  0  0  0  0  0  0  0  0  0
   -0.8172    4.9746   21.2875 C   0  0  1  0  0  0  0  0  0  0  0  0
   -0.1083    5.9123   20.6431 O   0  0  0  0  0  0  0  0  0  0  0  0
   -0.2012    3.5975   20.9610 C   0  0  0  0  0  0  0  0  0  0  0  0
  1  2  2  0  0  0  0
  1 11  1  0  0  0  0
  2  3  1  0  0  0  0
  2  4  1  0  0  0  0
  4  5  1  0  0  0  0
  5  6  1  0  0  0  0
  5  7  2  0  0  0  0
  6  8  1  0  0  0  0
  6 11  2  0  0  0  0
  9  8  1  1  0  0  0
  9 10  1  0  0  0  0
  9 13  1  0  0  0  0
 10 12  1  0  0  0  0
 11 12  1  0  0  0  0
 13 14  1  1  0  0  0
 13 15  1  0  0  0  0
 15 16  1  6  0  0  0
 15 17  1  0  0  0  0
M  END
>  <CHROM.1>
176.83203764,59.94448055,0.28102900,7.33815099,23.16259154,0.66027434,0.90378135
1.23697769

>  <Name>
ligand

>  <RI>
0

>  <Rbt.Current_Directory>
/home/itssahil/PROJECTS/Mol_Feturizer/New_Systems/rnas/4LVX

>  <Rbt.Executable>
rbdock ($Id: //depot/dev/client3/rdock/2013.1/src/exe/rbdock.cxx#4 $)

>  <Rbt.Library>
libRbt.so (2013.1, Build901 2013/11/27)

>  <Rbt.Parameter_File>
/export/apps/rDock/src/rDock_2013.1_src/data/scripts/dock_solv.prm

>  <Rbt.Receptor>
prm/pocket_docking_8.prm

>  <SCORE>
-16.7791

>  <SCORE.INTER>
-10.1316

>  <SCORE.INTER.CONST>
1

>  <SCORE.INTER.POLAR>
0

>  <SCORE.INTER.ROT>
2

>  <SCORE.INTER.SOLV>
15.2343

>  <SCORE.INTER.VDW>
-16.7658

>  <SCORE.INTER.norm>
-0.595974

>  <SCORE.INTRA>
-6.64751

>  <SCORE.INTRA.DIHEDRAL>
-10.136

>  <SCORE.INTRA.DIHEDRAL.0>
10.3255

>  <SCORE.INTRA.POLAR>
0

>  <SCORE.INTRA.POLAR.0>
0

>  <SCORE.INTRA.REPUL>
0

>  <SCORE.INTRA.REPUL.0>
0

>  <SCORE.INTRA.SOLV>
0.0689129

>  <SCORE.INTRA.SOLV.lig_0>
-53.4755

>  <SCORE.INTRA.VDW>
-1.61398

>  <SCORE.INTRA.VDW.0>
2.32763

>  <SCORE.INTRA.norm>
-0.39103

>  <SCORE.RESTR>
0

>  <SCORE.RESTR.CAVITY>
0

>  <SCORE.RESTR.norm>
0

>  <SCORE.SYSTEM>
0

>  <SCORE.SYSTEM.CONST>
0

>  <SCORE.SYSTEM.DIHEDRAL>
0

>  <SCORE.SYSTEM.SOLV>
0

>  <SCORE.SYSTEM.norm>
0

>  <SCORE.heavy>
17

>  <SCORE.norm>
-0.987004

>  <RMSD>
4.165

$$$$
ligand
 OpenBabel11021811503D
libRbt.so/2013.1/901 2013/11/27
 17 18  0  0  0  0  0  0  0  0999 V2000
    1.4262    8.8293   25.3219 N   0  0  0  0  0  0  0  0  0  0  0  0
    2.3274    9.6559   24.6388 C   0  0  0  0  0  0  0  0  0  0  0  0
    3.3353   10.3662   25.3714 N   0  0  0  0  0  0  0  0  0  0  0  0
    2.2746    9.7982   23.2690 N   0  0  0  0  0  0  0  0  0  0  0  0
    1.3249    9.1333   22.5215 C   0  0  0  0  0  0  0  0  0  0  0  0
    0.3752    8.2807   23.1669 C   0  0  0  0  0  0  0  0  0  0  0  0
    1.2929    9.2724   21.3136 O   0  0  0  0  0  0  0  0  0  0  0  0
   -0.6484    7.5639   22.4104 N   0  0  0  0  0  0  0  0  0  0  0  0
   -1.4427    6.5830   23.0595 C   0  0  2  0  0  0  0  0  0  0  0  0
   -1.6543    6.8570   24.5724 C   0  0  0  0  0  0  0  0  0  0  0  0
    0.4504    8.1422   24.5856 C   0  0  0  0  0  0  0  0  0  0  0  0
   -0.5161    7.2661   25.2732 N   0  0  0  0  0  0  0  0  0  0  0  0
   -0.8383    5.2212   22.7702 C   0  0  1  0  0  0  0  0  0  0  0  0
   -1.5204    4.2325   23.4511 O   0  0  0  0  0  0  0  0  0  0  0  0
   -0.8519    4.9475   21.2959 C   0  0  1  0  0  0  0  0  0  0  0  0
   -0.1192    5.8575   20.6387 O   0  0  0  0  0  0  0  0  0  0  0  0
   -0.2755    3.5500   20.9840 C   0  0  0  0  0  0  0  0  0  0  0  0
  1  2  2  0  0  0  0
  1 11  1  0  0  0  0
  2  3  1  0  0  0  0
  2  4  1  0  0  0  0
  4  5  1  0  0  0  0
  5  6  1  0  0  0  0
  5  7  2  0  0  0  0
  6  8  1  0  0  0  0
  6 11  2  0  0  0  0
  9  8  1  1  0  0  0
  9 10  1  0  0  0  0
  9 13  1  0  0  0  0
 10 12  1  0  0  0  0
 11 12  1  0  0  0  0
 13 14  1  1  0  0  0
 13 15  1  0  0  0  0
 15 16  1  6  0  0  0
 15 17  1  0  0  0  0
M  END
>  <CHROM.1>
176.03589363,61.33967768,0.26622314,7.31951401,23.16171372,0.66090643,0.89774115
1.23171554

>  <Name>
ligand

>  <RI>
0

>  <Rbt.Current_Directory>
/home/itssahil/PROJECTS/Mol_Feturizer/New_Systems/rnas/4LVX

>  <Rbt.Executable>
rbdock ($Id: //depot/dev/client3/rdock/2013.1/src/exe/rbdock.cxx#4 $)

>  <Rbt.Library>
libRbt.so (2013.1, Build901 2013/11/27)

>  <Rbt.Parameter_File>
/export/apps/rDock/src/rDock_2013.1_src/data/scripts/dock_solv.prm

>  <Rbt.Receptor>
prm/pocket_docking_7.prm

>  <SCORE>
-16.7848

>  <SCORE.INTER>
-10.0814

>  <SCORE.INTER.CONST>
1

>  <SCORE.INTER.POLAR>
0

>  <SCORE.INTER.ROT>
2

>  <SCORE.INTER.SOLV>
15.2756

>  <SCORE.INTER.VDW>
-16.7461

>  <SCORE.INTER.norm>
-0.593023

>  <SCORE.INTRA>
-6.70344

>  <SCORE.INTRA.DIHEDRAL>
-10.1113

>  <SCORE.INTRA.DIHEDRAL.0>
10.3255

>  <SCORE.INTRA.POLAR>
0

>  <SCORE.INTRA.POLAR.0>
0

>  <SCORE.INTRA.REPUL>
0

>  <SCORE.INTRA.REPUL.0>
0

>  <SCORE.INTRA.SOLV>
0.044506

>  <SCORE.INTRA.SOLV.lig_0>
-53.4755

>  <SCORE.INTRA.VDW>
-1.67004

>  <SCORE.INTRA.VDW.0>
2.32763

>  <SCORE.INTRA.norm>
-0.39432

>  <SCORE.RESTR>
0

>  <SCORE.RESTR.CAVITY>
0

>  <SCORE.RESTR.norm>
0

>  <SCORE.SYSTEM>
0

>  <SCORE.SYSTEM.CONST>
0

>  <SCORE.SYSTEM.DIHEDRAL>
0

>  <SCORE.SYSTEM.SOLV>
0

>  <SCORE.SYSTEM.norm>
0

>  <SCORE.heavy>
17

>  <SCORE.norm>
-0.987343

>  <RMSD>
4.168

$$$$
ligand
 OpenBabel11021811503D
libRbt.so/2013.1/901 2013/11/27
 17 18  0  0  0  0  0  0  0  0999 V2000
    2.8847    3.7816   23.2087 N   0  0  0  0  0  0  0  0  0  0  0  0
    3.1053    4.2731   24.5017 C   0  0  0  0  0  0  0  0  0  0  0  0
    4.2473    3.8269   25.2460 N   0  0  0  0  0  0  0  0  0  0  0  0
    2.2507    5.1881   25.0776 N   0  0  0  0  0  0  0  0  0  0  0  0
    1.1409    5.6486   24.3999 C   0  0  0  0  0  0  0  0  0  0  0  0
    0.8629    5.1762   23.0789 C   0  0  0  0  0  0  0  0  0  0  0  0
    0.3972    6.4551   24.9250 O   0  0  0  0  0  0  0  0  0  0  0  0
   -0.3047    5.6363   22.3313 N   0  0  0  0  0  0  0  0  0  0  0  0
   -0.4388    5.2956   20.9601 C   0  0  2  0  0  0  0  0  0  0  0  0
    0.2314    3.9465   20.5869 C   0  0  0  0  0  0  0  0  0  0  0  0
    1.7634    4.2333   22.4980 C   0  0  0  0  0  0  0  0  0  0  0  0
    1.4992    3.7341   21.1359 N   0  0  0  0  0  0  0  0  0  0  0  0
    0.0586    6.4672   20.1333 C   0  0  1  0  0  0  0  0  0  0  0  0
    0.0982    6.1344   18.7939 O   0  0  0  0  0  0  0  0  0  0  0  0
   -0.8152    7.6664   20.3500 C   0  0  1  0  0  0  0  0  0  0  0  0
   -0.8119    8.0275   21.6409 O   0  0  0  0  0  0  0  0  0  0  0  0
   -0.3279    8.8685   19.5134 C   0  0  0  0  0  0  0  0  0  0  0  0
  1  2  2  0  0  0  0
  1 11  1  0  0  0  0
  2  3  1  0  0  0  0
  2  4  1  0  0  0  0
  4  5  1  0  0  0  0
  5  6  1  0  0  0  0
  5  7  2  0  0  0  0
  6  8  1  0  0  0  0
  6 11  2  0  0  0  0
  9  8  1  1  0  0  0
  9 10  1  0  0  0  0
  9 13  1  0  0  0  0
 10 12  1  0  0  0  0
 11 12  1  0  0  0  0
 13 14  1  6  0  0  0
 13 15  1  0  0  0  0
 15 16  1  1  0  0  0
 15 17  1  0  0  0  0
M  END
>  <CHROM.1>
173.01070460,59.99620859,0.88980055,5.61147279,22.20957488,-0.46149167,0.96302483
-2.04572619

>  <Name>
ligand

>  <RI>
0

>  <Rbt.Current_Directory>
/home/itssahil/PROJECTS/Mol_Feturizer/New_Systems/rnas/4LVX

>  <Rbt.Executable>
rbdock ($Id: //depot/dev/client3/rdock/2013.1/src/exe/rbdock.cxx#4 $)

>  <Rbt.Library>
libRbt.so (2013.1, Build901 2013/11/27)

>  <Rbt.Parameter_File>
/export/apps/rDock/src/rDock_2013.1_src/data/scripts/dock_solv.prm

>  <Rbt.Receptor>
prm/pocket_docking_8.prm

>  <SCORE>
-14.0357

>  <SCORE.INTER>
-7.30319

>  <SCORE.INTER.CONST>
1

>  <SCORE.INTER.POLAR>
0

>  <SCORE.INTER.ROT>
2

>  <SCORE.INTER.SOLV>
12.0573

>  <SCORE.INTER.VDW>
-13.8212

>  <SCORE.INTER.norm>
-0.429599

>  <SCORE.INTRA>
-6.7325

>  <SCORE.INTRA.DIHEDRAL>
-9.99874

>  <SCORE.INTRA.DIHEDRAL.0>
10.3255

>  <SCORE.INTRA.POLAR>
0

>  <SCORE.INTRA.POLAR.0>
0

>  <SCORE.INTRA.REPUL>
0

>  <SCORE.INTRA.REPUL.0>
0

>  <SCORE.INTRA.SOLV>
0.0161211

>  <SCORE.INTRA.SOLV.lig_0>
-53.4755

>  <SCORE.INTRA.VDW>
-1.74119

>  <SCORE.INTRA.VDW.0>
2.32763

>  <SCORE.INTRA.norm>
-0.396029

>  <SCORE.RESTR>
0

>  <SCORE.RESTR.CAVITY>
0

>  <SCORE.RESTR.norm>
0

>  <SCORE.SYSTEM>
0

>  <SCORE.SYSTEM.CONST>
0

>  <SCORE.SYSTEM.DIHEDRAL>
0

>  <SCORE.SYSTEM.SOLV>
0

>  <SCORE.SYSTEM.norm>
0

>  <SCORE.heavy>
17

>  <SCORE.norm>
-0.825629

>  <RMSD>
4.168

$$$$
ligand
 OpenBabel11021811503D
libRbt.so/2013.1/901 2013/11/27
 17 18  0  0  0  0  0  0  0  0999 V2000
    1.4557    8.8879   25.2285 N   0  0  0  0  0  0  0  0  0  0  0  0
    2.3358    9.7127   24.5162 C   0  0  0  0  0  0  0  0  0  0  0  0
    3.3512   10.4425   25.2187 N   0  0  0  0  0  0  0  0  0  0  0  0
    2.2550    9.8348   23.1458 N   0  0  0  0  0  0  0  0  0  0  0  0
    1.2971    9.1507   22.4265 C   0  0  0  0  0  0  0  0  0  0  0  0
    0.3681    8.2990   23.1024 C   0  0  0  0  0  0  0  0  0  0  0  0
    1.2404    9.2722   21.2176 O   0  0  0  0  0  0  0  0  0  0  0  0
   -0.6634    7.5624   22.3764 N   0  0  0  0  0  0  0  0  0  0  0  0
   -1.4358    6.5839   23.0548 C   0  0  2  0  0  0  0  0  0  0  0  0
   -1.6205    6.8776   24.5675 C   0  0  0  0  0  0  0  0  0  0  0  0
    0.4722    8.1817   24.5213 C   0  0  0  0  0  0  0  0  0  0  0  0
   -0.4727    7.3069   25.2400 N   0  0  0  0  0  0  0  0  0  0  0  0
   -0.8246    5.2235   22.7730 C   0  0  1  0  0  0  0  0  0  0  0  0
   -1.4964    4.2362   23.4662 O   0  0  0  0  0  0  0  0  0  0  0  0
   -0.8454    4.9375   21.3012 C   0  0  1  0  0  0  0  0  0  0  0  0
   -0.1147    5.8411   20.6329 O   0  0  0  0  0  0  0  0  0  0  0  0
   -0.2720    3.5368   20.9982 C   0  0  0  0  0  0  0  0  0  0  0  0
  1  2  2  0  0  0  0
  1 11  1  0  0  0  0
  2  3  1  0  0  0  0
  2  4  1  0  0  0  0
  4  5  1  0  0  0  0
  5  6  1  0  0  0  0
  5  7  2  0  0  0  0
  6  8  1  0  0  0  0
  6 11  2  0  0  0  0
  9  8  1  1  0  0  0
  9 10  1  0  0  0  0
  9 13  1  0  0  0  0
 10 12  1  0  0  0  0
 11 12  1  0  0  0  0
 13 14  1  1  0  0  0
 13 15  1  0  0  0  0
 15 16  1  6  0  0  0
 15 17  1  0  0  0  0
M  END
>  <CHROM.1>
176.89654048,61.76900315,0.27132897,7.33802172,23.11272007,0.64126709,0.91053505
1.23015784

>  <Name>
ligand

>  <RI>
0

>  <Rbt.Current_Directory>
/home/itssahil/PROJECTS/Mol_Feturizer/New_Systems/rnas/4LVX

>  <Rbt.Executable>
rbdock ($Id: //depot/dev/client3/rdock/2013.1/src/exe/rbdock.cxx#4 $)

>  <Rbt.Library>
libRbt.so (2013.1, Build901 2013/11/27)

>  <Rbt.Parameter_File>
/export/apps/rDock/src/rDock_2013.1_src/data/scripts/dock_solv.prm

>  <Rbt.Receptor>
prm/pocket_docking_5.prm

>  <SCORE>
-16.7387

>  <SCORE.INTER>
-10.0523

>  <SCORE.INTER.CONST>
1

>  <SCORE.INTER.POLAR>
0

>  <SCORE.INTER.ROT>
2

>  <SCORE.INTER.SOLV>
15.0184

>  <SCORE.INTER.VDW>
-16.641

>  <SCORE.INTER.norm>
-0.591314

>  <SCORE.INTRA>
-6.68633

>  <SCORE.INTRA.DIHEDRAL>
-10.129

>  <SCORE.INTRA.DIHEDRAL.0>
10.3255

>  <SCORE.INTRA.POLAR>
0

>  <SCORE.INTRA.POLAR.0>
0

>  <SCORE.INTRA.REPUL>
0

>  <SCORE.INTRA.REPUL.0>
0

>  <SCORE.INTRA.SOLV>
0.0515678

>  <SCORE.INTRA.SOLV.lig_0>
-53.4755

>  <SCORE.INTRA.VDW>
-1.64762

>  <SCORE.INTRA.VDW.0>
2.32763

>  <SCORE.INTRA.norm>
-0.393314

>  <SCORE.RESTR>
0

>  <SCORE.RESTR.CAVITY>
0

>  <SCORE.RESTR.norm>
0

>  <SCORE.SYSTEM>
0

>  <SCORE.SYSTEM.CONST>
0

>  <SCORE.SYSTEM.DIHEDRAL>
0

>  <SCORE.SYSTEM.SOLV>
0

>  <SCORE.SYSTEM.norm>
0

>  <SCORE.heavy>
17

>  <SCORE.norm>
-0.984628

>  <RMSD>
4.190

$$$$
ligand
 OpenBabel11021811503D
libRbt.so/2013.1/901 2013/11/27
 17 18  0  0  0  0  0  0  0  0999 V2000
    3.0005    3.6294   23.0780 N   0  0  0  0  0  0  0  0  0  0  0  0
    3.3465    4.1149   24.3456 C   0  0  0  0  0  0  0  0  0  0  0  0
    4.5224    3.6185   24.9998 N   0  0  0  0  0  0  0  0  0  0  0  0
    2.5840    5.0710   24.9810 N   0  0  0  0  0  0  0  0  0  0  0  0
    1.4462    5.5805   24.3905 C   0  0  0  0  0  0  0  0  0  0  0  0
    1.0416    5.1167   23.0995 C   0  0  0  0  0  0  0  0  0  0  0  0
    0.7850    6.4229   24.9673 O   0  0  0  0  0  0  0  0  0  0  0  0
   -0.1594    5.6281   22.4440 N   0  0  0  0  0  0  0  0  0  0  0  0
   -0.4185    5.2890   21.0904 C   0  0  2  0  0  0  0  0  0  0  0  0
    0.1563    3.9085   20.6751 C   0  0  0  0  0  0  0  0  0  0  0  0
    1.8481    4.1304   22.4557 C   0  0  0  0  0  0  0  0  0  0  0  0
    1.4529    3.6391   21.1228 N   0  0  0  0  0  0  0  0  0  0  0  0
    0.0650    6.4329   20.2179 C   0  0  1  0  0  0  0  0  0  0  0  0
    0.0404    6.0714   18.8855 O   0  0  0  0  0  0  0  0  0  0  0  0
   -0.7758    7.6535   20.4455 C   0  0  1  0  0  0  0  0  0  0  0  0
   -0.7012    8.0479   21.7245 O   0  0  0  0  0  0  0  0  0  0  0  0
   -0.3105    8.8241   19.5535 C   0  0  0  0  0  0  0  0  0  0  0  0
  1  2  2  0  0  0  0
  1 11  1  0  0  0  0
  2  3  1  0  0  0  0
  2  4  1  0  0  0  0
  4  5  1  0  0  0  0
  5  6  1  0  0  0  0
  5  7  2  0  0  0  0
  6  8  1  0  0  0  0
  6 11  2  0  0  0  0
  9  8  1  1  0  0  0
  9 10  1  0  0  0  0
  9 13  1  0  0  0  0
 10 12  1  0  0  0  0
 11 12  1  0  0  0  0
 13 14  1  6  0  0  0
 13 15  1  0  0  0  0
 15 16  1  1  0  0  0
 15 17  1  0  0  0  0
M  END
>  <CHROM.1>
170.22368021,60.51239013,1.01097767,5.54357383,22.21758823,-0.31815913,0.95545960
-2.16245909

>  <Name>
ligand

>  <RI>
0

>  <Rbt.Current_Directory>
/home/itssahil/PROJECTS/Mol_Feturizer/New_Systems/rnas/4LVX

>  <Rbt.Executable>
rbdock ($Id: //depot/dev/client3/rdock/2013.1/src/exe/rbdock.cxx#4 $)

>  <Rbt.Library>
libRbt.so (2013.1, Build901 2013/11/27)

>  <Rbt.Parameter_File>
/export/apps/rDock/src/rDock_2013.1_src/data/scripts/dock_solv.prm

>  <Rbt.Receptor>
prm/pocket_docking_6.prm

>  <SCORE>
-14.116

>  <SCORE.INTER>
-7.38651

>  <SCORE.INTER.CONST>
1

>  <SCORE.INTER.POLAR>
0

>  <SCORE.INTER.ROT>
2

>  <SCORE.INTER.SOLV>
11.5937

>  <SCORE.INTER.VDW>
-13.7222

>  <SCORE.INTER.norm>
-0.4345

>  <SCORE.INTRA>
-6.72946

>  <SCORE.INTRA.DIHEDRAL>
-9.83791

>  <SCORE.INTRA.DIHEDRAL.0>
10.3255

>  <SCORE.INTRA.POLAR>
0

>  <SCORE.INTRA.POLAR.0>
0

>  <SCORE.INTRA.REPUL>
0

>  <SCORE.INTRA.REPUL.0>
0

>  <SCORE.INTRA.SOLV>
-0.0284957

>  <SCORE.INTRA.SOLV.lig_0>
-53.4755

>  <SCORE.INTRA.VDW>
-1.79626

>  <SCORE.INTRA.VDW.0>
2.32763

>  <SCORE.INTRA.norm>
-0.395851

>  <SCORE.RESTR>
0

>  <SCORE.RESTR.CAVITY>
0

>  <SCORE.RESTR.norm>
0

>  <SCORE.SYSTEM>
0

>  <SCORE.SYSTEM.CONST>
0

>  <SCORE.SYSTEM.DIHEDRAL>
0

>  <SCORE.SYSTEM.SOLV>
0

>  <SCORE.SYSTEM.norm>
0

>  <SCORE.heavy>
17

>  <SCORE.norm>
-0.830351

>  <RMSD>
4.265

$$$$
ligand
 OpenBabel11021811503D
libRbt.so/2013.1/901 2013/11/27
 17 18  0  0  0  0  0  0  0  0999 V2000
    2.9911    3.6209   23.0605 N   0  0  0  0  0  0  0  0  0  0  0  0
    3.3435    4.1015   24.3281 C   0  0  0  0  0  0  0  0  0  0  0  0
    4.5183    3.5967   24.9779 N   0  0  0  0  0  0  0  0  0  0  0  0
    2.5884    5.0606   24.9679 N   0  0  0  0  0  0  0  0  0  0  0  0
    1.4519    5.5780   24.3818 C   0  0  0  0  0  0  0  0  0  0  0  0
    1.0410    5.1196   23.0909 C   0  0  0  0  0  0  0  0  0  0  0  0
    0.7973    6.4230   24.9623 O   0  0  0  0  0  0  0  0  0  0  0  0
   -0.1589    5.6395   22.4399 N   0  0  0  0  0  0  0  0  0  0  0  0
   -0.4238    5.3050   21.0863 C   0  0  2  0  0  0  0  0  0  0  0  0
    0.1419    3.9221   20.6662 C   0  0  0  0  0  0  0  0  0  0  0  0
    1.8399    4.1301   22.4426 C   0  0  0  0  0  0  0  0  0  0  0  0
    1.4380    3.6441   21.1096 N   0  0  0  0  0  0  0  0  0  0  0  0
    0.0639    6.4480   20.2150 C   0  0  1  0  0  0  0  0  0  0  0  0
    0.0351    6.0891   18.8820 O   0  0  0  0  0  0  0  0  0  0  0  0
   -0.7702    7.6725   20.4465 C   0  0  1  0  0  0  0  0  0  0  0  0
   -0.6866    8.0676   21.7247 O   0  0  0  0  0  0  0  0  0  0  0  0
   -0.3049    8.8403   19.5509 C   0  0  0  0  0  0  0  0  0  0  0  0
  1  2  2  0  0  0  0
  1 11  1  0  0  0  0
  2  3  1  0  0  0  0
  2  4  1  0  0  0  0
  4  5  1  0  0  0  0
  5  6  1  0  0  0  0
  5  7  2  0  0  0  0
  6  8  1  0  0  0  0
  6 11  2  0  0  0  0
  9  8  1  1  0  0  0
  9 10  1  0  0  0  0
  9 13  1  0  0  0  0
 10 12  1  0  0  0  0
 11 12  1  0  0  0  0
 13 14  1  6  0  0  0
 13 15  1  0  0  0  0
 15 16  1  1  0  0  0
 15 17  1  0  0  0  0
M  END
>  <CHROM.1>
170.14795059,60.78478401,1.01018729,5.54863256,22.20935548,-0.30888829,0.95869605
-2.16775113

>  <Name>
ligand

>  <RI>
0

>  <Rbt.Current_Directory>
/home/itssahil/PROJECTS/Mol_Feturizer/New_Systems/rnas/4LVX

>  <Rbt.Executable>
rbdock ($Id: //depot/dev/client3/rdock/2013.1/src/exe/rbdock.cxx#4 $)

>  <Rbt.Library>
libRbt.so (2013.1, Build901 2013/11/27)

>  <Rbt.Parameter_File>
/export/apps/rDock/src/rDock_2013.1_src/data/scripts/dock_solv.prm

>  <Rbt.Receptor>
prm/pocket_docking_8.prm

>  <SCORE>
-14.1185

>  <SCORE.INTER>
-7.38924

>  <SCORE.INTER.CONST>
1

>  <SCORE.INTER.POLAR>
0

>  <SCORE.INTER.ROT>
2

>  <SCORE.INTER.SOLV>
11.5957

>  <SCORE.INTER.VDW>
-13.7247

>  <SCORE.INTER.norm>
-0.434661

>  <SCORE.INTRA>
-6.72927

>  <SCORE.INTRA.DIHEDRAL>
-9.83202

>  <SCORE.INTRA.DIHEDRAL.0>
10.3255

>  <SCORE.INTRA.POLAR>
0

>  <SCORE.INTRA.POLAR.0>
0

>  <SCORE.INTRA.REPUL>
0

>  <SCORE.INTRA.REPUL.0>
0

>  <SCORE.INTRA.SOLV>
-0.0321362

>  <SCORE.INTRA.SOLV.lig_0>
-53.4755

>  <SCORE.INTRA.VDW>
-1.79719

>  <SCORE.INTRA.VDW.0>
2.32763

>  <SCORE.INTRA.norm>
-0.395839

>  <SCORE.RESTR>
0

>  <SCORE.RESTR.CAVITY>
0

>  <SCORE.RESTR.norm>
0

>  <SCORE.SYSTEM>
0

>  <SCORE.SYSTEM.CONST>
0

>  <SCORE.SYSTEM.DIHEDRAL>
0

>  <SCORE.SYSTEM.SOLV>
0

>  <SCORE.SYSTEM.norm>
0

>  <SCORE.heavy>
17

>  <SCORE.norm>
-0.830501

>  <RMSD>
4.267

$$$$
ligand
 OpenBabel11021811503D
libRbt.so/2013.1/901 2013/11/27
 17 18  0  0  0  0  0  0  0  0999 V2000
   -0.4087    8.3015   19.6049 N   0  0  0  0  0  0  0  0  0  0  0  0
    0.1109    8.3997   18.3078 C   0  0  0  0  0  0  0  0  0  0  0  0
    0.0624    9.6554   17.6163 N   0  0  0  0  0  0  0  0  0  0  0  0
    0.6794    7.3138   17.6778 N   0  0  0  0  0  0  0  0  0  0  0  0
    0.7513    6.0865   18.3035 C   0  0  0  0  0  0  0  0  0  0  0  0
    0.2309    5.9266   19.6260 C   0  0  0  0  0  0  0  0  0  0  0  0
    1.2554    5.1391   17.7311 O   0  0  0  0  0  0  0  0  0  0  0  0
    0.2839    4.6420   20.3195 N   0  0  0  0  0  0  0  0  0  0  0  0
   -0.0635    4.5716   21.6938 C   0  0  2  0  0  0  0  0  0  0  0  0
   -1.1057    5.6373   22.1263 C   0  0  0  0  0  0  0  0  0  0  0  0
   -0.3486    7.0649   20.2633 C   0  0  0  0  0  0  0  0  0  0  0  0
   -0.8891    6.9253   21.6282 N   0  0  0  0  0  0  0  0  0  0  0  0
    1.2180    4.6143   22.5059 C   0  0  1  0  0  0  0  0  0  0  0  0
    0.9472    4.4475   23.8496 O   0  0  0  0  0  0  0  0  0  0  0  0
    2.1728    3.5611   22.0288 C   0  0  1  0  0  0  0  0  0  0  0  0
    2.5556    3.8054   20.7676 O   0  0  0  0  0  0  0  0  0  0  0  0
    3.4363    3.5131   22.9141 C   0  0  0  0  0  0  0  0  0  0  0  0
  1  2  2  0  0  0  0
  1 11  1  0  0  0  0
  2  3  1  0  0  0  0
  2  4  1  0  0  0  0
  4  5  1  0  0  0  0
  5  6  1  0  0  0  0
  5  7  2  0  0  0  0
  6  8  1  0  0  0  0
  6 11  2  0  0  0  0
  9  8  1  6  0  0  0
  9 10  1  0  0  0  0
  9 13  1  0  0  0  0
 10 12  1  0  0  0  0
 11 12  1  0  0  0  0
 13 14  1  1  0  0  0
 13 15  1  0  0  0  0
 15 16  1  6  0  0  0
 15 17  1  0  0  0  0
M  END
>  <CHROM.1>
-175.49208694,64.33571576,0.68632820,5.79912044,20.45305030,1.96517732,0.79719953
-1.11065686

>  <Name>
ligand

>  <RI>
0

>  <Rbt.Current_Directory>
/home/itssahil/PROJECTS/Mol_Feturizer/New_Systems/rnas/4LVX

>  <Rbt.Executable>
rbdock ($Id: //depot/dev/client3/rdock/2013.1/src/exe/rbdock.cxx#4 $)

>  <Rbt.Library>
libRbt.so (2013.1, Build901 2013/11/27)

>  <Rbt.Parameter_File>
/export/apps/rDock/src/rDock_2013.1_src/data/scripts/dock_solv.prm

>  <Rbt.Receptor>
prm/pocket_docking_7.prm

>  <SCORE>
-14.3612

>  <SCORE.INTER>
-8.02892

>  <SCORE.INTER.CONST>
1

>  <SCORE.INTER.POLAR>
0

>  <SCORE.INTER.ROT>
2

>  <SCORE.INTER.SOLV>
12.3132

>  <SCORE.INTER.VDW>
-14.3903

>  <SCORE.INTER.norm>
-0.47229

>  <SCORE.INTRA>
-6.3323

>  <SCORE.INTRA.DIHEDRAL>
-10.0442

>  <SCORE.INTRA.DIHEDRAL.0>
10.3255

>  <SCORE.INTRA.POLAR>
0

>  <SCORE.INTRA.POLAR.0>
0

>  <SCORE.INTRA.REPUL>
0

>  <SCORE.INTRA.REPUL.0>
0

>  <SCORE.INTRA.SOLV>
0.142368

>  <SCORE.INTRA.SOLV.lig_0>
-53.4755

>  <SCORE.INTRA.VDW>
-1.38138

>  <SCORE.INTRA.VDW.0>
2.32763

>  <SCORE.INTRA.norm>
-0.372488

>  <SCORE.RESTR>
0

>  <SCORE.RESTR.CAVITY>
0

>  <SCORE.RESTR.norm>
0

>  <SCORE.SYSTEM>
0

>  <SCORE.SYSTEM.CONST>
0

>  <SCORE.SYSTEM.DIHEDRAL>
0

>  <SCORE.SYSTEM.SOLV>
0

>  <SCORE.SYSTEM.norm>
0

>  <SCORE.heavy>
17

>  <SCORE.norm>
-0.844778

>  <RMSD>
4.794

$$$$
ligand
 OpenBabel11021811503D
libRbt.so/2013.1/901 2013/11/27
 17 18  0  0  0  0  0  0  0  0999 V2000
    0.4353    7.2729   17.3710 N   0  0  0  0  0  0  0  0  0  0  0  0
    0.0507    8.6166   17.4635 C   0  0  0  0  0  0  0  0  0  0  0  0
   -0.1517    9.3816   16.2673 N   0  0  0  0  0  0  0  0  0  0  0  0
   -0.1478    9.2242   18.6845 N   0  0  0  0  0  0  0  0  0  0  0  0
    0.0319    8.5285   19.8621 C   0  0  0  0  0  0  0  0  0  0  0  0
    0.4304    7.1554   19.8277 C   0  0  0  0  0  0  0  0  0  0  0  0
   -0.1466    9.0820   20.9304 O   0  0  0  0  0  0  0  0  0  0  0  0
    0.6357    6.3869   21.0529 N   0  0  0  0  0  0  0  0  0  0  0  0
    0.8396    4.9845   20.9757 C   0  0  2  0  0  0  0  0  0  0  0  0
    1.5193    4.5274   19.6575 C   0  0  0  0  0  0  0  0  0  0  0  0
    0.6252    6.5430   18.5531 C   0  0  0  0  0  0  0  0  0  0  0  0
    1.0333    5.1273   18.4923 N   0  0  0  0  0  0  0  0  0  0  0  0
   -0.4894    4.3005   21.2398 C   0  0  1  0  0  0  0  0  0  0  0  0
   -0.3989    2.9472   20.9812 O   0  0  0  0  0  0  0  0  0  0  0  0
   -0.9246    4.5360   22.6553 C   0  0  1  0  0  0  0  0  0  0  0  0
    0.1291    4.5182   23.4837 O   0  0  0  0  0  0  0  0  0  0  0  0
   -1.6280    5.9022   22.8013 C   0  0  0  0  0  0  0  0  0  0  0  0
  1  2  2  0  0  0  0
  1 11  1  0  0  0  0
  2  3  1  0  0  0  0
  2  4  1  0  0  0  0
  4  5  1  0  0  0  0
  5  6  1  0  0  0  0
  5  7  2  0  0  0  0
  6  8  1  0  0  0  0
  6 11  2  0  0  0  0
  9  8  1  6  0  0  0
  9 10  1  0  0  0  0
  9 13  1  0  0  0  0
 10 12  1  0  0  0  0
 11 12  1  0  0  0  0
 13 14  1  1  0  0  0
 13 15  1  0  0  0  0
 15 16  1  1  0  0  0
 15 17  1  0  0  0  0
M  END
>  <CHROM.1>
171.01011995,-37.33031597,0.09241616,6.36709626,20.09213012,-1.36795656,-1.23335037
2.54217201

>  <Name>
ligand

>  <RI>
0

>  <Rbt.Current_Directory>
/home/itssahil/PROJECTS/Mol_Feturizer/New_Systems/rnas/4LVX

>  <Rbt.Executable>
rbdock ($Id: //depot/dev/client3/rdock/2013.1/src/exe/rbdock.cxx#4 $)

>  <Rbt.Library>
libRbt.so (2013.1, Build901 2013/11/27)

>  <Rbt.Parameter_File>
/export/apps/rDock/src/rDock_2013.1_src/data/scripts/dock_solv.prm

>  <Rbt.Receptor>
prm/pocket_docking_7.prm

>  <SCORE>
-15.3199

>  <SCORE.INTER>
-9.83557

>  <SCORE.INTER.CONST>
1

>  <SCORE.INTER.POLAR>
0

>  <SCORE.INTER.ROT>
2

>  <SCORE.INTER.SOLV>
10.3678

>  <SCORE.INTER.VDW>
-14.9463

>  <SCORE.INTER.norm>
-0.578563

>  <SCORE.INTRA>
-5.48428

>  <SCORE.INTRA.DIHEDRAL>
-8.23872

>  <SCORE.INTRA.DIHEDRAL.0>
10.3255

>  <SCORE.INTRA.POLAR>
0

>  <SCORE.INTRA.POLAR.0>
0

>  <SCORE.INTRA.REPUL>
0

>  <SCORE.INTRA.REPUL.0>
0

>  <SCORE.INTRA.SOLV>
0.375045

>  <SCORE.INTRA.SOLV.lig_0>
-53.4755

>  <SCORE.INTRA.VDW>
-1.55245

>  <SCORE.INTRA.VDW.0>
2.32763

>  <SCORE.INTRA.norm>
-0.322605

>  <SCORE.RESTR>
0

>  <SCORE.RESTR.CAVITY>
0

>  <SCORE.RESTR.norm>
0

>  <SCORE.SYSTEM>
0

>  <SCORE.SYSTEM.CONST>
0

>  <SCORE.SYSTEM.DIHEDRAL>
0

>  <SCORE.SYSTEM.SOLV>
0

>  <SCORE.SYSTEM.norm>
0

>  <SCORE.heavy>
17

>  <SCORE.norm>
-0.901168

>  <RMSD>
5.158

$$$$
ligand
 OpenBabel11021811503D
libRbt.so/2013.1/901 2013/11/27
 17 18  0  0  0  0  0  0  0  0999 V2000
    0.3982    5.3615   19.1888 N   0  0  0  0  0  0  0  0  0  0  0  0
    1.6501    4.8726   18.7941 C   0  0  0  0  0  0  0  0  0  0  0  0
    1.9976    4.8502   17.4027 N   0  0  0  0  0  0  0  0  0  0  0  0
    2.5666    4.4169   19.7170 N   0  0  0  0  0  0  0  0  0  0  0  0
    2.2788    4.4212   21.0661 C   0  0  0  0  0  0  0  0  0  0  0  0
    1.0133    4.9035   21.5258 C   0  0  0  0  0  0  0  0  0  0  0  0
    3.0997    4.0138   21.8658 O   0  0  0  0  0  0  0  0  0  0  0  0
    0.6697    4.9193   22.9454 N   0  0  0  0  0  0  0  0  0  0  0  0
   -0.5101    5.5813   23.3746 C   0  0  2  0  0  0  0  0  0  0  0  0
   -1.6388    5.5916   22.3095 C   0  0  0  0  0  0  0  0  0  0  0  0
    0.0803    5.3765   20.5544 C   0  0  0  0  0  0  0  0  0  0  0  0
   -1.2300    5.8814   21.0045 N   0  0  0  0  0  0  0  0  0  0  0  0
   -0.1227    6.9666   23.8588 C   0  0  1  0  0  0  0  0  0  0  0  0
   -1.2205    7.6246   24.3769 O   0  0  0  0  0  0  0  0  0  0  0  0
    0.9661    6.8743   24.8858 C   0  0  1  0  0  0  0  0  0  0  0  0
    2.0842    6.3688   24.3461 O   0  0  0  0  0  0  0  0  0  0  0  0
    1.2996    8.2636   25.4697 C   0  0  0  0  0  0  0  0  0  0  0  0
  1  2  2  0  0  0  0
  1 11  1  0  0  0  0
  2  3  1  0  0  0  0
  2  4  1  0  0  0  0
  4  5  1  0  0  0  0
  5  6  1  0  0  0  0
  5  7  2  0  0  0  0
  6  8  1  0  0  0  0
  6 11  2  0  0  0  0
  9  8  1  6  0  0  0
  9 10  1  0  0  0  0
  9 13  1  0  0  0  0
 10 12  1  0  0  0  0
 11 12  1  0  0  0  0
 13 14  1  1  0  0  0
 13 15  1  0  0  0  0
 15 16  1  6  0  0  0
 15 17  1  0  0  0  0
M  END
>  <CHROM.1>
-175.80534507,64.14860504,0.79544348,5.70005047,22.00154422,1.32302282,0.27754605
-1.92276728

>  <Name>
ligand

>  <RI>
0

>  <Rbt.Current_Directory>
/home/itssahil/PROJECTS/Mol_Feturizer/New_Systems/rnas/4LVX

>  <Rbt.Executable>
rbdock ($Id: //depot/dev/client3/rdock/2013.1/src/exe/rbdock.cxx#4 $)

>  <Rbt.Library>
libRbt.so (2013.1, Build901 2013/11/27)

>  <Rbt.Parameter_File>
/export/apps/rDock/src/rDock_2013.1_src/data/scripts/dock_solv.prm

>  <Rbt.Receptor>
prm/pocket_docking_3.prm

>  <SCORE>
-14.2787

>  <SCORE.INTER>
-7.92798

>  <SCORE.INTER.CONST>
1

>  <SCORE.INTER.POLAR>
0

>  <SCORE.INTER.ROT>
2

>  <SCORE.INTER.SOLV>
16.9875

>  <SCORE.INTER.VDW>
-15.8812

>  <SCORE.INTER.norm>
-0.466352

>  <SCORE.INTRA>
-6.35077

>  <SCORE.INTRA.DIHEDRAL>
-10.059

>  <SCORE.INTRA.DIHEDRAL.0>
10.3255

>  <SCORE.INTRA.POLAR>
0

>  <SCORE.INTRA.POLAR.0>
0

>  <SCORE.INTRA.REPUL>
0

>  <SCORE.INTRA.REPUL.0>
0

>  <SCORE.INTRA.SOLV>
0.139292

>  <SCORE.INTRA.SOLV.lig_0>
-53.4755

>  <SCORE.INTRA.VDW>
-1.39092

>  <SCORE.INTRA.VDW.0>
2.32763

>  <SCORE.INTRA.norm>
-0.373574

>  <SCORE.RESTR>
0

>  <SCORE.RESTR.CAVITY>
0

>  <SCORE.RESTR.norm>
0

>  <SCORE.SYSTEM>
0

>  <SCORE.SYSTEM.CONST>
0

>  <SCORE.SYSTEM.DIHEDRAL>
0

>  <SCORE.SYSTEM.SOLV>
0

>  <SCORE.SYSTEM.norm>
0

>  <SCORE.heavy>
17

>  <SCORE.norm>
-0.839926

>  <RMSD>
5.214

$$$$
ligand
 OpenBabel11021811503D
libRbt.so/2013.1/901 2013/11/27
 17 18  0  0  0  0  0  0  0  0999 V2000
    0.4106    5.3542   19.1938 N   0  0  0  0  0  0  0  0  0  0  0  0
    1.6649    4.8769   18.7925 C   0  0  0  0  0  0  0  0  0  0  0  0
    2.0070    4.8622   17.3997 N   0  0  0  0  0  0  0  0  0  0  0  0
    2.5887    4.4255   19.7102 N   0  0  0  0  0  0  0  0  0  0  0  0
    2.3062    4.4228   21.0605 C   0  0  0  0  0  0  0  0  0  0  0  0
    1.0387    4.8931   21.5268 C   0  0  0  0  0  0  0  0  0  0  0  0
    3.1336    4.0193   21.8555 O   0  0  0  0  0  0  0  0  0  0  0  0
    0.7006    4.9012   22.9478 N   0  0  0  0  0  0  0  0  0  0  0  0
   -0.4828    5.5520   23.3839 C   0  0  2  0  0  0  0  0  0  0  0  0
   -1.6159    5.5568   22.3233 C   0  0  0  0  0  0  0  0  0  0  0  0
    0.0980    5.3618   20.5608 C   0  0  0  0  0  0  0  0  0  0  0  0
   -1.2146    5.8545   21.0178 N   0  0  0  0  0  0  0  0  0  0  0  0
   -0.1049    6.9388   23.8715 C   0  0  1  0  0  0  0  0  0  0  0  0
   -1.2088    7.5912   24.3836 O   0  0  0  0  0  0  0  0  0  0  0  0
    0.9782    6.8508   24.9048 C   0  0  1  0  0  0  0  0  0  0  0  0
    2.1001    6.3454   24.3728 O   0  0  0  0  0  0  0  0  0  0  0  0
    1.3066    8.2422   25.4867 C   0  0  0  0  0  0  0  0  0  0  0  0
  1  2  2  0  0  0  0
  1 11  1  0  0  0  0
  2  3  1  0  0  0  0
  2  4  1  0  0  0  0
  4  5  1  0  0  0  0
  5  6  1  0  0  0  0
  5  7  2  0  0  0  0
  6  8  1  0  0  0  0
  6 11  2  0  0  0  0
  9  8  1  6  0  0  0
  9 10  1  0  0  0  0
  9 13  1  0  0  0  0
 10 12  1  0  0  0  0
 11 12  1  0  0  0  0
 13 14  1  1  0  0  0
 13 15  1  0  0  0  0
 15 16  1  6  0  0  0
 15 17  1  0  0  0  0
M  END
>  <CHROM.1>
-176.42335490,63.87139800,0.81441671,5.68572176,22.00798306,1.32378365,0.27171774
-1.91822904

>  <Name>
ligand

>  <RI>
0

>  <Rbt.Current_Directory>
/home/itssahil/PROJECTS/Mol_Feturizer/New_Systems/rnas/4LVX

>  <Rbt.Executable>
rbdock ($Id: //depot/dev/client3/rdock/2013.1/src/exe/rbdock.cxx#4 $)

>  <Rbt.Library>
libRbt.so (2013.1, Build901 2013/11/27)

>  <Rbt.Parameter_File>
/export/apps/rDock/src/rDock_2013.1_src/data/scripts/dock_solv.prm

>  <Rbt.Receptor>
prm/pocket_docking_3.prm

>  <SCORE>
-14.3041

>  <SCORE.INTER>
-7.91633

>  <SCORE.INTER.CONST>
1

>  <SCORE.INTER.POLAR>
0

>  <SCORE.INTER.ROT>
2

>  <SCORE.INTER.SOLV>
16.8412

>  <SCORE.INTER.VDW>
-15.8246

>  <SCORE.INTER.norm>
-0.465667

>  <SCORE.INTRA>
-6.38821

>  <SCORE.INTRA.DIHEDRAL>
-10.083

>  <SCORE.INTRA.DIHEDRAL.0>
10.3255

>  <SCORE.INTRA.POLAR>
0

>  <SCORE.INTRA.POLAR.0>
0

>  <SCORE.INTRA.REPUL>
0

>  <SCORE.INTRA.REPUL.0>
0

>  <SCORE.INTRA.SOLV>
0.132028

>  <SCORE.INTRA.SOLV.lig_0>
-53.4755

>  <SCORE.INTRA.VDW>
-1.41275

>  <SCORE.INTRA.VDW.0>
2.32763

>  <SCORE.INTRA.norm>
-0.375777

>  <SCORE.RESTR>
0.000409213

>  <SCORE.RESTR.CAVITY>
0.000409213

>  <SCORE.RESTR.norm>
2.40714e-05

>  <SCORE.SYSTEM>
0

>  <SCORE.SYSTEM.CONST>
0

>  <SCORE.SYSTEM.DIHEDRAL>
0

>  <SCORE.SYSTEM.SOLV>
0

>  <SCORE.SYSTEM.norm>
0

>  <SCORE.heavy>
17

>  <SCORE.norm>
-0.84142

>  <RMSD>
5.217

$$$$
ligand
 OpenBabel11021811503D
libRbt.so/2013.1/901 2013/11/27
 17 18  0  0  0  0  0  0  0  0999 V2000
    0.2594    6.1538   18.7613 N   0  0  0  0  0  0  0  0  0  0  0  0
    0.5641    7.4336   18.2803 C   0  0  0  0  0  0  0  0  0  0  0  0
    0.5407    7.6861   16.8686 N   0  0  0  0  0  0  0  0  0  0  0  0
    0.8799    8.4661   19.1367 N   0  0  0  0  0  0  0  0  0  0  0  0
    0.9126    8.2723   20.5021 C   0  0  0  0  0  0  0  0  0  0  0  0
    0.6163    6.9844   21.0487 C   0  0  0  0  0  0  0  0  0  0  0  0
    1.1949    9.1953   21.2422 O   0  0  0  0  0  0  0  0  0  0  0  0
    0.6454    6.7385   22.4884 N   0  0  0  0  0  0  0  0  0  0  0  0
    0.1589    5.5073   23.0000 C   0  0  2  0  0  0  0  0  0  0  0  0
    0.3149    4.3197   22.0131 C   0  0  0  0  0  0  0  0  0  0  0  0
    0.2858    5.9298   20.1453 C   0  0  0  0  0  0  0  0  0  0  0  0
   -0.0265    4.5937   20.6856 N   0  0  0  0  0  0  0  0  0  0  0  0
   -1.2694    5.7229   23.4661 C   0  0  1  0  0  0  0  0  0  0  0  0
   -1.8926    4.5128   23.6976 O   0  0  0  0  0  0  0  0  0  0  0  0
   -1.2917    6.5694   24.7036 C   0  0  1  0  0  0  0  0  0  0  0  0
   -0.8333    7.8017   24.4426 O   0  0  0  0  0  0  0  0  0  0  0  0
   -2.7240    6.6980   25.2642 C   0  0  0  0  0  0  0  0  0  0  0  0
  1  2  2  0  0  0  0
  1 11  1  0  0  0  0
  2  3  1  0  0  0  0
  2  4  1  0  0  0  0
  4  5  1  0  0  0  0
  5  6  1  0  0  0  0
  5  7  2  0  0  0  0
  6  8  1  0  0  0  0
  6 11  2  0  0  0  0
  9  8  1  6  0  0  0
  9 10  1  0  0  0  0
  9 13  1  0  0  0  0
 10 12  1  0  0  0  0
 11 12  1  0  0  0  0
 13 14  1  1  0  0  0
 13 15  1  0  0  0  0
 15 16  1  6  0  0  0
 15 17  1  0  0  0  0
M  END
>  <CHROM.1>
166.78978398,64.78194850,-0.13465591,6.62735587,21.59605640,0.30339703,-1.19369144
-2.56347340

>  <Name>
ligand

>  <RI>
0

>  <Rbt.Current_Directory>
/home/itssahil/PROJECTS/Mol_Feturizer/New_Systems/rnas/4LVX

>  <Rbt.Executable>
rbdock ($Id: //depot/dev/client3/rdock/2013.1/src/exe/rbdock.cxx#4 $)

>  <Rbt.Library>
libRbt.so (2013.1, Build901 2013/11/27)

>  <Rbt.Parameter_File>
/export/apps/rDock/src/rDock_2013.1_src/data/scripts/dock_solv.prm

>  <Rbt.Receptor>
prm/pocket_docking_8.prm

>  <SCORE>
-16.7737

>  <SCORE.INTER>
-10.2192

>  <SCORE.INTER.CONST>
1

>  <SCORE.INTER.POLAR>
0

>  <SCORE.INTER.ROT>
2

>  <SCORE.INTER.SOLV>
11.4026

>  <SCORE.INTER.VDW>
-15.547

>  <SCORE.INTER.norm>
-0.601128

>  <SCORE.INTRA>
-6.55449

>  <SCORE.INTRA.DIHEDRAL>
-9.49952

>  <SCORE.INTRA.DIHEDRAL.0>
10.3255

>  <SCORE.INTRA.POLAR>
0

>  <SCORE.INTRA.POLAR.0>
0

>  <SCORE.INTRA.REPUL>
0

>  <SCORE.INTRA.REPUL.0>
0

>  <SCORE.INTRA.SOLV>
-0.119384

>  <SCORE.INTRA.SOLV.lig_0>
-53.4755

>  <SCORE.INTRA.VDW>
-1.74503

>  <SCORE.INTRA.VDW.0>
2.32763

>  <SCORE.INTRA.norm>
-0.385558

>  <SCORE.RESTR>
0

>  <SCORE.RESTR.CAVITY>
0

>  <SCORE.RESTR.norm>
0

>  <SCORE.SYSTEM>
0

>  <SCORE.SYSTEM.CONST>
0

>  <SCORE.SYSTEM.DIHEDRAL>
0

>  <SCORE.SYSTEM.SOLV>
0

>  <SCORE.SYSTEM.norm>
0

>  <SCORE.heavy>
17

>  <SCORE.norm>
-0.986686

>  <RMSD>
5.229

$$$$
ligand
 OpenBabel11021811503D
libRbt.so/2013.1/901 2013/11/27
 17 18  0  0  0  0  0  0  0  0999 V2000
    0.2287    6.1816   18.7373 N   0  0  0  0  0  0  0  0  0  0  0  0
    0.5133    7.4637   18.2501 C   0  0  0  0  0  0  0  0  0  0  0  0
    0.4738    7.7120   16.8380 N   0  0  0  0  0  0  0  0  0  0  0  0
    0.8246    8.5024   19.1008 N   0  0  0  0  0  0  0  0  0  0  0  0
    0.8723    8.3127   20.4663 C   0  0  0  0  0  0  0  0  0  0  0  0
    0.5967    7.0228   21.0191 C   0  0  0  0  0  0  0  0  0  0  0  0
    1.1502    9.2411   21.2013 O   0  0  0  0  0  0  0  0  0  0  0  0
    0.6422    6.7813   22.4590 N   0  0  0  0  0  0  0  0  0  0  0  0
    0.1755    5.5457   22.9784 C   0  0  2  0  0  0  0  0  0  0  0  0
    0.3367    4.3573   21.9933 C   0  0  0  0  0  0  0  0  0  0  0  0
    0.2708    5.9618   20.1216 C   0  0  0  0  0  0  0  0  0  0  0  0
   -0.0203    4.6235   20.6683 N   0  0  0  0  0  0  0  0  0  0  0  0
   -1.2509    5.7452   23.4572 C   0  0  1  0  0  0  0  0  0  0  0  0
   -1.8554    4.5284   23.7029 O   0  0  0  0  0  0  0  0  0  0  0  0
   -1.2724    6.5996   24.6893 C   0  0  1  0  0  0  0  0  0  0  0  0
   -0.8203    7.8322   24.4187 O   0  0  0  0  0  0  0  0  0  0  0  0
   -2.7033    6.7257   25.2542 C   0  0  0  0  0  0  0  0  0  0  0  0
  1  2  2  0  0  0  0
  1 11  1  0  0  0  0
  2  3  1  0  0  0  0
  2  4  1  0  0  0  0
  4  5  1  0  0  0  0
  5  6  1  0  0  0  0
  5  7  2  0  0  0  0
  6  8  1  0  0  0  0
  6 11  2  0  0  0  0
  9  8  1  6  0  0  0
  9 10  1  0  0  0  0
  9 13  1  0  0  0  0
 10 12  1  0  0  0  0
 11 12  1  0  0  0  0
 13 14  1  1  0  0  0
 13 15  1  0  0  0  0
 15 16  1  6  0  0  0
 15 17  1  0  0  0  0
M  END
>  <CHROM.1>
167.03092979,64.14666053,-0.14402467,6.65967292,21.57335026,0.28739449,-1.20834192
-2.58180577

>  <Name>
ligand

>  <RI>
0

>  <Rbt.Current_Directory>
/home/itssahil/PROJECTS/Mol_Feturizer/New_Systems/rnas/4LVX

>  <Rbt.Executable>
rbdock ($Id: //depot/dev/client3/rdock/2013.1/src/exe/rbdock.cxx#4 $)

>  <Rbt.Library>
libRbt.so (2013.1, Build901 2013/11/27)

>  <Rbt.Parameter_File>
/export/apps/rDock/src/rDock_2013.1_src/data/scripts/dock_solv.prm

>  <Rbt.Receptor>
prm/pocket_docking_6.prm

>  <SCORE>
-16.7412

>  <SCORE.INTER>
-10.1583

>  <SCORE.INTER.CONST>
1

>  <SCORE.INTER.POLAR>
0

>  <SCORE.INTER.ROT>
2

>  <SCORE.INTER.SOLV>
11.4526

>  <SCORE.INTER.VDW>
-15.5231

>  <SCORE.INTER.norm>
-0.597546

>  <SCORE.INTRA>
-6.5829

>  <SCORE.INTRA.DIHEDRAL>
-9.5398

>  <SCORE.INTRA.DIHEDRAL.0>
10.3255

>  <SCORE.INTRA.POLAR>
0

>  <SCORE.INTRA.POLAR.0>
0

>  <SCORE.INTRA.REPUL>
0

>  <SCORE.INTRA.REPUL.0>
0

>  <SCORE.INTRA.SOLV>
-0.109647

>  <SCORE.INTRA.SOLV.lig_0>
-53.4755

>  <SCORE.INTRA.VDW>
-1.75817

>  <SCORE.INTRA.VDW.0>
2.32763

>  <SCORE.INTRA.norm>
-0.387229

>  <SCORE.RESTR>
0

>  <SCORE.RESTR.CAVITY>
0

>  <SCORE.RESTR.norm>
0

>  <SCORE.SYSTEM>
0

>  <SCORE.SYSTEM.CONST>
0

>  <SCORE.SYSTEM.DIHEDRAL>
0

>  <SCORE.SYSTEM.SOLV>
0

>  <SCORE.SYSTEM.norm>
0

>  <SCORE.heavy>
17

>  <SCORE.norm>
-0.984775

>  <RMSD>
5.231

$$$$
ligand
 OpenBabel11021811503D
libRbt.so/2013.1/901 2013/11/27
 17 18  0  0  0  0  0  0  0  0999 V2000
    0.2546    6.1777   18.7859 N   0  0  0  0  0  0  0  0  0  0  0  0
    0.5263    7.4593   18.2903 C   0  0  0  0  0  0  0  0  0  0  0  0
    0.4980    7.6946   16.8757 N   0  0  0  0  0  0  0  0  0  0  0  0
    0.8141    8.5097   19.1348 N   0  0  0  0  0  0  0  0  0  0  0  0
    0.8503    8.3327   20.5024 C   0  0  0  0  0  0  0  0  0  0  0  0
    0.5871    7.0440   21.0638 C   0  0  0  0  0  0  0  0  0  0  0  0
    1.1075    9.2714   21.2319 O   0  0  0  0  0  0  0  0  0  0  0  0
    0.6210    6.8158   22.5062 N   0  0  0  0  0  0  0  0  0  0  0  0
    0.1662    5.5783   23.0318 C   0  0  2  0  0  0  0  0  0  0  0  0
    0.3543    4.3837   22.0590 C   0  0  0  0  0  0  0  0  0  0  0  0
    0.2854    5.9706   20.1725 C   0  0  0  0  0  0  0  0  0  0  0  0
    0.0074    4.6332   20.7281 N   0  0  0  0  0  0  0  0  0  0  0  0
   -1.2677    5.7619   23.4941 C   0  0  1  0  0  0  0  0  0  0  0  0
   -1.8778    4.5377   23.6824 O   0  0  0  0  0  0  0  0  0  0  0  0
   -1.3088    6.5681   24.7579 C   0  0  1  0  0  0  0  0  0  0  0  0
   -0.8161    7.7975   24.5514 O   0  0  0  0  0  0  0  0  0  0  0  0
   -2.7542    6.7109   25.2802 C   0  0  0  0  0  0  0  0  0  0  0  0
  1  2  2  0  0  0  0
  1 11  1  0  0  0  0
  2  3  1  0  0  0  0
  2  4  1  0  0  0  0
  4  5  1  0  0  0  0
  5  6  1  0  0  0  0
  5  7  2  0  0  0  0
  6  8  1  0  0  0  0
  6 11  2  0  0  0  0
  9  8  1  6  0  0  0
  9 10  1  0  0  0  0
  9 13  1  0  0  0  0
 10 12  1  0  0  0  0
 11 12  1  0  0  0  0
 13 14  1  1  0  0  0
 13 15  1  0  0  0  0
 15 16  1  6  0  0  0
 15 17  1  0  0  0  0
M  END
>  <CHROM.1>
164.13911203,62.43216846,-0.15132780,6.66576181,21.61995323,0.27940744,-1.20532067
-2.59199265

>  <Name>
ligand

>  <RI>
0

>  <Rbt.Current_Directory>
/home/itssahil/PROJECTS/Mol_Feturizer/New_Systems/rnas/4LVX

>  <Rbt.Executable>
rbdock ($Id: //depot/dev/client3/rdock/2013.1/src/exe/rbdock.cxx#4 $)

>  <Rbt.Library>
libRbt.so (2013.1, Build901 2013/11/27)

>  <Rbt.Parameter_File>
/export/apps/rDock/src/rDock_2013.1_src/data/scripts/dock_solv.prm

>  <Rbt.Receptor>
prm/pocket_docking_5.prm

>  <SCORE>
-16.7807

>  <SCORE.INTER>
-10.3046

>  <SCORE.INTER.CONST>
1

>  <SCORE.INTER.POLAR>
0

>  <SCORE.INTER.ROT>
2

>  <SCORE.INTER.SOLV>
11.335

>  <SCORE.INTER.VDW>
-15.5814

>  <SCORE.INTER.norm>
-0.606153

>  <SCORE.INTRA>
-6.47612

>  <SCORE.INTRA.DIHEDRAL>
-9.311

>  <SCORE.INTRA.DIHEDRAL.0>
10.3255

>  <SCORE.INTRA.POLAR>
0

>  <SCORE.INTRA.POLAR.0>
0

>  <SCORE.INTRA.REPUL>
0

>  <SCORE.INTRA.REPUL.0>
0

>  <SCORE.INTRA.SOLV>
-0.136623

>  <SCORE.INTRA.SOLV.lig_0>
-53.4755

>  <SCORE.INTRA.VDW>
-1.75231

>  <SCORE.INTRA.VDW.0>
2.32763

>  <SCORE.INTRA.norm>
-0.380948

>  <SCORE.RESTR>
0

>  <SCORE.RESTR.CAVITY>
0

>  <SCORE.RESTR.norm>
0

>  <SCORE.SYSTEM>
0

>  <SCORE.SYSTEM.CONST>
0

>  <SCORE.SYSTEM.DIHEDRAL>
0

>  <SCORE.SYSTEM.SOLV>
0

>  <SCORE.SYSTEM.norm>
0

>  <SCORE.heavy>
17

>  <SCORE.norm>
-0.987101

>  <RMSD>
5.235

$$$$
ligand
 OpenBabel11021811503D
libRbt.so/2013.1/901 2013/11/27
 17 18  0  0  0  0  0  0  0  0999 V2000
    0.5165    7.1294   17.2957 N   0  0  0  0  0  0  0  0  0  0  0  0
    0.1351    8.4770   17.3206 C   0  0  0  0  0  0  0  0  0  0  0  0
   -0.0294    9.1916   16.0880 N   0  0  0  0  0  0  0  0  0  0  0  0
   -0.0959    9.1360   18.5088 N   0  0  0  0  0  0  0  0  0  0  0  0
    0.0469    8.4899   19.7192 C   0  0  0  0  0  0  0  0  0  0  0  0
    0.4403    7.1154   19.7540 C   0  0  0  0  0  0  0  0  0  0  0  0
   -0.1600    9.0883   20.7577 O   0  0  0  0  0  0  0  0  0  0  0  0
    0.6069    6.3984   21.0158 N   0  0  0  0  0  0  0  0  0  0  0  0
    0.8069    4.9934   21.0034 C   0  0  2  0  0  0  0  0  0  0  0  0
    1.5224    4.4791   19.7258 C   0  0  0  0  0  0  0  0  0  0  0  0
    0.6691    6.4493   18.5124 C   0  0  0  0  0  0  0  0  0  0  0  0
    1.0727    5.0310   18.5228 N   0  0  0  0  0  0  0  0  0  0  0  0
   -0.5320    4.3252   21.2573 C   0  0  1  0  0  0  0  0  0  0  0  0
   -0.4534    2.9695   21.0075 O   0  0  0  0  0  0  0  0  0  0  0  0
   -0.9796    4.5735   22.6668 C   0  0  1  0  0  0  0  0  0  0  0  0
    0.0615    4.5238   23.5097 O   0  0  0  0  0  0  0  0  0  0  0  0
   -1.6433    5.9603   22.8038 C   0  0  0  0  0  0  0  0  0  0  0  0
  1  2  2  0  0  0  0
  1 11  1  0  0  0  0
  2  3  1  0  0  0  0
  2  4  1  0  0  0  0
  4  5  1  0  0  0  0
  5  6  1  0  0  0  0
  5  7  2  0  0  0  0
  6  8  1  0  0  0  0
  6 11  2  0  0  0  0
  9  8  1  6  0  0  0
  9 10  1  0  0  0  0
  9 13  1  0  0  0  0
 10 12  1  0  0  0  0
 11 12  1  0  0  0  0
 13 14  1  1  0  0  0
 13 15  1  0  0  0  0
 15 16  1  1  0  0  0
 15 17  1  0  0  0  0
M  END
>  <CHROM.1>
168.64669381,-38.51426775,0.09889623,6.32794972,20.04465020,-1.31417951,-1.22046507
2.55302331

>  <Name>
ligand

>  <RI>
0

>  <Rbt.Current_Directory>
/home/itssahil/PROJECTS/Mol_Feturizer/New_Systems/rnas/4LVX

>  <Rbt.Executable>
rbdock ($Id: //depot/dev/client3/rdock/2013.1/src/exe/rbdock.cxx#4 $)

>  <Rbt.Library>
libRbt.so (2013.1, Build901 2013/11/27)

>  <Rbt.Parameter_File>
/export/apps/rDock/src/rDock_2013.1_src/data/scripts/dock_solv.prm

>  <Rbt.Receptor>
prm/pocket_docking_7.prm

>  <SCORE>
-15.1825

>  <SCORE.INTER>
-9.70492

>  <SCORE.INTER.CONST>
1

>  <SCORE.INTER.POLAR>
0

>  <SCORE.INTER.ROT>
2

>  <SCORE.INTER.SOLV>
10.483

>  <SCORE.INTER.VDW>
-14.8976

>  <SCORE.INTER.norm>
-0.570878

>  <SCORE.INTRA>
-5.47754

>  <SCORE.INTRA.DIHEDRAL>
-8.22769

>  <SCORE.INTRA.DIHEDRAL.0>
10.3255

>  <SCORE.INTRA.POLAR>
0

>  <SCORE.INTRA.POLAR.0>
0

>  <SCORE.INTRA.REPUL>
0

>  <SCORE.INTRA.REPUL.0>
0

>  <SCORE.INTRA.SOLV>
0.35468

>  <SCORE.INTRA.SOLV.lig_0>
-53.4755

>  <SCORE.INTRA.VDW>
-1.54103

>  <SCORE.INTRA.VDW.0>
2.32763

>  <SCORE.INTRA.norm>
-0.322208

>  <SCORE.RESTR>
0

>  <SCORE.RESTR.CAVITY>
0

>  <SCORE.RESTR.norm>
0

>  <SCORE.SYSTEM>
0

>  <SCORE.SYSTEM.CONST>
0

>  <SCORE.SYSTEM.DIHEDRAL>
0

>  <SCORE.SYSTEM.SOLV>
0

>  <SCORE.SYSTEM.norm>
0

>  <SCORE.heavy>
17

>  <SCORE.norm>
-0.893086

>  <RMSD>
5.236

$$$$
ligand
 OpenBabel11021811503D
libRbt.so/2013.1/901 2013/11/27
 17 18  0  0  0  0  0  0  0  0999 V2000
    0.2695    6.1470   18.7963 N   0  0  0  0  0  0  0  0  0  0  0  0
    0.5300    7.4307   18.3001 C   0  0  0  0  0  0  0  0  0  0  0  0
    0.5119    7.6625   16.8848 N   0  0  0  0  0  0  0  0  0  0  0  0
    0.7969    8.4865   19.1448 N   0  0  0  0  0  0  0  0  0  0  0  0
    0.8225    8.3131   20.5130 C   0  0  0  0  0  0  0  0  0  0  0  0
    0.5700    7.0225   21.0750 C   0  0  0  0  0  0  0  0  0  0  0  0
    1.0614    9.2565   21.2427 O   0  0  0  0  0  0  0  0  0  0  0  0
    0.5934    6.7980   22.5182 N   0  0  0  0  0  0  0  0  0  0  0  0
    0.1491    5.5562   23.0425 C   0  0  2  0  0  0  0  0  0  0  0  0
    0.3609    4.3618   22.0744 C   0  0  0  0  0  0  0  0  0  0  0  0
    0.2899    5.9434   20.1835 C   0  0  0  0  0  0  0  0  0  0  0  0
    0.0233    4.6040   20.7397 N   0  0  0  0  0  0  0  0  0  0  0  0
   -1.2913    5.7231   23.4911 C   0  0  1  0  0  0  0  0  0  0  0  0
   -1.8803    4.4921   23.7010 O   0  0  0  0  0  0  0  0  0  0  0  0
   -1.3561    6.5547   24.7372 C   0  0  1  0  0  0  0  0  0  0  0  0
   -0.9191    7.7993   24.4990 O   0  0  0  0  0  0  0  0  0  0  0  0
   -2.8017    6.6466   25.2704 C   0  0  0  0  0  0  0  0  0  0  0  0
  1  2  2  0  0  0  0
  1 11  1  0  0  0  0
  2  3  1  0  0  0  0
  2  4  1  0  0  0  0
  4  5  1  0  0  0  0
  5  6  1  0  0  0  0
  5  7  2  0  0  0  0
  6  8  1  0  0  0  0
  6 11  2  0  0  0  0
  9  8  1  6  0  0  0
  9 10  1  0  0  0  0
  9 13  1  0  0  0  0
 10 12  1  0  0  0  0
 11 12  1  0  0  0  0
 13 14  1  1  0  0  0
 13 15  1  0  0  0  0
 15 16  1  6  0  0  0
 15 17  1  0  0  0  0
M  END
>  <CHROM.1>
165.27363777,64.14229143,-0.17111898,6.63925321,21.62331112,0.21828287,-1.20358507
-2.65352178

>  <Name>
ligand

>  <RI>
0

>  <Rbt.Current_Directory>
/home/itssahil/PROJECTS/Mol_Feturizer/New_Systems/rnas/4LVX

>  <Rbt.Executable>
rbdock ($Id: //depot/dev/client3/rdock/2013.1/src/exe/rbdock.cxx#4 $)

>  <Rbt.Library>
libRbt.so (2013.1, Build901 2013/11/27)

>  <Rbt.Parameter_File>
/export/apps/rDock/src/rDock_2013.1_src/data/scripts/dock_solv.prm

>  <Rbt.Receptor>
prm/pocket_docking_8.prm

>  <SCORE>
-16.7931

>  <SCORE.INTER>
-10.3042

>  <SCORE.INTER.CONST>
1

>  <SCORE.INTER.POLAR>
0

>  <SCORE.INTER.ROT>
2

>  <SCORE.INTER.SOLV>
11.4971

>  <SCORE.INTER.VDW>
-15.6352

>  <SCORE.INTER.norm>
-0.606131

>  <SCORE.INTRA>
-6.48887

>  <SCORE.INTRA.DIHEDRAL>
-9.38256

>  <SCORE.INTRA.DIHEDRAL.0>
10.3255

>  <SCORE.INTRA.POLAR>
0

>  <SCORE.INTRA.POLAR.0>
0

>  <SCORE.INTRA.REPUL>
0

>  <SCORE.INTRA.REPUL.0>
0

>  <SCORE.INTRA.SOLV>
-0.135595

>  <SCORE.INTRA.SOLV.lig_0>
-53.4755

>  <SCORE.INTRA.VDW>
-1.72979

>  <SCORE.INTRA.VDW.0>
2.32763

>  <SCORE.INTRA.norm>
-0.381698

>  <SCORE.RESTR>
0

>  <SCORE.RESTR.CAVITY>
0

>  <SCORE.RESTR.norm>
0

>  <SCORE.SYSTEM>
0

>  <SCORE.SYSTEM.CONST>
0

>  <SCORE.SYSTEM.DIHEDRAL>
0

>  <SCORE.SYSTEM.SOLV>
0

>  <SCORE.SYSTEM.norm>
0

>  <SCORE.heavy>
17

>  <SCORE.norm>
-0.987829

>  <RMSD>
5.236

$$$$
ligand
 OpenBabel11021811503D
libRbt.so/2013.1/901 2013/11/27
 17 18  0  0  0  0  0  0  0  0999 V2000
    0.2589    6.1567   18.7800 N   0  0  0  0  0  0  0  0  0  0  0  0
    0.5197    7.4378   18.2773 C   0  0  0  0  0  0  0  0  0  0  0  0
    0.4930    7.6644   16.8613 N   0  0  0  0  0  0  0  0  0  0  0  0
    0.7950    8.4960   19.1162 N   0  0  0  0  0  0  0  0  0  0  0  0
    0.8291    8.3276   20.4849 C   0  0  0  0  0  0  0  0  0  0  0  0
    0.5767    7.0399   21.0535 C   0  0  0  0  0  0  0  0  0  0  0  0
    1.0753    9.2731   21.2095 O   0  0  0  0  0  0  0  0  0  0  0  0
    0.6088    6.8207   22.4973 N   0  0  0  0  0  0  0  0  0  0  0  0
    0.1645    5.5821   23.0291 C   0  0  2  0  0  0  0  0  0  0  0  0
    0.3668    4.3836   22.0641 C   0  0  0  0  0  0  0  0  0  0  0  0
    0.2878    5.9583   20.1678 C   0  0  0  0  0  0  0  0  0  0  0  0
    0.0211    4.6217   20.7308 N   0  0  0  0  0  0  0  0  0  0  0  0
   -1.2724    5.7547   23.4865 C   0  0  1  0  0  0  0  0  0  0  0  0
   -1.8702    4.5259   23.6837 O   0  0  0  0  0  0  0  0  0  0  0  0
   -1.3250    6.5711   24.7431 C   0  0  1  0  0  0  0  0  0  0  0  0
   -0.8567    7.8079   24.5242 O   0  0  0  0  0  0  0  0  0  0  0  0
   -2.7712    6.6908   25.2690 C   0  0  0  0  0  0  0  0  0  0  0  0
  1  2  2  0  0  0  0
  1 11  1  0  0  0  0
  2  3  1  0  0  0  0
  2  4  1  0  0  0  0
  4  5  1  0  0  0  0
  5  6  1  0  0  0  0
  5  7  2  0  0  0  0
  6  8  1  0  0  0  0
  6 11  2  0  0  0  0
  9  8  1  6  0  0  0
  9 10  1  0  0  0  0
  9 13  1  0  0  0  0
 10 12  1  0  0  0  0
 11 12  1  0  0  0  0
 13 14  1  1  0  0  0
 13 15  1  0  0  0  0
 15 16  1  6  0  0  0
 15 17  1  0  0  0  0
M  END
>  <CHROM.1>
164.28985422,63.03453784,-0.16030661,6.65798472,21.60981131,0.24895745,-1.20778908
-2.62665670

>  <Name>
ligand

>  <RI>
0

>  <Rbt.Current_Directory>
/home/itssahil/PROJECTS/Mol_Feturizer/New_Systems/rnas/4LVX

>  <Rbt.Executable>
rbdock ($Id: //depot/dev/client3/rdock/2013.1/src/exe/rbdock.cxx#4 $)

>  <Rbt.Library>
libRbt.so (2013.1, Build901 2013/11/27)

>  <Rbt.Parameter_File>
/export/apps/rDock/src/rDock_2013.1_src/data/scripts/dock_solv.prm

>  <Rbt.Receptor>
prm/pocket_docking_5.prm

>  <SCORE>
-16.8198

>  <SCORE.INTER>
-10.3493

>  <SCORE.INTER.CONST>
1

>  <SCORE.INTER.POLAR>
0

>  <SCORE.INTER.ROT>
2

>  <SCORE.INTER.SOLV>
11.4109

>  <SCORE.INTER.VDW>
-15.6365

>  <SCORE.INTER.norm>
-0.608781

>  <SCORE.INTRA>
-6.47055

>  <SCORE.INTRA.DIHEDRAL>
-9.31488

>  <SCORE.INTRA.DIHEDRAL.0>
10.3255

>  <SCORE.INTRA.POLAR>
0

>  <SCORE.INTRA.POLAR.0>
0

>  <SCORE.INTRA.REPUL>
0

>  <SCORE.INTRA.REPUL.0>
0

>  <SCORE.INTRA.SOLV>
-0.139909

>  <SCORE.INTRA.SOLV.lig_0>
-53.4755

>  <SCORE.INTRA.VDW>
-1.74315

>  <SCORE.INTRA.VDW.0>
2.32763

>  <SCORE.INTRA.norm>
-0.38062

>  <SCORE.RESTR>
0

>  <SCORE.RESTR.CAVITY>
0

>  <SCORE.RESTR.norm>
0

>  <SCORE.SYSTEM>
0

>  <SCORE.SYSTEM.CONST>
0

>  <SCORE.SYSTEM.DIHEDRAL>
0

>  <SCORE.SYSTEM.SOLV>
0

>  <SCORE.SYSTEM.norm>
0

>  <SCORE.heavy>
17

>  <SCORE.norm>
-0.989401

>  <RMSD>
5.240

$$$$
ligand
 OpenBabel11021811503D
libRbt.so/2013.1/901 2013/11/27
 17 18  0  0  0  0  0  0  0  0999 V2000
    0.2752    6.1368   18.8021 N   0  0  0  0  0  0  0  0  0  0  0  0
    0.5489    7.4142   18.2969 C   0  0  0  0  0  0  0  0  0  0  0  0
    0.5279    7.6373   16.8802 N   0  0  0  0  0  0  0  0  0  0  0  0
    0.8316    8.4720   19.1338 N   0  0  0  0  0  0  0  0  0  0  0  0
    0.8607    8.3069   20.5030 C   0  0  0  0  0  0  0  0  0  0  0  0
    0.5951    7.0229   21.0742 C   0  0  0  0  0  0  0  0  0  0  0  0
    1.1136    9.2519   21.2257 O   0  0  0  0  0  0  0  0  0  0  0  0
    0.6215    6.8072   22.5186 N   0  0  0  0  0  0  0  0  0  0  0  0
    0.1646    5.5741   23.0525 C   0  0  2  0  0  0  0  0  0  0  0  0
    0.3584    4.3713   22.0911 C   0  0  0  0  0  0  0  0  0  0  0  0
    0.2987    5.9417   20.1906 C   0  0  0  0  0  0  0  0  0  0  0  0
    0.0184    4.6091   20.7563 N   0  0  0  0  0  0  0  0  0  0  0  0
   -1.2719    5.7609   23.5056 C   0  0  1  0  0  0  0  0  0  0  0  0
   -1.8805    4.5381   23.7071 O   0  0  0  0  0  0  0  0  0  0  0  0
   -1.3204    6.5834   24.7585 C   0  0  1  0  0  0  0  0  0  0  0  0
   -0.8577    7.8208   24.5307 O   0  0  0  0  0  0  0  0  0  0  0  0
   -2.7642    6.7007   25.2916 C   0  0  0  0  0  0  0  0  0  0  0  0
  1  2  2  0  0  0  0
  1 11  1  0  0  0  0
  2  3  1  0  0  0  0
  2  4  1  0  0  0  0
  4  5  1  0  0  0  0
  5  6  1  0  0  0  0
  5  7  2  0  0  0  0
  6  8  1  0  0  0  0
  6 11  2  0  0  0  0
  9  8  1  6  0  0  0
  9 10  1  0  0  0  0
  9 13  1  0  0  0  0
 10 12  1  0  0  0  0
 11 12  1  0  0  0  0
 13 14  1  1  0  0  0
 13 15  1  0  0  0  0
 15 16  1  6  0  0  0
 15 17  1  0  0  0  0
M  END
>  <CHROM.1>
164.40887422,63.85246723,-0.14776997,6.64892397,21.62971474,0.26394342,-1.20092433
-2.61527931

>  <Name>
ligand

>  <RI>
0

>  <Rbt.Current_Directory>
/home/itssahil/PROJECTS/Mol_Feturizer/New_Systems/rnas/4LVX

>  <Rbt.Executable>
rbdock ($Id: //depot/dev/client3/rdock/2013.1/src/exe/rbdock.cxx#4 $)

>  <Rbt.Library>
libRbt.so (2013.1, Build901 2013/11/27)

>  <Rbt.Parameter_File>
/export/apps/rDock/src/rDock_2013.1_src/data/scripts/dock_solv.prm

>  <Rbt.Receptor>
prm/pocket_docking_7.prm

>  <SCORE>
-16.801

>  <SCORE.INTER>
-10.346

>  <SCORE.INTER.CONST>
1

>  <SCORE.INTER.POLAR>
0

>  <SCORE.INTER.ROT>
2

>  <SCORE.INTER.SOLV>
11.362

>  <SCORE.INTER.VDW>
-15.618

>  <SCORE.INTER.norm>
-0.608586

>  <SCORE.INTRA>
-6.45501

>  <SCORE.INTRA.DIHEDRAL>
-9.30735

>  <SCORE.INTRA.DIHEDRAL.0>
10.3255

>  <SCORE.INTRA.POLAR>
0

>  <SCORE.INTRA.POLAR.0>
0

>  <SCORE.INTRA.REPUL>
0

>  <SCORE.INTRA.REPUL.0>
0

>  <SCORE.INTRA.SOLV>
-0.145787

>  <SCORE.INTRA.SOLV.lig_0>
-53.4755

>  <SCORE.INTRA.VDW>
-1.72845

>  <SCORE.INTRA.VDW.0>
2.32763

>  <SCORE.INTRA.norm>
-0.379707

>  <SCORE.RESTR>
0

>  <SCORE.RESTR.CAVITY>
0

>  <SCORE.RESTR.norm>
0

>  <SCORE.SYSTEM>
0

>  <SCORE.SYSTEM.CONST>
0

>  <SCORE.SYSTEM.DIHEDRAL>
0

>  <SCORE.SYSTEM.SOLV>
0

>  <SCORE.SYSTEM.norm>
0

>  <SCORE.heavy>
17

>  <SCORE.norm>
-0.988293

>  <RMSD>
5.240

$$$$
ligand
 OpenBabel11021811503D
libRbt.so/2013.1/901 2013/11/27
 17 18  0  0  0  0  0  0  0  0999 V2000
    0.2601    6.0794   18.7843 N   0  0  0  0  0  0  0  0  0  0  0  0
    0.5123    7.3533   18.2595 C   0  0  0  0  0  0  0  0  0  0  0  0
    0.4843    7.5550   16.8397 N   0  0  0  0  0  0  0  0  0  0  0  0
    0.7806    8.4277   19.0799 N   0  0  0  0  0  0  0  0  0  0  0  0
    0.8157    8.2834   20.4513 C   0  0  0  0  0  0  0  0  0  0  0  0
    0.5718    7.0040   21.0421 C   0  0  0  0  0  0  0  0  0  0  0  0
    1.0555    9.2429   21.1593 O   0  0  0  0  0  0  0  0  0  0  0  0
    0.6053    6.8102   22.4895 N   0  0  0  0  0  0  0  0  0  0  0  0
    0.1692    5.5781   23.0428 C   0  0  2  0  0  0  0  0  0  0  0  0
    0.3795    4.3643   22.0988 C   0  0  0  0  0  0  0  0  0  0  0  0
    0.2902    5.9053   20.1754 C   0  0  0  0  0  0  0  0  0  0  0  0
    0.0324    4.5769   20.7615 N   0  0  0  0  0  0  0  0  0  0  0  0
   -1.2689    5.7490   23.4971 C   0  0  1  0  0  0  0  0  0  0  0  0
   -1.8539    4.5202   23.7302 O   0  0  0  0  0  0  0  0  0  0  0  0
   -1.3283    6.6003   24.7301 C   0  0  1  0  0  0  0  0  0  0  0  0
   -0.8951    7.8418   24.4696 O   0  0  0  0  0  0  0  0  0  0  0  0
   -2.7711    6.6980   25.2700 C   0  0  0  0  0  0  0  0  0  0  0  0
  1  2  2  0  0  0  0
  1 11  1  0  0  0  0
  2  3  1  0  0  0  0
  2  4  1  0  0  0  0
  4  5  1  0  0  0  0
  5  6  1  0  0  0  0
  5  7  2  0  0  0  0
  6  8  1  0  0  0  0
  6 11  2  0  0  0  0
  9  8  1  6  0  0  0
  9 10  1  0  0  0  0
  9 13  1  0  0  0  0
 10 12  1  0  0  0  0
 11 12  1  0  0  0  0
 13 14  1  1  0  0  0
 13 15  1  0  0  0  0
 15 16  1  6  0  0  0
 15 17  1  0  0  0  0
M  END
>  <CHROM.1>
164.96252830,64.12127519,-0.16418094,6.62852708,21.60393276,0.22114097,-1.21097963
-2.67127564

>  <Name>
ligand

>  <RI>
0

>  <Rbt.Current_Directory>
/home/itssahil/PROJECTS/Mol_Feturizer/New_Systems/rnas/4LVX

>  <Rbt.Executable>
rbdock ($Id: //depot/dev/client3/rdock/2013.1/src/exe/rbdock.cxx#4 $)

>  <Rbt.Library>
libRbt.so (2013.1, Build901 2013/11/27)

>  <Rbt.Parameter_File>
/export/apps/rDock/src/rDock_2013.1_src/data/scripts/dock_solv.prm

>  <Rbt.Receptor>
prm/pocket_docking_6.prm

>  <SCORE>
-16.7787

>  <SCORE.INTER>
-10.3041

>  <SCORE.INTER.CONST>
1

>  <SCORE.INTER.POLAR>
0

>  <SCORE.INTER.ROT>
2

>  <SCORE.INTER.SOLV>
11.6475

>  <SCORE.INTER.VDW>
-15.6852

>  <SCORE.INTER.norm>
-0.606125

>  <SCORE.INTRA>
-6.47461

>  <SCORE.INTRA.DIHEDRAL>
-9.35365

>  <SCORE.INTRA.DIHEDRAL.0>
10.3255

>  <SCORE.INTRA.POLAR>
0

>  <SCORE.INTRA.POLAR.0>
0

>  <SCORE.INTRA.REPUL>
0

>  <SCORE.INTRA.REPUL.0>
0

>  <SCORE.INTRA.SOLV>
-0.140039

>  <SCORE.INTRA.SOLV.lig_0>
-53.4755

>  <SCORE.INTRA.VDW>
-1.72777

>  <SCORE.INTRA.VDW.0>
2.32763

>  <SCORE.INTRA.norm>
-0.38086

>  <SCORE.RESTR>
0

>  <SCORE.RESTR.CAVITY>
0

>  <SCORE.RESTR.norm>
0

>  <SCORE.SYSTEM>
0

>  <SCORE.SYSTEM.CONST>
0

>  <SCORE.SYSTEM.DIHEDRAL>
0

>  <SCORE.SYSTEM.SOLV>
0

>  <SCORE.SYSTEM.norm>
0

>  <SCORE.heavy>
17

>  <SCORE.norm>
-0.986984

>  <RMSD>
5.247

$$$$
ligand
 OpenBabel11021811503D
libRbt.so/2013.1/901 2013/11/27
 17 18  0  0  0  0  0  0  0  0999 V2000
    0.2869    6.0828   18.8058 N   0  0  0  0  0  0  0  0  0  0  0  0
    0.5321    7.3571   18.2784 C   0  0  0  0  0  0  0  0  0  0  0  0
    0.5127    7.5537   16.8578 N   0  0  0  0  0  0  0  0  0  0  0  0
    0.7850    8.4366   19.0970 N   0  0  0  0  0  0  0  0  0  0  0  0
    0.8113    8.2972   20.4692 C   0  0  0  0  0  0  0  0  0  0  0  0
    0.5741    7.0178   21.0626 C   0  0  0  0  0  0  0  0  0  0  0  0
    1.0376    9.2612   21.1756 O   0  0  0  0  0  0  0  0  0  0  0  0
    0.5986    6.8292   22.5109 N   0  0  0  0  0  0  0  0  0  0  0  0
    0.1690    5.5953   23.0653 C   0  0  2  0  0  0  0  0  0  0  0  0
    0.3967    4.3802   22.1270 C   0  0  0  0  0  0  0  0  0  0  0  0
    0.3083    5.9138   20.1977 C   0  0  0  0  0  0  0  0  0  0  0  0
    0.0576    4.5852   20.7865 N   0  0  0  0  0  0  0  0  0  0  0  0
   -1.2738    5.7554   23.5084 C   0  0  1  0  0  0  0  0  0  0  0  0
   -1.8538    4.5219   23.7290 O   0  0  0  0  0  0  0  0  0  0  0  0
   -1.3484    6.5987   24.7461 C   0  0  1  0  0  0  0  0  0  0  0  0
   -0.9192    7.8440   24.4970 O   0  0  0  0  0  0  0  0  0  0  0  0
   -2.7963    6.6858   25.2737 C   0  0  0  0  0  0  0  0  0  0  0  0
  1  2  2  0  0  0  0
  1 11  1  0  0  0  0
  2  3  1  0  0  0  0
  2  4  1  0  0  0  0
  4  5  1  0  0  0  0
  5  6  1  0  0  0  0
  5  7  2  0  0  0  0
  6  8  1  0  0  0  0
  6 11  2  0  0  0  0
  9  8  1  6  0  0  0
  9 10  1  0  0  0  0
  9 13  1  0  0  0  0
 10 12  1  0  0  0  0
 11 12  1  0  0  0  0
 13 14  1  1  0  0  0
 13 15  1  0  0  0  0
 15 16  1  6  0  0  0
 15 17  1  0  0  0  0
M  END
>  <CHROM.1>
164.38480980,64.08282070,-0.16251887,6.63577323,21.62179477,0.19764355,-1.20804806
-2.69536195

>  <Name>
ligand

>  <RI>
0

>  <Rbt.Current_Directory>
/home/itssahil/PROJECTS/Mol_Feturizer/New_Systems/rnas/4LVX

>  <Rbt.Executable>
rbdock ($Id: //depot/dev/client3/rdock/2013.1/src/exe/rbdock.cxx#4 $)

>  <Rbt.Library>
libRbt.so (2013.1, Build901 2013/11/27)

>  <Rbt.Parameter_File>
/export/apps/rDock/src/rDock_2013.1_src/data/scripts/dock_solv.prm

>  <Rbt.Receptor>
prm/pocket_docking_7.prm

>  <SCORE>
-16.8136

>  <SCORE.INTER>
-10.3667

>  <SCORE.INTER.CONST>
1

>  <SCORE.INTER.POLAR>
0

>  <SCORE.INTER.ROT>
2

>  <SCORE.INTER.SOLV>
11.5164

>  <SCORE.INTER.VDW>
-15.6833

>  <SCORE.INTER.norm>
-0.609807

>  <SCORE.INTRA>
-6.44693

>  <SCORE.INTRA.DIHEDRAL>
-9.29868

>  <SCORE.INTRA.DIHEDRAL.0>
10.3255

>  <SCORE.INTRA.POLAR>
0

>  <SCORE.INTRA.POLAR.0>
0

>  <SCORE.INTRA.REPUL>
0

>  <SCORE.INTRA.REPUL.0>
0

>  <SCORE.INTRA.SOLV>
-0.148332

>  <SCORE.INTRA.SOLV.lig_0>
-53.4755

>  <SCORE.INTRA.VDW>
-1.72343

>  <SCORE.INTRA.VDW.0>
2.32763

>  <SCORE.INTRA.norm>
-0.379231

>  <SCORE.RESTR>
0

>  <SCORE.RESTR.CAVITY>
0

>  <SCORE.RESTR.norm>
0

>  <SCORE.SYSTEM>
0

>  <SCORE.SYSTEM.CONST>
0

>  <SCORE.SYSTEM.DIHEDRAL>
0

>  <SCORE.SYSTEM.SOLV>
0

>  <SCORE.SYSTEM.norm>
0

>  <SCORE.heavy>
17

>  <SCORE.norm>
-0.989038

>  <RMSD>
5.250

$$$$
ligand
 OpenBabel11021811503D
libRbt.so/2013.1/901 2013/11/27
 17 18  0  0  0  0  0  0  0  0999 V2000
    3.4952    6.2322   20.6393 N   0  0  0  0  0  0  0  0  0  0  0  0
    4.3272    5.2295   21.1535 C   0  0  0  0  0  0  0  0  0  0  0  0
    5.7497    5.4135   21.1460 N   0  0  0  0  0  0  0  0  0  0  0  0
    3.8088    4.0652   21.6781 N   0  0  0  0  0  0  0  0  0  0  0  0
    2.4475    3.8443   21.7095 C   0  0  0  0  0  0  0  0  0  0  0  0
    1.5508    4.8311   21.1925 C   0  0  0  0  0  0  0  0  0  0  0  0
    2.0085    2.8099   22.1751 O   0  0  0  0  0  0  0  0  0  0  0  0
    0.1038    4.6316   21.2034 N   0  0  0  0  0  0  0  0  0  0  0  0
   -0.7557    5.7084   20.8628 C   0  0  2  0  0  0  0  0  0  0  0  0
   -0.1250    6.7140   19.8629 C   0  0  0  0  0  0  0  0  0  0  0  0
    2.1074    6.0324   20.6589 C   0  0  0  0  0  0  0  0  0  0  0  0
    1.2026    7.0660   20.1228 N   0  0  0  0  0  0  0  0  0  0  0  0
   -1.2333    6.3547   22.1504 C   0  0  1  0  0  0  0  0  0  0  0  0
   -2.0887    5.5100   22.8295 O   0  0  0  0  0  0  0  0  0  0  0  0
   -0.0640    6.7221   23.0142 C   0  0  1  0  0  0  0  0  0  0  0  0
    0.5931    7.7714   22.5003 O   0  0  0  0  0  0  0  0  0  0  0  0
   -0.5209    7.0929   24.4411 C   0  0  0  0  0  0  0  0  0  0  0  0
  1  2  2  0  0  0  0
  1 11  1  0  0  0  0
  2  3  1  0  0  0  0
  2  4  1  0  0  0  0
  4  5  1  0  0  0  0
  5  6  1  0  0  0  0
  5  7  2  0  0  0  0
  6  8  1  0  0  0  0
  6 11  2  0  0  0  0
  9  8  1  1  0  0  0
  9 10  1  0  0  0  0
  9 13  1  0  0  0  0
 10 12  1  0  0  0  0
 11 12  1  0  0  0  0
 13 14  1  1  0  0  0
 13 15  1  0  0  0  0
 15 16  1  6  0  0  0
 15 17  1  0  0  0  0
M  END
>  <CHROM.1>
-69.19585776,72.14602612,1.27391365,5.66281972,21.65292053,-0.20636796,0.32915882
-0.31454814

>  <Name>
ligand

>  <RI>
0

>  <Rbt.Current_Directory>
/home/itssahil/PROJECTS/Mol_Feturizer/New_Systems/rnas/4LVX

>  <Rbt.Executable>
rbdock ($Id: //depot/dev/client3/rdock/2013.1/src/exe/rbdock.cxx#4 $)

>  <Rbt.Library>
libRbt.so (2013.1, Build901 2013/11/27)

>  <Rbt.Parameter_File>
/export/apps/rDock/src/rDock_2013.1_src/data/scripts/dock_solv.prm

>  <Rbt.Receptor>
prm/pocket_docking_3.prm

>  <SCORE>
-12.271

>  <SCORE.INTER>
-6.75999

>  <SCORE.INTER.CONST>
1

>  <SCORE.INTER.POLAR>
0

>  <SCORE.INTER.ROT>
2

>  <SCORE.INTER.SOLV>
8.71402

>  <SCORE.INTER.VDW>
-12.3447

>  <SCORE.INTER.norm>
-0.397647

>  <SCORE.INTRA>
-5.511

>  <SCORE.INTRA.DIHEDRAL>
-9.3697

>  <SCORE.INTRA.DIHEDRAL.0>
10.3255

>  <SCORE.INTRA.POLAR>
0

>  <SCORE.INTRA.POLAR.0>
0

>  <SCORE.INTRA.REPUL>
0

>  <SCORE.INTRA.REPUL.0>
0

>  <SCORE.INTRA.SOLV>
1.47073

>  <SCORE.INTRA.SOLV.lig_0>
-53.4755

>  <SCORE.INTRA.VDW>
-1.56152

>  <SCORE.INTRA.VDW.0>
2.32763

>  <SCORE.INTRA.norm>
-0.324176

>  <SCORE.RESTR>
0

>  <SCORE.RESTR.CAVITY>
0

>  <SCORE.RESTR.norm>
0

>  <SCORE.SYSTEM>
0

>  <SCORE.SYSTEM.CONST>
0

>  <SCORE.SYSTEM.DIHEDRAL>
0

>  <SCORE.SYSTEM.SOLV>
0

>  <SCORE.SYSTEM.norm>
0

>  <SCORE.heavy>
17

>  <SCORE.norm>
-0.721823

>  <RMSD>
5.279

$$$$
ligand
 OpenBabel11021811503D
libRbt.so/2013.1/901 2013/11/27
 17 18  0  0  0  0  0  0  0  0999 V2000
    0.2656    5.8300   18.7862 N   0  0  0  0  0  0  0  0  0  0  0  0
    0.4746    7.0716   18.1725 C   0  0  0  0  0  0  0  0  0  0  0  0
    0.4413    7.1716   16.7421 N   0  0  0  0  0  0  0  0  0  0  0  0
    0.7049    8.2098   18.9148 N   0  0  0  0  0  0  0  0  0  0  0  0
    0.7433    8.1638   20.2929 C   0  0  0  0  0  0  0  0  0  0  0  0
    0.5427    6.9217   20.9728 C   0  0  0  0  0  0  0  0  0  0  0  0
    0.9492    9.1785   20.9312 O   0  0  0  0  0  0  0  0  0  0  0  0
    0.5811    6.8316   22.4302 N   0  0  0  0  0  0  0  0  0  0  0  0
    0.1868    5.6274   23.0696 C   0  0  2  0  0  0  0  0  0  0  0  0
    0.4397    4.3580   22.2132 C   0  0  0  0  0  0  0  0  0  0  0  0
    0.2999    5.7556   20.1861 C   0  0  0  0  0  0  0  0  0  0  0  0
    0.0871    4.4638   20.8647 N   0  0  0  0  0  0  0  0  0  0  0  0
   -1.2568    5.7806   23.5125 C   0  0  1  0  0  0  0  0  0  0  0  0
   -1.8382    4.5438   23.7093 O   0  0  0  0  0  0  0  0  0  0  0  0
   -1.3334    6.6013   24.7651 C   0  0  1  0  0  0  0  0  0  0  0  0
   -0.8778    7.8429   24.5462 O   0  0  0  0  0  0  0  0  0  0  0  0
   -2.7869    6.7055   25.2741 C   0  0  0  0  0  0  0  0  0  0  0  0
  1  2  2  0  0  0  0
  1 11  1  0  0  0  0
  2  3  1  0  0  0  0
  2  4  1  0  0  0  0
  4  5  1  0  0  0  0
  5  6  1  0  0  0  0
  5  7  2  0  0  0  0
  6  8  1  0  0  0  0
  6 11  2  0  0  0  0
  9  8  1  6  0  0  0
  9 10  1  0  0  0  0
  9 13  1  0  0  0  0
 10 12  1  0  0  0  0
 11 12  1  0  0  0  0
 13 14  1  1  0  0  0
 13 15  1  0  0  0  0
 15 16  1  6  0  0  0
 15 17  1  0  0  0  0
M  END
>  <CHROM.1>
159.23543458,62.85131894,-0.17680520,6.54162761,21.57499083,0.20850356,-1.22414026
-2.74055174

>  <Name>
ligand

>  <RI>
0

>  <Rbt.Current_Directory>
/home/itssahil/PROJECTS/Mol_Feturizer/New_Systems/rnas/4LVX

>  <Rbt.Executable>
rbdock ($Id: //depot/dev/client3/rdock/2013.1/src/exe/rbdock.cxx#4 $)

>  <Rbt.Library>
libRbt.so (2013.1, Build901 2013/11/27)

>  <Rbt.Parameter_File>
/export/apps/rDock/src/rDock_2013.1_src/data/scripts/dock_solv.prm

>  <Rbt.Receptor>
prm/pocket_docking_5.prm

>  <SCORE>
-16.7088

>  <SCORE.INTER>
-10.5499

>  <SCORE.INTER.CONST>
1

>  <SCORE.INTER.POLAR>
0

>  <SCORE.INTER.ROT>
2

>  <SCORE.INTER.SOLV>
12.0684

>  <SCORE.INTER.VDW>
-15.9894

>  <SCORE.INTER.norm>
-0.620582

>  <SCORE.INTRA>
-6.1589

>  <SCORE.INTRA.DIHEDRAL>
-8.76417

>  <SCORE.INTRA.DIHEDRAL.0>
10.3255

>  <SCORE.INTRA.POLAR>
0

>  <SCORE.INTRA.POLAR.0>
0

>  <SCORE.INTRA.REPUL>
0

>  <SCORE.INTRA.REPUL.0>
0

>  <SCORE.INTRA.SOLV>
-0.200196

>  <SCORE.INTRA.SOLV.lig_0>
-53.4755

>  <SCORE.INTRA.VDW>
-1.67672

>  <SCORE.INTRA.VDW.0>
2.32763

>  <SCORE.INTRA.norm>
-0.362288

>  <SCORE.RESTR>
0

>  <SCORE.RESTR.CAVITY>
0

>  <SCORE.RESTR.norm>
0

>  <SCORE.SYSTEM>
0

>  <SCORE.SYSTEM.CONST>
0

>  <SCORE.SYSTEM.DIHEDRAL>
0

>  <SCORE.SYSTEM.SOLV>
0

>  <SCORE.SYSTEM.norm>
0

>  <SCORE.heavy>
17

>  <SCORE.norm>
-0.98287

>  <RMSD>
5.289

$$$$
ligand
 OpenBabel11021811503D
libRbt.so/2013.1/901 2013/11/27
 17 18  0  0  0  0  0  0  0  0999 V2000
    0.2933    5.7416   18.6269 N   0  0  0  0  0  0  0  0  0  0  0  0
    0.5477    6.9863   18.0369 C   0  0  0  0  0  0  0  0  0  0  0  0
    0.5080    7.1171   16.6092 N   0  0  0  0  0  0  0  0  0  0  0  0
    0.8290    8.0987   18.8003 N   0  0  0  0  0  0  0  0  0  0  0  0
    0.8756    8.0227   20.1769 C   0  0  0  0  0  0  0  0  0  0  0  0
    0.6302    6.7758   20.8329 C   0  0  0  0  0  0  0  0  0  0  0  0
    1.1269    9.0149   20.8340 O   0  0  0  0  0  0  0  0  0  0  0  0
    0.6755    6.6542   22.2879 N   0  0  0  0  0  0  0  0  0  0  0  0
    0.2378    5.4538   22.9057 C   0  0  2  0  0  0  0  0  0  0  0  0
    0.4332    4.1933   22.0217 C   0  0  0  0  0  0  0  0  0  0  0  0
    0.3349    5.6369   20.0246 C   0  0  0  0  0  0  0  0  0  0  0  0
    0.0753    4.3410   20.6785 N   0  0  0  0  0  0  0  0  0  0  0  0
   -1.1952    5.6555   23.3634 C   0  0  1  0  0  0  0  0  0  0  0  0
   -1.7928    4.4414   23.6378 O   0  0  0  0  0  0  0  0  0  0  0  0
   -1.2367    6.5450   24.5699 C   0  0  1  0  0  0  0  0  0  0  0  0
   -0.7964    7.7743   24.2671 O   0  0  0  0  0  0  0  0  0  0  0  0
   -2.6737    6.6708   25.1193 C   0  0  0  0  0  0  0  0  0  0  0  0
  1  2  2  0  0  0  0
  1 11  1  0  0  0  0
  2  3  1  0  0  0  0
  2  4  1  0  0  0  0
  4  5  1  0  0  0  0
  5  6  1  0  0  0  0
  5  7  2  0  0  0  0
  6  8  1  0  0  0  0
  6 11  2  0  0  0  0
  9  8  1  6  0  0  0
  9 10  1  0  0  0  0
  9 13  1  0  0  0  0
 10 12  1  0  0  0  0
 11 12  1  0  0  0  0
 13 14  1  1  0  0  0
 13 15  1  0  0  0  0
 15 16  1  6  0  0  0
 15 17  1  0  0  0  0
M  END
>  <CHROM.1>
163.80544238,64.39186992,-0.10266884,6.42861096,21.42240498,0.26103438,-1.21578180
-2.68104835

>  <Name>
ligand

>  <RI>
0

>  <Rbt.Current_Directory>
/home/itssahil/PROJECTS/Mol_Feturizer/New_Systems/rnas/4LVX

>  <Rbt.Executable>
rbdock ($Id: //depot/dev/client3/rdock/2013.1/src/exe/rbdock.cxx#4 $)

>  <Rbt.Library>
libRbt.so (2013.1, Build901 2013/11/27)

>  <Rbt.Parameter_File>
/export/apps/rDock/src/rDock_2013.1_src/data/scripts/dock_solv.prm

>  <Rbt.Receptor>
prm/pocket_docking_6.prm

>  <SCORE>
-16.6292

>  <SCORE.INTER>
-10.2227

>  <SCORE.INTER.CONST>
1

>  <SCORE.INTER.POLAR>
0

>  <SCORE.INTER.ROT>
2

>  <SCORE.INTER.SOLV>
12.0049

>  <SCORE.INTER.VDW>
-15.7501

>  <SCORE.INTER.norm>
-0.601337

>  <SCORE.INTRA>
-6.4065

>  <SCORE.INTRA.DIHEDRAL>
-9.2318

>  <SCORE.INTRA.DIHEDRAL.0>
10.3255

>  <SCORE.INTRA.POLAR>
0

>  <SCORE.INTRA.POLAR.0>
0

>  <SCORE.INTRA.REPUL>
0

>  <SCORE.INTRA.REPUL.0>
0

>  <SCORE.INTRA.SOLV>
-0.159988

>  <SCORE.INTRA.SOLV.lig_0>
-53.4755

>  <SCORE.INTRA.VDW>
-1.7106

>  <SCORE.INTRA.VDW.0>
2.32763

>  <SCORE.INTRA.norm>
-0.376853

>  <SCORE.RESTR>
0

>  <SCORE.RESTR.CAVITY>
0

>  <SCORE.RESTR.norm>
0

>  <SCORE.SYSTEM>
0

>  <SCORE.SYSTEM.CONST>
0

>  <SCORE.SYSTEM.DIHEDRAL>
0

>  <SCORE.SYSTEM.SOLV>
0

>  <SCORE.SYSTEM.norm>
0

>  <SCORE.heavy>
17

>  <SCORE.norm>
-0.97819

>  <RMSD>
5.290

$$$$
ligand
 OpenBabel11021811503D
libRbt.so/2013.1/901 2013/11/27
 17 18  0  0  0  0  0  0  0  0999 V2000
    0.2097    5.7996   18.6856 N   0  0  0  0  0  0  0  0  0  0  0  0
    1.4066    5.3844   18.0879 C   0  0  0  0  0  0  0  0  0  0  0  0
    1.6107    5.5967   16.6842 N   0  0  0  0  0  0  0  0  0  0  0  0
    2.4040    4.7800   18.8222 N   0  0  0  0  0  0  0  0  0  0  0  0
    2.2546    4.5571   20.1754 C   0  0  0  0  0  0  0  0  0  0  0  0
    1.0507    4.9548   20.8370 C   0  0  0  0  0  0  0  0  0  0  0  0
    3.1454    4.0209   20.8067 O   0  0  0  0  0  0  0  0  0  0  0  0
    0.8532    4.7312   22.2669 N   0  0  0  0  0  0  0  0  0  0  0  0
   -0.2654    5.3113   22.9200 C   0  0  2  0  0  0  0  0  0  0  0  0
   -1.4961    5.5005   21.9935 C   0  0  0  0  0  0  0  0  0  0  0  0
    0.0323    5.5843   20.0598 C   0  0  0  0  0  0  0  0  0  0  0  0
   -1.2168    6.0060   20.7205 N   0  0  0  0  0  0  0  0  0  0  0  0
    0.1927    6.5954   23.5870 C   0  0  1  0  0  0  0  0  0  0  0  0
   -0.8797    7.2619   24.1455 O   0  0  0  0  0  0  0  0  0  0  0  0
    1.2278    6.2999   24.6309 C   0  0  1  0  0  0  0  0  0  0  0  0
    2.3073    5.7283   24.0789 O   0  0  0  0  0  0  0  0  0  0  0  0
    1.6803    7.5903   25.3469 C   0  0  0  0  0  0  0  0  0  0  0  0
  1  2  2  0  0  0  0
  1 11  1  0  0  0  0
  2  3  1  0  0  0  0
  2  4  1  0  0  0  0
  4  5  1  0  0  0  0
  5  6  1  0  0  0  0
  5  7  2  0  0  0  0
  6  8  1  0  0  0  0
  6 11  2  0  0  0  0
  9  8  1  6  0  0  0
  9 10  1  0  0  0  0
  9 13  1  0  0  0  0
 10 12  1  0  0  0  0
 11 12  1  0  0  0  0
 13 14  1  1  0  0  0
 13 15  1  0  0  0  0
 15 16  1  6  0  0  0
 15 17  1  0  0  0  0
M  END
>  <CHROM.1>
175.00540522,61.28623236,0.86910709,5.65101112,21.48701959,1.42511862,0.30530967
-1.76676538

>  <Name>
ligand

>  <RI>
0

>  <Rbt.Current_Directory>
/home/itssahil/PROJECTS/Mol_Feturizer/New_Systems/rnas/4LVX

>  <Rbt.Executable>
rbdock ($Id: //depot/dev/client3/rdock/2013.1/src/exe/rbdock.cxx#4 $)

>  <Rbt.Library>
libRbt.so (2013.1, Build901 2013/11/27)

>  <Rbt.Parameter_File>
/export/apps/rDock/src/rDock_2013.1_src/data/scripts/dock_solv.prm

>  <Rbt.Receptor>
prm/pocket_docking_8.prm

>  <SCORE>
-14.9304

>  <SCORE.INTER>
-8.20552

>  <SCORE.INTER.CONST>
1

>  <SCORE.INTER.POLAR>
0

>  <SCORE.INTER.ROT>
2

>  <SCORE.INTER.SOLV>
11.5731

>  <SCORE.INTER.VDW>
-14.2614

>  <SCORE.INTER.norm>
-0.482678

>  <SCORE.INTRA>
-6.72487

>  <SCORE.INTRA.DIHEDRAL>
-10.0788

>  <SCORE.INTRA.DIHEDRAL.0>
10.3255

>  <SCORE.INTRA.POLAR>
0

>  <SCORE.INTRA.POLAR.0>
0

>  <SCORE.INTRA.REPUL>
0

>  <SCORE.INTRA.REPUL.0>
0

>  <SCORE.INTRA.SOLV>
0.0311806

>  <SCORE.INTRA.SOLV.lig_0>
-53.4755

>  <SCORE.INTRA.VDW>
-1.70105

>  <SCORE.INTRA.VDW.0>
2.32763

>  <SCORE.INTRA.norm>
-0.395581

>  <SCORE.RESTR>
0

>  <SCORE.RESTR.CAVITY>
0

>  <SCORE.RESTR.norm>
0

>  <SCORE.SYSTEM>
0

>  <SCORE.SYSTEM.CONST>
0

>  <SCORE.SYSTEM.DIHEDRAL>
0

>  <SCORE.SYSTEM.SOLV>
0

>  <SCORE.SYSTEM.norm>
0

>  <SCORE.heavy>
17

>  <SCORE.norm>
-0.878258

>  <RMSD>
5.292

$$$$
ligand
 OpenBabel11021811503D
libRbt.so/2013.1/901 2013/11/27
 17 18  0  0  0  0  0  0  0  0999 V2000
    0.2119    5.8077   18.6786 N   0  0  0  0  0  0  0  0  0  0  0  0
    1.4095    5.4000   18.0774 C   0  0  0  0  0  0  0  0  0  0  0  0
    1.6097    5.6172   16.6738 N   0  0  0  0  0  0  0  0  0  0  0  0
    2.4113    4.7984   18.8080 N   0  0  0  0  0  0  0  0  0  0  0  0
    2.2658    4.5710   20.1608 C   0  0  0  0  0  0  0  0  0  0  0  0
    1.0614    4.9611   20.8260 C   0  0  0  0  0  0  0  0  0  0  0  0
    3.1604    4.0374   20.7889 O   0  0  0  0  0  0  0  0  0  0  0  0
    0.8679    4.7327   22.2557 N   0  0  0  0  0  0  0  0  0  0  0  0
   -0.2522    5.3055   22.9126 C   0  0  2  0  0  0  0  0  0  0  0  0
   -1.4856    5.4914   21.9891 C   0  0  0  0  0  0  0  0  0  0  0  0
    0.0383    5.5879   20.0526 C   0  0  0  0  0  0  0  0  0  0  0  0
   -1.2114    6.0017   20.7170 N   0  0  0  0  0  0  0  0  0  0  0  0
    0.2011    6.5900   23.5822 C   0  0  1  0  0  0  0  0  0  0  0  0
   -0.8739    7.2519   24.1413 O   0  0  0  0  0  0  0  0  0  0  0  0
    1.2365    6.2961   24.6263 C   0  0  1  0  0  0  0  0  0  0  0  0
    2.3172    5.7265   24.0743 O   0  0  0  0  0  0  0  0  0  0  0  0
    1.6867    7.5872   25.3425 C   0  0  0  0  0  0  0  0  0  0  0  0
  1  2  2  0  0  0  0
  1 11  1  0  0  0  0
  2  3  1  0  0  0  0
  2  4  1  0  0  0  0
  4  5  1  0  0  0  0
  5  6  1  0  0  0  0
  5  7  2  0  0  0  0
  6  8  1  0  0  0  0
  6 11  2  0  0  0  0
  9  8  1  6  0  0  0
  9 10  1  0  0  0  0
  9 13  1  0  0  0  0
 10 12  1  0  0  0  0
 11 12  1  0  0  0  0
 13 14  1  1  0  0  0
 13 15  1  0  0  0  0
 15 16  1  6  0  0  0
 15 17  1  0  0  0  0
M  END
>  <CHROM.1>
174.82438476,61.14901573,0.87724200,5.65441360,21.47874026,1.42617821,0.30118743
-1.76400381

>  <Name>
ligand

>  <RI>
0

>  <Rbt.Current_Directory>
/home/itssahil/PROJECTS/Mol_Feturizer/New_Systems/rnas/4LVX

>  <Rbt.Executable>
rbdock ($Id: //depot/dev/client3/rdock/2013.1/src/exe/rbdock.cxx#4 $)

>  <Rbt.Library>
libRbt.so (2013.1, Build901 2013/11/27)

>  <Rbt.Parameter_File>
/export/apps/rDock/src/rDock_2013.1_src/data/scripts/dock_solv.prm

>  <Rbt.Receptor>
prm/pocket_docking_4.prm

>  <SCORE>
-14.9378

>  <SCORE.INTER>
-8.21151

>  <SCORE.INTER.CONST>
1

>  <SCORE.INTER.POLAR>
0

>  <SCORE.INTER.ROT>
2

>  <SCORE.INTER.SOLV>
11.4259

>  <SCORE.INTER.VDW>
-14.2163

>  <SCORE.INTER.norm>
-0.48303

>  <SCORE.INTRA>
-6.72632

>  <SCORE.INTRA.DIHEDRAL>
-10.0733

>  <SCORE.INTRA.DIHEDRAL.0>
10.3255

>  <SCORE.INTRA.POLAR>
0

>  <SCORE.INTRA.POLAR.0>
0

>  <SCORE.INTRA.REPUL>
0

>  <SCORE.INTRA.REPUL.0>
0

>  <SCORE.INTRA.SOLV>
0.0300762

>  <SCORE.INTRA.SOLV.lig_0>
-53.4755

>  <SCORE.INTRA.VDW>
-1.70471

>  <SCORE.INTRA.VDW.0>
2.32763

>  <SCORE.INTRA.norm>
-0.395666

>  <SCORE.RESTR>
0

>  <SCORE.RESTR.CAVITY>
0

>  <SCORE.RESTR.norm>
0

>  <SCORE.SYSTEM>
0

>  <SCORE.SYSTEM.CONST>
0

>  <SCORE.SYSTEM.DIHEDRAL>
0

>  <SCORE.SYSTEM.SOLV>
0

>  <SCORE.SYSTEM.norm>
0

>  <SCORE.heavy>
17

>  <SCORE.norm>
-0.878696

>  <RMSD>
5.294

$$$$
ligand
 OpenBabel11021811503D
libRbt.so/2013.1/901 2013/11/27
 17 18  0  0  0  0  0  0  0  0999 V2000
    0.2903    5.8264   18.7611 N   0  0  0  0  0  0  0  0  0  0  0  0
    0.4962    7.0683   18.1467 C   0  0  0  0  0  0  0  0  0  0  0  0
    0.4724    7.1656   16.7159 N   0  0  0  0  0  0  0  0  0  0  0  0
    0.7143    8.2090   18.8886 N   0  0  0  0  0  0  0  0  0  0  0  0
    0.7433    8.1656   20.2671 C   0  0  0  0  0  0  0  0  0  0  0  0
    0.5454    6.9235   20.9477 C   0  0  0  0  0  0  0  0  0  0  0  0
    0.9386    9.1827   20.9050 O   0  0  0  0  0  0  0  0  0  0  0  0
    0.5740    6.8362   22.4055 N   0  0  0  0  0  0  0  0  0  0  0  0
    0.1825    5.6307   23.0442 C   0  0  2  0  0  0  0  0  0  0  0  0
    0.4491    4.3614   22.1918 C   0  0  0  0  0  0  0  0  0  0  0  0
    0.3152    5.7546   20.1613 C   0  0  0  0  0  0  0  0  0  0  0  0
    0.1054    4.4627   20.8407 N   0  0  0  0  0  0  0  0  0  0  0  0
   -1.2651    5.7759   23.4766 C   0  0  1  0  0  0  0  0  0  0  0  0
   -1.8311    4.5369   23.7027 O   0  0  0  0  0  0  0  0  0  0  0  0
   -1.3586    6.6275   24.7072 C   0  0  1  0  0  0  0  0  0  0  0  0
   -0.9715    7.8837   24.4442 O   0  0  0  0  0  0  0  0  0  0  0  0
   -2.8051    6.6728   25.2441 C   0  0  0  0  0  0  0  0  0  0  0  0
  1  2  2  0  0  0  0
  1 11  1  0  0  0  0
  2  3  1  0  0  0  0
  2  4  1  0  0  0  0
  4  5  1  0  0  0  0
  5  6  1  0  0  0  0
  5  7  2  0  0  0  0
  6  8  1  0  0  0  0
  6 11  2  0  0  0  0
  9  8  1  6  0  0  0
  9 10  1  0  0  0  0
  9 13  1  0  0  0  0
 10 12  1  0  0  0  0
 11 12  1  0  0  0  0
 13 14  1  1  0  0  0
 13 15  1  0  0  0  0
 15 16  1  6  0  0  0
 15 17  1  0  0  0  0
M  END
>  <CHROM.1>
160.68258334,65.44812174,-0.17955612,6.54326796,21.54320104,0.15952631,-1.21926561
-2.79083160

>  <Name>
ligand

>  <RI>
0

>  <Rbt.Current_Directory>
/home/itssahil/PROJECTS/Mol_Feturizer/New_Systems/rnas/4LVX

>  <Rbt.Executable>
rbdock ($Id: //depot/dev/client3/rdock/2013.1/src/exe/rbdock.cxx#4 $)

>  <Rbt.Library>
libRbt.so (2013.1, Build901 2013/11/27)

>  <Rbt.Parameter_File>
/export/apps/rDock/src/rDock_2013.1_src/data/scripts/dock_solv.prm

>  <Rbt.Receptor>
prm/pocket_docking_8.prm

>  <SCORE>
-16.6461

>  <SCORE.INTER>
-10.4731

>  <SCORE.INTER.CONST>
1

>  <SCORE.INTER.POLAR>
0

>  <SCORE.INTER.ROT>
2

>  <SCORE.INTER.SOLV>
11.9952

>  <SCORE.INTER.VDW>
-15.9138

>  <SCORE.INTER.norm>
-0.616063

>  <SCORE.INTRA>
-6.17299

>  <SCORE.INTRA.DIHEDRAL>
-8.85872

>  <SCORE.INTRA.DIHEDRAL.0>
10.3255

>  <SCORE.INTRA.POLAR>
0

>  <SCORE.INTRA.POLAR.0>
0

>  <SCORE.INTRA.REPUL>
0

>  <SCORE.INTRA.REPUL.0>
0

>  <SCORE.INTRA.SOLV>
-0.21435

>  <SCORE.INTRA.SOLV.lig_0>
-53.4755

>  <SCORE.INTRA.VDW>
-1.63645

>  <SCORE.INTRA.VDW.0>
2.32763

>  <SCORE.INTRA.norm>
-0.363117

>  <SCORE.RESTR>
0

>  <SCORE.RESTR.CAVITY>
0

>  <SCORE.RESTR.norm>
0

>  <SCORE.SYSTEM>
0

>  <SCORE.SYSTEM.CONST>
0

>  <SCORE.SYSTEM.DIHEDRAL>
0

>  <SCORE.SYSTEM.SOLV>
0

>  <SCORE.SYSTEM.norm>
0

>  <SCORE.heavy>
17

>  <SCORE.norm>
-0.97918

>  <RMSD>
5.300

$$$$
ligand
 OpenBabel11021811503D
libRbt.so/2013.1/901 2013/11/27
 17 18  0  0  0  0  0  0  0  0999 V2000
    3.5139    4.1055   21.2995 N   0  0  0  0  0  0  0  0  0  0  0  0
    4.5438    4.3326   22.2214 C   0  0  0  0  0  0  0  0  0  0  0  0
    5.9092    4.3004   21.7834 N   0  0  0  0  0  0  0  0  0  0  0  0
    4.2754    4.5965   23.5471 N   0  0  0  0  0  0  0  0  0  0  0  0
    2.9783    4.6404   24.0146 C   0  0  0  0  0  0  0  0  0  0  0  0
    1.8873    4.4100   23.1191 C   0  0  0  0  0  0  0  0  0  0  0  0
    2.7610    4.8735   25.1885 O   0  0  0  0  0  0  0  0  0  0  0  0
    0.5006    4.4431   23.5772 N   0  0  0  0  0  0  0  0  0  0  0  0
   -0.5533    4.4032   22.6275 C   0  0  2  0  0  0  0  0  0  0  0  0
   -0.1901    3.6353   21.3286 C   0  0  0  0  0  0  0  0  0  0  0  0
    2.1862    4.1441   21.7488 C   0  0  0  0  0  0  0  0  0  0  0  0
    1.0777    3.9064   20.8058 N   0  0  0  0  0  0  0  0  0  0  0  0
   -1.0170    5.8268   22.3790 C   0  0  1  0  0  0  0  0  0  0  0  0
   -1.9716    5.8596   21.3819 O   0  0  0  0  0  0  0  0  0  0  0  0
   -1.5575    6.4270   23.6423 C   0  0  1  0  0  0  0  0  0  0  0  0
   -2.2031    5.5025   24.3673 O   0  0  0  0  0  0  0  0  0  0  0  0
   -0.4232    7.0125   24.5101 C   0  0  0  0  0  0  0  0  0  0  0  0
  1  2  2  0  0  0  0
  1 11  1  0  0  0  0
  2  3  1  0  0  0  0
  2  4  1  0  0  0  0
  4  5  1  0  0  0  0
  5  6  1  0  0  0  0
  5  7  2  0  0  0  0
  6  8  1  0  0  0  0
  6 11  2  0  0  0  0
  9  8  1  1  0  0  0
  9 10  1  0  0  0  0
  9 13  1  0  0  0  0
 10 12  1  0  0  0  0
 11 12  1  0  0  0  0
 13 14  1  6  0  0  0
 13 15  1  0  0  0  0
 15 16  1  1  0  0  0
 15 17  1  0  0  0  0
M  END
>  <CHROM.1>
175.23032259,-35.84148222,1.19935915,4.87897987,22.82527616,0.18154794,0.18914309
-1.94141973

>  <Name>
ligand

>  <RI>
0

>  <Rbt.Current_Directory>
/home/itssahil/PROJECTS/Mol_Feturizer/New_Systems/rnas/4LVX

>  <Rbt.Executable>
rbdock ($Id: //depot/dev/client3/rdock/2013.1/src/exe/rbdock.cxx#4 $)

>  <Rbt.Library>
libRbt.so (2013.1, Build901 2013/11/27)

>  <Rbt.Parameter_File>
/export/apps/rDock/src/rDock_2013.1_src/data/scripts/dock_solv.prm

>  <Rbt.Receptor>
prm/pocket_docking_5.prm

>  <SCORE>
-15.3109

>  <SCORE.INTER>
-9.85862

>  <SCORE.INTER.CONST>
1

>  <SCORE.INTER.POLAR>
0

>  <SCORE.INTER.ROT>
2

>  <SCORE.INTER.SOLV>
16.8002

>  <SCORE.INTER.VDW>
-17.1058

>  <SCORE.INTER.norm>
-0.579919

>  <SCORE.INTRA>
-5.45228

>  <SCORE.INTRA.DIHEDRAL>
-8.24488

>  <SCORE.INTRA.DIHEDRAL.0>
10.3255

>  <SCORE.INTRA.POLAR>
0

>  <SCORE.INTRA.POLAR.0>
0

>  <SCORE.INTRA.REPUL>
0

>  <SCORE.INTRA.REPUL.0>
0

>  <SCORE.INTRA.SOLV>
0.410529

>  <SCORE.INTRA.SOLV.lig_0>
-53.4755

>  <SCORE.INTRA.VDW>
-1.5351

>  <SCORE.INTRA.VDW.0>
2.32763

>  <SCORE.INTRA.norm>
-0.320722

>  <SCORE.RESTR>
0

>  <SCORE.RESTR.CAVITY>
0

>  <SCORE.RESTR.norm>
0

>  <SCORE.SYSTEM>
0

>  <SCORE.SYSTEM.CONST>
0

>  <SCORE.SYSTEM.DIHEDRAL>
0

>  <SCORE.SYSTEM.SOLV>
0

>  <SCORE.SYSTEM.norm>
0

>  <SCORE.heavy>
17

>  <SCORE.norm>
-0.900641

>  <RMSD>
5.310

$$$$
ligand
 OpenBabel11021811503D
libRbt.so/2013.1/901 2013/11/27
 17 18  0  0  0  0  0  0  0  0999 V2000
    3.5401    4.1682   21.2834 N   0  0  0  0  0  0  0  0  0  0  0  0
    4.5674    4.4004   22.2069 C   0  0  0  0  0  0  0  0  0  0  0  0
    5.9329    4.3893   21.7682 N   0  0  0  0  0  0  0  0  0  0  0  0
    4.2963    4.6495   23.5349 N   0  0  0  0  0  0  0  0  0  0  0  0
    2.9989    4.6729   24.0032 C   0  0  0  0  0  0  0  0  0  0  0  0
    1.9106    4.4363   23.1061 C   0  0  0  0  0  0  0  0  0  0  0  0
    2.7792    4.8931   25.1791 O   0  0  0  0  0  0  0  0  0  0  0  0
    0.5238    4.4479   23.5649 N   0  0  0  0  0  0  0  0  0  0  0  0
   -0.5300    4.4027   22.6153 C   0  0  2  0  0  0  0  0  0  0  0  0
   -0.1576    3.6506   21.3097 C   0  0  0  0  0  0  0  0  0  0  0  0
    2.2122    4.1860   21.7335 C   0  0  0  0  0  0  0  0  0  0  0  0
    1.1064    3.9423   20.7889 N   0  0  0  0  0  0  0  0  0  0  0  0
   -1.0119    5.8224   22.3791 C   0  0  1  0  0  0  0  0  0  0  0  0
   -1.9520    5.8544   21.3684 O   0  0  0  0  0  0  0  0  0  0  0  0
   -1.5803    6.3968   23.6422 C   0  0  1  0  0  0  0  0  0  0  0  0
   -2.2147    5.4508   24.3489 O   0  0  0  0  0  0  0  0  0  0  0  0
   -0.4692    6.9964   24.5302 C   0  0  0  0  0  0  0  0  0  0  0  0
  1  2  2  0  0  0  0
  1 11  1  0  0  0  0
  2  3  1  0  0  0  0
  2  4  1  0  0  0  0
  4  5  1  0  0  0  0
  5  6  1  0  0  0  0
  5  7  2  0  0  0  0
  6  8  1  0  0  0  0
  6 11  2  0  0  0  0
  9  8  1  1  0  0  0
  9 10  1  0  0  0  0
  9 13  1  0  0  0  0
 10 12  1  0  0  0  0
 11 12  1  0  0  0  0
 13 14  1  6  0  0  0
 13 15  1  0  0  0  0
 15 16  1  1  0  0  0
 15 17  1  0  0  0  0
M  END
>  <CHROM.1>
174.29261603,-35.43990059,1.21259496,4.89766214,22.81480407,0.17657586,0.17711758
-1.92965903

>  <Name>
ligand

>  <RI>
0

>  <Rbt.Current_Directory>
/home/itssahil/PROJECTS/Mol_Feturizer/New_Systems/rnas/4LVX

>  <Rbt.Executable>
rbdock ($Id: //depot/dev/client3/rdock/2013.1/src/exe/rbdock.cxx#4 $)

>  <Rbt.Library>
libRbt.so (2013.1, Build901 2013/11/27)

>  <Rbt.Parameter_File>
/export/apps/rDock/src/rDock_2013.1_src/data/scripts/dock_solv.prm

>  <Rbt.Receptor>
prm/pocket_docking_7.prm

>  <SCORE>
-15.3061

>  <SCORE.INTER>
-9.86352

>  <SCORE.INTER.CONST>
1

>  <SCORE.INTER.POLAR>
0

>  <SCORE.INTER.ROT>
2

>  <SCORE.INTER.SOLV>
16.4054

>  <SCORE.INTER.VDW>
-16.9775

>  <SCORE.INTER.norm>
-0.580207

>  <SCORE.INTRA>
-5.44261

>  <SCORE.INTRA.DIHEDRAL>
-8.15631

>  <SCORE.INTRA.DIHEDRAL.0>
10.3255

>  <SCORE.INTRA.POLAR>
0

>  <SCORE.INTRA.POLAR.0>
0

>  <SCORE.INTRA.REPUL>
0

>  <SCORE.INTRA.REPUL.0>
0

>  <SCORE.INTRA.SOLV>
0.400951

>  <SCORE.INTRA.SOLV.lig_0>
-53.4755

>  <SCORE.INTRA.VDW>
-1.56493

>  <SCORE.INTRA.VDW.0>
2.32763

>  <SCORE.INTRA.norm>
-0.320153

>  <SCORE.RESTR>
0

>  <SCORE.RESTR.CAVITY>
0

>  <SCORE.RESTR.norm>
0

>  <SCORE.SYSTEM>
0

>  <SCORE.SYSTEM.CONST>
0

>  <SCORE.SYSTEM.DIHEDRAL>
0

>  <SCORE.SYSTEM.SOLV>
0

>  <SCORE.SYSTEM.norm>
0

>  <SCORE.heavy>
17

>  <SCORE.norm>
-0.900361

>  <RMSD>
5.313

$$$$
ligand
 OpenBabel11021811503D
libRbt.so/2013.1/901 2013/11/27
 17 18  0  0  0  0  0  0  0  0999 V2000
    3.5179    4.0979   21.3127 N   0  0  0  0  0  0  0  0  0  0  0  0
    4.5407    4.3037   22.2473 C   0  0  0  0  0  0  0  0  0  0  0  0
    5.9098    4.2716   21.8207 N   0  0  0  0  0  0  0  0  0  0  0  0
    4.2621    4.5464   23.5750 N   0  0  0  0  0  0  0  0  0  0  0  0
    2.9612    4.5893   24.0319 C   0  0  0  0  0  0  0  0  0  0  0  0
    1.8770    4.3800   23.1231 C   0  0  0  0  0  0  0  0  0  0  0  0
    2.7349    4.8035   25.2076 O   0  0  0  0  0  0  0  0  0  0  0  0
    0.4865    4.4128   23.5696 N   0  0  0  0  0  0  0  0  0  0  0  0
   -0.5592    4.3947   22.6103 C   0  0  2  0  0  0  0  0  0  0  0  0
   -0.1886    3.6472   21.3016 C   0  0  0  0  0  0  0  0  0  0  0  0
    2.1865    4.1360   21.7511 C   0  0  0  0  0  0  0  0  0  0  0  0
    1.0851    3.9203   20.7946 N   0  0  0  0  0  0  0  0  0  0  0  0
   -1.0133    5.8249   22.3821 C   0  0  1  0  0  0  0  0  0  0  0  0
   -1.9537    5.8807   21.3726 O   0  0  0  0  0  0  0  0  0  0  0  0
   -1.5689    6.4037   23.6488 C   0  0  1  0  0  0  0  0  0  0  0  0
   -2.2186    5.4660   24.3528 O   0  0  0  0  0  0  0  0  0  0  0  0
   -0.4457    6.9797   24.5372 C   0  0  0  0  0  0  0  0  0  0  0  0
  1  2  2  0  0  0  0
  1 11  1  0  0  0  0
  2  3  1  0  0  0  0
  2  4  1  0  0  0  0
  4  5  1  0  0  0  0
  5  6  1  0  0  0  0
  5  7  2  0  0  0  0
  6  8  1  0  0  0  0
  6 11  2  0  0  0  0
  9  8  1  1  0  0  0
  9 10  1  0  0  0  0
  9 13  1  0  0  0  0
 10 12  1  0  0  0  0
 11 12  1  0  0  0  0
 13 14  1  6  0  0  0
 13 15  1  0  0  0  0
 15 16  1  1  0  0  0
 15 17  1  0  0  0  0
M  END
>  <CHROM.1>
174.90904967,-35.30378865,1.19314990,4.85765941,22.83077680,0.17515271,0.19732690
-1.92285645

>  <Name>
ligand

>  <RI>
0

>  <Rbt.Current_Directory>
/home/itssahil/PROJECTS/Mol_Feturizer/New_Systems/rnas/4LVX

>  <Rbt.Executable>
rbdock ($Id: //depot/dev/client3/rdock/2013.1/src/exe/rbdock.cxx#4 $)

>  <Rbt.Library>
libRbt.so (2013.1, Build901 2013/11/27)

>  <Rbt.Parameter_File>
/export/apps/rDock/src/rDock_2013.1_src/data/scripts/dock_solv.prm

>  <Rbt.Receptor>
prm/pocket_docking_6.prm

>  <SCORE>
-15.3115

>  <SCORE.INTER>
-9.87495

>  <SCORE.INTER.CONST>
1

>  <SCORE.INTER.POLAR>
0

>  <SCORE.INTER.ROT>
2

>  <SCORE.INTER.SOLV>
16.907

>  <SCORE.INTER.VDW>
-17.1523

>  <SCORE.INTER.norm>
-0.580879

>  <SCORE.INTRA>
-5.43654

>  <SCORE.INTRA.DIHEDRAL>
-8.16151

>  <SCORE.INTRA.DIHEDRAL.0>
10.3255

>  <SCORE.INTRA.POLAR>
0

>  <SCORE.INTRA.POLAR.0>
0

>  <SCORE.INTRA.REPUL>
0

>  <SCORE.INTRA.REPUL.0>
0

>  <SCORE.INTRA.SOLV>
0.406164

>  <SCORE.INTRA.SOLV.lig_0>
-53.4755

>  <SCORE.INTRA.VDW>
-1.55886

>  <SCORE.INTRA.VDW.0>
2.32763

>  <SCORE.INTRA.norm>
-0.319796

>  <SCORE.RESTR>
0

>  <SCORE.RESTR.CAVITY>
0

>  <SCORE.RESTR.norm>
0

>  <SCORE.SYSTEM>
0

>  <SCORE.SYSTEM.CONST>
0

>  <SCORE.SYSTEM.DIHEDRAL>
0

>  <SCORE.SYSTEM.SOLV>
0

>  <SCORE.SYSTEM.norm>
0

>  <SCORE.heavy>
17

>  <SCORE.norm>
-0.900676

>  <RMSD>
5.314

$$$$
ligand
 OpenBabel11021811503D
libRbt.so/2013.1/901 2013/11/27
 17 18  0  0  0  0  0  0  0  0999 V2000
    0.3947    5.6833   19.0381 N   0  0  0  0  0  0  0  0  0  0  0  0
    0.5641    6.8826   18.3344 C   0  0  0  0  0  0  0  0  0  0  0  0
    0.5822    6.8683   16.9003 N   0  0  0  0  0  0  0  0  0  0  0  0
    0.7064    8.0861   18.9905 N   0  0  0  0  0  0  0  0  0  0  0  0
    0.6927    8.1504   20.3685 C   0  0  0  0  0  0  0  0  0  0  0  0
    0.5292    6.9563   21.1383 C   0  0  0  0  0  0  0  0  0  0  0  0
    0.8212    9.2216   20.9300 O   0  0  0  0  0  0  0  0  0  0  0  0
    0.5146    6.9829   22.5988 N   0  0  0  0  0  0  0  0  0  0  0  0
    0.1574    5.8130   23.3184 C   0  0  2  0  0  0  0  0  0  0  0  0
    0.5084    4.4959   22.5762 C   0  0  0  0  0  0  0  0  0  0  0  0
    0.3775    5.7207   20.4397 C   0  0  0  0  0  0  0  0  0  0  0  0
    0.2044    4.4765   21.2120 N   0  0  0  0  0  0  0  0  0  0  0  0
   -1.3085    5.9221   23.6964 C   0  0  1  0  0  0  0  0  0  0  0  0
   -1.8624    4.6680   23.8605 O   0  0  0  0  0  0  0  0  0  0  0  0
   -1.4651    6.7323   24.9484 C   0  0  1  0  0  0  0  0  0  0  0  0
   -1.0295    7.9858   24.7587 O   0  0  0  0  0  0  0  0  0  0  0  0
   -2.9434    6.7984   25.3873 C   0  0  0  0  0  0  0  0  0  0  0  0
  1  2  2  0  0  0  0
  1 11  1  0  0  0  0
  2  3  1  0  0  0  0
  2  4  1  0  0  0  0
  4  5  1  0  0  0  0
  5  6  1  0  0  0  0
  5  7  2  0  0  0  0
  6  8  1  0  0  0  0
  6 11  2  0  0  0  0
  9  8  1  6  0  0  0
  9 10  1  0  0  0  0
  9 13  1  0  0  0  0
 10 12  1  0  0  0  0
 11 12  1  0  0  0  0
 13 14  1  1  0  0  0
 13 15  1  0  0  0  0
 15 16  1  6  0  0  0
 15 17  1  0  0  0  0
M  END
>  <CHROM.1>
154.14568106,62.53100353,-0.19077020,6.56760716,21.75661141,0.09506996,-1.20534200
-2.91337253

>  <Name>
ligand

>  <RI>
0

>  <Rbt.Current_Directory>
/home/itssahil/PROJECTS/Mol_Feturizer/New_Systems/rnas/4LVX

>  <Rbt.Executable>
rbdock ($Id: //depot/dev/client3/rdock/2013.1/src/exe/rbdock.cxx#4 $)

>  <Rbt.Library>
libRbt.so (2013.1, Build901 2013/11/27)

>  <Rbt.Parameter_File>
/export/apps/rDock/src/rDock_2013.1_src/data/scripts/dock_solv.prm

>  <Rbt.Receptor>
prm/pocket_docking_4.prm

>  <SCORE>
-16.4343

>  <SCORE.INTER>
-10.7052

>  <SCORE.INTER.CONST>
1

>  <SCORE.INTER.POLAR>
0

>  <SCORE.INTER.ROT>
2

>  <SCORE.INTER.SOLV>
11.8345

>  <SCORE.INTER.VDW>
-16.015

>  <SCORE.INTER.norm>
-0.629716

>  <SCORE.INTRA>
-5.72914

>  <SCORE.INTRA.DIHEDRAL>
-8.12885

>  <SCORE.INTRA.DIHEDRAL.0>
10.3255

>  <SCORE.INTRA.POLAR>
0

>  <SCORE.INTRA.POLAR.0>
0

>  <SCORE.INTRA.REPUL>
0

>  <SCORE.INTRA.REPUL.0>
0

>  <SCORE.INTRA.SOLV>
-0.222217

>  <SCORE.INTRA.SOLV.lig_0>
-53.4755

>  <SCORE.INTRA.VDW>
-1.5536

>  <SCORE.INTRA.VDW.0>
2.32763

>  <SCORE.INTRA.norm>
-0.337008

>  <SCORE.RESTR>
0

>  <SCORE.RESTR.CAVITY>
0

>  <SCORE.RESTR.norm>
0

>  <SCORE.SYSTEM>
0

>  <SCORE.SYSTEM.CONST>
0

>  <SCORE.SYSTEM.DIHEDRAL>
0

>  <SCORE.SYSTEM.SOLV>
0

>  <SCORE.SYSTEM.norm>
0

>  <SCORE.heavy>
17

>  <SCORE.norm>
-0.966724

>  <RMSD>
5.327

$$$$
ligand
 OpenBabel11021811503D
libRbt.so/2013.1/901 2013/11/27
 17 18  0  0  0  0  0  0  0  0999 V2000
    0.3240    5.5496   18.7762 N   0  0  0  0  0  0  0  0  0  0  0  0
    0.4812    6.7631   18.0946 C   0  0  0  0  0  0  0  0  0  0  0  0
    0.4699    6.7790   16.6604 N   0  0  0  0  0  0  0  0  0  0  0  0
    0.6392    7.9524   18.7728 N   0  0  0  0  0  0  0  0  0  0  0  0
    0.6538    7.9877   20.1517 C   0  0  0  0  0  0  0  0  0  0  0  0
    0.5039    6.7779   20.8995 C   0  0  0  0  0  0  0  0  0  0  0  0
    0.7958    9.0467   20.7329 O   0  0  0  0  0  0  0  0  0  0  0  0
    0.5192    6.7738   22.3602 N   0  0  0  0  0  0  0  0  0  0  0  0
    0.1747    5.5895   23.0623 C   0  0  2  0  0  0  0  0  0  0  0  0
    0.5080    4.2878   22.2855 C   0  0  0  0  0  0  0  0  0  0  0  0
    0.3356    5.5575   20.1784 C   0  0  0  0  0  0  0  0  0  0  0  0
    0.1760    4.2976   20.9277 N   0  0  0  0  0  0  0  0  0  0  0  0
   -1.2829    5.6927   23.4724 C   0  0  1  0  0  0  0  0  0  0  0  0
   -1.8312    4.4363   23.6374 O   0  0  0  0  0  0  0  0  0  0  0  0
   -1.4140    6.4917   24.7345 C   0  0  1  0  0  0  0  0  0  0  0  0
   -0.9332    7.7311   24.5622 O   0  0  0  0  0  0  0  0  0  0  0  0
   -2.8902    6.6051   25.1708 C   0  0  0  0  0  0  0  0  0  0  0  0
  1  2  2  0  0  0  0
  1 11  1  0  0  0  0
  2  3  1  0  0  0  0
  2  4  1  0  0  0  0
  4  5  1  0  0  0  0
  5  6  1  0  0  0  0
  5  7  2  0  0  0  0
  6  8  1  0  0  0  0
  6 11  2  0  0  0  0
  9  8  1  6  0  0  0
  9 10  1  0  0  0  0
  9 13  1  0  0  0  0
 10 12  1  0  0  0  0
 11 12  1  0  0  0  0
 13 14  1  1  0  0  0
 13 15  1  0  0  0  0
 15 16  1  6  0  0  0
 15 17  1  0  0  0  0
M  END
>  <CHROM.1>
154.87956075,59.96764296,-0.20125416,6.38247257,21.52121302,0.11021753,-1.22566657
-2.88133104

>  <Name>
ligand

>  <RI>
0

>  <Rbt.Current_Directory>
/home/itssahil/PROJECTS/Mol_Feturizer/New_Systems/rnas/4LVX

>  <Rbt.Executable>
rbdock ($Id: //depot/dev/client3/rdock/2013.1/src/exe/rbdock.cxx#4 $)

>  <Rbt.Library>
libRbt.so (2013.1, Build901 2013/11/27)

>  <Rbt.Parameter_File>
/export/apps/rDock/src/rDock_2013.1_src/data/scripts/dock_solv.prm

>  <Rbt.Receptor>
prm/pocket_docking_7.prm

>  <SCORE>
-16.5643

>  <SCORE.INTER>
-10.6992

>  <SCORE.INTER.CONST>
1

>  <SCORE.INTER.POLAR>
0

>  <SCORE.INTER.ROT>
2

>  <SCORE.INTER.SOLV>
12.3672

>  <SCORE.INTER.VDW>
-16.1885

>  <SCORE.INTER.norm>
-0.629364

>  <SCORE.INTRA>
-5.86516

>  <SCORE.INTRA.DIHEDRAL>
-8.244

>  <SCORE.INTRA.DIHEDRAL.0>
10.3255

>  <SCORE.INTRA.POLAR>
0

>  <SCORE.INTRA.POLAR.0>
0

>  <SCORE.INTRA.REPUL>
0

>  <SCORE.INTRA.REPUL.0>
0

>  <SCORE.INTRA.SOLV>
-0.198695

>  <SCORE.INTRA.SOLV.lig_0>
-53.4755

>  <SCORE.INTRA.VDW>
-1.64381

>  <SCORE.INTRA.VDW.0>
2.32763

>  <SCORE.INTRA.norm>
-0.345009

>  <SCORE.RESTR>
0

>  <SCORE.RESTR.CAVITY>
0

>  <SCORE.RESTR.norm>
0

>  <SCORE.SYSTEM>
0

>  <SCORE.SYSTEM.CONST>
0

>  <SCORE.SYSTEM.DIHEDRAL>
0

>  <SCORE.SYSTEM.SOLV>
0

>  <SCORE.SYSTEM.norm>
0

>  <SCORE.heavy>
17

>  <SCORE.norm>
-0.974373

>  <RMSD>
5.328

$$$$
ligand
 OpenBabel11021811503D
libRbt.so/2013.1/901 2013/11/27
 17 18  0  0  0  0  0  0  0  0999 V2000
    0.3605    5.5378   18.8082 N   0  0  0  0  0  0  0  0  0  0  0  0
    0.5098    6.7488   18.1204 C   0  0  0  0  0  0  0  0  0  0  0  0
    0.5069    6.7561   16.6861 N   0  0  0  0  0  0  0  0  0  0  0  0
    0.6521    7.9436   18.7924 N   0  0  0  0  0  0  0  0  0  0  0  0
    0.6583    7.9870   20.1712 C   0  0  0  0  0  0  0  0  0  0  0  0
    0.5158    6.7802   20.9253 C   0  0  0  0  0  0  0  0  0  0  0  0
    0.7864    9.0508   20.7469 O   0  0  0  0  0  0  0  0  0  0  0  0
    0.5225    6.7849   22.3860 N   0  0  0  0  0  0  0  0  0  0  0  0
    0.1854    5.6014   23.0931 C   0  0  2  0  0  0  0  0  0  0  0  0
    0.5361    4.2985   22.3260 C   0  0  0  0  0  0  0  0  0  0  0  0
    0.3638    5.5541   20.2104 C   0  0  0  0  0  0  0  0  0  0  0  0
    0.2121    4.2970   20.9662 N   0  0  0  0  0  0  0  0  0  0  0  0
   -1.2755    5.6926   23.4940 C   0  0  1  0  0  0  0  0  0  0  0  0
   -1.7980    4.4339   23.7152 O   0  0  0  0  0  0  0  0  0  0  0  0
   -1.4279    6.5460   24.7176 C   0  0  1  0  0  0  0  0  0  0  0  0
   -0.9972    7.7933   24.4815 O   0  0  0  0  0  0  0  0  0  0  0  0
   -2.9041    6.6232   25.1620 C   0  0  0  0  0  0  0  0  0  0  0  0
  1  2  2  0  0  0  0
  1 11  1  0  0  0  0
  2  3  1  0  0  0  0
  2  4  1  0  0  0  0
  4  5  1  0  0  0  0
  5  6  1  0  0  0  0
  5  7  2  0  0  0  0
  6  8  1  0  0  0  0
  6 11  2  0  0  0  0
  9  8  1  6  0  0  0
  9 10  1  0  0  0  0
  9 13  1  0  0  0  0
 10 12  1  0  0  0  0
 11 12  1  0  0  0  0
 13 14  1  1  0  0  0
 13 15  1  0  0  0  0
 15 16  1  6  0  0  0
 15 17  1  0  0  0  0
M  END
>  <CHROM.1>
157.27307301,61.19908075,-0.19172331,6.38950477,21.53956007,0.04585853,-1.22042616
-2.95321504

>  <Name>
ligand

>  <RI>
0

>  <Rbt.Current_Directory>
/home/itssahil/PROJECTS/Mol_Feturizer/New_Systems/rnas/4LVX

>  <Rbt.Executable>
rbdock ($Id: //depot/dev/client3/rdock/2013.1/src/exe/rbdock.cxx#4 $)

>  <Rbt.Library>
libRbt.so (2013.1, Build901 2013/11/27)

>  <Rbt.Parameter_File>
/export/apps/rDock/src/rDock_2013.1_src/data/scripts/dock_solv.prm

>  <Rbt.Receptor>
prm/pocket_docking_6.prm

>  <SCORE>
-16.6456

>  <SCORE.INTER>
-10.6012

>  <SCORE.INTER.CONST>
1

>  <SCORE.INTER.POLAR>
0

>  <SCORE.INTER.ROT>
2

>  <SCORE.INTER.SOLV>
12.312

>  <SCORE.INTER.VDW>
-16.1048

>  <SCORE.INTER.norm>
-0.623597

>  <SCORE.INTRA>
-6.04449

>  <SCORE.INTRA.DIHEDRAL>
-8.54629

>  <SCORE.INTRA.DIHEDRAL.0>
10.3255

>  <SCORE.INTRA.POLAR>
0

>  <SCORE.INTRA.POLAR.0>
0

>  <SCORE.INTRA.REPUL>
0

>  <SCORE.INTRA.REPUL.0>
0

>  <SCORE.INTRA.SOLV>
-0.196518

>  <SCORE.INTRA.SOLV.lig_0>
-53.4755

>  <SCORE.INTRA.VDW>
-1.67308

>  <SCORE.INTRA.VDW.0>
2.32763

>  <SCORE.INTRA.norm>
-0.355558

>  <SCORE.RESTR>
0

>  <SCORE.RESTR.CAVITY>
0

>  <SCORE.RESTR.norm>
0

>  <SCORE.SYSTEM>
0

>  <SCORE.SYSTEM.CONST>
0

>  <SCORE.SYSTEM.DIHEDRAL>
0

>  <SCORE.SYSTEM.SOLV>
0

>  <SCORE.SYSTEM.norm>
0

>  <SCORE.heavy>
17

>  <SCORE.norm>
-0.979156

>  <RMSD>
5.329

$$$$
ligand
 OpenBabel11021811503D
libRbt.so/2013.1/901 2013/11/27
 17 18  0  0  0  0  0  0  0  0999 V2000
    0.3290    5.5552   18.7920 N   0  0  0  0  0  0  0  0  0  0  0  0
    0.5093    6.7611   18.1024 C   0  0  0  0  0  0  0  0  0  0  0  0
    0.4910    6.7689   16.6683 N   0  0  0  0  0  0  0  0  0  0  0  0
    0.6967    7.9505   18.7728 N   0  0  0  0  0  0  0  0  0  0  0  0
    0.7191    7.9934   20.1514 C   0  0  0  0  0  0  0  0  0  0  0  0
    0.5465    6.7915   20.9071 C   0  0  0  0  0  0  0  0  0  0  0  0
    0.8872    9.0524   20.7257 O   0  0  0  0  0  0  0  0  0  0  0  0
    0.5692    6.7956   22.3677 N   0  0  0  0  0  0  0  0  0  0  0  0
    0.2024    5.6231   23.0784 C   0  0  2  0  0  0  0  0  0  0  0  0
    0.5031    4.3100   22.3077 C   0  0  0  0  0  0  0  0  0  0  0  0
    0.3479    5.5710   20.1940 C   0  0  0  0  0  0  0  0  0  0  0  0
    0.1646    4.3192   20.9515 N   0  0  0  0  0  0  0  0  0  0  0  0
   -1.2506    5.7607   23.4952 C   0  0  1  0  0  0  0  0  0  0  0  0
   -1.8176    4.5181   23.6971 O   0  0  0  0  0  0  0  0  0  0  0  0
   -1.3601    6.5949   24.7364 C   0  0  1  0  0  0  0  0  0  0  0  0
   -0.9133    7.8387   24.5118 O   0  0  0  0  0  0  0  0  0  0  0  0
   -2.8241    6.6893   25.2161 C   0  0  0  0  0  0  0  0  0  0  0  0
  1  2  2  0  0  0  0
  1 11  1  0  0  0  0
  2  3  1  0  0  0  0
  2  4  1  0  0  0  0
  4  5  1  0  0  0  0
  5  6  1  0  0  0  0
  5  7  2  0  0  0  0
  6  8  1  0  0  0  0
  6 11  2  0  0  0  0
  9  8  1  6  0  0  0
  9 10  1  0  0  0  0
  9 13  1  0  0  0  0
 10 12  1  0  0  0  0
 11 12  1  0  0  0  0
 13 14  1  1  0  0  0
 13 15  1  0  0  0  0
 15 16  1  6  0  0  0
 15 17  1  0  0  0  0
M  END
>  <CHROM.1>
156.11883015,62.59715170,-0.16754738,6.41770996,21.53271467,0.15524815,-1.22317092
-2.84672975

>  <Name>
ligand

>  <RI>
0

>  <Rbt.Current_Directory>
/home/itssahil/PROJECTS/Mol_Feturizer/New_Systems/rnas/4LVX

>  <Rbt.Executable>
rbdock ($Id: //depot/dev/client3/rdock/2013.1/src/exe/rbdock.cxx#4 $)

>  <Rbt.Library>
libRbt.so (2013.1, Build901 2013/11/27)

>  <Rbt.Parameter_File>
/export/apps/rDock/src/rDock_2013.1_src/data/scripts/dock_solv.prm

>  <Rbt.Receptor>
prm/pocket_docking_5.prm

>  <SCORE>
-16.6675

>  <SCORE.INTER>
-10.752

>  <SCORE.INTER.CONST>
1

>  <SCORE.INTER.POLAR>
0

>  <SCORE.INTER.ROT>
2

>  <SCORE.INTER.SOLV>
12.1748

>  <SCORE.INTER.VDW>
-16.1596

>  <SCORE.INTER.norm>
-0.632471

>  <SCORE.INTRA>
-5.91554

>  <SCORE.INTRA.DIHEDRAL>
-8.38334

>  <SCORE.INTRA.DIHEDRAL.0>
10.3255

>  <SCORE.INTRA.POLAR>
0

>  <SCORE.INTRA.POLAR.0>
0

>  <SCORE.INTRA.REPUL>
0

>  <SCORE.INTRA.REPUL.0>
0

>  <SCORE.INTRA.SOLV>
-0.213104

>  <SCORE.INTRA.SOLV.lig_0>
-53.4755

>  <SCORE.INTRA.VDW>
-1.61731

>  <SCORE.INTRA.VDW.0>
2.32763

>  <SCORE.INTRA.norm>
-0.347973

>  <SCORE.RESTR>
0

>  <SCORE.RESTR.CAVITY>
0

>  <SCORE.RESTR.norm>
0

>  <SCORE.SYSTEM>
0

>  <SCORE.SYSTEM.CONST>
0

>  <SCORE.SYSTEM.DIHEDRAL>
0

>  <SCORE.SYSTEM.SOLV>
0

>  <SCORE.SYSTEM.norm>
0

>  <SCORE.heavy>
17

>  <SCORE.norm>
-0.980443

>  <RMSD>
5.330

$$$$
ligand
 OpenBabel11021811503D
libRbt.so/2013.1/901 2013/11/27
 17 18  0  0  0  0  0  0  0  0999 V2000
    0.3351    5.5307   18.7617 N   0  0  0  0  0  0  0  0  0  0  0  0
    0.5091    6.7359   18.0694 C   0  0  0  0  0  0  0  0  0  0  0  0
    0.4925    6.7401   16.6352 N   0  0  0  0  0  0  0  0  0  0  0  0
    0.6888    7.9280   18.7371 N   0  0  0  0  0  0  0  0  0  0  0  0
    0.7094    7.9744   20.1156 C   0  0  0  0  0  0  0  0  0  0  0  0
    0.5429    6.7734   20.8740 C   0  0  0  0  0  0  0  0  0  0  0  0
    0.8705    9.0358   20.6874 O   0  0  0  0  0  0  0  0  0  0  0  0
    0.5639    6.7812   22.3346 N   0  0  0  0  0  0  0  0  0  0  0  0
    0.2031    5.6084   23.0478 C   0  0  2  0  0  0  0  0  0  0  0  0
    0.5125    4.2952   22.2807 C   0  0  0  0  0  0  0  0  0  0  0  0
    0.3523    5.5500   20.1637 C   0  0  0  0  0  0  0  0  0  0  0  0
    0.1754    4.2990   20.9241 N   0  0  0  0  0  0  0  0  0  0  0  0
   -1.2511    5.7384   23.4626 C   0  0  1  0  0  0  0  0  0  0  0  0
   -1.8162    4.4925   23.6490 O   0  0  0  0  0  0  0  0  0  0  0  0
   -1.3652    6.5583   24.7129 C   0  0  1  0  0  0  0  0  0  0  0  0
   -0.9190    7.8049   24.5039 O   0  0  0  0  0  0  0  0  0  0  0  0
   -2.8308    6.6458   25.1891 C   0  0  0  0  0  0  0  0  0  0  0  0
  1  2  2  0  0  0  0
  1 11  1  0  0  0  0
  2  3  1  0  0  0  0
  2  4  1  0  0  0  0
  4  5  1  0  0  0  0
  5  6  1  0  0  0  0
  5  7  2  0  0  0  0
  6  8  1  0  0  0  0
  6 11  2  0  0  0  0
  9  8  1  6  0  0  0
  9 10  1  0  0  0  0
  9 13  1  0  0  0  0
 10 12  1  0  0  0  0
 11 12  1  0  0  0  0
 13 14  1  1  0  0  0
 13 15  1  0  0  0  0
 15 16  1  6  0  0  0
 15 17  1  0  0  0  0
M  END
>  <CHROM.1>
155.29280304,62.52989858,-0.16926026,6.39387754,21.50177275,0.14830320,-1.22385013
-2.85361594

>  <Name>
ligand

>  <RI>
0

>  <Rbt.Current_Directory>
/home/itssahil/PROJECTS/Mol_Feturizer/New_Systems/rnas/4LVX

>  <Rbt.Executable>
rbdock ($Id: //depot/dev/client3/rdock/2013.1/src/exe/rbdock.cxx#4 $)

>  <Rbt.Library>
libRbt.so (2013.1, Build901 2013/11/27)

>  <Rbt.Parameter_File>
/export/apps/rDock/src/rDock_2013.1_src/data/scripts/dock_solv.prm

>  <Rbt.Receptor>
prm/pocket_docking_5.prm

>  <SCORE>
-16.6743

>  <SCORE.INTER>
-10.8273

>  <SCORE.INTER.CONST>
1

>  <SCORE.INTER.POLAR>
0

>  <SCORE.INTER.ROT>
2

>  <SCORE.INTER.SOLV>
12.1706

>  <SCORE.INTER.VDW>
-16.2084

>  <SCORE.INTER.norm>
-0.636901

>  <SCORE.INTRA>
-5.84703

>  <SCORE.INTRA.DIHEDRAL>
-8.27836

>  <SCORE.INTRA.DIHEDRAL.0>
10.3255

>  <SCORE.INTRA.POLAR>
0

>  <SCORE.INTRA.POLAR.0>
0

>  <SCORE.INTRA.REPUL>
0

>  <SCORE.INTRA.REPUL.0>
0

>  <SCORE.INTRA.SOLV>
-0.216593

>  <SCORE.INTRA.SOLV.lig_0>
-53.4755

>  <SCORE.INTRA.VDW>
-1.59955

>  <SCORE.INTRA.VDW.0>
2.32763

>  <SCORE.INTRA.norm>
-0.343943

>  <SCORE.RESTR>
0

>  <SCORE.RESTR.CAVITY>
0

>  <SCORE.RESTR.norm>
0

>  <SCORE.SYSTEM>
0

>  <SCORE.SYSTEM.CONST>
0

>  <SCORE.SYSTEM.DIHEDRAL>
0

>  <SCORE.SYSTEM.SOLV>
0

>  <SCORE.SYSTEM.norm>
0

>  <SCORE.heavy>
17

>  <SCORE.norm>
-0.980843

>  <RMSD>
5.338

$$$$
ligand
 OpenBabel11021811503D
libRbt.so/2013.1/901 2013/11/27
 17 18  0  0  0  0  0  0  0  0999 V2000
    0.3266    5.5390   18.7434 N   0  0  0  0  0  0  0  0  0  0  0  0
    0.5067    6.7438   18.0521 C   0  0  0  0  0  0  0  0  0  0  0  0
    0.4844    6.7500   16.6180 N   0  0  0  0  0  0  0  0  0  0  0  0
    0.6979    7.9337   18.7206 N   0  0  0  0  0  0  0  0  0  0  0  0
    0.7244    7.9780   20.0991 C   0  0  0  0  0  0  0  0  0  0  0  0
    0.5521    6.7772   20.8566 C   0  0  0  0  0  0  0  0  0  0  0  0
    0.8957    9.0374   20.6717 O   0  0  0  0  0  0  0  0  0  0  0  0
    0.5790    6.7828   22.3171 N   0  0  0  0  0  0  0  0  0  0  0  0
    0.2124    5.6117   23.0302 C   0  0  2  0  0  0  0  0  0  0  0  0
    0.5090    4.2973   22.2600 C   0  0  0  0  0  0  0  0  0  0  0  0
    0.3496    5.5562   20.1454 C   0  0  0  0  0  0  0  0  0  0  0  0
    0.1666    4.3055   20.9048 N   0  0  0  0  0  0  0  0  0  0  0  0
   -1.2391    5.7519   23.4510 C   0  0  1  0  0  0  0  0  0  0  0  0
   -1.8050    4.5107   23.6642 O   0  0  0  0  0  0  0  0  0  0  0  0
   -1.3446    6.5954   24.6862 C   0  0  1  0  0  0  0  0  0  0  0  0
   -0.9204    7.8439   24.4446 O   0  0  0  0  0  0  0  0  0  0  0  0
   -2.8032    6.6714   25.1854 C   0  0  0  0  0  0  0  0  0  0  0  0
  1  2  2  0  0  0  0
  1 11  1  0  0  0  0
  2  3  1  0  0  0  0
  2  4  1  0  0  0  0
  4  5  1  0  0  0  0
  5  6  1  0  0  0  0
  5  7  2  0  0  0  0
  6  8  1  0  0  0  0
  6 11  2  0  0  0  0
  9  8  1  6  0  0  0
  9 10  1  0  0  0  0
  9 13  1  0  0  0  0
 10 12  1  0  0  0  0
 11 12  1  0  0  0  0
 13 14  1  1  0  0  0
 13 15  1  0  0  0  0
 15 16  1  6  0  0  0
 15 17  1  0  0  0  0
M  END
>  <CHROM.1>
156.50283180,63.65483751,-0.16207119,6.40568530,21.48423521,0.15468669,-1.22510783
-2.84884903

>  <Name>
ligand

>  <RI>
0

>  <Rbt.Current_Directory>
/home/itssahil/PROJECTS/Mol_Feturizer/New_Systems/rnas/4LVX

>  <Rbt.Executable>
rbdock ($Id: //depot/dev/client3/rdock/2013.1/src/exe/rbdock.cxx#4 $)

>  <Rbt.Library>
libRbt.so (2013.1, Build901 2013/11/27)

>  <Rbt.Parameter_File>
/export/apps/rDock/src/rDock_2013.1_src/data/scripts/dock_solv.prm

>  <Rbt.Receptor>
prm/pocket_docking_7.prm

>  <SCORE>
-16.6707

>  <SCORE.INTER>
-10.7568

>  <SCORE.INTER.CONST>
1

>  <SCORE.INTER.POLAR>
0

>  <SCORE.INTER.ROT>
2

>  <SCORE.INTER.SOLV>
12.1699

>  <SCORE.INTER.VDW>
-16.1612

>  <SCORE.INTER.norm>
-0.632753

>  <SCORE.INTRA>
-5.9139

>  <SCORE.INTRA.DIHEDRAL>
-8.40972

>  <SCORE.INTRA.DIHEDRAL.0>
10.3255

>  <SCORE.INTRA.POLAR>
0

>  <SCORE.INTRA.POLAR.0>
0

>  <SCORE.INTRA.REPUL>
0

>  <SCORE.INTRA.REPUL.0>
0

>  <SCORE.INTRA.SOLV>
-0.219592

>  <SCORE.INTRA.SOLV.lig_0>
-53.4755

>  <SCORE.INTRA.VDW>
-1.59925

>  <SCORE.INTRA.VDW.0>
2.32763

>  <SCORE.INTRA.norm>
-0.347877

>  <SCORE.RESTR>
0

>  <SCORE.RESTR.CAVITY>
0

>  <SCORE.RESTR.norm>
0

>  <SCORE.SYSTEM>
0

>  <SCORE.SYSTEM.CONST>
0

>  <SCORE.SYSTEM.DIHEDRAL>
0

>  <SCORE.SYSTEM.SOLV>
0

>  <SCORE.SYSTEM.norm>
0

>  <SCORE.heavy>
17

>  <SCORE.norm>
-0.980629

>  <RMSD>
5.339

$$$$
ligand
 OpenBabel11021811503D
libRbt.so/2013.1/901 2013/11/27
 17 18  0  0  0  0  0  0  0  0999 V2000
    3.4743    4.1426   21.0716 N   0  0  0  0  0  0  0  0  0  0  0  0
    4.5434    4.3846   21.9436 C   0  0  0  0  0  0  0  0  0  0  0  0
    5.8870    4.3693   21.4418 N   0  0  0  0  0  0  0  0  0  0  0  0
    4.3344    4.6472   23.2803 N   0  0  0  0  0  0  0  0  0  0  0  0
    3.0603    4.6752   23.8083 C   0  0  0  0  0  0  0  0  0  0  0  0
    1.9315    4.4290   22.9655 C   0  0  0  0  0  0  0  0  0  0  0  0
    2.8956    4.9074   24.9909 O   0  0  0  0  0  0  0  0  0  0  0  0
    0.5676    4.4450   23.4884 N   0  0  0  0  0  0  0  0  0  0  0  0
   -0.5293    4.3897   22.5896 C   0  0  2  0  0  0  0  0  0  0  0  0
   -0.2177    3.6244   21.2758 C   0  0  0  0  0  0  0  0  0  0  0  0
    2.1689    4.1647   21.5830 C   0  0  0  0  0  0  0  0  0  0  0  0
    1.0204    3.9110   20.6936 N   0  0  0  0  0  0  0  0  0  0  0  0
   -1.0227    5.8068   22.3616 C   0  0  1  0  0  0  0  0  0  0  0  0
   -1.9793    5.8338   21.3662 O   0  0  0  0  0  0  0  0  0  0  0  0
   -1.5738    6.3779   23.6339 C   0  0  1  0  0  0  0  0  0  0  0  0
   -2.2084    5.4325   24.3413 O   0  0  0  0  0  0  0  0  0  0  0  0
   -0.4491    6.9633   24.5141 C   0  0  0  0  0  0  0  0  0  0  0  0
  1  2  2  0  0  0  0
  1 11  1  0  0  0  0
  2  3  1  0  0  0  0
  2  4  1  0  0  0  0
  4  5  1  0  0  0  0
  5  6  1  0  0  0  0
  5  7  2  0  0  0  0
  6  8  1  0  0  0  0
  6 11  2  0  0  0  0
  9  8  1  1  0  0  0
  9 10  1  0  0  0  0
  9 13  1  0  0  0  0
 10 12  1  0  0  0  0
 11 12  1  0  0  0  0
 13 14  1  6  0  0  0
 13 15  1  0  0  0  0
 15 16  1  1  0  0  0
 15 17  1  0  0  0  0
M  END
>  <CHROM.1>
172.42086109,-36.34165285,1.21044402,4.88257695,22.69923452,0.21802612,0.15951956
-1.94014498

>  <Name>
ligand

>  <RI>
0

>  <Rbt.Current_Directory>
/home/itssahil/PROJECTS/Mol_Feturizer/New_Systems/rnas/4LVX

>  <Rbt.Executable>
rbdock ($Id: //depot/dev/client3/rdock/2013.1/src/exe/rbdock.cxx#4 $)

>  <Rbt.Library>
libRbt.so (2013.1, Build901 2013/11/27)

>  <Rbt.Parameter_File>
/export/apps/rDock/src/rDock_2013.1_src/data/scripts/dock_solv.prm

>  <Rbt.Receptor>
prm/pocket_docking_4.prm

>  <SCORE>
-15.3058

>  <SCORE.INTER>
-9.83879

>  <SCORE.INTER.CONST>
1

>  <SCORE.INTER.POLAR>
0

>  <SCORE.INTER.ROT>
2

>  <SCORE.INTER.SOLV>
17.3238

>  <SCORE.INTER.VDW>
-17.2671

>  <SCORE.INTER.norm>
-0.578752

>  <SCORE.INTRA>
-5.467

>  <SCORE.INTRA.DIHEDRAL>
-8.18968

>  <SCORE.INTRA.DIHEDRAL.0>
10.3255

>  <SCORE.INTRA.POLAR>
0

>  <SCORE.INTRA.POLAR.0>
0

>  <SCORE.INTRA.REPUL>
0

>  <SCORE.INTRA.REPUL.0>
0

>  <SCORE.INTRA.SOLV>
0.386023

>  <SCORE.INTRA.SOLV.lig_0>
-53.4755

>  <SCORE.INTRA.VDW>
-1.56517

>  <SCORE.INTRA.VDW.0>
2.32763

>  <SCORE.INTRA.norm>
-0.321588

>  <SCORE.RESTR>
0

>  <SCORE.RESTR.CAVITY>
0

>  <SCORE.RESTR.norm>
0

>  <SCORE.SYSTEM>
0

>  <SCORE.SYSTEM.CONST>
0

>  <SCORE.SYSTEM.DIHEDRAL>
0

>  <SCORE.SYSTEM.SOLV>
0

>  <SCORE.SYSTEM.norm>
0

>  <SCORE.heavy>
17

>  <SCORE.norm>
-0.900341

>  <RMSD>
5.340

$$$$
ligand
 OpenBabel11021811503D
libRbt.so/2013.1/901 2013/11/27
 17 18  0  0  0  0  0  0  0  0999 V2000
    0.3645    5.5551   18.7962 N   0  0  0  0  0  0  0  0  0  0  0  0
    0.5007    6.7580   18.0916 C   0  0  0  0  0  0  0  0  0  0  0  0
    0.4906    6.7464   16.6574 N   0  0  0  0  0  0  0  0  0  0  0  0
    0.6368    7.9626   18.7472 N   0  0  0  0  0  0  0  0  0  0  0  0
    0.6495    8.0244   20.1252 C   0  0  0  0  0  0  0  0  0  0  0  0
    0.5203    6.8266   20.8958 C   0  0  0  0  0  0  0  0  0  0  0  0
    0.7719    9.0966   20.6862 O   0  0  0  0  0  0  0  0  0  0  0  0
    0.5342    6.8505   22.3563 N   0  0  0  0  0  0  0  0  0  0  0  0
    0.2102    5.6738   23.0806 C   0  0  2  0  0  0  0  0  0  0  0  0
    0.5674    4.3638   22.3290 C   0  0  0  0  0  0  0  0  0  0  0  0
    0.3746    5.5899   20.1979 C   0  0  0  0  0  0  0  0  0  0  0  0
    0.2367    4.3418   20.9710 N   0  0  0  0  0  0  0  0  0  0  0  0
   -1.2495    5.7589   23.4877 C   0  0  1  0  0  0  0  0  0  0  0  0
   -1.7748    4.4963   23.6788 O   0  0  0  0  0  0  0  0  0  0  0  0
   -1.3963    6.5817   24.7327 C   0  0  1  0  0  0  0  0  0  0  0  0
   -0.9777    7.8376   24.5222 O   0  0  0  0  0  0  0  0  0  0  0  0
   -2.8685    6.6365   25.1932 C   0  0  0  0  0  0  0  0  0  0  0  0
  1  2  2  0  0  0  0
  1 11  1  0  0  0  0
  2  3  1  0  0  0  0
  2  4  1  0  0  0  0
  4  5  1  0  0  0  0
  5  6  1  0  0  0  0
  5  7  2  0  0  0  0
  6  8  1  0  0  0  0
  6 11  2  0  0  0  0
  9  8  1  6  0  0  0
  9 10  1  0  0  0  0
  9 13  1  0  0  0  0
 10 12  1  0  0  0  0
 11 12  1  0  0  0  0
 13 14  1  1  0  0  0
 13 15  1  0  0  0  0
 15 16  1  6  0  0  0
 15 17  1  0  0  0  0
M  END
>  <CHROM.1>
154.99631462,61.93252087,-0.18065620,6.42918781,21.52507066,0.05272150,-1.22788534
-2.95382364

>  <Name>
ligand

>  <RI>
0

>  <Rbt.Current_Directory>
/home/itssahil/PROJECTS/Mol_Feturizer/New_Systems/rnas/4LVX

>  <Rbt.Executable>
rbdock ($Id: //depot/dev/client3/rdock/2013.1/src/exe/rbdock.cxx#4 $)

>  <Rbt.Library>
libRbt.so (2013.1, Build901 2013/11/27)

>  <Rbt.Parameter_File>
/export/apps/rDock/src/rDock_2013.1_src/data/scripts/dock_solv.prm

>  <Rbt.Receptor>
prm/pocket_docking_6.prm

>  <SCORE>
-16.7234

>  <SCORE.INTER>
-10.8857

>  <SCORE.INTER.CONST>
1

>  <SCORE.INTER.POLAR>
0

>  <SCORE.INTER.ROT>
2

>  <SCORE.INTER.SOLV>
12.0824

>  <SCORE.INTER.VDW>
-16.2179

>  <SCORE.INTER.norm>
-0.640338

>  <SCORE.INTRA>
-5.83765

>  <SCORE.INTRA.DIHEDRAL>
-8.24873

>  <SCORE.INTRA.DIHEDRAL.0>
10.3255

>  <SCORE.INTRA.POLAR>
0

>  <SCORE.INTRA.POLAR.0>
0

>  <SCORE.INTRA.REPUL>
0

>  <SCORE.INTRA.REPUL.0>
0

>  <SCORE.INTRA.SOLV>
-0.213374

>  <SCORE.INTRA.SOLV.lig_0>
-53.4755

>  <SCORE.INTRA.VDW>
-1.6066

>  <SCORE.INTRA.VDW.0>
2.32763

>  <SCORE.INTRA.norm>
-0.343391

>  <SCORE.RESTR>
0

>  <SCORE.RESTR.CAVITY>
0

>  <SCORE.RESTR.norm>
0

>  <SCORE.SYSTEM>
0

>  <SCORE.SYSTEM.CONST>
0

>  <SCORE.SYSTEM.DIHEDRAL>
0

>  <SCORE.SYSTEM.SOLV>
0

>  <SCORE.SYSTEM.norm>
0

>  <SCORE.heavy>
17

>  <SCORE.norm>
-0.983729

>  <RMSD>
5.342

$$$$
ligand
 OpenBabel11021811503D
libRbt.so/2013.1/901 2013/11/27
 17 18  0  0  0  0  0  0  0  0999 V2000
    0.3495    5.5563   18.6959 N   0  0  0  0  0  0  0  0  0  0  0  0
    0.5221    6.7679   18.0146 C   0  0  0  0  0  0  0  0  0  0  0  0
    0.5045    6.7852   16.5805 N   0  0  0  0  0  0  0  0  0  0  0  0
    0.7015    7.9540   18.6930 N   0  0  0  0  0  0  0  0  0  0  0  0
    0.7231    7.9878   20.0719 C   0  0  0  0  0  0  0  0  0  0  0  0
    0.5580    6.7798   20.8194 C   0  0  0  0  0  0  0  0  0  0  0  0
    0.8840    9.0440   20.6533 O   0  0  0  0  0  0  0  0  0  0  0  0
    0.5801    6.7742   22.2800 N   0  0  0  0  0  0  0  0  0  0  0  0
    0.2207    5.5946   22.9827 C   0  0  2  0  0  0  0  0  0  0  0  0
    0.5303    4.2887   22.2033 C   0  0  0  0  0  0  0  0  0  0  0  0
    0.3677    5.5628   20.0980 C   0  0  0  0  0  0  0  0  0  0  0  0
    0.1922    4.3048   20.8471 N   0  0  0  0  0  0  0  0  0  0  0  0
   -1.2333    5.7199   23.3997 C   0  0  1  0  0  0  0  0  0  0  0  0
   -1.7876    4.4728   23.6092 O   0  0  0  0  0  0  0  0  0  0  0  0
   -1.3504    6.5601   24.6361 C   0  0  1  0  0  0  0  0  0  0  0  0
   -0.9338    7.8120   24.3990 O   0  0  0  0  0  0  0  0  0  0  0  0
   -2.8118    6.6250   25.1286 C   0  0  0  0  0  0  0  0  0  0  0  0
  1  2  2  0  0  0  0
  1 11  1  0  0  0  0
  2  3  1  0  0  0  0
  2  4  1  0  0  0  0
  4  5  1  0  0  0  0
  5  6  1  0  0  0  0
  5  7  2  0  0  0  0
  6  8  1  0  0  0  0
  6 11  2  0  0  0  0
  9  8  1  6  0  0  0
  9 10  1  0  0  0  0
  9 13  1  0  0  0  0
 10 12  1  0  0  0  0
 11 12  1  0  0  0  0
 13 14  1  1  0  0  0
 13 15  1  0  0  0  0
 15 16  1  6  0  0  0
 15 17  1  0  0  0  0
M  END
>  <CHROM.1>
156.86500969,63.45637842,-0.15508271,6.39917149,21.44072999,0.12505768,-1.22418661
-2.86992445

>  <Name>
ligand

>  <RI>
0

>  <Rbt.Current_Directory>
/home/itssahil/PROJECTS/Mol_Feturizer/New_Systems/rnas/4LVX

>  <Rbt.Executable>
rbdock ($Id: //depot/dev/client3/rdock/2013.1/src/exe/rbdock.cxx#4 $)

>  <Rbt.Library>
libRbt.so (2013.1, Build901 2013/11/27)

>  <Rbt.Parameter_File>
/export/apps/rDock/src/rDock_2013.1_src/data/scripts/dock_solv.prm

>  <Rbt.Receptor>
prm/pocket_docking_7.prm

>  <SCORE>
-16.635

>  <SCORE.INTER>
-10.6839

>  <SCORE.INTER.CONST>
1

>  <SCORE.INTER.POLAR>
0

>  <SCORE.INTER.ROT>
2

>  <SCORE.INTER.SOLV>
12.0388

>  <SCORE.INTER.VDW>
-16.0689

>  <SCORE.INTER.norm>
-0.628465

>  <SCORE.INTRA>
-5.95108

>  <SCORE.INTRA.DIHEDRAL>
-8.46031

>  <SCORE.INTRA.DIHEDRAL.0>
10.3255

>  <SCORE.INTRA.POLAR>
0

>  <SCORE.INTRA.POLAR.0>
0

>  <SCORE.INTRA.REPUL>
0

>  <SCORE.INTRA.REPUL.0>
0

>  <SCORE.INTRA.SOLV>
-0.216285

>  <SCORE.INTRA.SOLV.lig_0>
-53.4755

>  <SCORE.INTRA.VDW>
-1.61278

>  <SCORE.INTRA.VDW.0>
2.32763

>  <SCORE.INTRA.norm>
-0.350064

>  <SCORE.RESTR>
0

>  <SCORE.RESTR.CAVITY>
0

>  <SCORE.RESTR.norm>
0

>  <SCORE.SYSTEM>
0

>  <SCORE.SYSTEM.CONST>
0

>  <SCORE.SYSTEM.DIHEDRAL>
0

>  <SCORE.SYSTEM.SOLV>
0

>  <SCORE.SYSTEM.norm>
0

>  <SCORE.heavy>
17

>  <SCORE.norm>
-0.978529

>  <RMSD>
5.344

$$$$
ligand
 OpenBabel11021811503D
libRbt.so/2013.1/901 2013/11/27
 17 18  0  0  0  0  0  0  0  0999 V2000
    0.3552    5.5427   18.7890 N   0  0  0  0  0  0  0  0  0  0  0  0
    0.4863    6.7429   18.0789 C   0  0  0  0  0  0  0  0  0  0  0  0
    0.4726    6.7249   16.6447 N   0  0  0  0  0  0  0  0  0  0  0  0
    0.6207    7.9508   18.7287 N   0  0  0  0  0  0  0  0  0  0  0  0
    0.6367    8.0186   20.1064 C   0  0  0  0  0  0  0  0  0  0  0  0
    0.5129    6.8239   20.8827 C   0  0  0  0  0  0  0  0  0  0  0  0
    0.7576    9.0937   20.6624 O   0  0  0  0  0  0  0  0  0  0  0  0
    0.5304    6.8544   22.3430 N   0  0  0  0  0  0  0  0  0  0  0  0
    0.2115    5.6800   23.0733 C   0  0  2  0  0  0  0  0  0  0  0  0
    0.5704    4.3676   22.3265 C   0  0  0  0  0  0  0  0  0  0  0  0
    0.3688    5.5838   20.1906 C   0  0  0  0  0  0  0  0  0  0  0  0
    0.2363    4.3387   20.9695 N   0  0  0  0  0  0  0  0  0  0  0  0
   -1.2473    5.7627   23.4838 C   0  0  1  0  0  0  0  0  0  0  0  0
   -1.7709    4.4993   23.6736 O   0  0  0  0  0  0  0  0  0  0  0  0
   -1.3923    6.5831   24.7306 C   0  0  1  0  0  0  0  0  0  0  0  0
   -0.9687    7.8379   24.5235 O   0  0  0  0  0  0  0  0  0  0  0  0
   -2.8647    6.6424   25.1897 C   0  0  0  0  0  0  0  0  0  0  0  0
  1  2  2  0  0  0  0
  1 11  1  0  0  0  0
  2  3  1  0  0  0  0
  2  4  1  0  0  0  0
  4  5  1  0  0  0  0
  5  6  1  0  0  0  0
  5  7  2  0  0  0  0
  6  8  1  0  0  0  0
  6 11  2  0  0  0  0
  9  8  1  6  0  0  0
  9 10  1  0  0  0  0
  9 13  1  0  0  0  0
 10 12  1  0  0  0  0
 11 12  1  0  0  0  0
 13 14  1  1  0  0  0
 13 15  1  0  0  0  0
 15 16  1  6  0  0  0
 15 17  1  0  0  0  0
M  END
>  <CHROM.1>
154.62367593,61.59784591,-0.18482068,6.42625045,21.51621739,0.05133489,-1.23127633
-2.95875188

>  <Name>
ligand

>  <RI>
0

>  <Rbt.Current_Directory>
/home/itssahil/PROJECTS/Mol_Feturizer/New_Systems/rnas/4LVX

>  <Rbt.Executable>
rbdock ($Id: //depot/dev/client3/rdock/2013.1/src/exe/rbdock.cxx#4 $)

>  <Rbt.Library>
libRbt.so (2013.1, Build901 2013/11/27)

>  <Rbt.Parameter_File>
/export/apps/rDock/src/rDock_2013.1_src/data/scripts/dock_solv.prm

>  <Rbt.Receptor>
prm/pocket_docking_6.prm

>  <SCORE>
-16.7161

>  <SCORE.INTER>
-10.9026

>  <SCORE.INTER.CONST>
1

>  <SCORE.INTER.POLAR>
0

>  <SCORE.INTER.ROT>
2

>  <SCORE.INTER.SOLV>
12.1283

>  <SCORE.INTER.VDW>
-16.2445

>  <SCORE.INTER.norm>
-0.641331

>  <SCORE.INTRA>
-5.8135

>  <SCORE.INTRA.DIHEDRAL>
-8.204

>  <SCORE.INTRA.DIHEDRAL.0>
10.3255

>  <SCORE.INTRA.POLAR>
0

>  <SCORE.INTRA.POLAR.0>
0

>  <SCORE.INTRA.REPUL>
0

>  <SCORE.INTRA.REPUL.0>
0

>  <SCORE.INTRA.SOLV>
-0.212599

>  <SCORE.INTRA.SOLV.lig_0>
-53.4755

>  <SCORE.INTRA.VDW>
-1.6052

>  <SCORE.INTRA.VDW.0>
2.32763

>  <SCORE.INTRA.norm>
-0.341971

>  <SCORE.RESTR>
0

>  <SCORE.RESTR.CAVITY>
0

>  <SCORE.RESTR.norm>
0

>  <SCORE.SYSTEM>
0

>  <SCORE.SYSTEM.CONST>
0

>  <SCORE.SYSTEM.DIHEDRAL>
0

>  <SCORE.SYSTEM.SOLV>
0

>  <SCORE.SYSTEM.norm>
0

>  <SCORE.heavy>
17

>  <SCORE.norm>
-0.983301

>  <RMSD>
5.345

$$$$
ligand
 OpenBabel11021811503D
libRbt.so/2013.1/901 2013/11/27
 17 18  0  0  0  0  0  0  0  0999 V2000
    0.3507    5.5116   18.8221 N   0  0  0  0  0  0  0  0  0  0  0  0
    0.4889    6.7047   18.1013 C   0  0  0  0  0  0  0  0  0  0  0  0
    0.4787    6.6736   16.6674 N   0  0  0  0  0  0  0  0  0  0  0  0
    0.6270    7.9178   18.7405 N   0  0  0  0  0  0  0  0  0  0  0  0
    0.6398    7.9982   20.1176 C   0  0  0  0  0  0  0  0  0  0  0  0
    0.5087    6.8111   20.9043 C   0  0  0  0  0  0  0  0  0  0  0  0
    0.7641    9.0777   20.6640 O   0  0  0  0  0  0  0  0  0  0  0  0
    0.5227    6.8549   22.3644 N   0  0  0  0  0  0  0  0  0  0  0  0
    0.1967    5.6886   23.1045 C   0  0  2  0  0  0  0  0  0  0  0  0
    0.5517    4.3679   22.3707 C   0  0  0  0  0  0  0  0  0  0  0  0
    0.3608    5.5654   20.2232 C   0  0  0  0  0  0  0  0  0  0  0  0
    0.2209    4.3281   21.0132 N   0  0  0  0  0  0  0  0  0  0  0  0
   -1.2629    5.7816   23.5105 C   0  0  1  0  0  0  0  0  0  0  0  0
   -1.7917    4.5223   23.7133 O   0  0  0  0  0  0  0  0  0  0  0  0
   -1.4076    6.6165   24.7476 C   0  0  1  0  0  0  0  0  0  0  0  0
   -1.0051    7.8746   24.5194 O   0  0  0  0  0  0  0  0  0  0  0  0
   -2.8761    6.6599   25.2210 C   0  0  0  0  0  0  0  0  0  0  0  0
  1  2  2  0  0  0  0
  1 11  1  0  0  0  0
  2  3  1  0  0  0  0
  2  4  1  0  0  0  0
  4  5  1  0  0  0  0
  5  6  1  0  0  0  0
  5  7  2  0  0  0  0
  6  8  1  0  0  0  0
  6 11  2  0  0  0  0
  9  8  1  6  0  0  0
  9 10  1  0  0  0  0
  9 13  1  0  0  0  0
 10 12  1  0  0  0  0
 11 12  1  0  0  0  0
 13 14  1  1  0  0  0
 13 15  1  0  0  0  0
 15 16  1  6  0  0  0
 15 17  1  0  0  0  0
M  END
>  <CHROM.1>
154.75051395,62.90435053,-0.19394724,6.42165605,21.54000899,0.05863031,-1.22732894
-2.96067828

>  <Name>
ligand

>  <RI>
0

>  <Rbt.Current_Directory>
/home/itssahil/PROJECTS/Mol_Feturizer/New_Systems/rnas/4LVX

>  <Rbt.Executable>
rbdock ($Id: //depot/dev/client3/rdock/2013.1/src/exe/rbdock.cxx#4 $)

>  <Rbt.Library>
libRbt.so (2013.1, Build901 2013/11/27)

>  <Rbt.Parameter_File>
/export/apps/rDock/src/rDock_2013.1_src/data/scripts/dock_solv.prm

>  <Rbt.Receptor>
prm/pocket_docking_7.prm

>  <SCORE>
-16.6881

>  <SCORE.INTER>
-10.8995

>  <SCORE.INTER.CONST>
1

>  <SCORE.INTER.POLAR>
0

>  <SCORE.INTER.ROT>
2

>  <SCORE.INTER.SOLV>
12.2395

>  <SCORE.INTER.VDW>
-16.2795

>  <SCORE.INTER.norm>
-0.641146

>  <SCORE.INTRA>
-5.78864

>  <SCORE.INTRA.DIHEDRAL>
-8.20112

>  <SCORE.INTRA.DIHEDRAL.0>
10.3255

>  <SCORE.INTRA.POLAR>
0

>  <SCORE.INTRA.POLAR.0>
0

>  <SCORE.INTRA.REPUL>
0

>  <SCORE.INTRA.REPUL.0>
0

>  <SCORE.INTRA.SOLV>
-0.222171

>  <SCORE.INTRA.SOLV.lig_0>
-53.4755

>  <SCORE.INTRA.VDW>
-1.57699

>  <SCORE.INTRA.VDW.0>
2.32763

>  <SCORE.INTRA.norm>
-0.340508

>  <SCORE.RESTR>
0

>  <SCORE.RESTR.CAVITY>
0

>  <SCORE.RESTR.norm>
0

>  <SCORE.SYSTEM>
0

>  <SCORE.SYSTEM.CONST>
0

>  <SCORE.SYSTEM.DIHEDRAL>
0

>  <SCORE.SYSTEM.SOLV>
0

>  <SCORE.SYSTEM.norm>
0

>  <SCORE.heavy>
17

>  <SCORE.norm>
-0.981655

>  <RMSD>
5.347

$$$$
ligand
 OpenBabel11021811503D
libRbt.so/2013.1/901 2013/11/27
 17 18  0  0  0  0  0  0  0  0999 V2000
    1.9777    5.0633   18.7548 N   0  0  0  0  0  0  0  0  0  0  0  0
    3.3672    5.2334   18.7086 C   0  0  0  0  0  0  0  0  0  0  0  0
    4.0004    5.5729   17.4672 N   0  0  0  0  0  0  0  0  0  0  0  0
    4.1462    5.0898   19.8364 N   0  0  0  0  0  0  0  0  0  0  0  0
    3.5823    4.7666   21.0532 C   0  0  0  0  0  0  0  0  0  0  0  0
    2.1689    4.5750   21.1579 C   0  0  0  0  0  0  0  0  0  0  0  0
    4.2860    4.6427   22.0375 O   0  0  0  0  0  0  0  0  0  0  0  0
    1.5354    4.2272   22.4273 N   0  0  0  0  0  0  0  0  0  0  0  0
    0.1200    4.2370   22.5312 C   0  0  2  0  0  0  0  0  0  0  0  0
   -0.6030    3.9140   21.1963 C   0  0  0  0  0  0  0  0  0  0  0  0
    1.3792    4.7340   19.9795 C   0  0  0  0  0  0  0  0  0  0  0  0
   -0.0808    4.5445   20.0633 N   0  0  0  0  0  0  0  0  0  0  0  0
   -0.2980    5.5631   23.1399 C   0  0  1  0  0  0  0  0  0  0  0  0
    0.2346    5.7057   24.4058 O   0  0  0  0  0  0  0  0  0  0  0  0
    0.1306    6.6989   22.2598 C   0  0  1  0  0  0  0  0  0  0  0  0
   -0.6762    6.8027   21.1943 O   0  0  0  0  0  0  0  0  0  0  0  0
    0.0932    8.0397   23.0235 C   0  0  0  0  0  0  0  0  0  0  0  0
  1  2  2  0  0  0  0
  1 11  1  0  0  0  0
  2  3  1  0  0  0  0
  2  4  1  0  0  0  0
  4  5  1  0  0  0  0
  5  6  1  0  0  0  0
  5  7  2  0  0  0  0
  6  8  1  0  0  0  0
  6 11  2  0  0  0  0
  9  8  1  6  0  0  0
  9 10  1  0  0  0  0
  9 13  1  0  0  0  0
 10 12  1  0  0  0  0
 11 12  1  0  0  0  0
 13 14  1  1  0  0  0
 13 15  1  0  0  0  0
 15 16  1  6  0  0  0
 15 17  1  0  0  0  0
M  END
>  <CHROM.1>
-61.40398352,76.27277319,1.46076405,5.29491084,21.18775266,0.78028184,0.23325252
-1.58312233

>  <Name>
ligand

>  <RI>
0

>  <Rbt.Current_Directory>
/home/itssahil/PROJECTS/Mol_Feturizer/New_Systems/rnas/4LVX

>  <Rbt.Executable>
rbdock ($Id: //depot/dev/client3/rdock/2013.1/src/exe/rbdock.cxx#4 $)

>  <Rbt.Library>
libRbt.so (2013.1, Build901 2013/11/27)

>  <Rbt.Parameter_File>
/export/apps/rDock/src/rDock_2013.1_src/data/scripts/dock_solv.prm

>  <Rbt.Receptor>
prm/pocket_docking_3.prm

>  <SCORE>
-11.5055

>  <SCORE.INTER>
-6.2339

>  <SCORE.INTER.CONST>
1

>  <SCORE.INTER.POLAR>
0

>  <SCORE.INTER.ROT>
2

>  <SCORE.INTER.SOLV>
14.0615

>  <SCORE.INTER.VDW>
-13.7764

>  <SCORE.INTER.norm>
-0.3667

>  <SCORE.INTRA>
-5.27486

>  <SCORE.INTRA.DIHEDRAL>
-9.27282

>  <SCORE.INTRA.DIHEDRAL.0>
10.3255

>  <SCORE.INTRA.POLAR>
0

>  <SCORE.INTRA.POLAR.0>
0

>  <SCORE.INTRA.REPUL>
0

>  <SCORE.INTRA.REPUL.0>
0

>  <SCORE.INTRA.SOLV>
1.392

>  <SCORE.INTRA.SOLV.lig_0>
-53.4755

>  <SCORE.INTRA.VDW>
-1.33445

>  <SCORE.INTRA.VDW.0>
2.32763

>  <SCORE.INTRA.norm>
-0.310286

>  <SCORE.RESTR>
0.0033055

>  <SCORE.RESTR.CAVITY>
0.0033055

>  <SCORE.RESTR.norm>
0.000194441

>  <SCORE.SYSTEM>
0

>  <SCORE.SYSTEM.CONST>
0

>  <SCORE.SYSTEM.DIHEDRAL>
0

>  <SCORE.SYSTEM.SOLV>
0

>  <SCORE.SYSTEM.norm>
0

>  <SCORE.heavy>
17

>  <SCORE.norm>
-0.676791

>  <RMSD>
5.463

$$$$
ligand
 OpenBabel11021811503D
libRbt.so/2013.1/901 2013/11/27
 17 18  0  0  0  0  0  0  0  0999 V2000
    3.6603    4.1904   20.9839 N   0  0  0  0  0  0  0  0  0  0  0  0
    4.7337    4.2567   21.8813 C   0  0  0  0  0  0  0  0  0  0  0  0
    6.0786    4.2276   21.3837 N   0  0  0  0  0  0  0  0  0  0  0  0
    4.5282    4.3584   23.2403 N   0  0  0  0  0  0  0  0  0  0  0  0
    3.2531    4.3926   23.7657 C   0  0  0  0  0  0  0  0  0  0  0  0
    2.1196    4.3220   22.8966 C   0  0  0  0  0  0  0  0  0  0  0  0
    3.0914    4.4813   24.9679 O   0  0  0  0  0  0  0  0  0  0  0  0
    0.7543    4.3503   23.4152 N   0  0  0  0  0  0  0  0  0  0  0  0
   -0.3359    4.4739   22.5149 C   0  0  2  0  0  0  0  0  0  0  0  0
   -0.0571    3.8656   21.1146 C   0  0  0  0  0  0  0  0  0  0  0  0
    2.3537    4.2229   21.4919 C   0  0  0  0  0  0  0  0  0  0  0  0
    1.2006    4.1518   20.5756 N   0  0  0  0  0  0  0  0  0  0  0  0
   -0.7452    5.9347   22.4692 C   0  0  1  0  0  0  0  0  0  0  0  0
   -1.9004    6.0926   21.7296 O   0  0  0  0  0  0  0  0  0  0  0  0
   -0.9352    6.4665   23.8584 C   0  0  1  0  0  0  0  0  0  0  0  0
   -0.9392    7.8070   23.8557 O   0  0  0  0  0  0  0  0  0  0  0  0
   -2.2713    5.9830   24.4615 C   0  0  0  0  0  0  0  0  0  0  0  0
  1  2  2  0  0  0  0
  1 11  1  0  0  0  0
  2  3  1  0  0  0  0
  2  4  1  0  0  0  0
  4  5  1  0  0  0  0
  5  6  1  0  0  0  0
  5  7  2  0  0  0  0
  6  8  1  0  0  0  0
  6 11  2  0  0  0  0
  9  8  1  1  0  0  0
  9 10  1  0  0  0  0
  9 13  1  0  0  0  0
 10 12  1  0  0  0  0
 11 12  1  0  0  0  0
 13 14  1  6  0  0  0
 13 15  1  0  0  0  0
 15 16  1  6  0  0  0
 15 17  1  0  0  0  0
M  END
>  <CHROM.1>
-173.01432391,163.38419907,1.36512368,4.96389737,22.65446608,0.26343796,0.25712011
-1.91392746

>  <Name>
ligand

>  <RI>
0

>  <Rbt.Current_Directory>
/home/itssahil/PROJECTS/Mol_Feturizer/New_Systems/rnas/4LVX

>  <Rbt.Executable>
rbdock ($Id: //depot/dev/client3/rdock/2013.1/src/exe/rbdock.cxx#4 $)

>  <Rbt.Library>
libRbt.so (2013.1, Build901 2013/11/27)

>  <Rbt.Parameter_File>
/export/apps/rDock/src/rDock_2013.1_src/data/scripts/dock_solv.prm

>  <Rbt.Receptor>
prm/pocket_docking_4.prm

>  <SCORE>
-15.5419

>  <SCORE.INTER>
-9.54171

>  <SCORE.INTER.CONST>
1

>  <SCORE.INTER.POLAR>
0

>  <SCORE.INTER.ROT>
2

>  <SCORE.INTER.SOLV>
16.5368

>  <SCORE.INTER.VDW>
-16.8068

>  <SCORE.INTER.norm>
-0.561277

>  <SCORE.INTRA>
-6.00015

>  <SCORE.INTRA.DIHEDRAL>
-9.03126

>  <SCORE.INTRA.DIHEDRAL.0>
10.3255

>  <SCORE.INTRA.POLAR>
0

>  <SCORE.INTRA.POLAR.0>
0

>  <SCORE.INTRA.REPUL>
0

>  <SCORE.INTRA.REPUL.0>
0

>  <SCORE.INTRA.SOLV>
-0.502209

>  <SCORE.INTRA.SOLV.lig_0>
-53.4755

>  <SCORE.INTRA.VDW>
-1.23341

>  <SCORE.INTRA.VDW.0>
2.32763

>  <SCORE.INTRA.norm>
-0.35295

>  <SCORE.RESTR>
0

>  <SCORE.RESTR.CAVITY>
0

>  <SCORE.RESTR.norm>
0

>  <SCORE.SYSTEM>
0

>  <SCORE.SYSTEM.CONST>
0

>  <SCORE.SYSTEM.DIHEDRAL>
0

>  <SCORE.SYSTEM.SOLV>
0

>  <SCORE.SYSTEM.norm>
0

>  <SCORE.heavy>
17

>  <SCORE.norm>
-0.914227

>  <RMSD>
5.472

$$$$
ligand
 OpenBabel11021811503D
libRbt.so/2013.1/901 2013/11/27
 17 18  0  0  0  0  0  0  0  0999 V2000
    2.0187    4.8831   18.7447 N   0  0  0  0  0  0  0  0  0  0  0  0
    3.3508    5.3159   18.7316 C   0  0  0  0  0  0  0  0  0  0  0  0
    3.9991    5.5817   17.4801 N   0  0  0  0  0  0  0  0  0  0  0  0
    4.0569    5.5021   19.9004 N   0  0  0  0  0  0  0  0  0  0  0  0
    3.4751    5.2621   21.1280 C   0  0  0  0  0  0  0  0  0  0  0  0
    2.1194    4.8127   21.2012 C   0  0  0  0  0  0  0  0  0  0  0  0
    4.1145    5.4308   22.1489 O   0  0  0  0  0  0  0  0  0  0  0  0
    1.4703    4.5430   22.4817 N   0  0  0  0  0  0  0  0  0  0  0  0
    0.0747    4.2881   22.5211 C   0  0  2  0  0  0  0  0  0  0  0  0
   -0.4731    3.6297   21.2269 C   0  0  0  0  0  0  0  0  0  0  0  0
    1.4037    4.6315   19.9795 C   0  0  0  0  0  0  0  0  0  0  0  0
    0.0035    4.1717   20.0298 N   0  0  0  0  0  0  0  0  0  0  0  0
   -0.6298    5.5819   22.8865 C   0  0  1  0  0  0  0  0  0  0  0  0
   -1.9997    5.4272   22.8102 O   0  0  0  0  0  0  0  0  0  0  0  0
   -0.2279    6.0238   24.2618 C   0  0  1  0  0  0  0  0  0  0  0  0
    1.0826    6.3026   24.3055 O   0  0  0  0  0  0  0  0  0  0  0  0
   -1.0029    7.2886   24.6887 C   0  0  0  0  0  0  0  0  0  0  0  0
  1  2  2  0  0  0  0
  1 11  1  0  0  0  0
  2  3  1  0  0  0  0
  2  4  1  0  0  0  0
  4  5  1  0  0  0  0
  5  6  1  0  0  0  0
  5  7  2  0  0  0  0
  6  8  1  0  0  0  0
  6 11  2  0  0  0  0
  9  8  1  6  0  0  0
  9 10  1  0  0  0  0
  9 13  1  0  0  0  0
 10 12  1  0  0  0  0
 11 12  1  0  0  0  0
 13 14  1  1  0  0  0
 13 15  1  0  0  0  0
 15 16  1  6  0  0  0
 15 17  1  0  0  0  0
M  END
>  <CHROM.1>
174.05320564,63.49706138,1.30365249,5.24422680,21.51675476,0.82588901,-0.23627207
-1.93218609

>  <Name>
ligand

>  <RI>
0

>  <Rbt.Current_Directory>
/home/itssahil/PROJECTS/Mol_Feturizer/New_Systems/rnas/4LVX

>  <Rbt.Executable>
rbdock ($Id: //depot/dev/client3/rdock/2013.1/src/exe/rbdock.cxx#4 $)

>  <Rbt.Library>
libRbt.so (2013.1, Build901 2013/11/27)

>  <Rbt.Parameter_File>
/export/apps/rDock/src/rDock_2013.1_src/data/scripts/dock_solv.prm

>  <Rbt.Receptor>
prm/pocket_docking_3.prm

>  <SCORE>
-15.2378

>  <SCORE.INTER>
-8.49745

>  <SCORE.INTER.CONST>
1

>  <SCORE.INTER.POLAR>
0

>  <SCORE.INTER.ROT>
2

>  <SCORE.INTER.SOLV>
14.7855

>  <SCORE.INTER.VDW>
-15.5268

>  <SCORE.INTER.norm>
-0.49985

>  <SCORE.INTRA>
-6.74036

>  <SCORE.INTRA.DIHEDRAL>
-10.0069

>  <SCORE.INTRA.DIHEDRAL.0>
10.3255

>  <SCORE.INTRA.POLAR>
0

>  <SCORE.INTRA.POLAR.0>
0

>  <SCORE.INTRA.REPUL>
0

>  <SCORE.INTRA.REPUL.0>
0

>  <SCORE.INTRA.SOLV>
-0.00392834

>  <SCORE.INTRA.SOLV.lig_0>
-53.4755

>  <SCORE.INTRA.VDW>
-1.73494

>  <SCORE.INTRA.VDW.0>
2.32763

>  <SCORE.INTRA.norm>
-0.396492

>  <SCORE.RESTR>
0

>  <SCORE.RESTR.CAVITY>
0

>  <SCORE.RESTR.norm>
0

>  <SCORE.SYSTEM>
0

>  <SCORE.SYSTEM.CONST>
0

>  <SCORE.SYSTEM.DIHEDRAL>
0

>  <SCORE.SYSTEM.SOLV>
0

>  <SCORE.SYSTEM.norm>
0

>  <SCORE.heavy>
17

>  <SCORE.norm>
-0.896342

>  <RMSD>
5.532

$$$$
ligand
 OpenBabel11021811503D
libRbt.so/2013.1/901 2013/11/27
 17 18  0  0  0  0  0  0  0  0999 V2000
    2.0100    4.8923   18.7370 N   0  0  0  0  0  0  0  0  0  0  0  0
    3.3455    5.3148   18.7299 C   0  0  0  0  0  0  0  0  0  0  0  0
    3.9989    5.5839   17.4818 N   0  0  0  0  0  0  0  0  0  0  0  0
    4.0502    5.4877   19.9016 N   0  0  0  0  0  0  0  0  0  0  0  0
    3.4637    5.2441   21.1262 C   0  0  0  0  0  0  0  0  0  0  0  0
    2.1044    4.8047   21.1933 C   0  0  0  0  0  0  0  0  0  0  0  0
    4.1019    5.4009   22.1497 O   0  0  0  0  0  0  0  0  0  0  0  0
    1.4501    4.5316   22.4704 N   0  0  0  0  0  0  0  0  0  0  0  0
    0.0525    4.2874   22.5048 C   0  0  2  0  0  0  0  0  0  0  0  0
   -0.4974    3.6419   21.2049 C   0  0  0  0  0  0  0  0  0  0  0  0
    1.3902    4.6373   19.9687 C   0  0  0  0  0  0  0  0  0  0  0  0
   -0.0137    4.1881   20.0126 N   0  0  0  0  0  0  0  0  0  0  0  0
   -0.6428    5.5841   22.8772 C   0  0  1  0  0  0  0  0  0  0  0  0
   -2.0131    5.4462   22.7785 O   0  0  0  0  0  0  0  0  0  0  0  0
   -0.2566    6.0030   24.2643 C   0  0  1  0  0  0  0  0  0  0  0  0
    1.0574    6.2593   24.3328 O   0  0  0  0  0  0  0  0  0  0  0  0
   -1.0177    7.2753   24.6936 C   0  0  0  0  0  0  0  0  0  0  0  0
  1  2  2  0  0  0  0
  1 11  1  0  0  0  0
  2  3  1  0  0  0  0
  2  4  1  0  0  0  0
  4  5  1  0  0  0  0
  5  6  1  0  0  0  0
  5  7  2  0  0  0  0
  6  8  1  0  0  0  0
  6 11  2  0  0  0  0
  9  8  1  6  0  0  0
  9 10  1  0  0  0  0
  9 13  1  0  0  0  0
 10 12  1  0  0  0  0
 11 12  1  0  0  0  0
 13 14  1  1  0  0  0
 13 15  1  0  0  0  0
 15 16  1  6  0  0  0
 15 17  1  0  0  0  0
M  END
>  <CHROM.1>
173.21123191,63.17348452,1.28869705,5.23837330,21.51111218,0.82723541,-0.22526718
-1.92169048

>  <Name>
ligand

>  <RI>
0

>  <Rbt.Current_Directory>
/home/itssahil/PROJECTS/Mol_Feturizer/New_Systems/rnas/4LVX

>  <Rbt.Executable>
rbdock ($Id: //depot/dev/client3/rdock/2013.1/src/exe/rbdock.cxx#4 $)

>  <Rbt.Library>
libRbt.so (2013.1, Build901 2013/11/27)

>  <Rbt.Parameter_File>
/export/apps/rDock/src/rDock_2013.1_src/data/scripts/dock_solv.prm

>  <Rbt.Receptor>
prm/pocket_docking_3.prm

>  <SCORE>
-15.219

>  <SCORE.INTER>
-8.47448

>  <SCORE.INTER.CONST>
1

>  <SCORE.INTER.POLAR>
0

>  <SCORE.INTER.ROT>
2

>  <SCORE.INTER.SOLV>
14.8737

>  <SCORE.INTER.VDW>
-15.5409

>  <SCORE.INTER.norm>
-0.498499

>  <SCORE.INTRA>
-6.74465

>  <SCORE.INTRA.DIHEDRAL>
-9.9767

>  <SCORE.INTRA.DIHEDRAL.0>
10.3255

>  <SCORE.INTRA.POLAR>
0

>  <SCORE.INTRA.POLAR.0>
0

>  <SCORE.INTRA.REPUL>
0

>  <SCORE.INTRA.REPUL.0>
0

>  <SCORE.INTRA.SOLV>
-0.0121287

>  <SCORE.INTRA.SOLV.lig_0>
-53.4755

>  <SCORE.INTRA.VDW>
-1.75024

>  <SCORE.INTRA.VDW.0>
2.32763

>  <SCORE.INTRA.norm>
-0.396744

>  <SCORE.RESTR>
0.000128334

>  <SCORE.RESTR.CAVITY>
0.000128334

>  <SCORE.RESTR.norm>
7.54907e-06

>  <SCORE.SYSTEM>
0

>  <SCORE.SYSTEM.CONST>
0

>  <SCORE.SYSTEM.DIHEDRAL>
0

>  <SCORE.SYSTEM.SOLV>
0

>  <SCORE.SYSTEM.norm>
0

>  <SCORE.heavy>
17

>  <SCORE.norm>
-0.895235

>  <RMSD>
5.534

$$$$
ligand
 OpenBabel11021811503D
libRbt.so/2013.1/901 2013/11/27
 17 18  0  0  0  0  0  0  0  0999 V2000
    2.0188    4.8732   18.7436 N   0  0  0  0  0  0  0  0  0  0  0  0
    3.3488    5.3126   18.7254 C   0  0  0  0  0  0  0  0  0  0  0  0
    3.9933    5.5746   17.4712 N   0  0  0  0  0  0  0  0  0  0  0  0
    4.0561    5.5089   19.8918 N   0  0  0  0  0  0  0  0  0  0  0  0
    3.4780    5.2728   21.1219 C   0  0  0  0  0  0  0  0  0  0  0  0
    2.1247    4.8171   21.2003 C   0  0  0  0  0  0  0  0  0  0  0  0
    4.1185    5.4504   22.1406 O   0  0  0  0  0  0  0  0  0  0  0  0
    1.4794    4.5513   22.4835 N   0  0  0  0  0  0  0  0  0  0  0  0
    0.0852    4.2897   22.5271 C   0  0  2  0  0  0  0  0  0  0  0  0
   -0.4619    3.6214   21.2376 C   0  0  0  0  0  0  0  0  0  0  0  0
    1.4075    4.6255   19.9810 C   0  0  0  0  0  0  0  0  0  0  0  0
    0.0098    4.1590   20.0366 N   0  0  0  0  0  0  0  0  0  0  0  0
   -0.6251    5.5820   22.8866 C   0  0  1  0  0  0  0  0  0  0  0  0
   -1.9941    5.4231   22.8035 O   0  0  0  0  0  0  0  0  0  0  0  0
   -0.2316    6.0274   24.2633 C   0  0  1  0  0  0  0  0  0  0  0  0
    1.0795    6.3014   24.3156 O   0  0  0  0  0  0  0  0  0  0  0  0
   -1.0049    7.2966   24.6799 C   0  0  0  0  0  0  0  0  0  0  0  0
  1  2  2  0  0  0  0
  1 11  1  0  0  0  0
  2  3  1  0  0  0  0
  2  4  1  0  0  0  0
  4  5  1  0  0  0  0
  5  6  1  0  0  0  0
  5  7  2  0  0  0  0
  6  8  1  0  0  0  0
  6 11  2  0  0  0  0
  9  8  1  6  0  0  0
  9 10  1  0  0  0  0
  9 13  1  0  0  0  0
 10 12  1  0  0  0  0
 11 12  1  0  0  0  0
 13 14  1  1  0  0  0
 13 15  1  0  0  0  0
 15 16  1  6  0  0  0
 15 17  1  0  0  0  0
M  END
>  <CHROM.1>
173.57256207,63.07507217,1.30632160,5.24495393,21.51573533,0.82657765,-0.23992275
-1.93548707

>  <Name>
ligand

>  <RI>
0

>  <Rbt.Current_Directory>
/home/itssahil/PROJECTS/Mol_Feturizer/New_Systems/rnas/4LVX

>  <Rbt.Executable>
rbdock ($Id: //depot/dev/client3/rdock/2013.1/src/exe/rbdock.cxx#4 $)

>  <Rbt.Library>
libRbt.so (2013.1, Build901 2013/11/27)

>  <Rbt.Parameter_File>
/export/apps/rDock/src/rDock_2013.1_src/data/scripts/dock_solv.prm

>  <Rbt.Receptor>
prm/pocket_docking_3.prm

>  <SCORE>
-15.2541

>  <SCORE.INTER>
-8.5092

>  <SCORE.INTER.CONST>
1

>  <SCORE.INTER.POLAR>
0

>  <SCORE.INTER.ROT>
2

>  <SCORE.INTER.SOLV>
14.7948

>  <SCORE.INTER.VDW>
-15.5377

>  <SCORE.INTER.norm>
-0.500541

>  <SCORE.INTRA>
-6.74488

>  <SCORE.INTRA.DIHEDRAL>
-9.9955

>  <SCORE.INTRA.DIHEDRAL.0>
10.3255

>  <SCORE.INTRA.POLAR>
0

>  <SCORE.INTRA.POLAR.0>
0

>  <SCORE.INTRA.REPUL>
0

>  <SCORE.INTRA.REPUL.0>
0

>  <SCORE.INTRA.SOLV>
-0.00618651

>  <SCORE.INTRA.SOLV.lig_0>
-53.4755

>  <SCORE.INTRA.VDW>
-1.74404

>  <SCORE.INTRA.VDW.0>
2.32763

>  <SCORE.INTRA.norm>
-0.396758

>  <SCORE.RESTR>
0

>  <SCORE.RESTR.CAVITY>
0

>  <SCORE.RESTR.norm>
0

>  <SCORE.SYSTEM>
0

>  <SCORE.SYSTEM.CONST>
0

>  <SCORE.SYSTEM.DIHEDRAL>
0

>  <SCORE.SYSTEM.SOLV>
0

>  <SCORE.SYSTEM.norm>
0

>  <SCORE.heavy>
17

>  <SCORE.norm>
-0.897299

>  <RMSD>
5.534

$$$$
ligand
 OpenBabel11021811503D
libRbt.so/2013.1/901 2013/11/27
 17 18  0  0  0  0  0  0  0  0999 V2000
    1.9975    4.9057   18.7224 N   0  0  0  0  0  0  0  0  0  0  0  0
    3.3387    5.3099   18.7247 C   0  0  0  0  0  0  0  0  0  0  0  0
    4.0004    5.5831   17.4819 N   0  0  0  0  0  0  0  0  0  0  0  0
    4.0411    5.4608   19.9008 N   0  0  0  0  0  0  0  0  0  0  0  0
    3.4466    5.2123   21.1205 C   0  0  0  0  0  0  0  0  0  0  0  0
    2.0812    4.7910   21.1779 C   0  0  0  0  0  0  0  0  0  0  0  0
    4.0830    5.3496   22.1480 O   0  0  0  0  0  0  0  0  0  0  0  0
    1.4183    4.5134   22.4496 N   0  0  0  0  0  0  0  0  0  0  0  0
    0.0174    4.2880   22.4763 C   0  0  2  0  0  0  0  0  0  0  0  0
   -0.5363    3.6638   21.1676 C   0  0  0  0  0  0  0  0  0  0  0  0
    1.3695    4.6463   19.9490 C   0  0  0  0  0  0  0  0  0  0  0  0
   -0.0405    4.2159   19.9829 N   0  0  0  0  0  0  0  0  0  0  0  0
   -0.6616    5.5901   22.8598 C   0  0  1  0  0  0  0  0  0  0  0  0
   -2.0342    5.4646   22.7782 O   0  0  0  0  0  0  0  0  0  0  0  0
   -0.2542    6.0028   24.2426 C   0  0  1  0  0  0  0  0  0  0  0  0
    1.0530    6.2973   24.2829 O   0  0  0  0  0  0  0  0  0  0  0  0
   -1.0417    7.2465   24.7070 C   0  0  0  0  0  0  0  0  0  0  0  0
  1  2  2  0  0  0  0
  1 11  1  0  0  0  0
  2  3  1  0  0  0  0
  2  4  1  0  0  0  0
  4  5  1  0  0  0  0
  5  6  1  0  0  0  0
  5  7  2  0  0  0  0
  6  8  1  0  0  0  0
  6 11  2  0  0  0  0
  9  8  1  6  0  0  0
  9 10  1  0  0  0  0
  9 13  1  0  0  0  0
 10 12  1  0  0  0  0
 11 12  1  0  0  0  0
 13 14  1  1  0  0  0
 13 15  1  0  0  0  0
 15 16  1  6  0  0  0
 15 17  1  0  0  0  0
M  END
>  <CHROM.1>
174.30872039,65.56422392,1.27075874,5.23612398,21.49610986,0.82630821,-0.21547449
-1.91696309

>  <Name>
ligand

>  <RI>
0

>  <Rbt.Current_Directory>
/home/itssahil/PROJECTS/Mol_Feturizer/New_Systems/rnas/4LVX

>  <Rbt.Executable>
rbdock ($Id: //depot/dev/client3/rdock/2013.1/src/exe/rbdock.cxx#4 $)

>  <Rbt.Library>
libRbt.so (2013.1, Build901 2013/11/27)

>  <Rbt.Parameter_File>
/export/apps/rDock/src/rDock_2013.1_src/data/scripts/dock_solv.prm

>  <Rbt.Receptor>
prm/pocket_docking_3.prm

>  <SCORE>
-15.1677

>  <SCORE.INTER>
-8.45932

>  <SCORE.INTER.CONST>
1

>  <SCORE.INTER.POLAR>
0

>  <SCORE.INTER.ROT>
2

>  <SCORE.INTER.SOLV>
14.9401

>  <SCORE.INTER.VDW>
-15.5529

>  <SCORE.INTER.norm>
-0.497607

>  <SCORE.INTRA>
-6.70833

>  <SCORE.INTRA.DIHEDRAL>
-9.9525

>  <SCORE.INTRA.DIHEDRAL.0>
10.3255

>  <SCORE.INTRA.POLAR>
0

>  <SCORE.INTRA.POLAR.0>
0

>  <SCORE.INTRA.REPUL>
0

>  <SCORE.INTRA.REPUL.0>
0

>  <SCORE.INTRA.SOLV>
-0.0219955

>  <SCORE.INTRA.SOLV.lig_0>
-53.4755

>  <SCORE.INTRA.VDW>
-1.72108

>  <SCORE.INTRA.VDW.0>
2.32763

>  <SCORE.INTRA.norm>
-0.394608

>  <SCORE.RESTR>
0

>  <SCORE.RESTR.CAVITY>
0

>  <SCORE.RESTR.norm>
0

>  <SCORE.SYSTEM>
0

>  <SCORE.SYSTEM.CONST>
0

>  <SCORE.SYSTEM.DIHEDRAL>
0

>  <SCORE.SYSTEM.SOLV>
0

>  <SCORE.SYSTEM.norm>
0

>  <SCORE.heavy>
17

>  <SCORE.norm>
-0.892215

>  <RMSD>
5.535

$$$$
ligand
 OpenBabel11021811503D
libRbt.so/2013.1/901 2013/11/27
 17 18  0  0  0  0  0  0  0  0999 V2000
    2.0175    4.8831   18.7332 N   0  0  0  0  0  0  0  0  0  0  0  0
    3.3526    5.3064   18.7169 C   0  0  0  0  0  0  0  0  0  0  0  0
    3.9998    5.5676   17.4638 N   0  0  0  0  0  0  0  0  0  0  0  0
    4.0627    5.4878   19.8841 N   0  0  0  0  0  0  0  0  0  0  0  0
    3.4822    5.2519   21.1130 C   0  0  0  0  0  0  0  0  0  0  0  0
    2.1236    4.8120   21.1894 C   0  0  0  0  0  0  0  0  0  0  0  0
    4.1251    5.4161   22.1324 O   0  0  0  0  0  0  0  0  0  0  0  0
    1.4756    4.5470   22.4715 N   0  0  0  0  0  0  0  0  0  0  0  0
    0.0783    4.3019   22.5142 C   0  0  2  0  0  0  0  0  0  0  0  0
   -0.4772    3.6473   21.2212 C   0  0  0  0  0  0  0  0  0  0  0  0
    1.4037    4.6358   19.9694 C   0  0  0  0  0  0  0  0  0  0  0  0
    0.0004    4.1859   20.0230 N   0  0  0  0  0  0  0  0  0  0  0  0
   -0.6162    5.6006   22.8811 C   0  0  1  0  0  0  0  0  0  0  0  0
   -1.9868    5.4617   22.7876 O   0  0  0  0  0  0  0  0  0  0  0  0
   -0.2258    6.0277   24.2645 C   0  0  1  0  0  0  0  0  0  0  0  0
    1.0877    6.2881   24.3265 O   0  0  0  0  0  0  0  0  0  0  0  0
   -0.9887    7.3002   24.6903 C   0  0  0  0  0  0  0  0  0  0  0  0
  1  2  2  0  0  0  0
  1 11  1  0  0  0  0
  2  3  1  0  0  0  0
  2  4  1  0  0  0  0
  4  5  1  0  0  0  0
  5  6  1  0  0  0  0
  5  7  2  0  0  0  0
  6  8  1  0  0  0  0
  6 11  2  0  0  0  0
  9  8  1  6  0  0  0
  9 10  1  0  0  0  0
  9 13  1  0  0  0  0
 10 12  1  0  0  0  0
 11 12  1  0  0  0  0
 13 14  1  1  0  0  0
 13 15  1  0  0  0  0
 15 16  1  6  0  0  0
 15 17  1  0  0  0  0
M  END
>  <CHROM.1>
173.10416115,63.32790027,1.30846363,5.24698784,21.50845433,0.83152115,-0.22730769
-1.92710269

>  <Name>
ligand

>  <RI>
0

>  <Rbt.Current_Directory>
/home/itssahil/PROJECTS/Mol_Feturizer/New_Systems/rnas/4LVX

>  <Rbt.Executable>
rbdock ($Id: //depot/dev/client3/rdock/2013.1/src/exe/rbdock.cxx#4 $)

>  <Rbt.Library>
libRbt.so (2013.1, Build901 2013/11/27)

>  <Rbt.Parameter_File>
/export/apps/rDock/src/rDock_2013.1_src/data/scripts/dock_solv.prm

>  <Rbt.Receptor>
prm/pocket_docking_3.prm

>  <SCORE>
-15.2361

>  <SCORE.INTER>
-8.4937

>  <SCORE.INTER.CONST>
1

>  <SCORE.INTER.POLAR>
0

>  <SCORE.INTER.ROT>
2

>  <SCORE.INTER.SOLV>
14.8085

>  <SCORE.INTER.VDW>
-15.532

>  <SCORE.INTER.norm>
-0.49963

>  <SCORE.INTRA>
-6.74331

>  <SCORE.INTRA.DIHEDRAL>
-9.96817

>  <SCORE.INTRA.DIHEDRAL.0>
10.3255

>  <SCORE.INTRA.POLAR>
0

>  <SCORE.INTRA.POLAR.0>
0

>  <SCORE.INTRA.REPUL>
0

>  <SCORE.INTRA.REPUL.0>
0

>  <SCORE.INTRA.SOLV>
-0.0151557

>  <SCORE.INTRA.SOLV.lig_0>
-53.4755

>  <SCORE.INTRA.VDW>
-1.75165

>  <SCORE.INTRA.VDW.0>
2.32763

>  <SCORE.INTRA.norm>
-0.396665

>  <SCORE.RESTR>
0.000878339

>  <SCORE.RESTR.CAVITY>
0.000878339

>  <SCORE.RESTR.norm>
5.1667e-05

>  <SCORE.SYSTEM>
0

>  <SCORE.SYSTEM.CONST>
0

>  <SCORE.SYSTEM.DIHEDRAL>
0

>  <SCORE.SYSTEM.SOLV>
0

>  <SCORE.SYSTEM.norm>
0

>  <SCORE.heavy>
17

>  <SCORE.norm>
-0.896243

>  <RMSD>
5.539

$$$$
ligand
 OpenBabel11021811503D
libRbt.so/2013.1/901 2013/11/27
 17 18  0  0  0  0  0  0  0  0999 V2000
    3.2019    4.7899   19.7081 N   0  0  0  0  0  0  0  0  0  0  0  0
    4.4638    4.8489   20.3133 C   0  0  0  0  0  0  0  0  0  0  0  0
    5.6217    5.1321   19.5156 N   0  0  0  0  0  0  0  0  0  0  0  0
    4.6208    4.6483   21.6677 N   0  0  0  0  0  0  0  0  0  0  0  0
    3.5367    4.3757   22.4761 C   0  0  0  0  0  0  0  0  0  0  0  0
    2.2252    4.2974   21.9111 C   0  0  0  0  0  0  0  0  0  0  0  0
    3.6949    4.2001   23.6692 O   0  0  0  0  0  0  0  0  0  0  0  0
    1.0535    4.0059   22.7333 N   0  0  0  0  0  0  0  0  0  0  0  0
   -0.2448    4.1286   22.1733 C   0  0  2  0  0  0  0  0  0  0  0  0
   -0.2903    3.8588   20.6456 C   0  0  0  0  0  0  0  0  0  0  0  0
    2.0833    4.5139   20.5073 C   0  0  0  0  0  0  0  0  0  0  0  0
    0.7404    4.4413   19.9024 N   0  0  0  0  0  0  0  0  0  0  0  0
   -0.7997    5.4860   22.5646 C   0  0  1  0  0  0  0  0  0  0  0  0
   -2.0942    5.6317   22.1070 O   0  0  0  0  0  0  0  0  0  0  0  0
   -0.7469    5.6614   24.0529 C   0  0  1  0  0  0  0  0  0  0  0  0
    0.5205    5.7928   24.4694 O   0  0  0  0  0  0  0  0  0  0  0  0
   -1.5303    6.9162   24.4936 C   0  0  0  0  0  0  0  0  0  0  0  0
  1  2  2  0  0  0  0
  1 11  1  0  0  0  0
  2  3  1  0  0  0  0
  2  4  1  0  0  0  0
  4  5  1  0  0  0  0
  5  6  1  0  0  0  0
  5  7  2  0  0  0  0
  6  8  1  0  0  0  0
  6 11  2  0  0  0  0
  9  8  1  6  0  0  0
  9 10  1  0  0  0  0
  9 13  1  0  0  0  0
 10 12  1  0  0  0  0
 11 12  1  0  0  0  0
 13 14  1  1  0  0  0
 13 15  1  0  0  0  0
 15 16  1  6  0  0  0
 15 17  1  0  0  0  0
M  END
>  <CHROM.1>
-176.72085908,69.95482796,1.47235916,4.89337997,21.99382633,0.48100663,0.08128710
-1.78160070

>  <Name>
ligand

>  <RI>
0

>  <Rbt.Current_Directory>
/home/itssahil/PROJECTS/Mol_Feturizer/New_Systems/rnas/4LVX

>  <Rbt.Executable>
rbdock ($Id: //depot/dev/client3/rdock/2013.1/src/exe/rbdock.cxx#4 $)

>  <Rbt.Library>
libRbt.so (2013.1, Build901 2013/11/27)

>  <Rbt.Parameter_File>
/export/apps/rDock/src/rDock_2013.1_src/data/scripts/dock_solv.prm

>  <Rbt.Receptor>
prm/pocket_docking_4.prm

>  <SCORE>
-16.2362

>  <SCORE.INTER>
-9.86418

>  <SCORE.INTER.CONST>
1

>  <SCORE.INTER.POLAR>
0

>  <SCORE.INTER.ROT>
2

>  <SCORE.INTER.SOLV>
16.7876

>  <SCORE.INTER.VDW>
-17.1053

>  <SCORE.INTER.norm>
-0.580246

>  <SCORE.INTRA>
-6.37204

>  <SCORE.INTRA.DIHEDRAL>
-9.79782

>  <SCORE.INTRA.DIHEDRAL.0>
10.3255

>  <SCORE.INTRA.POLAR>
0

>  <SCORE.INTRA.POLAR.0>
0

>  <SCORE.INTRA.REPUL>
0

>  <SCORE.INTRA.REPUL.0>
0

>  <SCORE.INTRA.SOLV>
0.0522433

>  <SCORE.INTRA.SOLV.lig_0>
-53.4755

>  <SCORE.INTRA.VDW>
-1.49925

>  <SCORE.INTRA.VDW.0>
2.32763

>  <SCORE.INTRA.norm>
-0.374826

>  <SCORE.RESTR>
0

>  <SCORE.RESTR.CAVITY>
0

>  <SCORE.RESTR.norm>
0

>  <SCORE.SYSTEM>
0

>  <SCORE.SYSTEM.CONST>
0

>  <SCORE.SYSTEM.DIHEDRAL>
0

>  <SCORE.SYSTEM.SOLV>
0

>  <SCORE.SYSTEM.norm>
0

>  <SCORE.heavy>
17

>  <SCORE.norm>
-0.955072

>  <RMSD>
5.543

$$$$
ligand
 OpenBabel11021811503D
libRbt.so/2013.1/901 2013/11/27
 17 18  0  0  0  0  0  0  0  0999 V2000
    3.2466    4.7812   19.7589 N   0  0  0  0  0  0  0  0  0  0  0  0
    4.4948    4.8071   20.3938 C   0  0  0  0  0  0  0  0  0  0  0  0
    5.6750    5.0894   19.6292 N   0  0  0  0  0  0  0  0  0  0  0  0
    4.6172    4.5748   21.7468 N   0  0  0  0  0  0  0  0  0  0  0  0
    3.5107    4.3017   22.5239 C   0  0  0  0  0  0  0  0  0  0  0  0
    2.2116    4.2563   21.9275 C   0  0  0  0  0  0  0  0  0  0  0  0
    3.6385    4.0979   23.7162 O   0  0  0  0  0  0  0  0  0  0  0  0
    1.0169    3.9656   22.7161 N   0  0  0  0  0  0  0  0  0  0  0  0
   -0.2661    4.1208   22.1294 C   0  0  2  0  0  0  0  0  0  0  0  0
   -0.2802    3.8850   20.5955 C   0  0  0  0  0  0  0  0  0  0  0  0
    2.1056    4.5056   20.5260 C   0  0  0  0  0  0  0  0  0  0  0  0
    0.7761    4.4672   19.8891 N   0  0  0  0  0  0  0  0  0  0  0  0
   -0.8092    5.4779   22.5378 C   0  0  1  0  0  0  0  0  0  0  0  0
   -2.0974    5.6463   22.0700 O   0  0  0  0  0  0  0  0  0  0  0  0
   -0.7692    5.6281   24.0292 C   0  0  1  0  0  0  0  0  0  0  0  0
    0.4918    5.7863   24.4554 O   0  0  0  0  0  0  0  0  0  0  0  0
   -1.5888    6.8532   24.4874 C   0  0  0  0  0  0  0  0  0  0  0  0
  1  2  2  0  0  0  0
  1 11  1  0  0  0  0
  2  3  1  0  0  0  0
  2  4  1  0  0  0  0
  4  5  1  0  0  0  0
  5  6  1  0  0  0  0
  5  7  2  0  0  0  0
  6  8  1  0  0  0  0
  6 11  2  0  0  0  0
  9  8  1  6  0  0  0
  9 10  1  0  0  0  0
  9 13  1  0  0  0  0
 10 12  1  0  0  0  0
 11 12  1  0  0  0  0
 13 14  1  1  0  0  0
 13 15  1  0  0  0  0
 15 16  1  6  0  0  0
 15 17  1  0  0  0  0
M  END
>  <CHROM.1>
-175.87703448,72.18751736,1.46651206,4.86493761,22.00602156,0.46159365,0.09890585
-1.76337899

>  <Name>
ligand

>  <RI>
0

>  <Rbt.Current_Directory>
/home/itssahil/PROJECTS/Mol_Feturizer/New_Systems/rnas/4LVX

>  <Rbt.Executable>
rbdock ($Id: //depot/dev/client3/rdock/2013.1/src/exe/rbdock.cxx#4 $)

>  <Rbt.Library>
libRbt.so (2013.1, Build901 2013/11/27)

>  <Rbt.Parameter_File>
/export/apps/rDock/src/rDock_2013.1_src/data/scripts/dock_solv.prm

>  <Rbt.Receptor>
prm/pocket_docking_7.prm

>  <SCORE>
-16.2782

>  <SCORE.INTER>
-10.0404

>  <SCORE.INTER.CONST>
1

>  <SCORE.INTER.POLAR>
0

>  <SCORE.INTER.ROT>
2

>  <SCORE.INTER.SOLV>
16.8259

>  <SCORE.INTER.VDW>
-17.2356

>  <SCORE.INTER.norm>
-0.590614

>  <SCORE.INTRA>
-6.23773

>  <SCORE.INTRA.DIHEDRAL>
-9.60795

>  <SCORE.INTRA.DIHEDRAL.0>
10.3255

>  <SCORE.INTRA.POLAR>
0

>  <SCORE.INTRA.POLAR.0>
0

>  <SCORE.INTRA.REPUL>
0

>  <SCORE.INTRA.REPUL.0>
0

>  <SCORE.INTRA.SOLV>
0.0367133

>  <SCORE.INTRA.SOLV.lig_0>
-53.4755

>  <SCORE.INTRA.VDW>
-1.45211

>  <SCORE.INTRA.VDW.0>
2.32763

>  <SCORE.INTRA.norm>
-0.366925

>  <SCORE.RESTR>
0

>  <SCORE.RESTR.CAVITY>
0

>  <SCORE.RESTR.norm>
0

>  <SCORE.SYSTEM>
0

>  <SCORE.SYSTEM.CONST>
0

>  <SCORE.SYSTEM.DIHEDRAL>
0

>  <SCORE.SYSTEM.SOLV>
0

>  <SCORE.SYSTEM.norm>
0

>  <SCORE.heavy>
17

>  <SCORE.norm>
-0.95754

>  <RMSD>
5.546

$$$$
ligand
 OpenBabel11021811503D
libRbt.so/2013.1/901 2013/11/27
 17 18  0  0  0  0  0  0  0  0999 V2000
    3.2207    4.8014   19.6874 N   0  0  0  0  0  0  0  0  0  0  0  0
    4.4797    4.8715   20.2975 C   0  0  0  0  0  0  0  0  0  0  0  0
    5.6373    5.1712   19.5054 N   0  0  0  0  0  0  0  0  0  0  0  0
    4.6338    4.6665   21.6516 N   0  0  0  0  0  0  0  0  0  0  0  0
    3.5498    4.3783   22.4546 C   0  0  0  0  0  0  0  0  0  0  0  0
    2.2414    4.2882   21.8844 C   0  0  0  0  0  0  0  0  0  0  0  0
    3.7056    4.1990   23.6475 O   0  0  0  0  0  0  0  0  0  0  0  0
    1.0700    3.9801   22.7009 N   0  0  0  0  0  0  0  0  0  0  0  0
   -0.2276    4.0910   22.1366 C   0  0  2  0  0  0  0  0  0  0  0  0
   -0.2644    3.8278   20.6076 C   0  0  0  0  0  0  0  0  0  0  0  0
    2.1022    4.5096   20.4811 C   0  0  0  0  0  0  0  0  0  0  0  0
    0.7625    4.4250   19.8708 N   0  0  0  0  0  0  0  0  0  0  0  0
   -0.7989    5.4405   22.5320 C   0  0  1  0  0  0  0  0  0  0  0  0
   -2.0863    5.5819   22.0535 O   0  0  0  0  0  0  0  0  0  0  0  0
   -0.7729    5.6010   24.0227 C   0  0  1  0  0  0  0  0  0  0  0  0
    0.4841    5.7615   24.4597 O   0  0  0  0  0  0  0  0  0  0  0  0
   -1.5961    6.8296   24.4645 C   0  0  0  0  0  0  0  0  0  0  0  0
  1  2  2  0  0  0  0
  1 11  1  0  0  0  0
  2  3  1  0  0  0  0
  2  4  1  0  0  0  0
  4  5  1  0  0  0  0
  5  6  1  0  0  0  0
  5  7  2  0  0  0  0
  6  8  1  0  0  0  0
  6 11  2  0  0  0  0
  9  8  1  6  0  0  0
  9 10  1  0  0  0  0
  9 13  1  0  0  0  0
 10 12  1  0  0  0  0
 11 12  1  0  0  0  0
 13 14  1  1  0  0  0
 13 15  1  0  0  0  0
 15 16  1  6  0  0  0
 15 17  1  0  0  0  0
M  END
>  <CHROM.1>
-177.59104968,71.08936279,1.47644627,4.87455677,21.96708304,0.47461332,0.07263602
-1.77301598

>  <Name>
ligand

>  <RI>
0

>  <Rbt.Current_Directory>
/home/itssahil/PROJECTS/Mol_Feturizer/New_Systems/rnas/4LVX

>  <Rbt.Executable>
rbdock ($Id: //depot/dev/client3/rdock/2013.1/src/exe/rbdock.cxx#4 $)

>  <Rbt.Library>
libRbt.so (2013.1, Build901 2013/11/27)

>  <Rbt.Parameter_File>
/export/apps/rDock/src/rDock_2013.1_src/data/scripts/dock_solv.prm

>  <Rbt.Receptor>
prm/pocket_docking_6.prm

>  <SCORE>
-16.2628

>  <SCORE.INTER>
-9.89949

>  <SCORE.INTER.CONST>
1

>  <SCORE.INTER.POLAR>
0

>  <SCORE.INTER.ROT>
2

>  <SCORE.INTER.SOLV>
16.7712

>  <SCORE.INTER.VDW>
-17.1234

>  <SCORE.INTER.norm>
-0.582323

>  <SCORE.INTRA>
-6.36335

>  <SCORE.INTRA.DIHEDRAL>
-9.73265

>  <SCORE.INTRA.DIHEDRAL.0>
10.3255

>  <SCORE.INTRA.POLAR>
0

>  <SCORE.INTRA.POLAR.0>
0

>  <SCORE.INTRA.REPUL>
0

>  <SCORE.INTRA.REPUL.0>
0

>  <SCORE.INTRA.SOLV>
0.0231635

>  <SCORE.INTRA.SOLV.lig_0>
-53.4755

>  <SCORE.INTRA.VDW>
-1.50861

>  <SCORE.INTRA.VDW.0>
2.32763

>  <SCORE.INTRA.norm>
-0.374315

>  <SCORE.RESTR>
0

>  <SCORE.RESTR.CAVITY>
0

>  <SCORE.RESTR.norm>
0

>  <SCORE.SYSTEM>
0

>  <SCORE.SYSTEM.CONST>
0

>  <SCORE.SYSTEM.DIHEDRAL>
0

>  <SCORE.SYSTEM.SOLV>
0

>  <SCORE.SYSTEM.norm>
0

>  <SCORE.heavy>
17

>  <SCORE.norm>
-0.956638

>  <RMSD>
5.554

$$$$
ligand
 OpenBabel11021811503D
libRbt.so/2013.1/901 2013/11/27
 17 18  0  0  0  0  0  0  0  0999 V2000
    0.7593    4.9426   18.1855 N   0  0  0  0  0  0  0  0  0  0  0  0
    1.9445    5.3440   17.5562 C   0  0  0  0  0  0  0  0  0  0  0  0
    1.9206    5.7266   16.1740 N   0  0  0  0  0  0  0  0  0  0  0  0
    3.1407    5.3888   18.2392 N   0  0  0  0  0  0  0  0  0  0  0  0
    3.2129    5.0329   19.5701 C   0  0  0  0  0  0  0  0  0  0  0  0
    2.0351    4.6091   20.2618 C   0  0  0  0  0  0  0  0  0  0  0  0
    4.2778    5.0775   20.1560 O   0  0  0  0  0  0  0  0  0  0  0  0
    2.0721    4.2196   21.6692 N   0  0  0  0  0  0  0  0  0  0  0  0
    0.8571    3.9937   22.3670 C   0  0  2  0  0  0  0  0  0  0  0  0
   -0.2960    3.4892   21.4590 C   0  0  0  0  0  0  0  0  0  0  0  0
    0.8052    4.5751   19.5380 C   0  0  0  0  0  0  0  0  0  0  0  0
   -0.4233    4.1444   20.2308 N   0  0  0  0  0  0  0  0  0  0  0  0
    0.5137    5.2568   23.1351 C   0  0  1  0  0  0  0  0  0  0  0  0
    1.4612    5.5064   24.1079 O   0  0  0  0  0  0  0  0  0  0  0  0
    0.4041    6.4228   22.1986 C   0  0  1  0  0  0  0  0  0  0  0  0
   -0.7090    6.3315   21.4573 O   0  0  0  0  0  0  0  0  0  0  0  0
    0.3573    7.7568   22.9738 C   0  0  0  0  0  0  0  0  0  0  0  0
  1  2  2  0  0  0  0
  1 11  1  0  0  0  0
  2  3  1  0  0  0  0
  2  4  1  0  0  0  0
  4  5  1  0  0  0  0
  5  6  1  0  0  0  0
  5  7  2  0  0  0  0
  6  8  1  0  0  0  0
  6 11  2  0  0  0  0
  9  8  1  6  0  0  0
  9 10  1  0  0  0  0
  9 13  1  0  0  0  0
 10 12  1  0  0  0  0
 11 12  1  0  0  0  0
 13 14  1  1  0  0  0
 13 15  1  0  0  0  0
 15 16  1  1  0  0  0
 15 17  1  0  0  0  0
M  END
>  <CHROM.1>
-64.80230884,71.97309382,1.30441281,5.19769775,20.61056851,1.22815559,0.02474521
-1.65049895

>  <Name>
ligand

>  <RI>
0

>  <Rbt.Current_Directory>
/home/itssahil/PROJECTS/Mol_Feturizer/New_Systems/rnas/4LVX

>  <Rbt.Executable>
rbdock ($Id: //depot/dev/client3/rdock/2013.1/src/exe/rbdock.cxx#4 $)

>  <Rbt.Library>
libRbt.so (2013.1, Build901 2013/11/27)

>  <Rbt.Parameter_File>
/export/apps/rDock/src/rDock_2013.1_src/data/scripts/dock_solv.prm

>  <Rbt.Receptor>
prm/pocket_docking_7.prm

>  <SCORE>
-15.2238

>  <SCORE.INTER>
-9.8016

>  <SCORE.INTER.CONST>
1

>  <SCORE.INTER.POLAR>
0

>  <SCORE.INTER.ROT>
2

>  <SCORE.INTER.SOLV>
10.158

>  <SCORE.INTER.VDW>
-14.8537

>  <SCORE.INTER.norm>
-0.576565

>  <SCORE.INTRA>
-5.42215

>  <SCORE.INTRA.DIHEDRAL>
-9.59773

>  <SCORE.INTRA.DIHEDRAL.0>
10.3255

>  <SCORE.INTRA.POLAR>
0

>  <SCORE.INTRA.POLAR.0>
0

>  <SCORE.INTRA.REPUL>
0

>  <SCORE.INTRA.REPUL.0>
0

>  <SCORE.INTRA.SOLV>
1.47828

>  <SCORE.INTRA.SOLV.lig_0>
-53.4755

>  <SCORE.INTRA.VDW>
-1.36242

>  <SCORE.INTRA.VDW.0>
2.32763

>  <SCORE.INTRA.norm>
-0.31895

>  <SCORE.RESTR>
0

>  <SCORE.RESTR.CAVITY>
0

>  <SCORE.RESTR.norm>
0

>  <SCORE.SYSTEM>
0

>  <SCORE.SYSTEM.CONST>
0

>  <SCORE.SYSTEM.DIHEDRAL>
0

>  <SCORE.SYSTEM.SOLV>
0

>  <SCORE.SYSTEM.norm>
0

>  <SCORE.heavy>
17

>  <SCORE.norm>
-0.895515

>  <RMSD>
5.557

$$$$
ligand
 OpenBabel11021811503D
libRbt.so/2013.1/901 2013/11/27
 17 18  0  0  0  0  0  0  0  0999 V2000
    3.2517    4.7806   19.6727 N   0  0  0  0  0  0  0  0  0  0  0  0
    4.5086    4.8336   20.2886 C   0  0  0  0  0  0  0  0  0  0  0  0
    5.6722    5.1294   19.5040 N   0  0  0  0  0  0  0  0  0  0  0  0
    4.6551    4.6154   21.6415 N   0  0  0  0  0  0  0  0  0  0  0  0
    3.5651    4.3303   22.4375 C   0  0  0  0  0  0  0  0  0  0  0  0
    2.2583    4.2573   21.8611 C   0  0  0  0  0  0  0  0  0  0  0  0
    3.7141    4.1392   23.6294 O   0  0  0  0  0  0  0  0  0  0  0  0
    1.0806    3.9531   22.6700 N   0  0  0  0  0  0  0  0  0  0  0  0
   -0.2134    4.0810   22.1013 C   0  0  2  0  0  0  0  0  0  0  0  0
   -0.2463    3.8314   20.5699 C   0  0  0  0  0  0  0  0  0  0  0  0
    2.1271    4.4923   20.4592 C   0  0  0  0  0  0  0  0  0  0  0  0
    0.7893    4.4254   19.8427 N   0  0  0  0  0  0  0  0  0  0  0  0
   -0.7738    5.4322   22.5061 C   0  0  1  0  0  0  0  0  0  0  0  0
   -2.0559    5.5919   22.0191 O   0  0  0  0  0  0  0  0  0  0  0  0
   -0.7580    5.5772   23.9985 C   0  0  1  0  0  0  0  0  0  0  0  0
    0.4962    5.7316   24.4459 O   0  0  0  0  0  0  0  0  0  0  0  0
   -1.5827    6.8023   24.4475 C   0  0  0  0  0  0  0  0  0  0  0  0
  1  2  2  0  0  0  0
  1 11  1  0  0  0  0
  2  3  1  0  0  0  0
  2  4  1  0  0  0  0
  4  5  1  0  0  0  0
  5  6  1  0  0  0  0
  5  7  2  0  0  0  0
  6  8  1  0  0  0  0
  6 11  2  0  0  0  0
  9  8  1  6  0  0  0
  9 10  1  0  0  0  0
  9 13  1  0  0  0  0
 10 12  1  0  0  0  0
 11 12  1  0  0  0  0
 13 14  1  1  0  0  0
 13 15  1  0  0  0  0
 15 16  1  6  0  0  0
 15 17  1  0  0  0  0
M  END
>  <CHROM.1>
-177.82663008,71.61346578,1.49674846,4.84998959,21.94571314,0.47214691,0.08286971
-1.76327768

>  <Name>
ligand

>  <RI>
0

>  <Rbt.Current_Directory>
/home/itssahil/PROJECTS/Mol_Feturizer/New_Systems/rnas/4LVX

>  <Rbt.Executable>
rbdock ($Id: //depot/dev/client3/rdock/2013.1/src/exe/rbdock.cxx#4 $)

>  <Rbt.Library>
libRbt.so (2013.1, Build901 2013/11/27)

>  <Rbt.Parameter_File>
/export/apps/rDock/src/rDock_2013.1_src/data/scripts/dock_solv.prm

>  <Rbt.Receptor>
prm/pocket_docking_3.prm

>  <SCORE>
-16.2405

>  <SCORE.INTER>
-9.89414

>  <SCORE.INTER.CONST>
1

>  <SCORE.INTER.POLAR>
0

>  <SCORE.INTER.ROT>
2

>  <SCORE.INTER.SOLV>
16.9961

>  <SCORE.INTER.VDW>
-17.1948

>  <SCORE.INTER.norm>
-0.582008

>  <SCORE.INTRA>
-6.34636

>  <SCORE.INTRA.DIHEDRAL>
-9.69574

>  <SCORE.INTRA.DIHEDRAL.0>
10.3255

>  <SCORE.INTRA.POLAR>
0

>  <SCORE.INTRA.POLAR.0>
0

>  <SCORE.INTRA.REPUL>
0

>  <SCORE.INTRA.REPUL.0>
0

>  <SCORE.INTRA.SOLV>
0.0130596

>  <SCORE.INTRA.SOLV.lig_0>
-53.4755

>  <SCORE.INTRA.VDW>
-1.50502

>  <SCORE.INTRA.VDW.0>
2.32763

>  <SCORE.INTRA.norm>
-0.373315

>  <SCORE.RESTR>
0

>  <SCORE.RESTR.CAVITY>
0

>  <SCORE.RESTR.norm>
0

>  <SCORE.SYSTEM>
0

>  <SCORE.SYSTEM.CONST>
0

>  <SCORE.SYSTEM.DIHEDRAL>
0

>  <SCORE.SYSTEM.SOLV>
0

>  <SCORE.SYSTEM.norm>
0

>  <SCORE.heavy>
17

>  <SCORE.norm>
-0.955324

>  <RMSD>
5.570

$$$$
ligand
 OpenBabel11021811503D
libRbt.so/2013.1/901 2013/11/27
 17 18  0  0  0  0  0  0  0  0999 V2000
    1.3741    4.6839   18.3685 N   0  0  0  0  0  0  0  0  0  0  0  0
    2.6483    5.1392   18.0064 C   0  0  0  0  0  0  0  0  0  0  0  0
    2.9742    5.3102   16.6202 N   0  0  0  0  0  0  0  0  0  0  0  0
    3.6012    5.4373   18.9565 N   0  0  0  0  0  0  0  0  0  0  0  0
    3.3334    5.2913   20.3018 C   0  0  0  0  0  0  0  0  0  0  0  0
    2.0510    4.8240   20.7290 C   0  0  0  0  0  0  0  0  0  0  0  0
    4.1874    5.5580   21.1258 O   0  0  0  0  0  0  0  0  0  0  0  0
    1.7313    4.6517   22.1439 N   0  0  0  0  0  0  0  0  0  0  0  0
    0.3947    4.3746   22.5326 C   0  0  2  0  0  0  0  0  0  0  0  0
   -0.4157    3.5985   21.4604 C   0  0  0  0  0  0  0  0  0  0  0  0
    1.0761    4.5264   19.7297 C   0  0  0  0  0  0  0  0  0  0  0  0
   -0.2544    4.0460   20.1460 N   0  0  0  0  0  0  0  0  0  0  0  0
   -0.2537    5.6811   22.9526 C   0  0  1  0  0  0  0  0  0  0  0  0
   -1.6089    5.5085   23.1526 O   0  0  0  0  0  0  0  0  0  0  0  0
    0.3967    6.2097   24.1960 C   0  0  1  0  0  0  0  0  0  0  0  0
    1.6901    6.4833   23.9741 O   0  0  0  0  0  0  0  0  0  0  0  0
   -0.2927    7.5041   24.6775 C   0  0  0  0  0  0  0  0  0  0  0  0
  1  2  2  0  0  0  0
  1 11  1  0  0  0  0
  2  3  1  0  0  0  0
  2  4  1  0  0  0  0
  4  5  1  0  0  0  0
  5  6  1  0  0  0  0
  5  7  2  0  0  0  0
  6  8  1  0  0  0  0
  6 11  2  0  0  0  0
  9  8  1  6  0  0  0
  9 10  1  0  0  0  0
  9 13  1  0  0  0  0
 10 12  1  0  0  0  0
 11 12  1  0  0  0  0
 13 14  1  1  0  0  0
 13 15  1  0  0  0  0
 15 16  1  6  0  0  0
 15 17  1  0  0  0  0
M  END
>  <CHROM.1>
171.14831372,62.49964847,1.30875444,5.25803254,21.20131575,1.05016362,-0.33783122
-1.94017447

>  <Name>
ligand

>  <RI>
0

>  <Rbt.Current_Directory>
/home/itssahil/PROJECTS/Mol_Feturizer/New_Systems/rnas/4LVX

>  <Rbt.Executable>
rbdock ($Id: //depot/dev/client3/rdock/2013.1/src/exe/rbdock.cxx#4 $)

>  <Rbt.Library>
libRbt.so (2013.1, Build901 2013/11/27)

>  <Rbt.Parameter_File>
/export/apps/rDock/src/rDock_2013.1_src/data/scripts/dock_solv.prm

>  <Rbt.Receptor>
prm/pocket_docking_5.prm

>  <SCORE>
-15.8984

>  <SCORE.INTER>
-9.16097

>  <SCORE.INTER.CONST>
1

>  <SCORE.INTER.POLAR>
0

>  <SCORE.INTER.ROT>
2

>  <SCORE.INTER.SOLV>
12.9885

>  <SCORE.INTER.VDW>
-15.3701

>  <SCORE.INTER.norm>
-0.53888

>  <SCORE.INTRA>
-6.73741

>  <SCORE.INTRA.DIHEDRAL>
-9.878

>  <SCORE.INTRA.DIHEDRAL.0>
10.3255

>  <SCORE.INTRA.POLAR>
0

>  <SCORE.INTRA.POLAR.0>
0

>  <SCORE.INTRA.REPUL>
0

>  <SCORE.INTRA.REPUL.0>
0

>  <SCORE.INTRA.SOLV>
-0.0342181

>  <SCORE.INTRA.SOLV.lig_0>
-53.4755

>  <SCORE.INTRA.VDW>
-1.7813

>  <SCORE.INTRA.VDW.0>
2.32763

>  <SCORE.INTRA.norm>
-0.396318

>  <SCORE.RESTR>
0

>  <SCORE.RESTR.CAVITY>
0

>  <SCORE.RESTR.norm>
0

>  <SCORE.SYSTEM>
0

>  <SCORE.SYSTEM.CONST>
0

>  <SCORE.SYSTEM.DIHEDRAL>
0

>  <SCORE.SYSTEM.SOLV>
0

>  <SCORE.SYSTEM.norm>
0

>  <SCORE.heavy>
17

>  <SCORE.norm>
-0.935199

>  <RMSD>
5.574

$$$$
ligand
 OpenBabel11021811503D
libRbt.so/2013.1/901 2013/11/27
 17 18  0  0  0  0  0  0  0  0999 V2000
    3.9368    4.3671   20.6463 N   0  0  0  0  0  0  0  0  0  0  0  0
    4.9793    4.2542   21.5750 C   0  0  0  0  0  0  0  0  0  0  0  0
    6.3389    4.2387   21.1183 N   0  0  0  0  0  0  0  0  0  0  0  0
    4.7297    4.1654   22.9274 N   0  0  0  0  0  0  0  0  0  0  0  0
    3.4391    4.1789   23.4143 C   0  0  0  0  0  0  0  0  0  0  0  0
    2.3353    4.2859   22.5113 C   0  0  0  0  0  0  0  0  0  0  0  0
    3.2383    4.0981   24.6112 O   0  0  0  0  0  0  0  0  0  0  0  0
    0.9546    4.2984   22.9879 N   0  0  0  0  0  0  0  0  0  0  0  0
   -0.0972    4.6002   22.0840 C   0  0  2  0  0  0  0  0  0  0  0  0
    0.2073    4.1911   20.6181 C   0  0  0  0  0  0  0  0  0  0  0  0
    2.6153    4.3827   21.1149 C   0  0  0  0  0  0  0  0  0  0  0  0
    1.4936    4.4971   20.1645 N   0  0  0  0  0  0  0  0  0  0  0  0
   -0.4468    6.0686   22.2420 C   0  0  1  0  0  0  0  0  0  0  0  0
   -1.5547    6.3886   21.4827 O   0  0  0  0  0  0  0  0  0  0  0  0
   -0.6887    6.3944   23.6856 C   0  0  1  0  0  0  0  0  0  0  0  0
   -0.7267    7.7214   23.8715 O   0  0  0  0  0  0  0  0  0  0  0  0
   -2.0281    5.8021   24.1729 C   0  0  0  0  0  0  0  0  0  0  0  0
  1  2  2  0  0  0  0
  1 11  1  0  0  0  0
  2  3  1  0  0  0  0
  2  4  1  0  0  0  0
  4  5  1  0  0  0  0
  5  6  1  0  0  0  0
  5  7  2  0  0  0  0
  6  8  1  0  0  0  0
  6 11  2  0  0  0  0
  9  8  1  1  0  0  0
  9 10  1  0  0  0  0
  9 13  1  0  0  0  0
 10 12  1  0  0  0  0
 11 12  1  0  0  0  0
 13 14  1  6  0  0  0
 13 15  1  0  0  0  0
 15 16  1  6  0  0  0
 15 17  1  0  0  0  0
M  END
>  <CHROM.1>
-174.00387871,167.37276649,1.60856997,4.98293120,22.34211097,0.23694146,0.30663731
-1.74762287

>  <Name>
ligand

>  <RI>
0

>  <Rbt.Current_Directory>
/home/itssahil/PROJECTS/Mol_Feturizer/New_Systems/rnas/4LVX

>  <Rbt.Executable>
rbdock ($Id: //depot/dev/client3/rdock/2013.1/src/exe/rbdock.cxx#4 $)

>  <Rbt.Library>
libRbt.so (2013.1, Build901 2013/11/27)

>  <Rbt.Parameter_File>
/export/apps/rDock/src/rDock_2013.1_src/data/scripts/dock_solv.prm

>  <Rbt.Receptor>
prm/pocket_docking_4.prm

>  <SCORE>
-15.4909

>  <SCORE.INTER>
-9.19335

>  <SCORE.INTER.CONST>
1

>  <SCORE.INTER.POLAR>
0

>  <SCORE.INTER.ROT>
2

>  <SCORE.INTER.SOLV>
14.7435

>  <SCORE.INTER.VDW>
-15.9767

>  <SCORE.INTER.norm>
-0.540785

>  <SCORE.INTRA>
-6.29753

>  <SCORE.INTRA.DIHEDRAL>
-9.46743

>  <SCORE.INTRA.DIHEDRAL.0>
10.3255

>  <SCORE.INTRA.POLAR>
0

>  <SCORE.INTRA.POLAR.0>
0

>  <SCORE.INTRA.REPUL>
0

>  <SCORE.INTRA.REPUL.0>
0

>  <SCORE.INTRA.SOLV>
-0.496697

>  <SCORE.INTRA.SOLV.lig_0>
-53.4755

>  <SCORE.INTRA.VDW>
-1.31547

>  <SCORE.INTRA.VDW.0>
2.32763

>  <SCORE.INTRA.norm>
-0.370443

>  <SCORE.RESTR>
0

>  <SCORE.RESTR.CAVITY>
0

>  <SCORE.RESTR.norm>
0

>  <SCORE.SYSTEM>
0

>  <SCORE.SYSTEM.CONST>
0

>  <SCORE.SYSTEM.DIHEDRAL>
0

>  <SCORE.SYSTEM.SOLV>
0

>  <SCORE.SYSTEM.norm>
0

>  <SCORE.heavy>
17

>  <SCORE.norm>
-0.911228

>  <RMSD>
5.575

$$$$
ligand
 OpenBabel11021811503D
libRbt.so/2013.1/901 2013/11/27
 17 18  0  0  0  0  0  0  0  0999 V2000
    3.2694    4.7628   19.6890 N   0  0  0  0  0  0  0  0  0  0  0  0
    4.5228    4.7887   20.3140 C   0  0  0  0  0  0  0  0  0  0  0  0
    5.6965    5.0735   19.5405 N   0  0  0  0  0  0  0  0  0  0  0  0
    4.6562    4.5538   21.6654 N   0  0  0  0  0  0  0  0  0  0  0  0
    3.5562    4.2783   22.4509 C   0  0  0  0  0  0  0  0  0  0  0  0
    2.2525    4.2329   21.8649 C   0  0  0  0  0  0  0  0  0  0  0  0
    3.6938    4.0722   23.6418 O   0  0  0  0  0  0  0  0  0  0  0  0
    1.0644    3.9395   22.6625 N   0  0  0  0  0  0  0  0  0  0  0  0
   -0.2234    4.0946   22.0865 C   0  0  2  0  0  0  0  0  0  0  0  0
   -0.2497    3.8618   20.5523 C   0  0  0  0  0  0  0  0  0  0  0  0
    2.1349    4.4847   20.4648 C   0  0  0  0  0  0  0  0  0  0  0  0
    0.8005    4.4463   19.8385 N   0  0  0  0  0  0  0  0  0  0  0  0
   -0.7645    5.4505   22.5019 C   0  0  1  0  0  0  0  0  0  0  0  0
   -2.0430    5.6335   22.0137 O   0  0  0  0  0  0  0  0  0  0  0  0
   -0.7496    5.5824   23.9955 C   0  0  1  0  0  0  0  0  0  0  0  0
    0.5052    5.7209   24.4461 O   0  0  0  0  0  0  0  0  0  0  0  0
   -1.5634    6.8112   24.4538 C   0  0  0  0  0  0  0  0  0  0  0  0
  1  2  2  0  0  0  0
  1 11  1  0  0  0  0
  2  3  1  0  0  0  0
  2  4  1  0  0  0  0
  4  5  1  0  0  0  0
  5  6  1  0  0  0  0
  5  7  2  0  0  0  0
  6  8  1  0  0  0  0
  6 11  2  0  0  0  0
  9  8  1  6  0  0  0
  9 10  1  0  0  0  0
  9 13  1  0  0  0  0
 10 12  1  0  0  0  0
 11 12  1  0  0  0  0
 13 14  1  1  0  0  0
 13 15  1  0  0  0  0
 15 16  1  6  0  0  0
 15 17  1  0  0  0  0
M  END
>  <CHROM.1>
-177.51628564,71.92702476,1.50098379,4.83770448,21.95069184,0.46855070,0.09959266
-1.75403706

>  <Name>
ligand

>  <RI>
0

>  <Rbt.Current_Directory>
/home/itssahil/PROJECTS/Mol_Feturizer/New_Systems/rnas/4LVX

>  <Rbt.Executable>
rbdock ($Id: //depot/dev/client3/rdock/2013.1/src/exe/rbdock.cxx#4 $)

>  <Rbt.Library>
libRbt.so (2013.1, Build901 2013/11/27)

>  <Rbt.Parameter_File>
/export/apps/rDock/src/rDock_2013.1_src/data/scripts/dock_solv.prm

>  <Rbt.Receptor>
prm/pocket_docking_4.prm

>  <SCORE>
-16.276

>  <SCORE.INTER>
-9.95697

>  <SCORE.INTER.CONST>
1

>  <SCORE.INTER.POLAR>
0

>  <SCORE.INTER.ROT>
2

>  <SCORE.INTER.SOLV>
17.1663

>  <SCORE.INTER.VDW>
-17.2934

>  <SCORE.INTER.norm>
-0.585704

>  <SCORE.INTRA>
-6.31903

>  <SCORE.INTRA.DIHEDRAL>
-9.66586

>  <SCORE.INTRA.DIHEDRAL.0>
10.3255

>  <SCORE.INTRA.POLAR>
0

>  <SCORE.INTRA.POLAR.0>
0

>  <SCORE.INTRA.REPUL>
0

>  <SCORE.INTRA.REPUL.0>
0

>  <SCORE.INTRA.SOLV>
0.0134998

>  <SCORE.INTRA.SOLV.lig_0>
-53.4755

>  <SCORE.INTRA.VDW>
-1.49285

>  <SCORE.INTRA.VDW.0>
2.32763

>  <SCORE.INTRA.norm>
-0.371708

>  <SCORE.RESTR>
0

>  <SCORE.RESTR.CAVITY>
0

>  <SCORE.RESTR.norm>
0

>  <SCORE.SYSTEM>
0

>  <SCORE.SYSTEM.CONST>
0

>  <SCORE.SYSTEM.DIHEDRAL>
0

>  <SCORE.SYSTEM.SOLV>
0

>  <SCORE.SYSTEM.norm>
0

>  <SCORE.heavy>
17

>  <SCORE.norm>
-0.957412

>  <RMSD>
5.575

$$$$
ligand
 OpenBabel11021811503D
libRbt.so/2013.1/901 2013/11/27
 17 18  0  0  0  0  0  0  0  0999 V2000
    0.8352    4.9313   18.1801 N   0  0  0  0  0  0  0  0  0  0  0  0
    2.0220    5.3508   17.5656 C   0  0  0  0  0  0  0  0  0  0  0  0
    2.0051    5.7548   16.1895 N   0  0  0  0  0  0  0  0  0  0  0  0
    3.2129    5.3932   18.2579 N   0  0  0  0  0  0  0  0  0  0  0  0
    3.2782    5.0170   19.5834 C   0  0  0  0  0  0  0  0  0  0  0  0
    2.0986    4.5742   20.2600 C   0  0  0  0  0  0  0  0  0  0  0  0
    4.3386    5.0598   20.1777 O   0  0  0  0  0  0  0  0  0  0  0  0
    2.1285    4.1629   21.6613 N   0  0  0  0  0  0  0  0  0  0  0  0
    0.9102    3.9176   22.3468 C   0  0  2  0  0  0  0  0  0  0  0  0
   -0.2329    3.4194   21.4227 C   0  0  0  0  0  0  0  0  0  0  0  0
    0.8741    4.5430   19.5270 C   0  0  0  0  0  0  0  0  0  0  0  0
   -0.3561    4.0929   20.2041 N   0  0  0  0  0  0  0  0  0  0  0  0
    0.5524    5.1662   23.1321 C   0  0  1  0  0  0  0  0  0  0  0  0
    1.5063    5.4231   24.0968 O   0  0  0  0  0  0  0  0  0  0  0  0
    0.4106    6.3396   22.2093 C   0  0  1  0  0  0  0  0  0  0  0  0
   -0.7124    6.2387   21.4843 O   0  0  0  0  0  0  0  0  0  0  0  0
    0.3558    7.6649   22.9986 C   0  0  0  0  0  0  0  0  0  0  0  0
  1  2  2  0  0  0  0
  1 11  1  0  0  0  0
  2  3  1  0  0  0  0
  2  4  1  0  0  0  0
  4  5  1  0  0  0  0
  5  6  1  0  0  0  0
  5  7  2  0  0  0  0
  6  8  1  0  0  0  0
  6 11  2  0  0  0  0
  9  8  1  6  0  0  0
  9 10  1  0  0  0  0
  9 13  1  0  0  0  0
 10 12  1  0  0  0  0
 11 12  1  0  0  0  0
 13 14  1  1  0  0  0
 13 15  1  0  0  0  0
 15 16  1  1  0  0  0
 15 17  1  0  0  0  0
M  END
>  <CHROM.1>
-63.52101592,72.27542036,1.35598623,5.15139812,20.61202386,1.21583361,0.02582171
-1.63267556

>  <Name>
ligand

>  <RI>
0

>  <Rbt.Current_Directory>
/home/itssahil/PROJECTS/Mol_Feturizer/New_Systems/rnas/4LVX

>  <Rbt.Executable>
rbdock ($Id: //depot/dev/client3/rdock/2013.1/src/exe/rbdock.cxx#4 $)

>  <Rbt.Library>
libRbt.so (2013.1, Build901 2013/11/27)

>  <Rbt.Parameter_File>
/export/apps/rDock/src/rDock_2013.1_src/data/scripts/dock_solv.prm

>  <Rbt.Receptor>
prm/pocket_docking_5.prm

>  <SCORE>
-15.2108

>  <SCORE.INTER>
-9.84892

>  <SCORE.INTER.CONST>
1

>  <SCORE.INTER.POLAR>
0

>  <SCORE.INTER.ROT>
2

>  <SCORE.INTER.SOLV>
10.4494

>  <SCORE.INTER.VDW>
-14.9824

>  <SCORE.INTER.norm>
-0.579349

>  <SCORE.INTRA>
-5.3619

>  <SCORE.INTRA.DIHEDRAL>
-9.61105

>  <SCORE.INTRA.DIHEDRAL.0>
10.3255

>  <SCORE.INTRA.POLAR>
0

>  <SCORE.INTRA.POLAR.0>
0

>  <SCORE.INTRA.REPUL>
0

>  <SCORE.INTRA.REPUL.0>
0

>  <SCORE.INTRA.SOLV>
1.47074

>  <SCORE.INTRA.SOLV.lig_0>
-53.4755

>  <SCORE.INTRA.VDW>
-1.29174

>  <SCORE.INTRA.VDW.0>
2.32763

>  <SCORE.INTRA.norm>
-0.315406

>  <SCORE.RESTR>
0

>  <SCORE.RESTR.CAVITY>
0

>  <SCORE.RESTR.norm>
0

>  <SCORE.SYSTEM>
0

>  <SCORE.SYSTEM.CONST>
0

>  <SCORE.SYSTEM.DIHEDRAL>
0

>  <SCORE.SYSTEM.SOLV>
0

>  <SCORE.SYSTEM.norm>
0

>  <SCORE.heavy>
17

>  <SCORE.norm>
-0.894754

>  <RMSD>
5.576

$$$$
ligand
 OpenBabel11021811503D
libRbt.so/2013.1/901 2013/11/27
 17 18  0  0  0  0  0  0  0  0999 V2000
    0.9996    4.8248   18.1836 N   0  0  0  0  0  0  0  0  0  0  0  0
    2.2221    5.2503   17.6483 C   0  0  0  0  0  0  0  0  0  0  0  0
    2.3207    5.5436   16.2478 N   0  0  0  0  0  0  0  0  0  0  0  0
    3.3387    5.4035   18.4414 N   0  0  0  0  0  0  0  0  0  0  0  0
    3.2920    5.1363   19.7939 C   0  0  0  0  0  0  0  0  0  0  0  0
    2.0716    4.6927   20.3933 C   0  0  0  0  0  0  0  0  0  0  0  0
    4.2882    5.2759   20.4776 O   0  0  0  0  0  0  0  0  0  0  0  0
    1.9838    4.3948   21.8207 N   0  0  0  0  0  0  0  0  0  0  0  0
    0.7163    4.1468   22.4090 C   0  0  2  0  0  0  0  0  0  0  0  0
   -0.3125    3.5238   21.4281 C   0  0  0  0  0  0  0  0  0  0  0  0
    0.9250    4.5459   19.5558 C   0  0  0  0  0  0  0  0  0  0  0  0
   -0.3454    4.0928   20.1517 N   0  0  0  0  0  0  0  0  0  0  0  0
    0.2357    5.4349   23.0520 C   0  0  1  0  0  0  0  0  0  0  0  0
   -1.0584    5.2946   23.5124 O   0  0  0  0  0  0  0  0  0  0  0  0
    1.1505    5.8313   24.1720 C   0  0  1  0  0  0  0  0  0  0  0  0
    2.4020    6.0023   23.7232 O   0  0  0  0  0  0  0  0  0  0  0  0
    0.6899    7.1513   24.8263 C   0  0  0  0  0  0  0  0  0  0  0  0
  1  2  2  0  0  0  0
  1 11  1  0  0  0  0
  2  3  1  0  0  0  0
  2  4  1  0  0  0  0
  4  5  1  0  0  0  0
  5  6  1  0  0  0  0
  5  7  2  0  0  0  0
  6  8  1  0  0  0  0
  6 11  2  0  0  0  0
  9  8  1  6  0  0  0
  9 10  1  0  0  0  0
  9 13  1  0  0  0  0
 10 12  1  0  0  0  0
 11 12  1  0  0  0  0
 13 14  1  1  0  0  0
 13 15  1  0  0  0  0
 15 16  1  6  0  0  0
 15 17  1  0  0  0  0
M  END
>  <CHROM.1>
173.36083674,58.98956021,1.45993362,5.11659540,21.01572463,1.24326148,-0.33956525
-1.78372274

>  <Name>
ligand

>  <RI>
0

>  <Rbt.Current_Directory>
/home/itssahil/PROJECTS/Mol_Feturizer/New_Systems/rnas/4LVX

>  <Rbt.Executable>
rbdock ($Id: //depot/dev/client3/rdock/2013.1/src/exe/rbdock.cxx#4 $)

>  <Rbt.Library>
libRbt.so (2013.1, Build901 2013/11/27)

>  <Rbt.Parameter_File>
/export/apps/rDock/src/rDock_2013.1_src/data/scripts/dock_solv.prm

>  <Rbt.Receptor>
prm/pocket_docking_5.prm

>  <SCORE>
-16.45

>  <SCORE.INTER>
-9.74107

>  <SCORE.INTER.CONST>
1

>  <SCORE.INTER.POLAR>
0

>  <SCORE.INTER.ROT>
2

>  <SCORE.INTER.SOLV>
11.4571

>  <SCORE.INTER.VDW>
-15.2464

>  <SCORE.INTER.norm>
-0.573004

>  <SCORE.INTRA>
-6.70893

>  <SCORE.INTRA.DIHEDRAL>
-10.01

>  <SCORE.INTRA.DIHEDRAL.0>
10.3255

>  <SCORE.INTRA.POLAR>
0

>  <SCORE.INTRA.POLAR.0>
0

>  <SCORE.INTRA.REPUL>
0

>  <SCORE.INTRA.REPUL.0>
0

>  <SCORE.INTRA.SOLV>
0.0304821

>  <SCORE.INTRA.SOLV.lig_0>
-53.4755

>  <SCORE.INTRA.VDW>
-1.71919

>  <SCORE.INTRA.VDW.0>
2.32763

>  <SCORE.INTRA.norm>
-0.394643

>  <SCORE.RESTR>
0

>  <SCORE.RESTR.CAVITY>
0

>  <SCORE.RESTR.norm>
0

>  <SCORE.SYSTEM>
0

>  <SCORE.SYSTEM.CONST>
0

>  <SCORE.SYSTEM.DIHEDRAL>
0

>  <SCORE.SYSTEM.SOLV>
0

>  <SCORE.SYSTEM.norm>
0

>  <SCORE.heavy>
17

>  <SCORE.norm>
-0.967647

>  <RMSD>
5.576

$$$$
ligand
 OpenBabel11021811503D
libRbt.so/2013.1/901 2013/11/27
 17 18  0  0  0  0  0  0  0  0999 V2000
    0.8302    4.8554   18.1254 N   0  0  0  0  0  0  0  0  0  0  0  0
    2.0173    5.2683   17.5069 C   0  0  0  0  0  0  0  0  0  0  0  0
    2.0144    5.5947   16.1103 N   0  0  0  0  0  0  0  0  0  0  0  0
    3.1951    5.3775   18.2142 N   0  0  0  0  0  0  0  0  0  0  0  0
    3.2466    5.0771   19.5596 C   0  0  0  0  0  0  0  0  0  0  0  0
    2.0662    4.6446   20.2414 C   0  0  0  0  0  0  0  0  0  0  0  0
    4.2956    5.1781   20.1670 O   0  0  0  0  0  0  0  0  0  0  0  0
    2.0818    4.3127   21.6638 N   0  0  0  0  0  0  0  0  0  0  0  0
    0.8580    4.0769   22.3429 C   0  0  2  0  0  0  0  0  0  0  0  0
   -0.2576    3.5010   21.4305 C   0  0  0  0  0  0  0  0  0  0  0  0
    0.8553    4.5436   19.4923 C   0  0  0  0  0  0  0  0  0  0  0  0
   -0.3756    4.1027   20.1742 N   0  0  0  0  0  0  0  0  0  0  0  0
    0.4586    5.3583   23.0515 C   0  0  1  0  0  0  0  0  0  0  0  0
   -0.8050    5.2389   23.5953 O   0  0  0  0  0  0  0  0  0  0  0  0
    1.4578    5.6982   24.1166 C   0  0  1  0  0  0  0  0  0  0  0  0
    2.6905    5.7889   23.5977 O   0  0  0  0  0  0  0  0  0  0  0  0
    1.1186    7.0459   24.7882 C   0  0  0  0  0  0  0  0  0  0  0  0
  1  2  2  0  0  0  0
  1 11  1  0  0  0  0
  2  3  1  0  0  0  0
  2  4  1  0  0  0  0
  4  5  1  0  0  0  0
  5  6  1  0  0  0  0
  5  7  2  0  0  0  0
  6  8  1  0  0  0  0
  6 11  2  0  0  0  0
  9  8  1  6  0  0  0
  9 10  1  0  0  0  0
  9 13  1  0  0  0  0
 10 12  1  0  0  0  0
 11 12  1  0  0  0  0
 13 14  1  1  0  0  0
 13 15  1  0  0  0  0
 15 16  1  6  0  0  0
 15 17  1  0  0  0  0
M  END
>  <CHROM.1>
172.72010936,56.16973651,1.51595899,5.06217330,20.91887327,1.33039492,-0.32764721
-1.72814046

>  <Name>
ligand

>  <RI>
0

>  <Rbt.Current_Directory>
/home/itssahil/PROJECTS/Mol_Feturizer/New_Systems/rnas/4LVX

>  <Rbt.Executable>
rbdock ($Id: //depot/dev/client3/rdock/2013.1/src/exe/rbdock.cxx#4 $)

>  <Rbt.Library>
libRbt.so (2013.1, Build901 2013/11/27)

>  <Rbt.Parameter_File>
/export/apps/rDock/src/rDock_2013.1_src/data/scripts/dock_solv.prm

>  <Rbt.Receptor>
prm/pocket_docking_6.prm

>  <SCORE>
-16.3094

>  <SCORE.INTER>
-9.68319

>  <SCORE.INTER.CONST>
1

>  <SCORE.INTER.POLAR>
0

>  <SCORE.INTER.ROT>
2

>  <SCORE.INTER.SOLV>
11.0393

>  <SCORE.INTER.VDW>
-15.0686

>  <SCORE.INTER.norm>
-0.569599

>  <SCORE.INTRA>
-6.62624

>  <SCORE.INTRA.DIHEDRAL>
-9.92414

>  <SCORE.INTRA.DIHEDRAL.0>
10.3255

>  <SCORE.INTRA.POLAR>
0

>  <SCORE.INTRA.POLAR.0>
0

>  <SCORE.INTRA.REPUL>
0

>  <SCORE.INTRA.REPUL.0>
0

>  <SCORE.INTRA.SOLV>
0.0466744

>  <SCORE.INTRA.SOLV.lig_0>
-53.4755

>  <SCORE.INTRA.VDW>
-1.68751

>  <SCORE.INTRA.VDW.0>
2.32763

>  <SCORE.INTRA.norm>
-0.389779

>  <SCORE.RESTR>
0

>  <SCORE.RESTR.CAVITY>
0

>  <SCORE.RESTR.norm>
0

>  <SCORE.SYSTEM>
0

>  <SCORE.SYSTEM.CONST>
0

>  <SCORE.SYSTEM.DIHEDRAL>
0

>  <SCORE.SYSTEM.SOLV>
0

>  <SCORE.SYSTEM.norm>
0

>  <SCORE.heavy>
17

>  <SCORE.norm>
-0.959378

>  <RMSD>
5.578

$$$$
ligand
 OpenBabel11021811503D
libRbt.so/2013.1/901 2013/11/27
 17 18  0  0  0  0  0  0  0  0999 V2000
    0.9967    4.8186   18.1765 N   0  0  0  0  0  0  0  0  0  0  0  0
    2.2185    5.2404   17.6370 C   0  0  0  0  0  0  0  0  0  0  0  0
    2.3134    5.5325   16.2360 N   0  0  0  0  0  0  0  0  0  0  0  0
    3.3382    5.3910   18.4263 N   0  0  0  0  0  0  0  0  0  0  0  0
    3.2951    5.1248   19.7792 C   0  0  0  0  0  0  0  0  0  0  0  0
    2.0755    4.6849   20.3828 C   0  0  0  0  0  0  0  0  0  0  0  0
    4.2940    5.2621   20.4595 O   0  0  0  0  0  0  0  0  0  0  0  0
    1.9915    4.3882   21.8107 N   0  0  0  0  0  0  0  0  0  0  0  0
    0.7252    4.1441   22.4033 C   0  0  2  0  0  0  0  0  0  0  0  0
   -0.3085    3.5233   21.4262 C   0  0  0  0  0  0  0  0  0  0  0  0
    0.9258    4.5408   19.5492 C   0  0  0  0  0  0  0  0  0  0  0  0
   -0.3439    4.0915   20.1495 N   0  0  0  0  0  0  0  0  0  0  0  0
    0.2504    5.4339   23.0470 C   0  0  1  0  0  0  0  0  0  0  0  0
   -1.0481    5.3024   23.4978 O   0  0  0  0  0  0  0  0  0  0  0  0
    1.1604    5.8195   24.1748 C   0  0  1  0  0  0  0  0  0  0  0  0
    2.4184    5.9708   23.7374 O   0  0  0  0  0  0  0  0  0  0  0  0
    0.7132    7.1478   24.8215 C   0  0  0  0  0  0  0  0  0  0  0  0
  1  2  2  0  0  0  0
  1 11  1  0  0  0  0
  2  3  1  0  0  0  0
  2  4  1  0  0  0  0
  4  5  1  0  0  0  0
  5  6  1  0  0  0  0
  5  7  2  0  0  0  0
  6  8  1  0  0  0  0
  6 11  2  0  0  0  0
  9  8  1  6  0  0  0
  9 10  1  0  0  0  0
  9 13  1  0  0  0  0
 10 12  1  0  0  0  0
 11 12  1  0  0  0  0
 13 14  1  1  0  0  0
 13 15  1  0  0  0  0
 15 16  1  6  0  0  0
 15 17  1  0  0  0  0
M  END
>  <CHROM.1>
172.66450822,58.45949836,1.46589551,5.10890321,21.00863858,1.24808538,-0.33410401
-1.78097231

>  <Name>
ligand

>  <RI>
0

>  <Rbt.Current_Directory>
/home/itssahil/PROJECTS/Mol_Feturizer/New_Systems/rnas/4LVX

>  <Rbt.Executable>
rbdock ($Id: //depot/dev/client3/rdock/2013.1/src/exe/rbdock.cxx#4 $)

>  <Rbt.Library>
libRbt.so (2013.1, Build901 2013/11/27)

>  <Rbt.Parameter_File>
/export/apps/rDock/src/rDock_2013.1_src/data/scripts/dock_solv.prm

>  <Rbt.Receptor>
prm/pocket_docking_8.prm

>  <SCORE>
-16.4537

>  <SCORE.INTER>
-9.74973

>  <SCORE.INTER.CONST>
1

>  <SCORE.INTER.POLAR>
0

>  <SCORE.INTER.ROT>
2

>  <SCORE.INTER.SOLV>
11.5063

>  <SCORE.INTER.VDW>
-15.2686

>  <SCORE.INTER.norm>
-0.573514

>  <SCORE.INTRA>
-6.704

>  <SCORE.INTRA.DIHEDRAL>
-9.97018

>  <SCORE.INTRA.DIHEDRAL.0>
10.3255

>  <SCORE.INTRA.POLAR>
0

>  <SCORE.INTRA.POLAR.0>
0

>  <SCORE.INTRA.REPUL>
0

>  <SCORE.INTRA.REPUL.0>
0

>  <SCORE.INTRA.SOLV>
0.0255036

>  <SCORE.INTRA.SOLV.lig_0>
-53.4755

>  <SCORE.INTRA.VDW>
-1.73166

>  <SCORE.INTRA.VDW.0>
2.32763

>  <SCORE.INTRA.norm>
-0.394353

>  <SCORE.RESTR>
0

>  <SCORE.RESTR.CAVITY>
0

>  <SCORE.RESTR.norm>
0

>  <SCORE.SYSTEM>
0

>  <SCORE.SYSTEM.CONST>
0

>  <SCORE.SYSTEM.DIHEDRAL>
0

>  <SCORE.SYSTEM.SOLV>
0

>  <SCORE.SYSTEM.norm>
0

>  <SCORE.heavy>
17

>  <SCORE.norm>
-0.967866

>  <RMSD>
5.580

$$$$
ligand
 OpenBabel11021811503D
libRbt.so/2013.1/901 2013/11/27
 17 18  0  0  0  0  0  0  0  0999 V2000
    1.0119    4.8179   18.1775 N   0  0  0  0  0  0  0  0  0  0  0  0
    2.2366    5.2373   17.6424 C   0  0  0  0  0  0  0  0  0  0  0  0
    2.3373    5.5294   16.2418 N   0  0  0  0  0  0  0  0  0  0  0  0
    3.3537    5.3855   18.4359 N   0  0  0  0  0  0  0  0  0  0  0  0
    3.3052    5.1192   19.7885 C   0  0  0  0  0  0  0  0  0  0  0  0
    2.0825    4.6818   20.3877 C   0  0  0  0  0  0  0  0  0  0  0  0
    4.3018    5.2544   20.4725 O   0  0  0  0  0  0  0  0  0  0  0  0
    1.9926    4.3851   21.8151 N   0  0  0  0  0  0  0  0  0  0  0  0
    0.7237    4.1434   22.4031 C   0  0  2  0  0  0  0  0  0  0  0  0
   -0.3077    3.5250   21.4221 C   0  0  0  0  0  0  0  0  0  0  0  0
    0.9355    4.5401   19.5498 C   0  0  0  0  0  0  0  0  0  0  0  0
   -0.3373    4.0934   20.1454 N   0  0  0  0  0  0  0  0  0  0  0  0
    0.2491    5.4342   23.0453 C   0  0  1  0  0  0  0  0  0  0  0  0
   -1.0490    5.3033   23.4970 O   0  0  0  0  0  0  0  0  0  0  0  0
    1.1598    5.8214   24.1719 C   0  0  1  0  0  0  0  0  0  0  0  0
    2.4151    5.9849   23.7312 O   0  0  0  0  0  0  0  0  0  0  0  0
    0.7043    7.1429   24.8266 C   0  0  0  0  0  0  0  0  0  0  0  0
  1  2  2  0  0  0  0
  1 11  1  0  0  0  0
  2  3  1  0  0  0  0
  2  4  1  0  0  0  0
  4  5  1  0  0  0  0
  5  6  1  0  0  0  0
  5  7  2  0  0  0  0
  6  8  1  0  0  0  0
  6 11  2  0  0  0  0
  9  8  1  6  0  0  0
  9 10  1  0  0  0  0
  9 13  1  0  0  0  0
 10 12  1  0  0  0  0
 11 12  1  0  0  0  0
 13 14  1  1  0  0  0
 13 15  1  0  0  0  0
 15 16  1  6  0  0  0
 15 17  1  0  0  0  0
M  END
>  <CHROM.1>
172.95083869,59.06062790,1.47144493,5.10799852,21.01090166,1.24419450,-0.33290476
-1.78300934

>  <Name>
ligand

>  <RI>
0

>  <Rbt.Current_Directory>
/home/itssahil/PROJECTS/Mol_Feturizer/New_Systems/rnas/4LVX

>  <Rbt.Executable>
rbdock ($Id: //depot/dev/client3/rdock/2013.1/src/exe/rbdock.cxx#4 $)

>  <Rbt.Library>
libRbt.so (2013.1, Build901 2013/11/27)

>  <Rbt.Parameter_File>
/export/apps/rDock/src/rDock_2013.1_src/data/scripts/dock_solv.prm

>  <Rbt.Receptor>
prm/pocket_docking_5.prm

>  <SCORE>
-16.4613

>  <SCORE.INTER>
-9.74588

>  <SCORE.INTER.CONST>
1

>  <SCORE.INTER.POLAR>
0

>  <SCORE.INTER.ROT>
2

>  <SCORE.INTER.SOLV>
11.5723

>  <SCORE.INTER.VDW>
-15.288

>  <SCORE.INTER.norm>
-0.573287

>  <SCORE.INTRA>
-6.71542

>  <SCORE.INTRA.DIHEDRAL>
-9.991

>  <SCORE.INTRA.DIHEDRAL.0>
10.3255

>  <SCORE.INTRA.POLAR>
0

>  <SCORE.INTRA.POLAR.0>
0

>  <SCORE.INTRA.REPUL>
0

>  <SCORE.INTRA.REPUL.0>
0

>  <SCORE.INTRA.SOLV>
0.0240383

>  <SCORE.INTRA.SOLV.lig_0>
-53.4755

>  <SCORE.INTRA.VDW>
-1.73194

>  <SCORE.INTRA.VDW.0>
2.32763

>  <SCORE.INTRA.norm>
-0.395025

>  <SCORE.RESTR>
0

>  <SCORE.RESTR.CAVITY>
0

>  <SCORE.RESTR.norm>
0

>  <SCORE.SYSTEM>
0

>  <SCORE.SYSTEM.CONST>
0

>  <SCORE.SYSTEM.DIHEDRAL>
0

>  <SCORE.SYSTEM.SOLV>
0

>  <SCORE.SYSTEM.norm>
0

>  <SCORE.heavy>
17

>  <SCORE.norm>
-0.968312

>  <RMSD>
5.583

$$$$
ligand
 OpenBabel11021811503D
libRbt.so/2013.1/901 2013/11/27
 17 18  0  0  0  0  0  0  0  0999 V2000
    0.9992    4.8157   18.1790 N   0  0  0  0  0  0  0  0  0  0  0  0
    2.2227    5.2283   17.6362 C   0  0  0  0  0  0  0  0  0  0  0  0
    2.3177    5.5128   16.2336 N   0  0  0  0  0  0  0  0  0  0  0  0
    3.3440    5.3769   18.4236 N   0  0  0  0  0  0  0  0  0  0  0  0
    3.3008    5.1178   19.7778 C   0  0  0  0  0  0  0  0  0  0  0  0
    2.0795    4.6875   20.3849 C   0  0  0  0  0  0  0  0  0  0  0  0
    4.3011    5.2532   20.4565 O   0  0  0  0  0  0  0  0  0  0  0  0
    1.9954    4.3985   21.8143 N   0  0  0  0  0  0  0  0  0  0  0  0
    0.7284    4.1641   22.4095 C   0  0  2  0  0  0  0  0  0  0  0  0
   -0.3096    3.5439   21.4365 C   0  0  0  0  0  0  0  0  0  0  0  0
    0.9282    4.5453   19.5531 C   0  0  0  0  0  0  0  0  0  0  0  0
   -0.3433    4.1058   20.1570 N   0  0  0  0  0  0  0  0  0  0  0  0
    0.2611    5.4597   23.0471 C   0  0  1  0  0  0  0  0  0  0  0  0
   -1.0323    5.3325   23.5135 O   0  0  0  0  0  0  0  0  0  0  0  0
    1.1837    5.8549   24.1611 C   0  0  1  0  0  0  0  0  0  0  0  0
    2.4286    6.0425   23.7008 O   0  0  0  0  0  0  0  0  0  0  0  0
    0.7170    7.1641   24.8324 C   0  0  0  0  0  0  0  0  0  0  0  0
  1  2  2  0  0  0  0
  1 11  1  0  0  0  0
  2  3  1  0  0  0  0
  2  4  1  0  0  0  0
  4  5  1  0  0  0  0
  5  6  1  0  0  0  0
  5  7  2  0  0  0  0
  6  8  1  0  0  0  0
  6 11  2  0  0  0  0
  9  8  1  6  0  0  0
  9 10  1  0  0  0  0
  9 13  1  0  0  0  0
 10 12  1  0  0  0  0
 11 12  1  0  0  0  0
 13 14  1  1  0  0  0
 13 15  1  0  0  0  0
 15 16  1  6  0  0  0
 15 17  1  0  0  0  0
M  END
>  <CHROM.1>
173.35084633,60.38145126,1.47226007,5.12069663,21.00861870,1.24867054,-0.33315651
-1.78816710

>  <Name>
ligand

>  <RI>
0

>  <Rbt.Current_Directory>
/home/itssahil/PROJECTS/Mol_Feturizer/New_Systems/rnas/4LVX

>  <Rbt.Executable>
rbdock ($Id: //depot/dev/client3/rdock/2013.1/src/exe/rbdock.cxx#4 $)

>  <Rbt.Library>
libRbt.so (2013.1, Build901 2013/11/27)

>  <Rbt.Parameter_File>
/export/apps/rDock/src/rDock_2013.1_src/data/scripts/dock_solv.prm

>  <Rbt.Receptor>
prm/pocket_docking_8.prm

>  <SCORE>
-16.4366

>  <SCORE.INTER>
-9.70133

>  <SCORE.INTER.CONST>
1

>  <SCORE.INTER.POLAR>
0

>  <SCORE.INTER.ROT>
2

>  <SCORE.INTER.SOLV>
11.4674

>  <SCORE.INTER.VDW>
-15.2234

>  <SCORE.INTER.norm>
-0.570666

>  <SCORE.INTRA>
-6.73531

>  <SCORE.INTRA.DIHEDRAL>
-10.015

>  <SCORE.INTRA.DIHEDRAL.0>
10.3255

>  <SCORE.INTRA.POLAR>
0

>  <SCORE.INTRA.POLAR.0>
0

>  <SCORE.INTRA.REPUL>
0

>  <SCORE.INTRA.REPUL.0>
0

>  <SCORE.INTRA.SOLV>
0.0172196

>  <SCORE.INTRA.SOLV.lig_0>
-53.4755

>  <SCORE.INTRA.VDW>
-1.7364

>  <SCORE.INTRA.VDW.0>
2.32763

>  <SCORE.INTRA.norm>
-0.396195

>  <SCORE.RESTR>
0

>  <SCORE.RESTR.CAVITY>
0

>  <SCORE.RESTR.norm>
0

>  <SCORE.SYSTEM>
0

>  <SCORE.SYSTEM.CONST>
0

>  <SCORE.SYSTEM.DIHEDRAL>
0

>  <SCORE.SYSTEM.SOLV>
0

>  <SCORE.SYSTEM.norm>
0

>  <SCORE.heavy>
17

>  <SCORE.norm>
-0.966861

>  <RMSD>
5.583

$$$$
ligand
 OpenBabel11021811503D
libRbt.so/2013.1/901 2013/11/27
 17 18  0  0  0  0  0  0  0  0999 V2000
    1.0066    4.8172   18.1770 N   0  0  0  0  0  0  0  0  0  0  0  0
    2.2336    5.2215   17.6355 C   0  0  0  0  0  0  0  0  0  0  0  0
    2.3322    5.5046   16.2329 N   0  0  0  0  0  0  0  0  0  0  0  0
    3.3548    5.3631   18.4242 N   0  0  0  0  0  0  0  0  0  0  0  0
    3.3083    5.1048   19.7785 C   0  0  0  0  0  0  0  0  0  0  0  0
    2.0834    4.6829   20.3843 C   0  0  0  0  0  0  0  0  0  0  0  0
    4.3085    5.2340   20.4584 O   0  0  0  0  0  0  0  0  0  0  0  0
    1.9956    4.3952   21.8137 N   0  0  0  0  0  0  0  0  0  0  0  0
    0.7264    4.1694   22.4074 C   0  0  2  0  0  0  0  0  0  0  0  0
   -0.3145    3.5556   21.4334 C   0  0  0  0  0  0  0  0  0  0  0  0
    0.9322    4.5479   19.5511 C   0  0  0  0  0  0  0  0  0  0  0  0
   -0.3429    4.1171   20.1536 N   0  0  0  0  0  0  0  0  0  0  0  0
    0.2668    5.4684   23.0438 C   0  0  1  0  0  0  0  0  0  0  0  0
   -1.0204    5.3434   23.5276 O   0  0  0  0  0  0  0  0  0  0  0  0
    1.2035    5.8700   24.1437 C   0  0  1  0  0  0  0  0  0  0  0  0
    2.4348    6.0882   23.6608 O   0  0  0  0  0  0  0  0  0  0  0  0
    0.7240    7.1618   24.8392 C   0  0  0  0  0  0  0  0  0  0  0  0
  1  2  2  0  0  0  0
  1 11  1  0  0  0  0
  2  3  1  0  0  0  0
  2  4  1  0  0  0  0
  4  5  1  0  0  0  0
  5  6  1  0  0  0  0
  5  7  2  0  0  0  0
  6  8  1  0  0  0  0
  6 11  2  0  0  0  0
  9  8  1  6  0  0  0
  9 10  1  0  0  0  0
  9 13  1  0  0  0  0
 10 12  1  0  0  0  0
 11 12  1  0  0  0  0
 13 14  1  1  0  0  0
 13 15  1  0  0  0  0
 15 16  1  6  0  0  0
 15 17  1  0  0  0  0
M  END
>  <CHROM.1>
174.29709920,61.94192773,1.47878432,5.12356543,21.00546463,1.24734884,-0.33160324
-1.79176879

>  <Name>
ligand

>  <RI>
0

>  <Rbt.Current_Directory>
/home/itssahil/PROJECTS/Mol_Feturizer/New_Systems/rnas/4LVX

>  <Rbt.Executable>
rbdock ($Id: //depot/dev/client3/rdock/2013.1/src/exe/rbdock.cxx#4 $)

>  <Rbt.Library>
libRbt.so (2013.1, Build901 2013/11/27)

>  <Rbt.Parameter_File>
/export/apps/rDock/src/rDock_2013.1_src/data/scripts/dock_solv.prm

>  <Rbt.Receptor>
prm/pocket_docking_7.prm

>  <SCORE>
-16.4299

>  <SCORE.INTER>
-9.68931

>  <SCORE.INTER.CONST>
1

>  <SCORE.INTER.POLAR>
0

>  <SCORE.INTER.ROT>
2

>  <SCORE.INTER.SOLV>
11.5219

>  <SCORE.INTER.VDW>
-15.2335

>  <SCORE.INTER.norm>
-0.569959

>  <SCORE.INTRA>
-6.74062

>  <SCORE.INTRA.DIHEDRAL>
-10.0454

>  <SCORE.INTRA.DIHEDRAL.0>
10.3255

>  <SCORE.INTRA.POLAR>
0

>  <SCORE.INTRA.POLAR.0>
0

>  <SCORE.INTRA.REPUL>
0

>  <SCORE.INTRA.REPUL.0>
0

>  <SCORE.INTRA.SOLV>
0.0150525

>  <SCORE.INTRA.SOLV.lig_0>
-53.4755

>  <SCORE.INTRA.VDW>
-1.72547

>  <SCORE.INTRA.VDW.0>
2.32763

>  <SCORE.INTRA.norm>
-0.396507

>  <SCORE.RESTR>
0

>  <SCORE.RESTR.CAVITY>
0

>  <SCORE.RESTR.norm>
0

>  <SCORE.SYSTEM>
0

>  <SCORE.SYSTEM.CONST>
0

>  <SCORE.SYSTEM.DIHEDRAL>
0

>  <SCORE.SYSTEM.SOLV>
0

>  <SCORE.SYSTEM.norm>
0

>  <SCORE.heavy>
17

>  <SCORE.norm>
-0.966467

>  <RMSD>
5.586

$$$$
ligand
 OpenBabel11021811503D
libRbt.so/2013.1/901 2013/11/27
 17 18  0  0  0  0  0  0  0  0999 V2000
    0.8548    4.9120   18.1284 N   0  0  0  0  0  0  0  0  0  0  0  0
    2.0484    5.3043   17.5092 C   0  0  0  0  0  0  0  0  0  0  0  0
    2.0436    5.6636   16.1207 N   0  0  0  0  0  0  0  0  0  0  0  0
    3.2347    5.3623   18.2083 N   0  0  0  0  0  0  0  0  0  0  0  0
    3.2885    5.0289   19.5458 C   0  0  0  0  0  0  0  0  0  0  0  0
    2.1015    4.6151   20.2278 C   0  0  0  0  0  0  0  0  0  0  0  0
    4.3449    5.0847   20.1459 O   0  0  0  0  0  0  0  0  0  0  0  0
    2.1190    4.2494   21.6419 N   0  0  0  0  0  0  0  0  0  0  0  0
    0.8945    4.0335   22.3262 C   0  0  2  0  0  0  0  0  0  0  0  0
   -0.2451    3.5123   21.4106 C   0  0  0  0  0  0  0  0  0  0  0  0
    0.8820    4.5673   19.4874 C   0  0  0  0  0  0  0  0  0  0  0  0
   -0.3557    4.1467   20.1699 N   0  0  0  0  0  0  0  0  0  0  0  0
    0.5388    5.3090   23.0681 C   0  0  1  0  0  0  0  0  0  0  0  0
   -0.7323    5.2229   23.6003 O   0  0  0  0  0  0  0  0  0  0  0  0
    1.5424    5.5806   24.1486 C   0  0  1  0  0  0  0  0  0  0  0  0
    2.7830    5.6230   23.6427 O   0  0  0  0  0  0  0  0  0  0  0  0
    1.2603    6.9295   24.8438 C   0  0  0  0  0  0  0  0  0  0  0  0
  1  2  2  0  0  0  0
  1 11  1  0  0  0  0
  2  3  1  0  0  0  0
  2  4  1  0  0  0  0
  4  5  1  0  0  0  0
  5  6  1  0  0  0  0
  5  7  2  0  0  0  0
  6  8  1  0  0  0  0
  6 11  2  0  0  0  0
  9  8  1  6  0  0  0
  9 10  1  0  0  0  0
  9 13  1  0  0  0  0
 10 12  1  0  0  0  0
 11 12  1  0  0  0  0
 13 14  1  1  0  0  0
 13 15  1  0  0  0  0
 15 16  1  6  0  0  0
 15 17  1  0  0  0  0
M  END
>  <CHROM.1>
171.66819706,55.44885780,1.56758579,5.02939853,20.92233882,1.34471440,-0.29447695
-1.69795954

>  <Name>
ligand

>  <RI>
0

>  <Rbt.Current_Directory>
/home/itssahil/PROJECTS/Mol_Feturizer/New_Systems/rnas/4LVX

>  <Rbt.Executable>
rbdock ($Id: //depot/dev/client3/rdock/2013.1/src/exe/rbdock.cxx#4 $)

>  <Rbt.Library>
libRbt.so (2013.1, Build901 2013/11/27)

>  <Rbt.Parameter_File>
/export/apps/rDock/src/rDock_2013.1_src/data/scripts/dock_solv.prm

>  <Rbt.Receptor>
prm/pocket_docking_8.prm

>  <SCORE>
-16.3754

>  <SCORE.INTER>
-9.7636

>  <SCORE.INTER.CONST>
1

>  <SCORE.INTER.POLAR>
0

>  <SCORE.INTER.ROT>
2

>  <SCORE.INTER.SOLV>
11.1852

>  <SCORE.INTER.VDW>
-15.1708

>  <SCORE.INTER.norm>
-0.574329

>  <SCORE.INTRA>
-6.61181

>  <SCORE.INTRA.DIHEDRAL>
-9.84407

>  <SCORE.INTRA.DIHEDRAL.0>
10.3255

>  <SCORE.INTRA.POLAR>
0

>  <SCORE.INTRA.POLAR.0>
0

>  <SCORE.INTRA.REPUL>
0

>  <SCORE.INTRA.REPUL.0>
0

>  <SCORE.INTRA.SOLV>
0.0375275

>  <SCORE.INTRA.SOLV.lig_0>
-53.4755

>  <SCORE.INTRA.VDW>
-1.70854

>  <SCORE.INTRA.VDW.0>
2.32763

>  <SCORE.INTRA.norm>
-0.38893

>  <SCORE.RESTR>
0

>  <SCORE.RESTR.CAVITY>
0

>  <SCORE.RESTR.norm>
0

>  <SCORE.SYSTEM>
0

>  <SCORE.SYSTEM.CONST>
0

>  <SCORE.SYSTEM.DIHEDRAL>
0

>  <SCORE.SYSTEM.SOLV>
0

>  <SCORE.SYSTEM.norm>
0

>  <SCORE.heavy>
17

>  <SCORE.norm>
-0.963259

>  <RMSD>
5.588

$$$$
ligand
 OpenBabel11021811503D
libRbt.so/2013.1/901 2013/11/27
 17 18  0  0  0  0  0  0  0  0999 V2000
    0.8278    4.9031   18.1426 N   0  0  0  0  0  0  0  0  0  0  0  0
    2.0017    5.2975   17.4881 C   0  0  0  0  0  0  0  0  0  0  0  0
    1.9582    5.6395   16.0958 N   0  0  0  0  0  0  0  0  0  0  0  0
    3.2050    5.3739   18.1555 N   0  0  0  0  0  0  0  0  0  0  0  0
    3.2960    5.0575   19.4952 C   0  0  0  0  0  0  0  0  0  0  0  0
    2.1305    4.6425   20.2126 C   0  0  0  0  0  0  0  0  0  0  0  0
    4.3670    5.1295   20.0671 O   0  0  0  0  0  0  0  0  0  0  0  0
    2.1875    4.2945   21.6301 N   0  0  0  0  0  0  0  0  0  0  0  0
    0.9828    4.0771   22.3483 C   0  0  2  0  0  0  0  0  0  0  0  0
   -0.1754    3.5352   21.4688 C   0  0  0  0  0  0  0  0  0  0  0  0
    0.8928    4.5756   19.5045 C   0  0  0  0  0  0  0  0  0  0  0  0
   -0.3232    4.1532   20.2238 N   0  0  0  0  0  0  0  0  0  0  0  0
    0.6355    5.3587   23.0835 C   0  0  1  0  0  0  0  0  0  0  0  0
   -0.6382    5.2858   23.6115 O   0  0  0  0  0  0  0  0  0  0  0  0
    1.6375    5.6263   24.1666 C   0  0  1  0  0  0  0  0  0  0  0  0
    2.8787    5.6718   23.6624 O   0  0  0  0  0  0  0  0  0  0  0  0
    1.3536    6.9719   24.8674 C   0  0  0  0  0  0  0  0  0  0  0  0
  1  2  2  0  0  0  0
  1 11  1  0  0  0  0
  2  3  1  0  0  0  0
  2  4  1  0  0  0  0
  4  5  1  0  0  0  0
  5  6  1  0  0  0  0
  5  7  2  0  0  0  0
  6  8  1  0  0  0  0
  6 11  2  0  0  0  0
  9  8  1  6  0  0  0
  9 10  1  0  0  0  0
  9 13  1  0  0  0  0
 10 12  1  0  0  0  0
 11 12  1  0  0  0  0
 13 14  1  1  0  0  0
 13 15  1  0  0  0  0
 15 16  1  6  0  0  0
 15 17  1  0  0  0  0
M  END
>  <CHROM.1>
169.67111087,56.18918078,1.60535817,5.05666461,20.92229614,1.37062346,-0.29689098
-1.69939288

>  <Name>
ligand

>  <RI>
0

>  <Rbt.Current_Directory>
/home/itssahil/PROJECTS/Mol_Feturizer/New_Systems/rnas/4LVX

>  <Rbt.Executable>
rbdock ($Id: //depot/dev/client3/rdock/2013.1/src/exe/rbdock.cxx#4 $)

>  <Rbt.Library>
libRbt.so (2013.1, Build901 2013/11/27)

>  <Rbt.Parameter_File>
/export/apps/rDock/src/rDock_2013.1_src/data/scripts/dock_solv.prm

>  <Rbt.Receptor>
prm/pocket_docking_5.prm

>  <SCORE>
-16.411

>  <SCORE.INTER>
-9.76552

>  <SCORE.INTER.CONST>
1

>  <SCORE.INTER.POLAR>
0

>  <SCORE.INTER.ROT>
2

>  <SCORE.INTER.SOLV>
10.6576

>  <SCORE.INTER.VDW>
-14.9962

>  <SCORE.INTER.norm>
-0.574442

>  <SCORE.INTRA>
-6.64549

>  <SCORE.INTRA.DIHEDRAL>
-9.7408

>  <SCORE.INTRA.DIHEDRAL.0>
10.3255

>  <SCORE.INTRA.POLAR>
0

>  <SCORE.INTRA.POLAR.0>
0

>  <SCORE.INTRA.REPUL>
0

>  <SCORE.INTRA.REPUL.0>
0

>  <SCORE.INTRA.SOLV>
0.00173762

>  <SCORE.INTRA.SOLV.lig_0>
-53.4755

>  <SCORE.INTRA.VDW>
-1.77596

>  <SCORE.INTRA.VDW.0>
2.32763

>  <SCORE.INTRA.norm>
-0.390911

>  <SCORE.RESTR>
0

>  <SCORE.RESTR.CAVITY>
0

>  <SCORE.RESTR.norm>
0

>  <SCORE.SYSTEM>
0

>  <SCORE.SYSTEM.CONST>
0

>  <SCORE.SYSTEM.DIHEDRAL>
0

>  <SCORE.SYSTEM.SOLV>
0

>  <SCORE.SYSTEM.norm>
0

>  <SCORE.heavy>
17

>  <SCORE.norm>
-0.965354

>  <RMSD>
5.589

$$$$
ligand
 OpenBabel11021811503D
libRbt.so/2013.1/901 2013/11/27
 17 18  0  0  0  0  0  0  0  0999 V2000
    1.1955    4.7222   18.2701 N   0  0  0  0  0  0  0  0  0  0  0  0
    2.4409    5.1372   17.7812 C   0  0  0  0  0  0  0  0  0  0  0  0
    2.6033    5.3970   16.3800 N   0  0  0  0  0  0  0  0  0  0  0  0
    3.5199    5.3117   18.6206 N   0  0  0  0  0  0  0  0  0  0  0  0
    3.4115    5.0769   19.9756 C   0  0  0  0  0  0  0  0  0  0  0  0
    2.1654    4.6454   20.5291 C   0  0  0  0  0  0  0  0  0  0  0  0
    4.3752    5.2349   20.7007 O   0  0  0  0  0  0  0  0  0  0  0  0
    2.0125    4.3817   21.9577 N   0  0  0  0  0  0  0  0  0  0  0  0
    0.7196    4.1453   22.4932 C   0  0  2  0  0  0  0  0  0  0  0  0
   -0.2627    3.4969   21.4816 C   0  0  0  0  0  0  0  0  0  0  0  0
    1.0585    4.4762   19.6438 C   0  0  0  0  0  0  0  0  0  0  0  0
   -0.2375    4.0349   20.1917 N   0  0  0  0  0  0  0  0  0  0  0  0
    0.2089    5.4475   23.0823 C   0  0  1  0  0  0  0  0  0  0  0  0
   -1.0874    5.3006   23.5347 O   0  0  0  0  0  0  0  0  0  0  0  0
    1.1043    5.9025   24.1957 C   0  0  1  0  0  0  0  0  0  0  0  0
    2.3539    6.0945   23.7500 O   0  0  0  0  0  0  0  0  0  0  0  0
    0.6029    7.2283   24.8068 C   0  0  0  0  0  0  0  0  0  0  0  0
  1  2  2  0  0  0  0
  1 11  1  0  0  0  0
  2  3  1  0  0  0  0
  2  4  1  0  0  0  0
  4  5  1  0  0  0  0
  5  6  1  0  0  0  0
  5  7  2  0  0  0  0
  6  8  1  0  0  0  0
  6 11  2  0  0  0  0
  9  8  1  6  0  0  0
  9 10  1  0  0  0  0
  9 13  1  0  0  0  0
 10 12  1  0  0  0  0
 11 12  1  0  0  0  0
 13 14  1  1  0  0  0
 13 15  1  0  0  0  0
 15 16  1  6  0  0  0
 15 17  1  0  0  0  0
M  END
>  <CHROM.1>
175.73990618,59.69938040,1.53076081,5.08892711,21.10595917,1.19329274,-0.34142733
-1.83035437

>  <Name>
ligand

>  <RI>
0

>  <Rbt.Current_Directory>
/home/itssahil/PROJECTS/Mol_Feturizer/New_Systems/rnas/4LVX

>  <Rbt.Executable>
rbdock ($Id: //depot/dev/client3/rdock/2013.1/src/exe/rbdock.cxx#4 $)

>  <Rbt.Library>
libRbt.so (2013.1, Build901 2013/11/27)

>  <Rbt.Parameter_File>
/export/apps/rDock/src/rDock_2013.1_src/data/scripts/dock_solv.prm

>  <Rbt.Receptor>
prm/pocket_docking_4.prm

>  <SCORE>
-16.1918

>  <SCORE.INTER>
-9.51575

>  <SCORE.INTER.CONST>
1

>  <SCORE.INTER.POLAR>
0

>  <SCORE.INTER.ROT>
2

>  <SCORE.INTER.SOLV>
12.4263

>  <SCORE.INTER.VDW>
-15.4193

>  <SCORE.INTER.norm>
-0.55975

>  <SCORE.INTRA>
-6.67638

>  <SCORE.INTRA.DIHEDRAL>
-10.1061

>  <SCORE.INTRA.DIHEDRAL.0>
10.3255

>  <SCORE.INTRA.POLAR>
0

>  <SCORE.INTRA.POLAR.0>
0

>  <SCORE.INTRA.REPUL>
0

>  <SCORE.INTRA.REPUL.0>
0

>  <SCORE.INTRA.SOLV>
0.0566314

>  <SCORE.INTRA.SOLV.lig_0>
-53.4755

>  <SCORE.INTRA.VDW>
-1.65164

>  <SCORE.INTRA.VDW.0>
2.32763

>  <SCORE.INTRA.norm>
-0.392728

>  <SCORE.RESTR>
0.000352584

>  <SCORE.RESTR.CAVITY>
0.000352584

>  <SCORE.RESTR.norm>
2.07403e-05

>  <SCORE.SYSTEM>
0

>  <SCORE.SYSTEM.CONST>
0

>  <SCORE.SYSTEM.DIHEDRAL>
0

>  <SCORE.SYSTEM.SOLV>
0

>  <SCORE.SYSTEM.norm>
0

>  <SCORE.heavy>
17

>  <SCORE.norm>
-0.952458

>  <RMSD>
5.592

$$$$
ligand
 OpenBabel11021811503D
libRbt.so/2013.1/901 2013/11/27
 17 18  0  0  0  0  0  0  0  0999 V2000
    1.0412    4.8114   18.1594 N   0  0  0  0  0  0  0  0  0  0  0  0
    2.2738    5.2263   17.6393 C   0  0  0  0  0  0  0  0  0  0  0  0
    2.3913    5.5229   16.2410 N   0  0  0  0  0  0  0  0  0  0  0  0
    3.3829    5.3659   18.4454 N   0  0  0  0  0  0  0  0  0  0  0  0
    3.3182    5.0950   19.7965 C   0  0  0  0  0  0  0  0  0  0  0  0
    2.0868    4.6618   20.3807 C   0  0  0  0  0  0  0  0  0  0  0  0
    4.3080    5.2226   20.4918 O   0  0  0  0  0  0  0  0  0  0  0  0
    1.9798    4.3604   21.8060 N   0  0  0  0  0  0  0  0  0  0  0  0
    0.7033    4.1232   22.3792 C   0  0  2  0  0  0  0  0  0  0  0  0
   -0.3205    3.5136   21.3848 C   0  0  0  0  0  0  0  0  0  0  0  0
    0.9484    4.5291   19.5298 C   0  0  0  0  0  0  0  0  0  0  0  0
   -0.3332    4.0868   20.1099 N   0  0  0  0  0  0  0  0  0  0  0  0
    0.2284    5.4141   23.0208 C   0  0  1  0  0  0  0  0  0  0  0  0
   -1.0668    5.2804   23.4801 O   0  0  0  0  0  0  0  0  0  0  0  0
    1.1441    5.8069   24.1414 C   0  0  1  0  0  0  0  0  0  0  0  0
    2.3942    5.9843   23.6913 O   0  0  0  0  0  0  0  0  0  0  0  0
    0.6807    7.1217   24.8040 C   0  0  0  0  0  0  0  0  0  0  0  0
  1  2  2  0  0  0  0
  1 11  1  0  0  0  0
  2  3  1  0  0  0  0
  2  4  1  0  0  0  0
  4  5  1  0  0  0  0
  5  6  1  0  0  0  0
  5  7  2  0  0  0  0
  6  8  1  0  0  0  0
  6 11  2  0  0  0  0
  9  8  1  6  0  0  0
  9 10  1  0  0  0  0
  9 13  1  0  0  0  0
 10 12  1  0  0  0  0
 11 12  1  0  0  0  0
 13 14  1  1  0  0  0
 13 15  1  0  0  0  0
 15 16  1  6  0  0  0
 15 17  1  0  0  0  0
M  END
>  <CHROM.1>
174.06082990,59.59076137,1.47345538,5.09190522,20.99590487,1.23293875,-0.33089739
-1.78582470

>  <Name>
ligand

>  <RI>
0

>  <Rbt.Current_Directory>
/home/itssahil/PROJECTS/Mol_Feturizer/New_Systems/rnas/4LVX

>  <Rbt.Executable>
rbdock ($Id: //depot/dev/client3/rdock/2013.1/src/exe/rbdock.cxx#4 $)

>  <Rbt.Library>
libRbt.so (2013.1, Build901 2013/11/27)

>  <Rbt.Parameter_File>
/export/apps/rDock/src/rDock_2013.1_src/data/scripts/dock_solv.prm

>  <Rbt.Receptor>
prm/pocket_docking_6.prm

>  <SCORE>
-16.4433

>  <SCORE.INTER>
-9.73111

>  <SCORE.INTER.CONST>
1

>  <SCORE.INTER.POLAR>
0

>  <SCORE.INTER.ROT>
2

>  <SCORE.INTER.SOLV>
11.8643

>  <SCORE.INTER.VDW>
-15.3755

>  <SCORE.INTER.norm>
-0.572418

>  <SCORE.INTRA>
-6.71215

>  <SCORE.INTRA.DIHEDRAL>
-10.045

>  <SCORE.INTRA.DIHEDRAL.0>
10.3255

>  <SCORE.INTRA.POLAR>
0

>  <SCORE.INTRA.POLAR.0>
0

>  <SCORE.INTRA.REPUL>
0

>  <SCORE.INTRA.REPUL.0>
0

>  <SCORE.INTRA.SOLV>
0.034629

>  <SCORE.INTRA.SOLV.lig_0>
-53.4755

>  <SCORE.INTRA.VDW>
-1.70697

>  <SCORE.INTRA.VDW.0>
2.32763

>  <SCORE.INTRA.norm>
-0.394832

>  <SCORE.RESTR>
0

>  <SCORE.RESTR.CAVITY>
0

>  <SCORE.RESTR.norm>
0

>  <SCORE.SYSTEM>
0

>  <SCORE.SYSTEM.CONST>
0

>  <SCORE.SYSTEM.DIHEDRAL>
0

>  <SCORE.SYSTEM.SOLV>
0

>  <SCORE.SYSTEM.norm>
0

>  <SCORE.heavy>
17

>  <SCORE.norm>
-0.967251

>  <RMSD>
5.593

$$$$
ligand
 OpenBabel11021811503D
libRbt.so/2013.1/901 2013/11/27
 17 18  0  0  0  0  0  0  0  0999 V2000
    1.0394    4.8208   18.1568 N   0  0  0  0  0  0  0  0  0  0  0  0
    2.2710    5.2367   17.6351 C   0  0  0  0  0  0  0  0  0  0  0  0
    2.3859    5.5351   16.2369 N   0  0  0  0  0  0  0  0  0  0  0  0
    3.3815    5.3755   18.4395 N   0  0  0  0  0  0  0  0  0  0  0  0
    3.3192    5.1029   19.7903 C   0  0  0  0  0  0  0  0  0  0  0  0
    2.0889    4.6687   20.3761 C   0  0  0  0  0  0  0  0  0  0  0  0
    4.3101    5.2298   20.4841 O   0  0  0  0  0  0  0  0  0  0  0  0
    1.9844    4.3655   21.8012 N   0  0  0  0  0  0  0  0  0  0  0  0
    0.7090    4.1274   22.3764 C   0  0  2  0  0  0  0  0  0  0  0  0
   -0.3164    3.5188   21.3829 C   0  0  0  0  0  0  0  0  0  0  0  0
    0.9490    4.5368   19.5270 C   0  0  0  0  0  0  0  0  0  0  0  0
   -0.3315    4.0935   20.1088 N   0  0  0  0  0  0  0  0  0  0  0  0
    0.2349    5.4173   23.0204 C   0  0  1  0  0  0  0  0  0  0  0  0
   -1.0608    5.2839   23.4784 O   0  0  0  0  0  0  0  0  0  0  0  0
    1.1502    5.8067   24.1426 C   0  0  1  0  0  0  0  0  0  0  0  0
    2.4000    5.9876   23.6930 O   0  0  0  0  0  0  0  0  0  0  0  0
    0.6851    7.1182   24.8105 C   0  0  0  0  0  0  0  0  0  0  0  0
  1  2  2  0  0  0  0
  1 11  1  0  0  0  0
  2  3  1  0  0  0  0
  2  4  1  0  0  0  0
  4  5  1  0  0  0  0
  5  6  1  0  0  0  0
  5  7  2  0  0  0  0
  6  8  1  0  0  0  0
  6 11  2  0  0  0  0
  9  8  1  6  0  0  0
  9 10  1  0  0  0  0
  9 13  1  0  0  0  0
 10 12  1  0  0  0  0
 11 12  1  0  0  0  0
 13 14  1  1  0  0  0
 13 15  1  0  0  0  0
 15 16  1  6  0  0  0
 15 17  1  0  0  0  0
M  END
>  <CHROM.1>
173.89226785,59.77125160,1.47584599,5.09762170,20.99355199,1.23471039,-0.33077793
-1.78367954

>  <Name>
ligand

>  <RI>
0

>  <Rbt.Current_Directory>
/home/itssahil/PROJECTS/Mol_Feturizer/New_Systems/rnas/4LVX

>  <Rbt.Executable>
rbdock ($Id: //depot/dev/client3/rdock/2013.1/src/exe/rbdock.cxx#4 $)

>  <Rbt.Library>
libRbt.so (2013.1, Build901 2013/11/27)

>  <Rbt.Parameter_File>
/export/apps/rDock/src/rDock_2013.1_src/data/scripts/dock_solv.prm

>  <Rbt.Receptor>
prm/pocket_docking_6.prm

>  <SCORE>
-16.4579

>  <SCORE.INTER>
-9.73929

>  <SCORE.INTER.CONST>
1

>  <SCORE.INTER.POLAR>
0

>  <SCORE.INTER.ROT>
2

>  <SCORE.INTER.SOLV>
11.7804

>  <SCORE.INTER.VDW>
-15.353

>  <SCORE.INTER.norm>
-0.572899

>  <SCORE.INTRA>
-6.7186

>  <SCORE.INTRA.DIHEDRAL>
-10.0386

>  <SCORE.INTRA.DIHEDRAL.0>
10.3255

>  <SCORE.INTRA.POLAR>
0

>  <SCORE.INTRA.POLAR.0>
0

>  <SCORE.INTRA.REPUL>
0

>  <SCORE.INTRA.REPUL.0>
0

>  <SCORE.INTRA.SOLV>
0.0305748

>  <SCORE.INTRA.SOLV.lig_0>
-53.4755

>  <SCORE.INTRA.VDW>
-1.7146

>  <SCORE.INTRA.VDW.0>
2.32763

>  <SCORE.INTRA.norm>
-0.395212

>  <SCORE.RESTR>
0

>  <SCORE.RESTR.CAVITY>
0

>  <SCORE.RESTR.norm>
0

>  <SCORE.SYSTEM>
0

>  <SCORE.SYSTEM.CONST>
0

>  <SCORE.SYSTEM.DIHEDRAL>
0

>  <SCORE.SYSTEM.SOLV>
0

>  <SCORE.SYSTEM.norm>
0

>  <SCORE.heavy>
17

>  <SCORE.norm>
-0.968111

>  <RMSD>
5.593

$$$$
ligand
 OpenBabel11021811503D
libRbt.so/2013.1/901 2013/11/27
 17 18  0  0  0  0  0  0  0  0999 V2000
    1.0792    4.7790   18.2033 N   0  0  0  0  0  0  0  0  0  0  0  0
    2.3170    5.1787   17.6837 C   0  0  0  0  0  0  0  0  0  0  0  0
    2.4430    5.4559   16.2821 N   0  0  0  0  0  0  0  0  0  0  0  0
    3.4233    5.3215   18.4931 N   0  0  0  0  0  0  0  0  0  0  0  0
    3.3504    5.0689   19.8473 C   0  0  0  0  0  0  0  0  0  0  0  0
    2.1133    4.6518   20.4313 C   0  0  0  0  0  0  0  0  0  0  0  0
    4.3377    5.1990   20.5456 O   0  0  0  0  0  0  0  0  0  0  0  0
    1.9976    4.3700   21.8599 N   0  0  0  0  0  0  0  0  0  0  0  0
    0.7168    4.1491   22.4301 C   0  0  2  0  0  0  0  0  0  0  0  0
   -0.3064    3.5333   21.4390 C   0  0  0  0  0  0  0  0  0  0  0  0
    0.9780    4.5155   19.5768 C   0  0  0  0  0  0  0  0  0  0  0  0
   -0.3092    4.0896   20.1566 N   0  0  0  0  0  0  0  0  0  0  0  0
    0.2477    5.4516   23.0524 C   0  0  1  0  0  0  0  0  0  0  0  0
   -1.0560    5.3376   23.4927 O   0  0  0  0  0  0  0  0  0  0  0  0
    1.1507    5.8439   24.1834 C   0  0  1  0  0  0  0  0  0  0  0  0
    2.4089    6.0060   23.7503 O   0  0  0  0  0  0  0  0  0  0  0  0
    0.6903    7.1679   24.8295 C   0  0  0  0  0  0  0  0  0  0  0  0
  1  2  2  0  0  0  0
  1 11  1  0  0  0  0
  2  3  1  0  0  0  0
  2  4  1  0  0  0  0
  4  5  1  0  0  0  0
  5  6  1  0  0  0  0
  5  7  2  0  0  0  0
  6  8  1  0  0  0  0
  6 11  2  0  0  0  0
  9  8  1  6  0  0  0
  9 10  1  0  0  0  0
  9 13  1  0  0  0  0
 10 12  1  0  0  0  0
 11 12  1  0  0  0  0
 13 14  1  1  0  0  0
 13 15  1  0  0  0  0
 15 16  1  6  0  0  0
 15 17  1  0  0  0  0
M  END
>  <CHROM.1>
173.33994469,59.77977903,1.49789672,5.09256496,21.04009995,1.23003431,-0.32002104
-1.79839143

>  <Name>
ligand

>  <RI>
0

>  <Rbt.Current_Directory>
/home/itssahil/PROJECTS/Mol_Feturizer/New_Systems/rnas/4LVX

>  <Rbt.Executable>
rbdock ($Id: //depot/dev/client3/rdock/2013.1/src/exe/rbdock.cxx#4 $)

>  <Rbt.Library>
libRbt.so (2013.1, Build901 2013/11/27)

>  <Rbt.Parameter_File>
/export/apps/rDock/src/rDock_2013.1_src/data/scripts/dock_solv.prm

>  <Rbt.Receptor>
prm/pocket_docking_5.prm

>  <SCORE>
-16.4045

>  <SCORE.INTER>
-9.67863

>  <SCORE.INTER.CONST>
1

>  <SCORE.INTER.POLAR>
0

>  <SCORE.INTER.ROT>
2

>  <SCORE.INTER.SOLV>
12.0295

>  <SCORE.INTER.VDW>
-15.3956

>  <SCORE.INTER.norm>
-0.569331

>  <SCORE.INTRA>
-6.72583

>  <SCORE.INTRA.DIHEDRAL>
-10.0139

>  <SCORE.INTRA.DIHEDRAL.0>
10.3255

>  <SCORE.INTRA.POLAR>
0

>  <SCORE.INTRA.POLAR.0>
0

>  <SCORE.INTRA.REPUL>
0

>  <SCORE.INTRA.REPUL.0>
0

>  <SCORE.INTRA.SOLV>
0.0227854

>  <SCORE.INTRA.SOLV.lig_0>
-53.4755

>  <SCORE.INTRA.VDW>
-1.73028

>  <SCORE.INTRA.VDW.0>
2.32763

>  <SCORE.INTRA.norm>
-0.395637

>  <SCORE.RESTR>
0

>  <SCORE.RESTR.CAVITY>
0

>  <SCORE.RESTR.norm>
0

>  <SCORE.SYSTEM>
0

>  <SCORE.SYSTEM.CONST>
0

>  <SCORE.SYSTEM.DIHEDRAL>
0

>  <SCORE.SYSTEM.SOLV>
0

>  <SCORE.SYSTEM.norm>
0

>  <SCORE.heavy>
17

>  <SCORE.norm>
-0.964968

>  <RMSD>
5.594

$$$$
ligand
 OpenBabel11021811503D
libRbt.so/2013.1/901 2013/11/27
 17 18  0  0  0  0  0  0  0  0999 V2000
    0.9753    4.8719   18.1430 N   0  0  0  0  0  0  0  0  0  0  0  0
    2.1918    5.2794   17.5807 C   0  0  0  0  0  0  0  0  0  0  0  0
    2.2560    5.6038   16.1850 N   0  0  0  0  0  0  0  0  0  0  0  0
    3.3353    5.3853   18.3426 N   0  0  0  0  0  0  0  0  0  0  0  0
    3.3222    5.0867   19.6893 C   0  0  0  0  0  0  0  0  0  0  0  0
    2.1093    4.6596   20.3152 C   0  0  0  0  0  0  0  0  0  0  0  0
    4.3418    5.1847   20.3453 O   0  0  0  0  0  0  0  0  0  0  0  0
    2.0566    4.3297   21.7373 N   0  0  0  0  0  0  0  0  0  0  0  0
    0.8013    4.0995   22.3581 C   0  0  2  0  0  0  0  0  0  0  0  0
   -0.2722    3.5265   21.3949 C   0  0  0  0  0  0  0  0  0  0  0  0
    0.9347    4.5620   19.5100 C   0  0  0  0  0  0  0  0  0  0  0  0
   -0.3286    4.1267   20.1337 N   0  0  0  0  0  0  0  0  0  0  0  0
    0.3737    5.3835   23.0454 C   0  0  1  0  0  0  0  0  0  0  0  0
   -0.9076    5.2632   23.5456 O   0  0  0  0  0  0  0  0  0  0  0  0
    1.3343    5.7321   24.1428 C   0  0  1  0  0  0  0  0  0  0  0  0
    2.5668    5.9210   23.6508 O   0  0  0  0  0  0  0  0  0  0  0  0
    0.9037    7.0238   24.8698 C   0  0  0  0  0  0  0  0  0  0  0  0
  1  2  2  0  0  0  0
  1 11  1  0  0  0  0
  2  3  1  0  0  0  0
  2  4  1  0  0  0  0
  4  5  1  0  0  0  0
  5  6  1  0  0  0  0
  5  7  2  0  0  0  0
  6  8  1  0  0  0  0
  6 11  2  0  0  0  0
  9  8  1  6  0  0  0
  9 10  1  0  0  0  0
  9 13  1  0  0  0  0
 10 12  1  0  0  0  0
 11 12  1  0  0  0  0
 13 14  1  1  0  0  0
 13 15  1  0  0  0  0
 15 16  1  6  0  0  0
 15 17  1  0  0  0  0
M  END
>  <CHROM.1>
173.55716333,60.73681541,1.52617967,5.08517595,20.96665519,1.27874580,-0.32214942
-1.74955296

>  <Name>
ligand

>  <RI>
0

>  <Rbt.Current_Directory>
/home/itssahil/PROJECTS/Mol_Feturizer/New_Systems/rnas/4LVX

>  <Rbt.Executable>
rbdock ($Id: //depot/dev/client3/rdock/2013.1/src/exe/rbdock.cxx#4 $)

>  <Rbt.Library>
libRbt.so (2013.1, Build901 2013/11/27)

>  <Rbt.Parameter_File>
/export/apps/rDock/src/rDock_2013.1_src/data/scripts/dock_solv.prm

>  <Rbt.Receptor>
prm/pocket_docking_5.prm

>  <SCORE>
-16.3138

>  <SCORE.INTER>
-9.57584

>  <SCORE.INTER.CONST>
1

>  <SCORE.INTER.POLAR>
0

>  <SCORE.INTER.ROT>
2

>  <SCORE.INTER.SOLV>
11.4066

>  <SCORE.INTER.VDW>
-15.1194

>  <SCORE.INTER.norm>
-0.563285

>  <SCORE.INTRA>
-6.73796

>  <SCORE.INTRA.DIHEDRAL>
-10.0236

>  <SCORE.INTRA.DIHEDRAL.0>
10.3255

>  <SCORE.INTRA.POLAR>
0

>  <SCORE.INTRA.POLAR.0>
0

>  <SCORE.INTRA.REPUL>
0

>  <SCORE.INTRA.REPUL.0>
0

>  <SCORE.INTRA.SOLV>
0.0166775

>  <SCORE.INTRA.SOLV.lig_0>
-53.4755

>  <SCORE.INTRA.VDW>
-1.73448

>  <SCORE.INTRA.VDW.0>
2.32763

>  <SCORE.INTRA.norm>
-0.396351

>  <SCORE.RESTR>
0

>  <SCORE.RESTR.CAVITY>
0

>  <SCORE.RESTR.norm>
0

>  <SCORE.SYSTEM>
0

>  <SCORE.SYSTEM.CONST>
0

>  <SCORE.SYSTEM.DIHEDRAL>
0

>  <SCORE.SYSTEM.SOLV>
0

>  <SCORE.SYSTEM.norm>
0

>  <SCORE.heavy>
17

>  <SCORE.norm>
-0.959635

>  <RMSD>
5.594

$$$$
ligand
 OpenBabel11021811503D
libRbt.so/2013.1/901 2013/11/27
 17 18  0  0  0  0  0  0  0  0999 V2000
    0.8274    4.9012   18.1258 N   0  0  0  0  0  0  0  0  0  0  0  0
    1.9978    5.2963   17.4654 C   0  0  0  0  0  0  0  0  0  0  0  0
    1.9476    5.6355   16.0727 N   0  0  0  0  0  0  0  0  0  0  0  0
    3.2039    5.3758   18.1275 N   0  0  0  0  0  0  0  0  0  0  0  0
    3.3012    5.0621   19.4673 C   0  0  0  0  0  0  0  0  0  0  0  0
    2.1395    4.6467   20.1906 C   0  0  0  0  0  0  0  0  0  0  0  0
    4.3746    5.1369   20.0345 O   0  0  0  0  0  0  0  0  0  0  0  0
    2.2032    4.3014   21.6085 N   0  0  0  0  0  0  0  0  0  0  0  0
    1.0020    4.0835   22.3324 C   0  0  2  0  0  0  0  0  0  0  0  0
   -0.1592    3.5382   21.4590 C   0  0  0  0  0  0  0  0  0  0  0  0
    0.8989    4.5764   19.4881 C   0  0  0  0  0  0  0  0  0  0  0  0
   -0.3134    4.1535   20.2134 N   0  0  0  0  0  0  0  0  0  0  0  0
    0.6559    5.3660   23.0667 C   0  0  1  0  0  0  0  0  0  0  0  0
   -0.5961    5.2737   23.6416 O   0  0  0  0  0  0  0  0  0  0  0  0
    1.6910    5.6652   24.1096 C   0  0  1  0  0  0  0  0  0  0  0  0
    2.9060    5.7722   23.5536 O   0  0  0  0  0  0  0  0  0  0  0  0
    1.3785    6.9883   24.8404 C   0  0  0  0  0  0  0  0  0  0  0  0
  1  2  2  0  0  0  0
  1 11  1  0  0  0  0
  2  3  1  0  0  0  0
  2  4  1  0  0  0  0
  4  5  1  0  0  0  0
  5  6  1  0  0  0  0
  5  7  2  0  0  0  0
  6  8  1  0  0  0  0
  6 11  2  0  0  0  0
  9  8  1  6  0  0  0
  9 10  1  0  0  0  0
  9 13  1  0  0  0  0
 10 12  1  0  0  0  0
 11 12  1  0  0  0  0
 13 14  1  1  0  0  0
 13 15  1  0  0  0  0
 15 16  1  6  0  0  0
 15 17  1  0  0  0  0
M  END
>  <CHROM.1>
171.84978962,58.16824392,1.62000698,5.06797577,20.89685511,1.37288247,-0.31039007
-1.70525360

>  <Name>
ligand

>  <RI>
0

>  <Rbt.Current_Directory>
/home/itssahil/PROJECTS/Mol_Feturizer/New_Systems/rnas/4LVX

>  <Rbt.Executable>
rbdock ($Id: //depot/dev/client3/rdock/2013.1/src/exe/rbdock.cxx#4 $)

>  <Rbt.Library>
libRbt.so (2013.1, Build901 2013/11/27)

>  <Rbt.Parameter_File>
/export/apps/rDock/src/rDock_2013.1_src/data/scripts/dock_solv.prm

>  <Rbt.Receptor>
prm/pocket_docking_7.prm

>  <SCORE>
-16.4137

>  <SCORE.INTER>
-9.71104

>  <SCORE.INTER.CONST>
1

>  <SCORE.INTER.POLAR>
0

>  <SCORE.INTER.ROT>
2

>  <SCORE.INTER.SOLV>
10.5895

>  <SCORE.INTER.VDW>
-14.9372

>  <SCORE.INTER.norm>
-0.571238

>  <SCORE.INTRA>
-6.70268

>  <SCORE.INTRA.DIHEDRAL>
-9.9224

>  <SCORE.INTRA.DIHEDRAL.0>
10.3255

>  <SCORE.INTRA.POLAR>
0

>  <SCORE.INTRA.POLAR.0>
0

>  <SCORE.INTRA.REPUL>
0

>  <SCORE.INTRA.REPUL.0>
0

>  <SCORE.INTRA.SOLV>
0.0164689

>  <SCORE.INTRA.SOLV.lig_0>
-53.4755

>  <SCORE.INTRA.VDW>
-1.74971

>  <SCORE.INTRA.VDW.0>
2.32763

>  <SCORE.INTRA.norm>
-0.394275

>  <SCORE.RESTR>
0

>  <SCORE.RESTR.CAVITY>
0

>  <SCORE.RESTR.norm>
0

>  <SCORE.SYSTEM>
0

>  <SCORE.SYSTEM.CONST>
0

>  <SCORE.SYSTEM.DIHEDRAL>
0

>  <SCORE.SYSTEM.SOLV>
0

>  <SCORE.SYSTEM.norm>
0

>  <SCORE.heavy>
17

>  <SCORE.norm>
-0.965513

>  <RMSD>
5.594

$$$$
ligand
 OpenBabel11021811503D
libRbt.so/2013.1/901 2013/11/27
 17 18  0  0  0  0  0  0  0  0999 V2000
    0.8260    4.8967   18.1194 N   0  0  0  0  0  0  0  0  0  0  0  0
    1.9957    5.2961   17.4603 C   0  0  0  0  0  0  0  0  0  0  0  0
    1.9472    5.6280   16.0658 N   0  0  0  0  0  0  0  0  0  0  0  0
    3.1994    5.3868   18.1253 N   0  0  0  0  0  0  0  0  0  0  0  0
    3.2949    5.0805   19.4669 C   0  0  0  0  0  0  0  0  0  0  0  0
    2.1340    4.6611   20.1891 C   0  0  0  0  0  0  0  0  0  0  0  0
    4.3663    5.1651   20.0366 O   0  0  0  0  0  0  0  0  0  0  0  0
    2.1960    4.3234   21.6089 N   0  0  0  0  0  0  0  0  0  0  0  0
    0.9942    4.1013   22.3305 C   0  0  2  0  0  0  0  0  0  0  0  0
   -0.1610    3.5440   21.4567 C   0  0  0  0  0  0  0  0  0  0  0  0
    0.8958    4.5792   19.4835 C   0  0  0  0  0  0  0  0  0  0  0  0
   -0.3157    4.1521   20.2076 N   0  0  0  0  0  0  0  0  0  0  0  0
    0.6377    5.3851   23.0574 C   0  0  1  0  0  0  0  0  0  0  0  0
   -0.6252    5.2967   23.6083 O   0  0  0  0  0  0  0  0  0  0  0  0
    1.6535    5.6820   24.1197 C   0  0  1  0  0  0  0  0  0  0  0  0
    2.8799    5.7811   23.5876 O   0  0  0  0  0  0  0  0  0  0  0  0
    1.3335    7.0089   24.8405 C   0  0  0  0  0  0  0  0  0  0  0  0
  1  2  2  0  0  0  0
  1 11  1  0  0  0  0
  2  3  1  0  0  0  0
  2  4  1  0  0  0  0
  4  5  1  0  0  0  0
  5  6  1  0  0  0  0
  5  7  2  0  0  0  0
  6  8  1  0  0  0  0
  6 11  2  0  0  0  0
  9  8  1  6  0  0  0
  9 10  1  0  0  0  0
  9 13  1  0  0  0  0
 10 12  1  0  0  0  0
 11 12  1  0  0  0  0
 13 14  1  1  0  0  0
 13 15  1  0  0  0  0
 15 16  1  6  0  0  0
 15 17  1  0  0  0  0
M  END
>  <CHROM.1>
170.74218783,57.97298441,1.60731272,5.07971710,20.89499811,1.36962531,-0.31102808
-1.70926783

>  <Name>
ligand

>  <RI>
0

>  <Rbt.Current_Directory>
/home/itssahil/PROJECTS/Mol_Feturizer/New_Systems/rnas/4LVX

>  <Rbt.Executable>
rbdock ($Id: //depot/dev/client3/rdock/2013.1/src/exe/rbdock.cxx#4 $)

>  <Rbt.Library>
libRbt.so (2013.1, Build901 2013/11/27)

>  <Rbt.Parameter_File>
/export/apps/rDock/src/rDock_2013.1_src/data/scripts/dock_solv.prm

>  <Rbt.Receptor>
prm/pocket_docking_5.prm

>  <SCORE>
-16.4067

>  <SCORE.INTER>
-9.70763

>  <SCORE.INTER.CONST>
1

>  <SCORE.INTER.POLAR>
0

>  <SCORE.INTER.ROT>
2

>  <SCORE.INTER.SOLV>
10.4901

>  <SCORE.INTER.VDW>
-14.9018

>  <SCORE.INTER.norm>
-0.571037

>  <SCORE.INTRA>
-6.69909

>  <SCORE.INTRA.DIHEDRAL>
-9.85313

>  <SCORE.INTRA.DIHEDRAL.0>
10.3255

>  <SCORE.INTRA.POLAR>
0

>  <SCORE.INTRA.POLAR.0>
0

>  <SCORE.INTRA.REPUL>
0

>  <SCORE.INTRA.REPUL.0>
0

>  <SCORE.INTRA.SOLV>
0.00213927

>  <SCORE.INTRA.SOLV.lig_0>
-53.4755

>  <SCORE.INTRA.VDW>
-1.77359

>  <SCORE.INTRA.VDW.0>
2.32763

>  <SCORE.INTRA.norm>
-0.394064

>  <SCORE.RESTR>
0

>  <SCORE.RESTR.CAVITY>
0

>  <SCORE.RESTR.norm>
0

>  <SCORE.SYSTEM>
0

>  <SCORE.SYSTEM.CONST>
0

>  <SCORE.SYSTEM.DIHEDRAL>
0

>  <SCORE.SYSTEM.SOLV>
0

>  <SCORE.SYSTEM.norm>
0

>  <SCORE.heavy>
17

>  <SCORE.norm>
-0.965101

>  <RMSD>
5.595

$$$$
ligand
 OpenBabel11021811503D
libRbt.so/2013.1/901 2013/11/27
 17 18  0  0  0  0  0  0  0  0999 V2000
    1.2202    4.7595   18.2708 N   0  0  0  0  0  0  0  0  0  0  0  0
    2.4727    5.1586   17.7871 C   0  0  0  0  0  0  0  0  0  0  0  0
    2.6441    5.4164   16.3866 N   0  0  0  0  0  0  0  0  0  0  0  0
    3.5505    5.3190   18.6308 N   0  0  0  0  0  0  0  0  0  0  0  0
    3.4336    5.0854   19.9853 C   0  0  0  0  0  0  0  0  0  0  0  0
    2.1799    4.6698   20.5337 C   0  0  0  0  0  0  0  0  0  0  0  0
    4.3964    5.2310   20.7143 O   0  0  0  0  0  0  0  0  0  0  0  0
    2.0179    4.4080   21.9616 N   0  0  0  0  0  0  0  0  0  0  0  0
    0.7199    4.1881   22.4919 C   0  0  2  0  0  0  0  0  0  0  0  0
   -0.2665    3.5525   21.4762 C   0  0  0  0  0  0  0  0  0  0  0  0
    1.0745    4.5151   19.6439 C   0  0  0  0  0  0  0  0  0  0  0  0
   -0.2293    4.0904   20.1865 N   0  0  0  0  0  0  0  0  0  0  0  0
    0.2236    5.4967   23.0792 C   0  0  1  0  0  0  0  0  0  0  0  0
   -1.0836    5.3727   23.5061 O   0  0  0  0  0  0  0  0  0  0  0  0
    1.1065    5.9276   24.2121 C   0  0  1  0  0  0  0  0  0  0  0  0
    2.3641    6.1149   23.7875 O   0  0  0  0  0  0  0  0  0  0  0  0
    0.6076    7.2489   24.8350 C   0  0  0  0  0  0  0  0  0  0  0  0
  1  2  2  0  0  0  0
  1 11  1  0  0  0  0
  2  3  1  0  0  0  0
  2  4  1  0  0  0  0
  4  5  1  0  0  0  0
  5  6  1  0  0  0  0
  5  7  2  0  0  0  0
  6  8  1  0  0  0  0
  6 11  2  0  0  0  0
  9  8  1  6  0  0  0
  9 10  1  0  0  0  0
  9 13  1  0  0  0  0
 10 12  1  0  0  0  0
 11 12  1  0  0  0  0
 13 14  1  1  0  0  0
 13 15  1  0  0  0  0
 15 16  1  6  0  0  0
 15 17  1  0  0  0  0
M  END
>  <CHROM.1>
174.74575896,60.52492895,1.54507986,5.11962334,21.11166260,1.19303106,-0.32387741
-1.82817660

>  <Name>
ligand

>  <RI>
0

>  <Rbt.Current_Directory>
/home/itssahil/PROJECTS/Mol_Feturizer/New_Systems/rnas/4LVX

>  <Rbt.Executable>
rbdock ($Id: //depot/dev/client3/rdock/2013.1/src/exe/rbdock.cxx#4 $)

>  <Rbt.Library>
libRbt.so (2013.1, Build901 2013/11/27)

>  <Rbt.Parameter_File>
/export/apps/rDock/src/rDock_2013.1_src/data/scripts/dock_solv.prm

>  <Rbt.Receptor>
prm/pocket_docking_4.prm

>  <SCORE>
-16.2152

>  <SCORE.INTER>
-9.49685

>  <SCORE.INTER.CONST>
1

>  <SCORE.INTER.POLAR>
0

>  <SCORE.INTER.ROT>
2

>  <SCORE.INTER.SOLV>
12.2174

>  <SCORE.INTER.VDW>
-15.337

>  <SCORE.INTER.norm>
-0.558638

>  <SCORE.INTRA>
-6.71837

>  <SCORE.INTRA.DIHEDRAL>
-10.0732

>  <SCORE.INTRA.DIHEDRAL.0>
10.3255

>  <SCORE.INTRA.POLAR>
0

>  <SCORE.INTRA.POLAR.0>
0

>  <SCORE.INTRA.REPUL>
0

>  <SCORE.INTRA.REPUL.0>
0

>  <SCORE.INTRA.SOLV>
0.0351065

>  <SCORE.INTRA.SOLV.lig_0>
-53.4755

>  <SCORE.INTRA.VDW>
-1.69932

>  <SCORE.INTRA.VDW.0>
2.32763

>  <SCORE.INTRA.norm>
-0.395198

>  <SCORE.RESTR>
0

>  <SCORE.RESTR.CAVITY>
0

>  <SCORE.RESTR.norm>
0

>  <SCORE.SYSTEM>
0

>  <SCORE.SYSTEM.CONST>
0

>  <SCORE.SYSTEM.DIHEDRAL>
0

>  <SCORE.SYSTEM.SOLV>
0

>  <SCORE.SYSTEM.norm>
0

>  <SCORE.heavy>
17

>  <SCORE.norm>
-0.953836

>  <RMSD>
5.596

$$$$
ligand
 OpenBabel11021811503D
libRbt.so/2013.1/901 2013/11/27
 17 18  0  0  0  0  0  0  0  0999 V2000
    1.0210    4.8147   18.1441 N   0  0  0  0  0  0  0  0  0  0  0  0
    2.2504    5.2266   17.6140 C   0  0  0  0  0  0  0  0  0  0  0  0
    2.3582    5.5190   16.2140 N   0  0  0  0  0  0  0  0  0  0  0  0
    3.3654    5.3672   18.4118 N   0  0  0  0  0  0  0  0  0  0  0  0
    3.3099    5.1002   19.7640 C   0  0  0  0  0  0  0  0  0  0  0  0
    2.0822    4.6702   20.3582 C   0  0  0  0  0  0  0  0  0  0  0  0
    4.3048    5.2285   20.4520 O   0  0  0  0  0  0  0  0  0  0  0  0
    1.9850    4.3731   21.7852 N   0  0  0  0  0  0  0  0  0  0  0  0
    0.7123    4.1392   22.3681 C   0  0  2  0  0  0  0  0  0  0  0  0
   -0.3193    3.5280   21.3828 C   0  0  0  0  0  0  0  0  0  0  0  0
    0.9376    4.5365   19.5159 C   0  0  0  0  0  0  0  0  0  0  0  0
   -0.3404    4.0975   20.1064 N   0  0  0  0  0  0  0  0  0  0  0  0
    0.2436    5.4325   23.0094 C   0  0  1  0  0  0  0  0  0  0  0  0
   -1.0440    5.2977   23.4895 O   0  0  0  0  0  0  0  0  0  0  0  0
    1.1754    5.8346   24.1133 C   0  0  1  0  0  0  0  0  0  0  0  0
    2.4085    6.0539   23.6356 O   0  0  0  0  0  0  0  0  0  0  0  0
    0.6919    7.1259   24.8070 C   0  0  0  0  0  0  0  0  0  0  0  0
  1  2  2  0  0  0  0
  1 11  1  0  0  0  0
  2  3  1  0  0  0  0
  2  4  1  0  0  0  0
  4  5  1  0  0  0  0
  5  6  1  0  0  0  0
  5  7  2  0  0  0  0
  6  8  1  0  0  0  0
  6 11  2  0  0  0  0
  9  8  1  6  0  0  0
  9 10  1  0  0  0  0
  9 13  1  0  0  0  0
 10 12  1  0  0  0  0
 11 12  1  0  0  0  0
 13 14  1  1  0  0  0
 13 15  1  0  0  0  0
 15 16  1  6  0  0  0
 15 17  1  0  0  0  0
M  END
>  <CHROM.1>
174.62713411,61.53887245,1.47287251,5.10536858,20.97644264,1.23903630,-0.33476598
-1.78877409

>  <Name>
ligand

>  <RI>
0

>  <Rbt.Current_Directory>
/home/itssahil/PROJECTS/Mol_Feturizer/New_Systems/rnas/4LVX

>  <Rbt.Executable>
rbdock ($Id: //depot/dev/client3/rdock/2013.1/src/exe/rbdock.cxx#4 $)

>  <Rbt.Library>
libRbt.so (2013.1, Build901 2013/11/27)

>  <Rbt.Parameter_File>
/export/apps/rDock/src/rDock_2013.1_src/data/scripts/dock_solv.prm

>  <Rbt.Receptor>
prm/pocket_docking_5.prm

>  <SCORE>
-16.4048

>  <SCORE.INTER>
-9.67112

>  <SCORE.INTER.CONST>
1

>  <SCORE.INTER.POLAR>
0

>  <SCORE.INTER.ROT>
2

>  <SCORE.INTER.SOLV>
11.7339

>  <SCORE.INTER.VDW>
-15.292

>  <SCORE.INTER.norm>
-0.568889

>  <SCORE.INTRA>
-6.73366

>  <SCORE.INTRA.DIHEDRAL>
-10.0627

>  <SCORE.INTRA.DIHEDRAL.0>
10.3255

>  <SCORE.INTRA.POLAR>
0

>  <SCORE.INTRA.POLAR.0>
0

>  <SCORE.INTRA.REPUL>
0

>  <SCORE.INTRA.REPUL.0>
0

>  <SCORE.INTRA.SOLV>
0.0235454

>  <SCORE.INTRA.SOLV.lig_0>
-53.4755

>  <SCORE.INTRA.VDW>
-1.71407

>  <SCORE.INTRA.VDW.0>
2.32763

>  <SCORE.INTRA.norm>
-0.396098

>  <SCORE.RESTR>
0

>  <SCORE.RESTR.CAVITY>
0

>  <SCORE.RESTR.norm>
0

>  <SCORE.SYSTEM>
0

>  <SCORE.SYSTEM.CONST>
0

>  <SCORE.SYSTEM.DIHEDRAL>
0

>  <SCORE.SYSTEM.SOLV>
0

>  <SCORE.SYSTEM.norm>
0

>  <SCORE.heavy>
17

>  <SCORE.norm>
-0.964987

>  <RMSD>
5.596

$$$$
ligand
 OpenBabel11021811503D
libRbt.so/2013.1/901 2013/11/27
 17 18  0  0  0  0  0  0  0  0999 V2000
    1.0088    4.8144   18.1412 N   0  0  0  0  0  0  0  0  0  0  0  0
    2.2353    5.2290   17.6064 C   0  0  0  0  0  0  0  0  0  0  0  0
    2.3372    5.5210   16.2059 N   0  0  0  0  0  0  0  0  0  0  0  0
    3.3528    5.3726   18.4000 N   0  0  0  0  0  0  0  0  0  0  0  0
    3.3030    5.1062   19.7526 C   0  0  0  0  0  0  0  0  0  0  0  0
    2.0785    4.6735   20.3515 C   0  0  0  0  0  0  0  0  0  0  0  0
    4.3001    5.2373   20.4368 O   0  0  0  0  0  0  0  0  0  0  0  0
    1.9873    4.3769   21.7789 N   0  0  0  0  0  0  0  0  0  0  0  0
    0.7173    4.1402   22.3667 C   0  0  2  0  0  0  0  0  0  0  0  0
   -0.3164    3.5260   21.3855 C   0  0  0  0  0  0  0  0  0  0  0  0
    0.9311    4.5366   19.5135 C   0  0  0  0  0  0  0  0  0  0  0  0
   -0.3436    4.0948   20.1089 N   0  0  0  0  0  0  0  0  0  0  0  0
    0.2478    5.4327   23.0090 C   0  0  1  0  0  0  0  0  0  0  0  0
   -1.0447    5.3012   23.4766 O   0  0  0  0  0  0  0  0  0  0  0  0
    1.1709    5.8264   24.1233 C   0  0  1  0  0  0  0  0  0  0  0  0
    2.4120    6.0308   23.6600 O   0  0  0  0  0  0  0  0  0  0  0  0
    0.6938    7.1244   24.8088 C   0  0  0  0  0  0  0  0  0  0  0  0
  1  2  2  0  0  0  0
  1 11  1  0  0  0  0
  2  3  1  0  0  0  0
  2  4  1  0  0  0  0
  4  5  1  0  0  0  0
  5  6  1  0  0  0  0
  5  7  2  0  0  0  0
  6  8  1  0  0  0  0
  6 11  2  0  0  0  0
  9  8  1  6  0  0  0
  9 10  1  0  0  0  0
  9 13  1  0  0  0  0
 10 12  1  0  0  0  0
 11 12  1  0  0  0  0
 13 14  1  1  0  0  0
 13 15  1  0  0  0  0
 15 16  1  6  0  0  0
 15 17  1  0  0  0  0
M  END
>  <CHROM.1>
173.75212855,60.97407068,1.46886235,5.10513213,20.97390285,1.24323407,-0.33358287
-1.78570122

>  <Name>
ligand

>  <RI>
0

>  <Rbt.Current_Directory>
/home/itssahil/PROJECTS/Mol_Feturizer/New_Systems/rnas/4LVX

>  <Rbt.Executable>
rbdock ($Id: //depot/dev/client3/rdock/2013.1/src/exe/rbdock.cxx#4 $)

>  <Rbt.Library>
libRbt.so (2013.1, Build901 2013/11/27)

>  <Rbt.Parameter_File>
/export/apps/rDock/src/rDock_2013.1_src/data/scripts/dock_solv.prm

>  <Rbt.Receptor>
prm/pocket_docking_5.prm

>  <SCORE>
-16.4097

>  <SCORE.INTER>
-9.67097

>  <SCORE.INTER.CONST>
1

>  <SCORE.INTER.POLAR>
0

>  <SCORE.INTER.ROT>
2

>  <SCORE.INTER.SOLV>
11.6697

>  <SCORE.INTER.VDW>
-15.2705

>  <SCORE.INTER.norm>
-0.56888

>  <SCORE.INTRA>
-6.73874

>  <SCORE.INTRA.DIHEDRAL>
-10.0312

>  <SCORE.INTRA.DIHEDRAL.0>
10.3255

>  <SCORE.INTRA.POLAR>
0

>  <SCORE.INTRA.POLAR.0>
0

>  <SCORE.INTRA.REPUL>
0

>  <SCORE.INTRA.REPUL.0>
0

>  <SCORE.INTRA.SOLV>
0.0170818

>  <SCORE.INTRA.SOLV.lig_0>
-53.4755

>  <SCORE.INTRA.VDW>
-1.73167

>  <SCORE.INTRA.VDW.0>
2.32763

>  <SCORE.INTRA.norm>
-0.396396

>  <SCORE.RESTR>
0

>  <SCORE.RESTR.CAVITY>
0

>  <SCORE.RESTR.norm>
0

>  <SCORE.SYSTEM>
0

>  <SCORE.SYSTEM.CONST>
0

>  <SCORE.SYSTEM.DIHEDRAL>
0

>  <SCORE.SYSTEM.SOLV>
0

>  <SCORE.SYSTEM.norm>
0

>  <SCORE.heavy>
17

>  <SCORE.norm>
-0.965277

>  <RMSD>
5.596

$$$$
ligand
 OpenBabel11021811503D
libRbt.so/2013.1/901 2013/11/27
 17 18  0  0  0  0  0  0  0  0999 V2000
    1.0831    4.7807   18.1974 N   0  0  0  0  0  0  0  0  0  0  0  0
    2.3238    5.1709   17.6773 C   0  0  0  0  0  0  0  0  0  0  0  0
    2.4520    5.4447   16.2752 N   0  0  0  0  0  0  0  0  0  0  0  0
    3.4308    5.3075   18.4867 N   0  0  0  0  0  0  0  0  0  0  0  0
    3.3559    5.0579   19.8413 C   0  0  0  0  0  0  0  0  0  0  0  0
    2.1159    4.6504   20.4258 C   0  0  0  0  0  0  0  0  0  0  0  0
    4.3439    5.1824   20.5397 O   0  0  0  0  0  0  0  0  0  0  0  0
    1.9979    4.3721   21.8550 N   0  0  0  0  0  0  0  0  0  0  0  0
    0.7155    4.1611   22.4253 C   0  0  2  0  0  0  0  0  0  0  0  0
   -0.3118    3.5505   21.4350 C   0  0  0  0  0  0  0  0  0  0  0  0
    0.9798    4.5204   19.5714 C   0  0  0  0  0  0  0  0  0  0  0  0
   -0.3105    4.1045   20.1516 N   0  0  0  0  0  0  0  0  0  0  0  0
    0.2553    5.4679   23.0450 C   0  0  1  0  0  0  0  0  0  0  0  0
   -1.0479    5.3625   23.4888 O   0  0  0  0  0  0  0  0  0  0  0  0
    1.1632    5.8582   24.1728 C   0  0  1  0  0  0  0  0  0  0  0  0
    2.4171    6.0335   23.7322 O   0  0  0  0  0  0  0  0  0  0  0  0
    0.6973    7.1734   24.8327 C   0  0  0  0  0  0  0  0  0  0  0  0
  1  2  2  0  0  0  0
  1 11  1  0  0  0  0
  2  3  1  0  0  0  0
  2  4  1  0  0  0  0
  4  5  1  0  0  0  0
  5  6  1  0  0  0  0
  5  7  2  0  0  0  0
  6  8  1  0  0  0  0
  6 11  2  0  0  0  0
  9  8  1  6  0  0  0
  9 10  1  0  0  0  0
  9 13  1  0  0  0  0
 10 12  1  0  0  0  0
 11 12  1  0  0  0  0
 13 14  1  1  0  0  0
 13 15  1  0  0  0  0
 15 16  1  6  0  0  0
 15 17  1  0  0  0  0
M  END
>  <CHROM.1>
173.51569084,60.79702280,1.50261856,5.09758766,21.03396487,1.23075887,-0.31451452
-1.80081070

>  <Name>
ligand

>  <RI>
0

>  <Rbt.Current_Directory>
/home/itssahil/PROJECTS/Mol_Feturizer/New_Systems/rnas/4LVX

>  <Rbt.Executable>
rbdock ($Id: //depot/dev/client3/rdock/2013.1/src/exe/rbdock.cxx#4 $)

>  <Rbt.Library>
libRbt.so (2013.1, Build901 2013/11/27)

>  <Rbt.Parameter_File>
/export/apps/rDock/src/rDock_2013.1_src/data/scripts/dock_solv.prm

>  <Rbt.Receptor>
prm/pocket_docking_7.prm

>  <SCORE>
-16.3773

>  <SCORE.INTER>
-9.63825

>  <SCORE.INTER.CONST>
1

>  <SCORE.INTER.POLAR>
0

>  <SCORE.INTER.ROT>
2

>  <SCORE.INTER.SOLV>
12.0378

>  <SCORE.INTER.VDW>
-15.3714

>  <SCORE.INTER.norm>
-0.566956

>  <SCORE.INTRA>
-6.73903

>  <SCORE.INTRA.DIHEDRAL>
-10.0215

>  <SCORE.INTRA.DIHEDRAL.0>
10.3255

>  <SCORE.INTRA.POLAR>
0

>  <SCORE.INTRA.POLAR.0>
0

>  <SCORE.INTRA.REPUL>
0

>  <SCORE.INTRA.REPUL.0>
0

>  <SCORE.INTRA.SOLV>
0.0155206

>  <SCORE.INTRA.SOLV.lig_0>
-53.4755

>  <SCORE.INTRA.VDW>
-1.73603

>  <SCORE.INTRA.VDW.0>
2.32763

>  <SCORE.INTRA.norm>
-0.396413

>  <SCORE.RESTR>
0

>  <SCORE.RESTR.CAVITY>
0

>  <SCORE.RESTR.norm>
0

>  <SCORE.SYSTEM>
0

>  <SCORE.SYSTEM.CONST>
0

>  <SCORE.SYSTEM.DIHEDRAL>
0

>  <SCORE.SYSTEM.SOLV>
0

>  <SCORE.SYSTEM.norm>
0

>  <SCORE.heavy>
17

>  <SCORE.norm>
-0.963369

>  <RMSD>
5.599

$$$$
ligand
 OpenBabel11021811503D
libRbt.so/2013.1/901 2013/11/27
 17 18  0  0  0  0  0  0  0  0999 V2000
    0.8399    4.9060   18.1204 N   0  0  0  0  0  0  0  0  0  0  0  0
    2.0151    5.2885   17.4611 C   0  0  0  0  0  0  0  0  0  0  0  0
    1.9711    5.6211   16.0666 N   0  0  0  0  0  0  0  0  0  0  0  0
    3.2201    5.3619   18.1258 N   0  0  0  0  0  0  0  0  0  0  0  0
    3.3115    5.0542   19.4674 C   0  0  0  0  0  0  0  0  0  0  0  0
    2.1447    4.6515   20.1898 C   0  0  0  0  0  0  0  0  0  0  0  0
    4.3840    5.1234   20.0370 O   0  0  0  0  0  0  0  0  0  0  0  0
    2.2022    4.3129   21.6096 N   0  0  0  0  0  0  0  0  0  0  0  0
    0.9975    4.1081   22.3315 C   0  0  2  0  0  0  0  0  0  0  0  0
   -0.1658    3.5675   21.4579 C   0  0  0  0  0  0  0  0  0  0  0  0
    0.9054    4.5875   19.4845 C   0  0  0  0  0  0  0  0  0  0  0  0
   -0.3120    4.1778   20.2088 N   0  0  0  0  0  0  0  0  0  0  0  0
    0.6596    5.3969   23.0584 C   0  0  1  0  0  0  0  0  0  0  0  0
   -0.6037    5.3260   23.6111 O   0  0  0  0  0  0  0  0  0  0  0  0
    1.6808    5.6801   24.1194 C   0  0  1  0  0  0  0  0  0  0  0  0
    2.9085    5.7560   23.5865 O   0  0  0  0  0  0  0  0  0  0  0  0
    1.3841    7.0150   24.8352 C   0  0  0  0  0  0  0  0  0  0  0  0
  1  2  2  0  0  0  0
  1 11  1  0  0  0  0
  2  3  1  0  0  0  0
  2  4  1  0  0  0  0
  4  5  1  0  0  0  0
  5  6  1  0  0  0  0
  5  7  2  0  0  0  0
  6  8  1  0  0  0  0
  6 11  2  0  0  0  0
  9  8  1  6  0  0  0
  9 10  1  0  0  0  0
  9 13  1  0  0  0  0
 10 12  1  0  0  0  0
 11 12  1  0  0  0  0
 13 14  1  1  0  0  0
 13 15  1  0  0  0  0
 15 16  1  6  0  0  0
 15 17  1  0  0  0  0
M  END
>  <CHROM.1>
170.81761107,57.68151841,1.62481949,5.07764757,20.89537525,1.37205874,-0.29704265
-1.70853369

>  <Name>
ligand

>  <RI>
0

>  <Rbt.Current_Directory>
/home/itssahil/PROJECTS/Mol_Feturizer/New_Systems/rnas/4LVX

>  <Rbt.Executable>
rbdock ($Id: //depot/dev/client3/rdock/2013.1/src/exe/rbdock.cxx#4 $)

>  <Rbt.Library>
libRbt.so (2013.1, Build901 2013/11/27)

>  <Rbt.Parameter_File>
/export/apps/rDock/src/rDock_2013.1_src/data/scripts/dock_solv.prm

>  <Rbt.Receptor>
prm/pocket_docking_5.prm

>  <SCORE>
-16.384

>  <SCORE.INTER>
-9.69183

>  <SCORE.INTER.CONST>
1

>  <SCORE.INTER.POLAR>
0

>  <SCORE.INTER.ROT>
2

>  <SCORE.INTER.SOLV>
10.5582

>  <SCORE.INTER.VDW>
-14.914

>  <SCORE.INTER.norm>
-0.570108

>  <SCORE.INTRA>
-6.69221

>  <SCORE.INTRA.DIHEDRAL>
-9.85275

>  <SCORE.INTRA.DIHEDRAL.0>
10.3255

>  <SCORE.INTRA.POLAR>
0

>  <SCORE.INTRA.POLAR.0>
0

>  <SCORE.INTRA.REPUL>
0

>  <SCORE.INTRA.REPUL.0>
0

>  <SCORE.INTRA.SOLV>
0.00581824

>  <SCORE.INTRA.SOLV.lig_0>
-53.4755

>  <SCORE.INTRA.VDW>
-1.76875

>  <SCORE.INTRA.VDW.0>
2.32763

>  <SCORE.INTRA.norm>
-0.393659

>  <SCORE.RESTR>
0

>  <SCORE.RESTR.CAVITY>
0

>  <SCORE.RESTR.norm>
0

>  <SCORE.SYSTEM>
0

>  <SCORE.SYSTEM.CONST>
0

>  <SCORE.SYSTEM.DIHEDRAL>
0

>  <SCORE.SYSTEM.SOLV>
0

>  <SCORE.SYSTEM.norm>
0

>  <SCORE.heavy>
17

>  <SCORE.norm>
-0.963767

>  <RMSD>
5.600

$$$$
ligand
 OpenBabel11021811503D
libRbt.so/2013.1/901 2013/11/27
 17 18  0  0  0  0  0  0  0  0999 V2000
    1.0299    4.8100   18.1467 N   0  0  0  0  0  0  0  0  0  0  0  0
    2.2612    5.2196   17.6192 C   0  0  0  0  0  0  0  0  0  0  0  0
    2.3722    5.5122   16.2194 N   0  0  0  0  0  0  0  0  0  0  0  0
    3.3749    5.3577   18.4191 N   0  0  0  0  0  0  0  0  0  0  0  0
    3.3163    5.0905   19.7712 C   0  0  0  0  0  0  0  0  0  0  0  0
    2.0866    4.6628   20.3629 C   0  0  0  0  0  0  0  0  0  0  0  0
    4.3101    5.2166   20.4611 O   0  0  0  0  0  0  0  0  0  0  0  0
    1.9860    4.3655   21.7895 N   0  0  0  0  0  0  0  0  0  0  0  0
    0.7118    4.1340   22.3700 C   0  0  2  0  0  0  0  0  0  0  0  0
   -0.3191    3.5251   21.3825 C   0  0  0  0  0  0  0  0  0  0  0  0
    0.9433    4.5316   19.5183 C   0  0  0  0  0  0  0  0  0  0  0  0
   -0.3366    4.0950   20.1062 N   0  0  0  0  0  0  0  0  0  0  0  0
    0.2444    5.4280   23.0107 C   0  0  1  0  0  0  0  0  0  0  0  0
   -1.0574    5.3076   23.4548 O   0  0  0  0  0  0  0  0  0  0  0  0
    1.1517    5.8065   24.1430 C   0  0  1  0  0  0  0  0  0  0  0  0
    2.4060    5.9853   23.7052 O   0  0  0  0  0  0  0  0  0  0  0  0
    0.6862    7.1155   24.8156 C   0  0  0  0  0  0  0  0  0  0  0  0
  1  2  2  0  0  0  0
  1 11  1  0  0  0  0
  2  3  1  0  0  0  0
  2  4  1  0  0  0  0
  4  5  1  0  0  0  0
  5  6  1  0  0  0  0
  5  7  2  0  0  0  0
  6  8  1  0  0  0  0
  6 11  2  0  0  0  0
  9  8  1  6  0  0  0
  9 10  1  0  0  0  0
  9 13  1  0  0  0  0
 10 12  1  0  0  0  0
 11 12  1  0  0  0  0
 13 14  1  1  0  0  0
 13 15  1  0  0  0  0
 15 16  1  6  0  0  0
 15 17  1  0  0  0  0
M  END
>  <CHROM.1>
172.94580869,60.26505423,1.47410639,5.09424662,20.98398825,1.23941125,-0.32402252
-1.78406190

>  <Name>
ligand

>  <RI>
0

>  <Rbt.Current_Directory>
/home/itssahil/PROJECTS/Mol_Feturizer/New_Systems/rnas/4LVX

>  <Rbt.Executable>
rbdock ($Id: //depot/dev/client3/rdock/2013.1/src/exe/rbdock.cxx#4 $)

>  <Rbt.Library>
libRbt.so (2013.1, Build901 2013/11/27)

>  <Rbt.Parameter_File>
/export/apps/rDock/src/rDock_2013.1_src/data/scripts/dock_solv.prm

>  <Rbt.Receptor>
prm/pocket_docking_6.prm

>  <SCORE>
-16.4403

>  <SCORE.INTER>
-9.7035

>  <SCORE.INTER.CONST>
1

>  <SCORE.INTER.POLAR>
0

>  <SCORE.INTER.ROT>
2

>  <SCORE.INTER.SOLV>
11.8314

>  <SCORE.INTER.VDW>
-15.3461

>  <SCORE.INTER.norm>
-0.570794

>  <SCORE.INTRA>
-6.73683

>  <SCORE.INTRA.DIHEDRAL>
-9.99576

>  <SCORE.INTRA.DIHEDRAL.0>
10.3255

>  <SCORE.INTRA.POLAR>
0

>  <SCORE.INTRA.POLAR.0>
0

>  <SCORE.INTRA.REPUL>
0

>  <SCORE.INTRA.REPUL.0>
0

>  <SCORE.INTRA.SOLV>
0.0126608

>  <SCORE.INTRA.SOLV.lig_0>
-53.4755

>  <SCORE.INTRA.VDW>
-1.74528

>  <SCORE.INTRA.VDW.0>
2.32763

>  <SCORE.INTRA.norm>
-0.396284

>  <SCORE.RESTR>
0

>  <SCORE.RESTR.CAVITY>
0

>  <SCORE.RESTR.norm>
0

>  <SCORE.SYSTEM>
0

>  <SCORE.SYSTEM.CONST>
0

>  <SCORE.SYSTEM.DIHEDRAL>
0

>  <SCORE.SYSTEM.SOLV>
0

>  <SCORE.SYSTEM.norm>
0

>  <SCORE.heavy>
17

>  <SCORE.norm>
-0.967078

>  <RMSD>
5.600

$$$$
ligand
 OpenBabel11021811503D
libRbt.so/2013.1/901 2013/11/27
 17 18  0  0  0  0  0  0  0  0999 V2000
    1.1277    4.7646   18.2085 N   0  0  0  0  0  0  0  0  0  0  0  0
    2.3620    5.1828   17.6952 C   0  0  0  0  0  0  0  0  0  0  0  0
    2.4924    5.4569   16.2934 N   0  0  0  0  0  0  0  0  0  0  0  0
    3.4605    5.3469   18.5111 N   0  0  0  0  0  0  0  0  0  0  0  0
    3.3831    5.0981   19.8658 C   0  0  0  0  0  0  0  0  0  0  0  0
    2.1495    4.6627   20.4435 C   0  0  0  0  0  0  0  0  0  0  0  0
    4.3637    5.2472   20.5699 O   0  0  0  0  0  0  0  0  0  0  0  0
    2.0293    4.3844   21.8724 N   0  0  0  0  0  0  0  0  0  0  0  0
    0.7487    4.1444   22.4353 C   0  0  2  0  0  0  0  0  0  0  0  0
   -0.2578    3.5081   21.4400 C   0  0  0  0  0  0  0  0  0  0  0  0
    1.0220    4.5045   19.5824 C   0  0  0  0  0  0  0  0  0  0  0  0
   -0.2617    4.0595   20.1556 N   0  0  0  0  0  0  0  0  0  0  0  0
    0.2541    5.4412   23.0496 C   0  0  1  0  0  0  0  0  0  0  0  0
   -1.0500    5.3070   23.4828 O   0  0  0  0  0  0  0  0  0  0  0  0
    1.1437    5.8531   24.1843 C   0  0  1  0  0  0  0  0  0  0  0  0
    2.4018    6.0336   23.7581 O   0  0  0  0  0  0  0  0  0  0  0  0
    0.6581    7.1723   24.8216 C   0  0  0  0  0  0  0  0  0  0  0  0
  1  2  2  0  0  0  0
  1 11  1  0  0  0  0
  2  3  1  0  0  0  0
  2  4  1  0  0  0  0
  4  5  1  0  0  0  0
  5  6  1  0  0  0  0
  5  7  2  0  0  0  0
  6  8  1  0  0  0  0
  6 11  2  0  0  0  0
  9  8  1  6  0  0  0
  9 10  1  0  0  0  0
  9 13  1  0  0  0  0
 10 12  1  0  0  0  0
 11 12  1  0  0  0  0
 13 14  1  1  0  0  0
 13 15  1  0  0  0  0
 15 16  1  6  0  0  0
 15 17  1  0  0  0  0
M  END
>  <CHROM.1>
173.37542967,59.72721848,1.52309532,5.09559388,21.04656416,1.21948478,-0.33481997
-1.80559679

>  <Name>
ligand

>  <RI>
0

>  <Rbt.Current_Directory>
/home/itssahil/PROJECTS/Mol_Feturizer/New_Systems/rnas/4LVX

>  <Rbt.Executable>
rbdock ($Id: //depot/dev/client3/rdock/2013.1/src/exe/rbdock.cxx#4 $)

>  <Rbt.Library>
libRbt.so (2013.1, Build901 2013/11/27)

>  <Rbt.Parameter_File>
/export/apps/rDock/src/rDock_2013.1_src/data/scripts/dock_solv.prm

>  <Rbt.Receptor>
prm/pocket_docking_5.prm

>  <SCORE>
-16.3315

>  <SCORE.INTER>
-9.60706

>  <SCORE.INTER.CONST>
1

>  <SCORE.INTER.POLAR>
0

>  <SCORE.INTER.ROT>
2

>  <SCORE.INTER.SOLV>
12.0385

>  <SCORE.INTER.VDW>
-15.3509

>  <SCORE.INTER.norm>
-0.565121

>  <SCORE.INTRA>
-6.72447

>  <SCORE.INTRA.DIHEDRAL>
-10.0154

>  <SCORE.INTRA.DIHEDRAL.0>
10.3255

>  <SCORE.INTRA.POLAR>
0

>  <SCORE.INTRA.POLAR.0>
0

>  <SCORE.INTRA.REPUL>
0

>  <SCORE.INTRA.REPUL.0>
0

>  <SCORE.INTRA.SOLV>
0.0237787

>  <SCORE.INTRA.SOLV.lig_0>
-53.4755

>  <SCORE.INTRA.VDW>
-1.72869

>  <SCORE.INTRA.VDW.0>
2.32763

>  <SCORE.INTRA.norm>
-0.395557

>  <SCORE.RESTR>
0

>  <SCORE.RESTR.CAVITY>
0

>  <SCORE.RESTR.norm>
0

>  <SCORE.SYSTEM>
0

>  <SCORE.SYSTEM.CONST>
0

>  <SCORE.SYSTEM.DIHEDRAL>
0

>  <SCORE.SYSTEM.SOLV>
0

>  <SCORE.SYSTEM.norm>
0

>  <SCORE.heavy>
17

>  <SCORE.norm>
-0.960678

>  <RMSD>
5.601

$$$$
ligand
 OpenBabel11021811503D
libRbt.so/2013.1/901 2013/11/27
 17 18  0  0  0  0  0  0  0  0999 V2000
    1.0152    4.8467   18.1299 N   0  0  0  0  0  0  0  0  0  0  0  0
    2.2391    5.2587   17.5875 C   0  0  0  0  0  0  0  0  0  0  0  0
    2.3316    5.5562   16.1875 N   0  0  0  0  0  0  0  0  0  0  0  0
    3.3633    5.3945   18.3732 N   0  0  0  0  0  0  0  0  0  0  0  0
    3.3227    5.1226   19.7249 C   0  0  0  0  0  0  0  0  0  0  0  0
    2.1011    4.6922   20.3314 C   0  0  0  0  0  0  0  0  0  0  0  0
    4.3254    5.2469   20.4021 O   0  0  0  0  0  0  0  0  0  0  0  0
    2.0195    4.3899   21.7582 N   0  0  0  0  0  0  0  0  0  0  0  0
    0.7531    4.1558   22.3546 C   0  0  2  0  0  0  0  0  0  0  0  0
   -0.2905    3.5498   21.3787 C   0  0  0  0  0  0  0  0  0  0  0  0
    0.9468    4.5634   19.5015 C   0  0  0  0  0  0  0  0  0  0  0  0
   -0.3251    4.1241   20.1048 N   0  0  0  0  0  0  0  0  0  0  0  0
    0.2937    5.4474   23.0059 C   0  0  1  0  0  0  0  0  0  0  0  0
   -1.0021    5.3248   23.4668 O   0  0  0  0  0  0  0  0  0  0  0  0
    1.2157    5.8224   24.1274 C   0  0  1  0  0  0  0  0  0  0  0  0
    2.4628    6.0094   23.6726 O   0  0  0  0  0  0  0  0  0  0  0  0
    0.7545    7.1250   24.8152 C   0  0  0  0  0  0  0  0  0  0  0  0
  1  2  2  0  0  0  0
  1 11  1  0  0  0  0
  2  3  1  0  0  0  0
  2  4  1  0  0  0  0
  4  5  1  0  0  0  0
  5  6  1  0  0  0  0
  5  7  2  0  0  0  0
  6  8  1  0  0  0  0
  6 11  2  0  0  0  0
  9  8  1  6  0  0  0
  9 10  1  0  0  0  0
  9 13  1  0  0  0  0
 10 12  1  0  0  0  0
 11 12  1  0  0  0  0
 13 14  1  1  0  0  0
 13 15  1  0  0  0  0
 15 16  1  6  0  0  0
 15 17  1  0  0  0  0
M  END
>  <CHROM.1>
172.94909573,60.55121548,1.49631382,5.12142824,20.96219966,1.25277018,-0.32737580
-1.77642524

>  <Name>
ligand

>  <RI>
0

>  <Rbt.Current_Directory>
/home/itssahil/PROJECTS/Mol_Feturizer/New_Systems/rnas/4LVX

>  <Rbt.Executable>
rbdock ($Id: //depot/dev/client3/rdock/2013.1/src/exe/rbdock.cxx#4 $)

>  <Rbt.Library>
libRbt.so (2013.1, Build901 2013/11/27)

>  <Rbt.Parameter_File>
/export/apps/rDock/src/rDock_2013.1_src/data/scripts/dock_solv.prm

>  <Rbt.Receptor>
prm/pocket_docking_8.prm

>  <SCORE>
-16.3659

>  <SCORE.INTER>
-9.62553

>  <SCORE.INTER.CONST>
1

>  <SCORE.INTER.POLAR>
0

>  <SCORE.INTER.ROT>
2

>  <SCORE.INTER.SOLV>
11.3927

>  <SCORE.INTER.VDW>
-15.1479

>  <SCORE.INTER.norm>
-0.566208

>  <SCORE.INTRA>
-6.74033

>  <SCORE.INTRA.DIHEDRAL>
-9.99554

>  <SCORE.INTRA.DIHEDRAL.0>
10.3255

>  <SCORE.INTRA.POLAR>
0

>  <SCORE.INTRA.POLAR.0>
0

>  <SCORE.INTRA.REPUL>
0

>  <SCORE.INTRA.REPUL.0>
0

>  <SCORE.INTRA.SOLV>
0.00997927

>  <SCORE.INTRA.SOLV.lig_0>
-53.4755

>  <SCORE.INTRA.VDW>
-1.74755

>  <SCORE.INTRA.VDW.0>
2.32763

>  <SCORE.INTRA.norm>
-0.39649

>  <SCORE.RESTR>
0

>  <SCORE.RESTR.CAVITY>
0

>  <SCORE.RESTR.norm>
0

>  <SCORE.SYSTEM>
0

>  <SCORE.SYSTEM.CONST>
0

>  <SCORE.SYSTEM.DIHEDRAL>
0

>  <SCORE.SYSTEM.SOLV>
0

>  <SCORE.SYSTEM.norm>
0

>  <SCORE.heavy>
17

>  <SCORE.norm>
-0.962698

>  <RMSD>
5.601

$$$$
ligand
 OpenBabel11021811503D
libRbt.so/2013.1/901 2013/11/27
 17 18  0  0  0  0  0  0  0  0999 V2000
    1.2432    4.7578   18.2690 N   0  0  0  0  0  0  0  0  0  0  0  0
    2.4986    5.1528   17.7894 C   0  0  0  0  0  0  0  0  0  0  0  0
    2.6755    5.4096   16.3894 N   0  0  0  0  0  0  0  0  0  0  0  0
    3.5740    5.3101   18.6368 N   0  0  0  0  0  0  0  0  0  0  0  0
    3.4518    5.0773   19.9909 C   0  0  0  0  0  0  0  0  0  0  0  0
    2.1949    4.6659   20.5352 C   0  0  0  0  0  0  0  0  0  0  0  0
    4.4125    5.2200   20.7231 O   0  0  0  0  0  0  0  0  0  0  0  0
    2.0272    4.4051   21.9626 N   0  0  0  0  0  0  0  0  0  0  0  0
    0.7267    4.1896   22.4886 C   0  0  2  0  0  0  0  0  0  0  0  0
   -0.2583    3.5568   21.4697 C   0  0  0  0  0  0  0  0  0  0  0  0
    1.0920    4.5144   19.6417 C   0  0  0  0  0  0  0  0  0  0  0  0
   -0.2149    4.0941   20.1800 N   0  0  0  0  0  0  0  0  0  0  0  0
    0.2327    5.4999   23.0738 C   0  0  1  0  0  0  0  0  0  0  0  0
   -1.0784    5.3820   23.4906 O   0  0  0  0  0  0  0  0  0  0  0  0
    1.1091    5.9250   24.2138 C   0  0  1  0  0  0  0  0  0  0  0  0
    2.3699    6.1106   23.7981 O   0  0  0  0  0  0  0  0  0  0  0  0
    0.6094    7.2454   24.8377 C   0  0  0  0  0  0  0  0  0  0  0  0
  1  2  2  0  0  0  0
  1 11  1  0  0  0  0
  2  3  1  0  0  0  0
  2  4  1  0  0  0  0
  4  5  1  0  0  0  0
  5  6  1  0  0  0  0
  5  7  2  0  0  0  0
  6  8  1  0  0  0  0
  6 11  2  0  0  0  0
  9  8  1  6  0  0  0
  9 10  1  0  0  0  0
  9 13  1  0  0  0  0
 10 12  1  0  0  0  0
 11 12  1  0  0  0  0
 13 14  1  1  0  0  0
 13 15  1  0  0  0  0
 15 16  1  6  0  0  0
 15 17  1  0  0  0  0
M  END
>  <CHROM.1>
174.46938220,60.72347888,1.55857927,5.11743832,21.11178953,1.19054064,-0.31876193
-1.82870286

>  <Name>
ligand

>  <RI>
0

>  <Rbt.Current_Directory>
/home/itssahil/PROJECTS/Mol_Feturizer/New_Systems/rnas/4LVX

>  <Rbt.Executable>
rbdock ($Id: //depot/dev/client3/rdock/2013.1/src/exe/rbdock.cxx#4 $)

>  <Rbt.Library>
libRbt.so (2013.1, Build901 2013/11/27)

>  <Rbt.Parameter_File>
/export/apps/rDock/src/rDock_2013.1_src/data/scripts/dock_solv.prm

>  <Rbt.Receptor>
prm/pocket_docking_4.prm

>  <SCORE>
-16.2148

>  <SCORE.INTER>
-9.48851

>  <SCORE.INTER.CONST>
1

>  <SCORE.INTER.POLAR>
0

>  <SCORE.INTER.ROT>
2

>  <SCORE.INTER.SOLV>
12.2893

>  <SCORE.INTER.VDW>
-15.3554

>  <SCORE.INTER.norm>
-0.558148

>  <SCORE.INTRA>
-6.72631

>  <SCORE.INTRA.DIHEDRAL>
-10.0621

>  <SCORE.INTRA.DIHEDRAL.0>
10.3255

>  <SCORE.INTRA.POLAR>
0

>  <SCORE.INTRA.POLAR.0>
0

>  <SCORE.INTRA.REPUL>
0

>  <SCORE.INTRA.REPUL.0>
0

>  <SCORE.INTRA.SOLV>
0.0293922

>  <SCORE.INTRA.SOLV.lig_0>
-53.4755

>  <SCORE.INTRA.VDW>
-1.70996

>  <SCORE.INTRA.VDW.0>
2.32763

>  <SCORE.INTRA.norm>
-0.395665

>  <SCORE.RESTR>
0

>  <SCORE.RESTR.CAVITY>
0

>  <SCORE.RESTR.norm>
0

>  <SCORE.SYSTEM>
0

>  <SCORE.SYSTEM.CONST>
0

>  <SCORE.SYSTEM.DIHEDRAL>
0

>  <SCORE.SYSTEM.SOLV>
0

>  <SCORE.SYSTEM.norm>
0

>  <SCORE.heavy>
17

>  <SCORE.norm>
-0.953813

>  <RMSD>
5.603

$$$$
ligand
 OpenBabel11021811503D
libRbt.so/2013.1/901 2013/11/27
 17 18  0  0  0  0  0  0  0  0999 V2000
    1.0291    4.8003   18.1318 N   0  0  0  0  0  0  0  0  0  0  0  0
    2.2606    5.2079   17.6032 C   0  0  0  0  0  0  0  0  0  0  0  0
    2.3714    5.4991   16.2032 N   0  0  0  0  0  0  0  0  0  0  0  0
    3.3749    5.3452   18.4025 N   0  0  0  0  0  0  0  0  0  0  0  0
    3.3167    5.0793   19.7549 C   0  0  0  0  0  0  0  0  0  0  0  0
    2.0867    4.6536   20.3475 C   0  0  0  0  0  0  0  0  0  0  0  0
    4.3109    5.2048   20.4441 O   0  0  0  0  0  0  0  0  0  0  0  0
    1.9865    4.3577   21.7745 N   0  0  0  0  0  0  0  0  0  0  0  0
    0.7122    4.1283   22.3558 C   0  0  2  0  0  0  0  0  0  0  0  0
   -0.3200    3.5198   21.3693 C   0  0  0  0  0  0  0  0  0  0  0  0
    0.9428    4.5231   19.5036 C   0  0  0  0  0  0  0  0  0  0  0  0
   -0.3374    4.0887   20.0926 N   0  0  0  0  0  0  0  0  0  0  0  0
    0.2467    5.4235   22.9956 C   0  0  1  0  0  0  0  0  0  0  0  0
   -1.0585    5.3085   23.4310 O   0  0  0  0  0  0  0  0  0  0  0  0
    1.1484    5.7958   24.1344 C   0  0  1  0  0  0  0  0  0  0  0  0
    2.4059    5.9717   23.7046 O   0  0  0  0  0  0  0  0  0  0  0  0
    0.6831    7.1043   24.8079 C   0  0  0  0  0  0  0  0  0  0  0  0
  1  2  2  0  0  0  0
  1 11  1  0  0  0  0
  2  3  1  0  0  0  0
  2  4  1  0  0  0  0
  4  5  1  0  0  0  0
  5  6  1  0  0  0  0
  5  7  2  0  0  0  0
  6  8  1  0  0  0  0
  6 11  2  0  0  0  0
  9  8  1  6  0  0  0
  9 10  1  0  0  0  0
  9 13  1  0  0  0  0
 10 12  1  0  0  0  0
 11 12  1  0  0  0  0
 13 14  1  1  0  0  0
 13 15  1  0  0  0  0
 15 16  1  6  0  0  0
 15 17  1  0  0  0  0
M  END
>  <CHROM.1>
172.47477756,60.37709354,1.47366265,5.08535111,20.97000056,1.24042655,-0.32078343
-1.78356375

>  <Name>
ligand

>  <RI>
0

>  <Rbt.Current_Directory>
/home/itssahil/PROJECTS/Mol_Feturizer/New_Systems/rnas/4LVX

>  <Rbt.Executable>
rbdock ($Id: //depot/dev/client3/rdock/2013.1/src/exe/rbdock.cxx#4 $)

>  <Rbt.Library>
libRbt.so (2013.1, Build901 2013/11/27)

>  <Rbt.Parameter_File>
/export/apps/rDock/src/rDock_2013.1_src/data/scripts/dock_solv.prm

>  <Rbt.Receptor>
prm/pocket_docking_6.prm

>  <SCORE>
-16.426

>  <SCORE.INTER>
-9.68569

>  <SCORE.INTER.CONST>
1

>  <SCORE.INTER.POLAR>
0

>  <SCORE.INTER.ROT>
2

>  <SCORE.INTER.SOLV>
11.9342

>  <SCORE.INTER.VDW>
-15.3685

>  <SCORE.INTER.norm>
-0.569746

>  <SCORE.INTRA>
-6.74033

>  <SCORE.INTRA.DIHEDRAL>
-9.9718

>  <SCORE.INTRA.DIHEDRAL.0>
10.3255

>  <SCORE.INTRA.POLAR>
0

>  <SCORE.INTRA.POLAR.0>
0

>  <SCORE.INTRA.REPUL>
0

>  <SCORE.INTRA.REPUL.0>
0

>  <SCORE.INTRA.SOLV>
0.00496752

>  <SCORE.INTRA.SOLV.lig_0>
-53.4755

>  <SCORE.INTRA.VDW>
-1.75691

>  <SCORE.INTRA.VDW.0>
2.32763

>  <SCORE.INTRA.norm>
-0.39649

>  <SCORE.RESTR>
0

>  <SCORE.RESTR.CAVITY>
0

>  <SCORE.RESTR.norm>
0

>  <SCORE.SYSTEM>
0

>  <SCORE.SYSTEM.CONST>
0

>  <SCORE.SYSTEM.DIHEDRAL>
0

>  <SCORE.SYSTEM.SOLV>
0

>  <SCORE.SYSTEM.norm>
0

>  <SCORE.heavy>
17

>  <SCORE.norm>
-0.966236

>  <RMSD>
5.607

$$$$
ligand
 OpenBabel11021811503D
libRbt.so/2013.1/901 2013/11/27
 17 18  0  0  0  0  0  0  0  0999 V2000
    1.2481    4.7484   18.2188 N   0  0  0  0  0  0  0  0  0  0  0  0
    2.4757    5.2065   17.7238 C   0  0  0  0  0  0  0  0  0  0  0  0
    2.6250    5.4623   16.3204 N   0  0  0  0  0  0  0  0  0  0  0  0
    3.5494    5.4274   18.5592 N   0  0  0  0  0  0  0  0  0  0  0  0
    3.4530    5.1984   19.9161 C   0  0  0  0  0  0  0  0  0  0  0  0
    2.2253    4.7242   20.4758 C   0  0  0  0  0  0  0  0  0  0  0  0
    4.4118    5.3977   20.6375 O   0  0  0  0  0  0  0  0  0  0  0  0
    2.0858    4.4651   21.9066 N   0  0  0  0  0  0  0  0  0  0  0  0
    0.8040    4.1841   22.4471 C   0  0  2  0  0  0  0  0  0  0  0  0
   -0.1555    3.4920   21.4426 C   0  0  0  0  0  0  0  0  0  0  0  0
    1.1235    4.5072   19.5945 C   0  0  0  0  0  0  0  0  0  0  0  0
   -0.1536    4.0214   20.1489 N   0  0  0  0  0  0  0  0  0  0  0  0
    0.2460    5.4703   23.0284 C   0  0  1  0  0  0  0  0  0  0  0  0
   -1.0653    5.2957   23.4241 O   0  0  0  0  0  0  0  0  0  0  0  0
    1.0858    5.9277   24.1834 C   0  0  1  0  0  0  0  0  0  0  0  0
    2.3497    6.1448   23.7931 O   0  0  0  0  0  0  0  0  0  0  0  0
    0.5368    7.2384   24.7860 C   0  0  0  0  0  0  0  0  0  0  0  0
  1  2  2  0  0  0  0
  1 11  1  0  0  0  0
  2  3  1  0  0  0  0
  2  4  1  0  0  0  0
  4  5  1  0  0  0  0
  5  6  1  0  0  0  0
  5  7  2  0  0  0  0
  6  8  1  0  0  0  0
  6 11  2  0  0  0  0
  9  8  1  6  0  0  0
  9 10  1  0  0  0  0
  9 13  1  0  0  0  0
 10 12  1  0  0  0  0
 11 12  1  0  0  0  0
 13 14  1  1  0  0  0
 13 15  1  0  0  0  0
 15 16  1  6  0  0  0
 15 17  1  0  0  0  0
M  END
>  <CHROM.1>
172.75223845,59.62078390,1.56832654,5.14031290,21.05995237,1.18816417,-0.36499407
-1.83180794

>  <Name>
ligand

>  <RI>
0

>  <Rbt.Current_Directory>
/home/itssahil/PROJECTS/Mol_Feturizer/New_Systems/rnas/4LVX

>  <Rbt.Executable>
rbdock ($Id: //depot/dev/client3/rdock/2013.1/src/exe/rbdock.cxx#4 $)

>  <Rbt.Library>
libRbt.so (2013.1, Build901 2013/11/27)

>  <Rbt.Parameter_File>
/export/apps/rDock/src/rDock_2013.1_src/data/scripts/dock_solv.prm

>  <Rbt.Receptor>
prm/pocket_docking_8.prm

>  <SCORE>
-16.3128

>  <SCORE.INTER>
-9.58463

>  <SCORE.INTER.CONST>
1

>  <SCORE.INTER.POLAR>
0

>  <SCORE.INTER.ROT>
2

>  <SCORE.INTER.SOLV>
11.8384

>  <SCORE.INTER.VDW>
-15.2692

>  <SCORE.INTER.norm>
-0.563802

>  <SCORE.INTRA>
-6.7282

>  <SCORE.INTRA.DIHEDRAL>
-9.98477

>  <SCORE.INTRA.DIHEDRAL.0>
10.3255

>  <SCORE.INTRA.POLAR>
0

>  <SCORE.INTRA.POLAR.0>
0

>  <SCORE.INTRA.REPUL>
0

>  <SCORE.INTRA.REPUL.0>
0

>  <SCORE.INTRA.SOLV>
0.0160125

>  <SCORE.INTRA.SOLV.lig_0>
-53.4755

>  <SCORE.INTRA.VDW>
-1.74382

>  <SCORE.INTRA.VDW.0>
2.32763

>  <SCORE.INTRA.norm>
-0.395777

>  <SCORE.RESTR>
0

>  <SCORE.RESTR.CAVITY>
0

>  <SCORE.RESTR.norm>
0

>  <SCORE.SYSTEM>
0

>  <SCORE.SYSTEM.CONST>
0

>  <SCORE.SYSTEM.DIHEDRAL>
0

>  <SCORE.SYSTEM.SOLV>
0

>  <SCORE.SYSTEM.norm>
0

>  <SCORE.heavy>
17

>  <SCORE.norm>
-0.959579

>  <RMSD>
5.614

$$$$
ligand
 OpenBabel11021811503D
libRbt.so/2013.1/901 2013/11/27
 17 18  0  0  0  0  0  0  0  0999 V2000
    1.0654    4.7800   18.1234 N   0  0  0  0  0  0  0  0  0  0  0  0
    2.3025    5.1686   17.5937 C   0  0  0  0  0  0  0  0  0  0  0  0
    2.4201    5.4425   16.1907 N   0  0  0  0  0  0  0  0  0  0  0  0
    3.4161    5.3034   18.3944 N   0  0  0  0  0  0  0  0  0  0  0  0
    3.3515    5.0536   19.7495 C   0  0  0  0  0  0  0  0  0  0  0  0
    2.1155    4.6477   20.3436 C   0  0  0  0  0  0  0  0  0  0  0  0
    4.3452    5.1765   20.4401 O   0  0  0  0  0  0  0  0  0  0  0  0
    2.0084    4.3692   21.7736 N   0  0  0  0  0  0  0  0  0  0  0  0
    0.7302    4.1598   22.3539 C   0  0  2  0  0  0  0  0  0  0  0  0
   -0.3057    3.5510   21.3716 C   0  0  0  0  0  0  0  0  0  0  0  0
    0.9726    4.5195   19.4981 C   0  0  0  0  0  0  0  0  0  0  0  0
   -0.3137    4.1053   20.0884 N   0  0  0  0  0  0  0  0  0  0  0  0
    0.2768    5.4671   22.9776 C   0  0  1  0  0  0  0  0  0  0  0  0
   -1.0239    5.3642   23.4295 O   0  0  0  0  0  0  0  0  0  0  0  0
    1.1927    5.8546   24.0999 C   0  0  1  0  0  0  0  0  0  0  0  0
    2.4313    6.0851   23.6420 O   0  0  0  0  0  0  0  0  0  0  0  0
    0.6960    7.1335   24.8073 C   0  0  0  0  0  0  0  0  0  0  0  0
  1  2  2  0  0  0  0
  1 11  1  0  0  0  0
  2  3  1  0  0  0  0
  2  4  1  0  0  0  0
  4  5  1  0  0  0  0
  5  6  1  0  0  0  0
  5  7  2  0  0  0  0
  6  8  1  0  0  0  0
  6 11  2  0  0  0  0
  9  8  1  6  0  0  0
  9 10  1  0  0  0  0
  9 13  1  0  0  0  0
 10 12  1  0  0  0  0
 11 12  1  0  0  0  0
 13 14  1  1  0  0  0
 13 15  1  0  0  0  0
 15 16  1  6  0  0  0
 15 17  1  0  0  0  0
M  END
>  <CHROM.1>
173.41480102,63.52038254,1.50413230,5.09692031,20.95912705,1.23763802,-0.31580989
-1.79920517

>  <Name>
ligand

>  <RI>
0

>  <Rbt.Current_Directory>
/home/itssahil/PROJECTS/Mol_Feturizer/New_Systems/rnas/4LVX

>  <Rbt.Executable>
rbdock ($Id: //depot/dev/client3/rdock/2013.1/src/exe/rbdock.cxx#4 $)

>  <Rbt.Library>
libRbt.so (2013.1, Build901 2013/11/27)

>  <Rbt.Parameter_File>
/export/apps/rDock/src/rDock_2013.1_src/data/scripts/dock_solv.prm

>  <Rbt.Receptor>
prm/pocket_docking_6.prm

>  <SCORE>
-16.3019

>  <SCORE.INTER>
-9.56024

>  <SCORE.INTER.CONST>
1

>  <SCORE.INTER.POLAR>
0

>  <SCORE.INTER.ROT>
2

>  <SCORE.INTER.SOLV>
12.0496

>  <SCORE.INTER.VDW>
-15.3234

>  <SCORE.INTER.norm>
-0.562367

>  <SCORE.INTRA>
-6.74168

>  <SCORE.INTRA.DIHEDRAL>
-9.97829

>  <SCORE.INTRA.DIHEDRAL.0>
10.3255

>  <SCORE.INTRA.POLAR>
0

>  <SCORE.INTRA.POLAR.0>
0

>  <SCORE.INTRA.REPUL>
0

>  <SCORE.INTRA.REPUL.0>
0

>  <SCORE.INTRA.SOLV>
-0.0128484

>  <SCORE.INTRA.SOLV.lig_0>
-53.4755

>  <SCORE.INTRA.VDW>
-1.74611

>  <SCORE.INTRA.VDW.0>
2.32763

>  <SCORE.INTRA.norm>
-0.39657

>  <SCORE.RESTR>
0

>  <SCORE.RESTR.CAVITY>
0

>  <SCORE.RESTR.norm>
0

>  <SCORE.SYSTEM>
0

>  <SCORE.SYSTEM.CONST>
0

>  <SCORE.SYSTEM.DIHEDRAL>
0

>  <SCORE.SYSTEM.SOLV>
0

>  <SCORE.SYSTEM.norm>
0

>  <SCORE.heavy>
17

>  <SCORE.norm>
-0.958937

>  <RMSD>
5.624

$$$$
ligand
 OpenBabel11021811503D
libRbt.so/2013.1/901 2013/11/27
 17 18  0  0  0  0  0  0  0  0999 V2000
    0.6851    4.8052   18.8424 N   0  0  0  0  0  0  0  0  0  0  0  0
    0.6457    5.6111   17.6974 C   0  0  0  0  0  0  0  0  0  0  0  0
    0.7067    5.0044   16.3992 N   0  0  0  0  0  0  0  0  0  0  0  0
    0.5404    6.9823   17.7877 N   0  0  0  0  0  0  0  0  0  0  0  0
    0.4759    7.6109   19.0139 C   0  0  0  0  0  0  0  0  0  0  0  0
    0.5183    6.8382   20.2167 C   0  0  0  0  0  0  0  0  0  0  0  0
    0.3846    8.8223   19.0738 O   0  0  0  0  0  0  0  0  0  0  0  0
    0.4576    7.4675   21.5335 N   0  0  0  0  0  0  0  0  0  0  0  0
    0.3067    6.6601   22.6909 C   0  0  2  0  0  0  0  0  0  0  0  0
    0.9201    5.2421   22.5431 C   0  0  0  0  0  0  0  0  0  0  0  0
    0.6216    5.4192   20.1015 C   0  0  0  0  0  0  0  0  0  0  0  0
    0.6639    4.6011   21.3276 N   0  0  0  0  0  0  0  0  0  0  0  0
   -1.1636    6.6469   23.0671 C   0  0  1  0  0  0  0  0  0  0  0  0
   -1.8690    5.7960   22.2396 O   0  0  0  0  0  0  0  0  0  0  0  0
   -1.3311    6.2418   24.5011 C   0  0  1  0  0  0  0  0  0  0  0  0
   -0.5678    7.0011   25.2998 O   0  0  0  0  0  0  0  0  0  0  0  0
   -2.7990    6.3922   24.9541 C   0  0  0  0  0  0  0  0  0  0  0  0
  1  2  2  0  0  0  0
  1 11  1  0  0  0  0
  2  3  1  0  0  0  0
  2  4  1  0  0  0  0
  4  5  1  0  0  0  0
  5  6  1  0  0  0  0
  5  7  2  0  0  0  0
  6  8  1  0  0  0  0
  6 11  2  0  0  0  0
  9  8  1  6  0  0  0
  9 10  1  0  0  0  0
  9 13  1  0  0  0  0
 10 12  1  0  0  0  0
 11 12  1  0  0  0  0
 13 14  1  6  0  0  0
 13 15  1  0  0  0  0
 15 16  1  1  0  0  0
 15 17  1  0  0  0  0
M  END
>  <CHROM.1>
77.48075828,52.69733443,-0.08779595,6.32086878,21.09432753,-0.15320292,-1.26955878
2.93663645

>  <Name>
ligand

>  <RI>
0

>  <Rbt.Current_Directory>
/home/itssahil/PROJECTS/Mol_Feturizer/New_Systems/rnas/4LVX

>  <Rbt.Executable>
rbdock ($Id: //depot/dev/client3/rdock/2013.1/src/exe/rbdock.cxx#4 $)

>  <Rbt.Library>
libRbt.so (2013.1, Build901 2013/11/27)

>  <Rbt.Parameter_File>
/export/apps/rDock/src/rDock_2013.1_src/data/scripts/dock_solv.prm

>  <Rbt.Receptor>
prm/pocket_docking_5.prm

>  <SCORE>
-16.273

>  <SCORE.INTER>
-9.39359

>  <SCORE.INTER.CONST>
1

>  <SCORE.INTER.POLAR>
0

>  <SCORE.INTER.ROT>
2

>  <SCORE.INTER.SOLV>
12.4078

>  <SCORE.INTER.VDW>
-15.3317

>  <SCORE.INTER.norm>
-0.552564

>  <SCORE.INTRA>
-6.87942

>  <SCORE.INTRA.DIHEDRAL>
-8.97827

>  <SCORE.INTRA.DIHEDRAL.0>
10.3255

>  <SCORE.INTRA.POLAR>
0

>  <SCORE.INTRA.POLAR.0>
0

>  <SCORE.INTRA.REPUL>
0

>  <SCORE.INTRA.REPUL.0>
0

>  <SCORE.INTRA.SOLV>
-0.180346

>  <SCORE.INTRA.SOLV.lig_0>
-53.4755

>  <SCORE.INTRA.VDW>
-2.30012

>  <SCORE.INTRA.VDW.0>
2.32763

>  <SCORE.INTRA.norm>
-0.404672

>  <SCORE.RESTR>
0

>  <SCORE.RESTR.CAVITY>
0

>  <SCORE.RESTR.norm>
0

>  <SCORE.SYSTEM>
0

>  <SCORE.SYSTEM.CONST>
0

>  <SCORE.SYSTEM.DIHEDRAL>
0

>  <SCORE.SYSTEM.SOLV>
0

>  <SCORE.SYSTEM.norm>
0

>  <SCORE.heavy>
17

>  <SCORE.norm>
-0.957236

>  <RMSD>
5.627

$$$$
ligand
 OpenBabel11021811503D
libRbt.so/2013.1/901 2013/11/27
 17 18  0  0  0  0  0  0  0  0999 V2000
    0.2302    5.8750   18.4918 N   0  0  0  0  0  0  0  0  0  0  0  0
    1.4151    5.4785   17.8587 C   0  0  0  0  0  0  0  0  0  0  0  0
    1.5953    5.7406   16.4601 N   0  0  0  0  0  0  0  0  0  0  0  0
    2.4232    4.8455   18.5532 N   0  0  0  0  0  0  0  0  0  0  0  0
    2.2968    4.5744   19.8999 C   0  0  0  0  0  0  0  0  0  0  0  0
    1.1059    4.9512   20.5964 C   0  0  0  0  0  0  0  0  0  0  0  0
    3.1966    4.0136   20.4959 O   0  0  0  0  0  0  0  0  0  0  0  0
    0.9327    4.6769   22.0207 N   0  0  0  0  0  0  0  0  0  0  0  0
   -0.1725    5.2360   22.7136 C   0  0  2  0  0  0  0  0  0  0  0  0
   -1.4186    5.4617   21.8163 C   0  0  0  0  0  0  0  0  0  0  0  0
    0.0761    5.6110   19.8603 C   0  0  0  0  0  0  0  0  0  0  0  0
   -1.1599    6.0119   20.5576 N   0  0  0  0  0  0  0  0  0  0  0  0
    0.3013    6.4941   23.4182 C   0  0  1  0  0  0  0  0  0  0  0  0
    0.0082    7.6128   22.6639 O   0  0  0  0  0  0  0  0  0  0  0  0
   -0.3256    6.5985   24.7763 C   0  0  1  0  0  0  0  0  0  0  0  0
    0.1716    7.6467   25.4479 O   0  0  0  0  0  0  0  0  0  0  0  0
   -1.8552    6.7767   24.6711 C   0  0  0  0  0  0  0  0  0  0  0  0
  1  2  2  0  0  0  0
  1 11  1  0  0  0  0
  2  3  1  0  0  0  0
  2  4  1  0  0  0  0
  4  5  1  0  0  0  0
  5  6  1  0  0  0  0
  5  7  2  0  0  0  0
  6  8  1  0  0  0  0
  6 11  2  0  0  0  0
  9  8  1  6  0  0  0
  9 10  1  0  0  0  0
  9 13  1  0  0  0  0
 10 12  1  0  0  0  0
 11 12  1  0  0  0  0
 13 14  1  6  0  0  0
 13 15  1  0  0  0  0
 15 16  1  6  0  0  0
 15 17  1  0  0  0  0
M  END
>  <CHROM.1>
97.01508815,174.89280631,0.50716399,5.77881770,21.27731317,1.17563442,0.47875532
-1.65632804

>  <Name>
ligand

>  <RI>
0

>  <Rbt.Current_Directory>
/home/itssahil/PROJECTS/Mol_Feturizer/New_Systems/rnas/4LVX

>  <Rbt.Executable>
rbdock ($Id: //depot/dev/client3/rdock/2013.1/src/exe/rbdock.cxx#4 $)

>  <Rbt.Library>
libRbt.so (2013.1, Build901 2013/11/27)

>  <Rbt.Parameter_File>
/export/apps/rDock/src/rDock_2013.1_src/data/scripts/dock_solv.prm

>  <Rbt.Receptor>
prm/pocket_docking_8.prm

>  <SCORE>
-14.8623

>  <SCORE.INTER>
-11.0085

>  <SCORE.INTER.CONST>
1

>  <SCORE.INTER.POLAR>
0

>  <SCORE.INTER.ROT>
2

>  <SCORE.INTER.SOLV>
12.1009

>  <SCORE.INTER.VDW>
-16.306

>  <SCORE.INTER.norm>
-0.64756

>  <SCORE.INTRA>
-3.85373

>  <SCORE.INTRA.DIHEDRAL>
-6.59894

>  <SCORE.INTRA.DIHEDRAL.0>
10.3255

>  <SCORE.INTRA.POLAR>
0

>  <SCORE.INTRA.POLAR.0>
0

>  <SCORE.INTRA.REPUL>
0

>  <SCORE.INTRA.REPUL.0>
0

>  <SCORE.INTRA.SOLV>
-0.206748

>  <SCORE.INTRA.SOLV.lig_0>
-53.4755

>  <SCORE.INTRA.VDW>
-0.450887

>  <SCORE.INTRA.VDW.0>
2.32763

>  <SCORE.INTRA.norm>
-0.22669

>  <SCORE.RESTR>
0

>  <SCORE.RESTR.CAVITY>
0

>  <SCORE.RESTR.norm>
0

>  <SCORE.SYSTEM>
0

>  <SCORE.SYSTEM.CONST>
0

>  <SCORE.SYSTEM.DIHEDRAL>
0

>  <SCORE.SYSTEM.SOLV>
0

>  <SCORE.SYSTEM.norm>
0

>  <SCORE.heavy>
17

>  <SCORE.norm>
-0.87425

>  <RMSD>
5.632

$$$$
ligand
 OpenBabel11021811503D
libRbt.so/2013.1/901 2013/11/27
 17 18  0  0  0  0  0  0  0  0999 V2000
    0.7845    4.7112   18.9498 N   0  0  0  0  0  0  0  0  0  0  0  0
    0.7391    5.4733   17.7755 C   0  0  0  0  0  0  0  0  0  0  0  0
    0.8301    4.8211   16.5013 N   0  0  0  0  0  0  0  0  0  0  0  0
    0.5996    6.8439   17.8139 N   0  0  0  0  0  0  0  0  0  0  0  0
    0.5055    7.5153   19.0153 C   0  0  0  0  0  0  0  0  0  0  0  0
    0.5524    6.7885   20.2461 C   0  0  0  0  0  0  0  0  0  0  0  0
    0.3842    8.7255   19.0293 O   0  0  0  0  0  0  0  0  0  0  0  0
    0.4610    7.4641   21.5380 N   0  0  0  0  0  0  0  0  0  0  0  0
    0.3160    6.6961   22.7227 C   0  0  2  0  0  0  0  0  0  0  0  0
    0.9652    5.2892   22.6342 C   0  0  0  0  0  0  0  0  0  0  0  0
    0.6913    5.3692   20.1846 C   0  0  0  0  0  0  0  0  0  0  0  0
    0.7389    4.5979   21.4405 N   0  0  0  0  0  0  0  0  0  0  0  0
   -1.1579    6.6606   23.0832 C   0  0  1  0  0  0  0  0  0  0  0  0
   -1.8372    5.7812   22.2636 O   0  0  0  0  0  0  0  0  0  0  0  0
   -1.3335    6.2780   24.5224 C   0  0  1  0  0  0  0  0  0  0  0  0
   -0.5823    7.0563   25.3142 O   0  0  0  0  0  0  0  0  0  0  0  0
   -2.8060    6.4245   24.9615 C   0  0  0  0  0  0  0  0  0  0  0  0
  1  2  2  0  0  0  0
  1 11  1  0  0  0  0
  2  3  1  0  0  0  0
  2  4  1  0  0  0  0
  4  5  1  0  0  0  0
  5  6  1  0  0  0  0
  5  7  2  0  0  0  0
  6  8  1  0  0  0  0
  6 11  2  0  0  0  0
  9  8  1  6  0  0  0
  9 10  1  0  0  0  0
  9 13  1  0  0  0  0
 10 12  1  0  0  0  0
 11 12  1  0  0  0  0
 13 14  1  6  0  0  0
 13 15  1  0  0  0  0
 15 16  1  1  0  0  0
 15 17  1  0  0  0  0
M  END
>  <CHROM.1>
76.36831058,51.98157236,-0.05048877,6.28434597,21.13464800,-0.23891203,-1.25175093
2.82004955

>  <Name>
ligand

>  <RI>
0

>  <Rbt.Current_Directory>
/home/itssahil/PROJECTS/Mol_Feturizer/New_Systems/rnas/4LVX

>  <Rbt.Executable>
rbdock ($Id: //depot/dev/client3/rdock/2013.1/src/exe/rbdock.cxx#4 $)

>  <Rbt.Library>
libRbt.so (2013.1, Build901 2013/11/27)

>  <Rbt.Parameter_File>
/export/apps/rDock/src/rDock_2013.1_src/data/scripts/dock_solv.prm

>  <Rbt.Receptor>
prm/pocket_docking_8.prm

>  <SCORE>
-16.3601

>  <SCORE.INTER>
-9.43952

>  <SCORE.INTER.CONST>
1

>  <SCORE.INTER.POLAR>
0

>  <SCORE.INTER.ROT>
2

>  <SCORE.INTER.SOLV>
12.6589

>  <SCORE.INTER.VDW>
-15.446

>  <SCORE.INTER.norm>
-0.555266

>  <SCORE.INTRA>
-6.92053

>  <SCORE.INTRA.DIHEDRAL>
-9.05301

>  <SCORE.INTRA.DIHEDRAL.0>
10.3255

>  <SCORE.INTRA.POLAR>
0

>  <SCORE.INTRA.POLAR.0>
0

>  <SCORE.INTRA.REPUL>
0

>  <SCORE.INTRA.REPUL.0>
0

>  <SCORE.INTRA.SOLV>
-0.17139

>  <SCORE.INTRA.SOLV.lig_0>
-53.4755

>  <SCORE.INTRA.VDW>
-2.30833

>  <SCORE.INTRA.VDW.0>
2.32763

>  <SCORE.INTRA.norm>
-0.40709

>  <SCORE.RESTR>
0

>  <SCORE.RESTR.CAVITY>
0

>  <SCORE.RESTR.norm>
0

>  <SCORE.SYSTEM>
0

>  <SCORE.SYSTEM.CONST>
0

>  <SCORE.SYSTEM.DIHEDRAL>
0

>  <SCORE.SYSTEM.SOLV>
0

>  <SCORE.SYSTEM.norm>
0

>  <SCORE.heavy>
17

>  <SCORE.norm>
-0.962356

>  <RMSD>
5.633

$$$$
ligand
 OpenBabel11021811503D
libRbt.so/2013.1/901 2013/11/27
 17 18  0  0  0  0  0  0  0  0999 V2000
    0.8293    4.6974   18.9596 N   0  0  0  0  0  0  0  0  0  0  0  0
    0.7591    5.4442   17.7766 C   0  0  0  0  0  0  0  0  0  0  0  0
    0.8619    4.7795   16.5098 N   0  0  0  0  0  0  0  0  0  0  0  0
    0.5838    6.8110   17.7996 N   0  0  0  0  0  0  0  0  0  0  0  0
    0.4770    7.4938   18.9934 C   0  0  0  0  0  0  0  0  0  0  0  0
    0.5480    6.7832   20.2325 C   0  0  0  0  0  0  0  0  0  0  0  0
    0.3241    8.7005   18.9939 O   0  0  0  0  0  0  0  0  0  0  0  0
    0.4442    7.4713   21.5168 N   0  0  0  0  0  0  0  0  0  0  0  0
    0.3244    6.7139   22.7111 C   0  0  2  0  0  0  0  0  0  0  0  0
    1.0100    5.3236   22.6361 C   0  0  0  0  0  0  0  0  0  0  0  0
    0.7240    5.3673   20.1870 C   0  0  0  0  0  0  0  0  0  0  0  0
    0.7970    4.6125   21.4516 N   0  0  0  0  0  0  0  0  0  0  0  0
   -1.1465    6.6440   23.0784 C   0  0  1  0  0  0  0  0  0  0  0  0
   -1.8062    5.7385   22.2713 O   0  0  0  0  0  0  0  0  0  0  0  0
   -1.3061    6.2725   24.5224 C   0  0  1  0  0  0  0  0  0  0  0  0
   -0.5444    7.0553   25.2995 O   0  0  0  0  0  0  0  0  0  0  0  0
   -2.7731    6.4251   24.9775 C   0  0  0  0  0  0  0  0  0  0  0  0
  1  2  2  0  0  0  0
  1 11  1  0  0  0  0
  2  3  1  0  0  0  0
  2  4  1  0  0  0  0
  4  5  1  0  0  0  0
  5  6  1  0  0  0  0
  5  7  2  0  0  0  0
  6  8  1  0  0  0  0
  6 11  2  0  0  0  0
  9  8  1  6  0  0  0
  9 10  1  0  0  0  0
  9 13  1  0  0  0  0
 10 12  1  0  0  0  0
 11 12  1  0  0  0  0
 13 14  1  6  0  0  0
 13 15  1  0  0  0  0
 15 16  1  1  0  0  0
 15 17  1  0  0  0  0
M  END
>  <CHROM.1>
76.30642245,50.32099908,-0.03534766,6.27457643,21.12998241,-0.34127682,-1.24535533
2.70872043

>  <Name>
ligand

>  <RI>
0

>  <Rbt.Current_Directory>
/home/itssahil/PROJECTS/Mol_Feturizer/New_Systems/rnas/4LVX

>  <Rbt.Executable>
rbdock ($Id: //depot/dev/client3/rdock/2013.1/src/exe/rbdock.cxx#4 $)

>  <Rbt.Library>
libRbt.so (2013.1, Build901 2013/11/27)

>  <Rbt.Parameter_File>
/export/apps/rDock/src/rDock_2013.1_src/data/scripts/dock_solv.prm

>  <Rbt.Receptor>
prm/pocket_docking_6.prm

>  <SCORE>
-16.3523

>  <SCORE.INTER>
-9.50279

>  <SCORE.INTER.CONST>
1

>  <SCORE.INTER.POLAR>
0

>  <SCORE.INTER.ROT>
2

>  <SCORE.INTER.SOLV>
12.6227

>  <SCORE.INTER.VDW>
-15.4761

>  <SCORE.INTER.norm>
-0.558988

>  <SCORE.INTRA>
-6.84953

>  <SCORE.INTRA.DIHEDRAL>
-8.95248

>  <SCORE.INTRA.DIHEDRAL.0>
10.3255

>  <SCORE.INTRA.POLAR>
0

>  <SCORE.INTRA.POLAR.0>
0

>  <SCORE.INTRA.REPUL>
0

>  <SCORE.INTRA.REPUL.0>
0

>  <SCORE.INTRA.SOLV>
-0.163143

>  <SCORE.INTRA.SOLV.lig_0>
-53.4755

>  <SCORE.INTRA.VDW>
-2.29172

>  <SCORE.INTRA.VDW.0>
2.32763

>  <SCORE.INTRA.norm>
-0.402914

>  <SCORE.RESTR>
0

>  <SCORE.RESTR.CAVITY>
0

>  <SCORE.RESTR.norm>
0

>  <SCORE.SYSTEM>
0

>  <SCORE.SYSTEM.CONST>
0

>  <SCORE.SYSTEM.DIHEDRAL>
0

>  <SCORE.SYSTEM.SOLV>
0

>  <SCORE.SYSTEM.norm>
0

>  <SCORE.heavy>
17

>  <SCORE.norm>
-0.961902

>  <RMSD>
5.636

$$$$
ligand
 OpenBabel11021811503D
libRbt.so/2013.1/901 2013/11/27
 17 18  0  0  0  0  0  0  0  0999 V2000
    0.7402    4.7425   18.9058 N   0  0  0  0  0  0  0  0  0  0  0  0
    0.6554    5.5011   17.7313 C   0  0  0  0  0  0  0  0  0  0  0  0
    0.7398    4.8488   16.4567 N   0  0  0  0  0  0  0  0  0  0  0  0
    0.4832    6.8679   17.7701 N   0  0  0  0  0  0  0  0  0  0  0  0
    0.3940    7.5391   18.9720 C   0  0  0  0  0  0  0  0  0  0  0  0
    0.4803    6.8161   20.2029 C   0  0  0  0  0  0  0  0  0  0  0  0
    0.2435    8.7460   18.9864 O   0  0  0  0  0  0  0  0  0  0  0  0
    0.3953    7.4917   21.4952 N   0  0  0  0  0  0  0  0  0  0  0  0
    0.2902    6.7227   22.6835 C   0  0  2  0  0  0  0  0  0  0  0  0
    0.9719    5.3319   22.5855 C   0  0  0  0  0  0  0  0  0  0  0  0
    0.6528    5.4004   20.1411 C   0  0  0  0  0  0  0  0  0  0  0  0
    0.7414    4.6330   21.3971 N   0  0  0  0  0  0  0  0  0  0  0  0
   -1.1759    6.6519   23.0700 C   0  0  1  0  0  0  0  0  0  0  0  0
   -1.8442    5.7415   22.2756 O   0  0  0  0  0  0  0  0  0  0  0  0
   -1.3162    6.2869   24.5176 C   0  0  1  0  0  0  0  0  0  0  0  0
   -0.5515    7.0794   25.2820 O   0  0  0  0  0  0  0  0  0  0  0  0
   -2.7790    6.4310   24.9887 C   0  0  0  0  0  0  0  0  0  0  0  0
  1  2  2  0  0  0  0
  1 11  1  0  0  0  0
  2  3  1  0  0  0  0
  2  4  1  0  0  0  0
  4  5  1  0  0  0  0
  5  6  1  0  0  0  0
  5  7  2  0  0  0  0
  6  8  1  0  0  0  0
  6 11  2  0  0  0  0
  9  8  1  6  0  0  0
  9 10  1  0  0  0  0
  9 13  1  0  0  0  0
 10 12  1  0  0  0  0
 11 12  1  0  0  0  0
 13 14  1  6  0  0  0
 13 15  1  0  0  0  0
 15 16  1  1  0  0  0
 15 17  1  0  0  0  0
M  END
>  <CHROM.1>
77.16734768,50.65629422,-0.09230876,6.30345545,21.10399012,-0.34229880,-1.25932910
2.71586589

>  <Name>
ligand

>  <RI>
0

>  <Rbt.Current_Directory>
/home/itssahil/PROJECTS/Mol_Feturizer/New_Systems/rnas/4LVX

>  <Rbt.Executable>
rbdock ($Id: //depot/dev/client3/rdock/2013.1/src/exe/rbdock.cxx#4 $)

>  <Rbt.Library>
libRbt.so (2013.1, Build901 2013/11/27)

>  <Rbt.Parameter_File>
/export/apps/rDock/src/rDock_2013.1_src/data/scripts/dock_solv.prm

>  <Rbt.Receptor>
prm/pocket_docking_7.prm

>  <SCORE>
-16.3465

>  <SCORE.INTER>
-9.53036

>  <SCORE.INTER.CONST>
1

>  <SCORE.INTER.POLAR>
0

>  <SCORE.INTER.ROT>
2

>  <SCORE.INTER.SOLV>
12.8509

>  <SCORE.INTER.VDW>
-15.5706

>  <SCORE.INTER.norm>
-0.56061

>  <SCORE.INTRA>
-6.8161

>  <SCORE.INTRA.DIHEDRAL>
-8.88711

>  <SCORE.INTRA.DIHEDRAL.0>
10.3255

>  <SCORE.INTRA.POLAR>
0

>  <SCORE.INTRA.POLAR.0>
0

>  <SCORE.INTRA.REPUL>
0

>  <SCORE.INTRA.REPUL.0>
0

>  <SCORE.INTRA.SOLV>
-0.169074

>  <SCORE.INTRA.SOLV.lig_0>
-53.4755

>  <SCORE.INTRA.VDW>
-2.28801

>  <SCORE.INTRA.VDW.0>
2.32763

>  <SCORE.INTRA.norm>
-0.400947

>  <SCORE.RESTR>
0

>  <SCORE.RESTR.CAVITY>
0

>  <SCORE.RESTR.norm>
0

>  <SCORE.SYSTEM>
0

>  <SCORE.SYSTEM.CONST>
0

>  <SCORE.SYSTEM.DIHEDRAL>
0

>  <SCORE.SYSTEM.SOLV>
0

>  <SCORE.SYSTEM.norm>
0

>  <SCORE.heavy>
17

>  <SCORE.norm>
-0.961557

>  <RMSD>
5.637

$$$$
ligand
 OpenBabel11021811503D
libRbt.so/2013.1/901 2013/11/27
 17 18  0  0  0  0  0  0  0  0999 V2000
    0.8053    4.6900   19.0028 N   0  0  0  0  0  0  0  0  0  0  0  0
    0.7095    5.4107   17.8055 C   0  0  0  0  0  0  0  0  0  0  0  0
    0.8156    4.7225   16.5516 N   0  0  0  0  0  0  0  0  0  0  0  0
    0.5059    6.7738   17.8022 N   0  0  0  0  0  0  0  0  0  0  0  0
    0.3949    7.4786   18.9829 C   0  0  0  0  0  0  0  0  0  0  0  0
    0.4911    6.7951   20.2354 C   0  0  0  0  0  0  0  0  0  0  0  0
    0.2167    8.6816   18.9601 O   0  0  0  0  0  0  0  0  0  0  0  0
    0.3837    7.5071   21.5064 N   0  0  0  0  0  0  0  0  0  0  0  0
    0.2898    6.7721   22.7168 C   0  0  2  0  0  0  0  0  0  0  0  0
    1.0037    5.3950   22.6641 C   0  0  0  0  0  0  0  0  0  0  0  0
    0.6963    5.3826   20.2172 C   0  0  0  0  0  0  0  0  0  0  0  0
    0.7957    4.6555   21.4962 N   0  0  0  0  0  0  0  0  0  0  0  0
   -1.1762    6.6792   23.0984 C   0  0  1  0  0  0  0  0  0  0  0  0
   -1.8284    5.7598   22.3009 O   0  0  0  0  0  0  0  0  0  0  0  0
   -1.3159    6.3106   24.5452 C   0  0  1  0  0  0  0  0  0  0  0  0
   -0.5625    7.1110   25.3125 O   0  0  0  0  0  0  0  0  0  0  0  0
   -2.7815    6.4368   25.0127 C   0  0  0  0  0  0  0  0  0  0  0  0
  1  2  2  0  0  0  0
  1 11  1  0  0  0  0
  2  3  1  0  0  0  0
  2  4  1  0  0  0  0
  4  5  1  0  0  0  0
  5  6  1  0  0  0  0
  5  7  2  0  0  0  0
  6  8  1  0  0  0  0
  6 11  2  0  0  0  0
  9  8  1  6  0  0  0
  9 10  1  0  0  0  0
  9 13  1  0  0  0  0
 10 12  1  0  0  0  0
 11 12  1  0  0  0  0
 13 14  1  6  0  0  0
 13 15  1  0  0  0  0
 15 16  1  1  0  0  0
 15 17  1  0  0  0  0
M  END
>  <CHROM.1>
75.31736760,50.47621952,-0.07414637,6.28840952,21.14713960,-0.41786964,-1.24265416
2.61858685

>  <Name>
ligand

>  <RI>
0

>  <Rbt.Current_Directory>
/home/itssahil/PROJECTS/Mol_Feturizer/New_Systems/rnas/4LVX

>  <Rbt.Executable>
rbdock ($Id: //depot/dev/client3/rdock/2013.1/src/exe/rbdock.cxx#4 $)

>  <Rbt.Library>
libRbt.so (2013.1, Build901 2013/11/27)

>  <Rbt.Parameter_File>
/export/apps/rDock/src/rDock_2013.1_src/data/scripts/dock_solv.prm

>  <Rbt.Receptor>
prm/pocket_docking_8.prm

>  <SCORE>
-16.4256

>  <SCORE.INTER>
-9.50416

>  <SCORE.INTER.CONST>
1

>  <SCORE.INTER.POLAR>
0

>  <SCORE.INTER.ROT>
2

>  <SCORE.INTER.SOLV>
13.2469

>  <SCORE.INTER.VDW>
-15.6851

>  <SCORE.INTER.norm>
-0.559068

>  <SCORE.INTRA>
-6.92144

>  <SCORE.INTRA.DIHEDRAL>
-9.06049

>  <SCORE.INTRA.DIHEDRAL.0>
10.3255

>  <SCORE.INTRA.POLAR>
0

>  <SCORE.INTRA.POLAR.0>
0

>  <SCORE.INTRA.REPUL>
0

>  <SCORE.INTRA.REPUL.0>
0

>  <SCORE.INTRA.SOLV>
-0.158866

>  <SCORE.INTRA.SOLV.lig_0>
-53.4755

>  <SCORE.INTRA.VDW>
-2.31176

>  <SCORE.INTRA.VDW.0>
2.32763

>  <SCORE.INTRA.norm>
-0.407143

>  <SCORE.RESTR>
0

>  <SCORE.RESTR.CAVITY>
0

>  <SCORE.RESTR.norm>
0

>  <SCORE.SYSTEM>
0

>  <SCORE.SYSTEM.CONST>
0

>  <SCORE.SYSTEM.DIHEDRAL>
0

>  <SCORE.SYSTEM.SOLV>
0

>  <SCORE.SYSTEM.norm>
0

>  <SCORE.heavy>
17

>  <SCORE.norm>
-0.966212

>  <RMSD>
5.637

$$$$
ligand
 OpenBabel11021811503D
libRbt.so/2013.1/901 2013/11/27
 17 18  0  0  0  0  0  0  0  0999 V2000
    0.7907    4.7684   18.9235 N   0  0  0  0  0  0  0  0  0  0  0  0
    0.6854    5.5134   17.7421 C   0  0  0  0  0  0  0  0  0  0  0  0
    0.7917    4.8524   16.4736 N   0  0  0  0  0  0  0  0  0  0  0  0
    0.4724    6.8747   17.7682 N   0  0  0  0  0  0  0  0  0  0  0  0
    0.3608    7.5538   18.9638 C   0  0  0  0  0  0  0  0  0  0  0  0
    0.4664    6.8448   20.2013 C   0  0  0  0  0  0  0  0  0  0  0  0
    0.1742    8.7557   18.9670 O   0  0  0  0  0  0  0  0  0  0  0  0
    0.3588    7.5292   21.4873 N   0  0  0  0  0  0  0  0  0  0  0  0
    0.2745    6.7682   22.6824 C   0  0  2  0  0  0  0  0  0  0  0  0
    0.9977    5.3976   22.5981 C   0  0  0  0  0  0  0  0  0  0  0  0
    0.6813    5.4345   20.1526 C   0  0  0  0  0  0  0  0  0  0  0  0
    0.7905    4.6814   21.4157 N   0  0  0  0  0  0  0  0  0  0  0  0
   -1.1894    6.6570   23.0672 C   0  0  1  0  0  0  0  0  0  0  0  0
   -1.8328    5.7328   22.2682 O   0  0  0  0  0  0  0  0  0  0  0  0
   -1.3213    6.2821   24.5131 C   0  0  1  0  0  0  0  0  0  0  0  0
   -0.5931    7.1028   25.2832 O   0  0  0  0  0  0  0  0  0  0  0  0
   -2.7909    6.3648   24.9777 C   0  0  0  0  0  0  0  0  0  0  0  0
  1  2  2  0  0  0  0
  1 11  1  0  0  0  0
  2  3  1  0  0  0  0
  2  4  1  0  0  0  0
  4  5  1  0  0  0  0
  5  6  1  0  0  0  0
  5  7  2  0  0  0  0
  6  8  1  0  0  0  0
  6 11  2  0  0  0  0
  9  8  1  6  0  0  0
  9 10  1  0  0  0  0
  9 13  1  0  0  0  0
 10 12  1  0  0  0  0
 11 12  1  0  0  0  0
 13 14  1  6  0  0  0
 13 15  1  0  0  0  0
 15 16  1  1  0  0  0
 15 17  1  0  0  0  0
M  END
>  <CHROM.1>
76.37197929,51.51708548,-0.09339753,6.31927010,21.10505409,-0.42156367,-1.24433202
2.63499494

>  <Name>
ligand

>  <RI>
0

>  <Rbt.Current_Directory>
/home/itssahil/PROJECTS/Mol_Feturizer/New_Systems/rnas/4LVX

>  <Rbt.Executable>
rbdock ($Id: //depot/dev/client3/rdock/2013.1/src/exe/rbdock.cxx#4 $)

>  <Rbt.Library>
libRbt.so (2013.1, Build901 2013/11/27)

>  <Rbt.Parameter_File>
/export/apps/rDock/src/rDock_2013.1_src/data/scripts/dock_solv.prm

>  <Rbt.Receptor>
prm/pocket_docking_6.prm

>  <SCORE>
-16.3267

>  <SCORE.INTER>
-9.42085

>  <SCORE.INTER.CONST>
1

>  <SCORE.INTER.POLAR>
0

>  <SCORE.INTER.ROT>
2

>  <SCORE.INTER.SOLV>
12.7041

>  <SCORE.INTER.VDW>
-15.4486

>  <SCORE.INTER.norm>
-0.554167

>  <SCORE.INTRA>
-6.90583

>  <SCORE.INTRA.DIHEDRAL>
-9.0246

>  <SCORE.INTRA.DIHEDRAL.0>
10.3255

>  <SCORE.INTRA.POLAR>
0

>  <SCORE.INTRA.POLAR.0>
0

>  <SCORE.INTRA.REPUL>
0

>  <SCORE.INTRA.REPUL.0>
0

>  <SCORE.INTRA.SOLV>
-0.169179

>  <SCORE.INTRA.SOLV.lig_0>
-53.4755

>  <SCORE.INTRA.VDW>
-2.30894

>  <SCORE.INTRA.VDW.0>
2.32763

>  <SCORE.INTRA.norm>
-0.406225

>  <SCORE.RESTR>
0

>  <SCORE.RESTR.CAVITY>
0

>  <SCORE.RESTR.norm>
0

>  <SCORE.SYSTEM>
0

>  <SCORE.SYSTEM.CONST>
0

>  <SCORE.SYSTEM.DIHEDRAL>
0

>  <SCORE.SYSTEM.SOLV>
0

>  <SCORE.SYSTEM.norm>
0

>  <SCORE.heavy>
17

>  <SCORE.norm>
-0.960393

>  <RMSD>
5.645

$$$$
ligand
 OpenBabel11021811503D
libRbt.so/2013.1/901 2013/11/27
 17 18  0  0  0  0  0  0  0  0999 V2000
    0.7948    4.6680   19.0003 N   0  0  0  0  0  0  0  0  0  0  0  0
    0.6923    5.3803   17.7986 C   0  0  0  0  0  0  0  0  0  0  0  0
    0.8220    4.6880   16.5491 N   0  0  0  0  0  0  0  0  0  0  0  0
    0.4597    6.7387   17.7866 N   0  0  0  0  0  0  0  0  0  0  0  0
    0.3253    7.4471   18.9626 C   0  0  0  0  0  0  0  0  0  0  0  0
    0.4271    6.7723   20.2194 C   0  0  0  0  0  0  0  0  0  0  0  0
    0.1217    8.6459   18.9322 O   0  0  0  0  0  0  0  0  0  0  0  0
    0.2954    7.4885   21.4858 N   0  0  0  0  0  0  0  0  0  0  0  0
    0.2085    6.7578   22.6994 C   0  0  2  0  0  0  0  0  0  0  0  0
    0.9519    5.3960   22.6591 C   0  0  0  0  0  0  0  0  0  0  0  0
    0.6624    5.3644   20.2102 C   0  0  0  0  0  0  0  0  0  0  0  0
    0.7681    4.6463   21.4937 N   0  0  0  0  0  0  0  0  0  0  0  0
   -1.2579    6.6357   23.0712 C   0  0  1  0  0  0  0  0  0  0  0  0
   -1.8868    5.7056   22.2675 O   0  0  0  0  0  0  0  0  0  0  0  0
   -1.3999    6.2614   24.5163 C   0  0  1  0  0  0  0  0  0  0  0  0
   -0.6267    7.0408   25.2854 O   0  0  0  0  0  0  0  0  0  0  0  0
   -2.8606    6.4159   24.9903 C   0  0  0  0  0  0  0  0  0  0  0  0
  1  2  2  0  0  0  0
  1 11  1  0  0  0  0
  2  3  1  0  0  0  0
  2  4  1  0  0  0  0
  4  5  1  0  0  0  0
  5  6  1  0  0  0  0
  5  7  2  0  0  0  0
  6  8  1  0  0  0  0
  6 11  2  0  0  0  0
  9  8  1  6  0  0  0
  9 10  1  0  0  0  0
  9 13  1  0  0  0  0
 10 12  1  0  0  0  0
 11 12  1  0  0  0  0
 13 14  1  6  0  0  0
 13 15  1  0  0  0  0
 15 16  1  1  0  0  0
 15 17  1  0  0  0  0
M  END
>  <CHROM.1>
74.88176753,48.05808861,-0.13033222,6.25782660,21.13008575,-0.49168446,-1.22212877
2.54097244

>  <Name>
ligand

>  <RI>
0

>  <Rbt.Current_Directory>
/home/itssahil/PROJECTS/Mol_Feturizer/New_Systems/rnas/4LVX

>  <Rbt.Executable>
rbdock ($Id: //depot/dev/client3/rdock/2013.1/src/exe/rbdock.cxx#4 $)

>  <Rbt.Library>
libRbt.so (2013.1, Build901 2013/11/27)

>  <Rbt.Parameter_File>
/export/apps/rDock/src/rDock_2013.1_src/data/scripts/dock_solv.prm

>  <Rbt.Receptor>
prm/pocket_docking_5.prm

>  <SCORE>
-16.3743

>  <SCORE.INTER>
-9.55854

>  <SCORE.INTER.CONST>
1

>  <SCORE.INTER.POLAR>
0

>  <SCORE.INTER.ROT>
2

>  <SCORE.INTER.SOLV>
13.6971

>  <SCORE.INTER.VDW>
-15.8714

>  <SCORE.INTER.norm>
-0.562267

>  <SCORE.INTRA>
-6.81576

>  <SCORE.INTRA.DIHEDRAL>
-8.9174

>  <SCORE.INTRA.DIHEDRAL.0>
10.3255

>  <SCORE.INTRA.POLAR>
0

>  <SCORE.INTRA.POLAR.0>
0

>  <SCORE.INTRA.REPUL>
0

>  <SCORE.INTRA.REPUL.0>
0

>  <SCORE.INTRA.SOLV>
-0.145117

>  <SCORE.INTRA.SOLV.lig_0>
-53.4755

>  <SCORE.INTRA.VDW>
-2.2845

>  <SCORE.INTRA.VDW.0>
2.32763

>  <SCORE.INTRA.norm>
-0.400927

>  <SCORE.RESTR>
0

>  <SCORE.RESTR.CAVITY>
0

>  <SCORE.RESTR.norm>
0

>  <SCORE.SYSTEM>
0

>  <SCORE.SYSTEM.CONST>
0

>  <SCORE.SYSTEM.DIHEDRAL>
0

>  <SCORE.SYSTEM.SOLV>
0

>  <SCORE.SYSTEM.norm>
0

>  <SCORE.heavy>
17

>  <SCORE.norm>
-0.963194

>  <RMSD>
5.648

$$$$
ligand
 OpenBabel11021811503D
libRbt.so/2013.1/901 2013/11/27
 17 18  0  0  0  0  0  0  0  0999 V2000
    0.8499    4.6355   18.9292 N   0  0  0  0  0  0  0  0  0  0  0  0
    0.7450    5.3642   17.7375 C   0  0  0  0  0  0  0  0  0  0  0  0
    0.8548    4.6862   16.4783 N   0  0  0  0  0  0  0  0  0  0  0  0
    0.5290    6.7253   17.7447 N   0  0  0  0  0  0  0  0  0  0  0  0
    0.4140    7.4203   18.9307 C   0  0  0  0  0  0  0  0  0  0  0  0
    0.5190    6.7285   20.1780 C   0  0  0  0  0  0  0  0  0  0  0  0
    0.2248    8.6218   18.9172 O   0  0  0  0  0  0  0  0  0  0  0  0
    0.4078    7.4301   21.4543 N   0  0  0  0  0  0  0  0  0  0  0  0
    0.3231    6.6853   22.6595 C   0  0  2  0  0  0  0  0  0  0  0  0
    1.0494    5.3153   22.5951 C   0  0  0  0  0  0  0  0  0  0  0  0
    0.7370    5.3181   20.1488 C   0  0  0  0  0  0  0  0  0  0  0  0
    0.8457    4.5826   21.4223 N   0  0  0  0  0  0  0  0  0  0  0  0
   -1.1413    6.5762   23.0433 C   0  0  1  0  0  0  0  0  0  0  0  0
   -1.7764    5.6245   22.2705 O   0  0  0  0  0  0  0  0  0  0  0  0
   -1.2751    6.2437   24.4994 C   0  0  1  0  0  0  0  0  0  0  0  0
   -0.5177    7.0620   25.2434 O   0  0  0  0  0  0  0  0  0  0  0  0
   -2.7385    6.3830   24.9699 C   0  0  0  0  0  0  0  0  0  0  0  0
  1  2  2  0  0  0  0
  1 11  1  0  0  0  0
  2  3  1  0  0  0  0
  2  4  1  0  0  0  0
  4  5  1  0  0  0  0
  5  6  1  0  0  0  0
  5  7  2  0  0  0  0
  6  8  1  0  0  0  0
  6 11  2  0  0  0  0
  9  8  1  6  0  0  0
  9 10  1  0  0  0  0
  9 13  1  0  0  0  0
 10 12  1  0  0  0  0
 11 12  1  0  0  0  0
 13 14  1  6  0  0  0
 13 15  1  0  0  0  0
 15 16  1  1  0  0  0
 15 17  1  0  0  0  0
M  END
>  <CHROM.1>
77.32997900,49.35262124,-0.03827669,6.21985008,21.08935431,-0.44155970,-1.24058479
2.59650943

>  <Name>
ligand

>  <RI>
0

>  <Rbt.Current_Directory>
/home/itssahil/PROJECTS/Mol_Feturizer/New_Systems/rnas/4LVX

>  <Rbt.Executable>
rbdock ($Id: //depot/dev/client3/rdock/2013.1/src/exe/rbdock.cxx#4 $)

>  <Rbt.Library>
libRbt.so (2013.1, Build901 2013/11/27)

>  <Rbt.Parameter_File>
/export/apps/rDock/src/rDock_2013.1_src/data/scripts/dock_solv.prm

>  <Rbt.Receptor>
prm/pocket_docking_6.prm

>  <SCORE>
-16.3855

>  <SCORE.INTER>
-9.63155

>  <SCORE.INTER.CONST>
1

>  <SCORE.INTER.POLAR>
0

>  <SCORE.INTER.ROT>
2

>  <SCORE.INTER.SOLV>
12.9736

>  <SCORE.INTER.VDW>
-15.6789

>  <SCORE.INTER.norm>
-0.566562

>  <SCORE.INTRA>
-6.75391

>  <SCORE.INTRA.DIHEDRAL>
-8.77659

>  <SCORE.INTRA.DIHEDRAL.0>
10.3255

>  <SCORE.INTRA.POLAR>
0

>  <SCORE.INTRA.POLAR.0>
0

>  <SCORE.INTRA.REPUL>
0

>  <SCORE.INTRA.REPUL.0>
0

>  <SCORE.INTRA.SOLV>
-0.163771

>  <SCORE.INTRA.SOLV.lig_0>
-53.4755

>  <SCORE.INTRA.VDW>
-2.28373

>  <SCORE.INTRA.VDW.0>
2.32763

>  <SCORE.INTRA.norm>
-0.397289

>  <SCORE.RESTR>
0

>  <SCORE.RESTR.CAVITY>
0

>  <SCORE.RESTR.norm>
0

>  <SCORE.SYSTEM>
0

>  <SCORE.SYSTEM.CONST>
0

>  <SCORE.SYSTEM.DIHEDRAL>
0

>  <SCORE.SYSTEM.SOLV>
0

>  <SCORE.SYSTEM.norm>
0

>  <SCORE.heavy>
17

>  <SCORE.norm>
-0.96385

>  <RMSD>
5.648

$$$$
ligand
 OpenBabel11021811503D
libRbt.so/2013.1/901 2013/11/27
 17 18  0  0  0  0  0  0  0  0999 V2000
    0.8088    4.6976   18.9661 N   0  0  0  0  0  0  0  0  0  0  0  0
    0.6929    5.4140   17.7681 C   0  0  0  0  0  0  0  0  0  0  0  0
    0.8186    4.7277   16.5149 N   0  0  0  0  0  0  0  0  0  0  0  0
    0.4509    6.7708   17.7633 N   0  0  0  0  0  0  0  0  0  0  0  0
    0.3198    7.4735   18.9431 C   0  0  0  0  0  0  0  0  0  0  0  0
    0.4351    6.7944   20.1964 C   0  0  0  0  0  0  0  0  0  0  0  0
    0.1077    8.6709   18.9190 O   0  0  0  0  0  0  0  0  0  0  0  0
    0.3075    7.5044   21.4665 N   0  0  0  0  0  0  0  0  0  0  0  0
    0.2342    6.7683   22.6778 C   0  0  2  0  0  0  0  0  0  0  0  0
    0.9867    5.4119   22.6266 C   0  0  0  0  0  0  0  0  0  0  0  0
    0.6801    5.3882   20.1797 C   0  0  0  0  0  0  0  0  0  0  0  0
    0.7998    4.6656   21.4596 N   0  0  0  0  0  0  0  0  0  0  0  0
   -1.2287    6.6345   23.0593 C   0  0  1  0  0  0  0  0  0  0  0  0
   -1.8573    5.7047   22.2551 O   0  0  0  0  0  0  0  0  0  0  0  0
   -1.3579    6.2514   24.5033 C   0  0  1  0  0  0  0  0  0  0  0  0
   -0.5745    7.0233   25.2698 O   0  0  0  0  0  0  0  0  0  0  0  0
   -2.8134    6.4079   24.9926 C   0  0  0  0  0  0  0  0  0  0  0  0
  1  2  2  0  0  0  0
  1 11  1  0  0  0  0
  2  3  1  0  0  0  0
  2  4  1  0  0  0  0
  4  5  1  0  0  0  0
  5  6  1  0  0  0  0
  5  7  2  0  0  0  0
  6  8  1  0  0  0  0
  6 11  2  0  0  0  0
  9  8  1  6  0  0  0
  9 10  1  0  0  0  0
  9 13  1  0  0  0  0
 10 12  1  0  0  0  0
 11 12  1  0  0  0  0
 13 14  1  6  0  0  0
 13 15  1  0  0  0  0
 15 16  1  1  0  0  0
 15 17  1  0  0  0  0
M  END
>  <CHROM.1>
74.79940550,47.46288252,-0.11142159,6.27228350,21.10890546,-0.52728899,-1.22297944
2.51083487

>  <Name>
ligand

>  <RI>
0

>  <Rbt.Current_Directory>
/home/itssahil/PROJECTS/Mol_Feturizer/New_Systems/rnas/4LVX

>  <Rbt.Executable>
rbdock ($Id: //depot/dev/client3/rdock/2013.1/src/exe/rbdock.cxx#4 $)

>  <Rbt.Library>
libRbt.so (2013.1, Build901 2013/11/27)

>  <Rbt.Parameter_File>
/export/apps/rDock/src/rDock_2013.1_src/data/scripts/dock_solv.prm

>  <Rbt.Receptor>
prm/pocket_docking_8.prm

>  <SCORE>
-16.3507

>  <SCORE.INTER>
-9.56287

>  <SCORE.INTER.CONST>
1

>  <SCORE.INTER.POLAR>
0

>  <SCORE.INTER.ROT>
2

>  <SCORE.INTER.SOLV>
13.3364

>  <SCORE.INTER.VDW>
-15.7541

>  <SCORE.INTER.norm>
-0.562522

>  <SCORE.INTRA>
-6.78786

>  <SCORE.INTRA.DIHEDRAL>
-8.87429

>  <SCORE.INTRA.DIHEDRAL.0>
10.3255

>  <SCORE.INTRA.POLAR>
0

>  <SCORE.INTRA.POLAR.0>
0

>  <SCORE.INTRA.REPUL>
0

>  <SCORE.INTRA.REPUL.0>
0

>  <SCORE.INTRA.SOLV>
-0.141883

>  <SCORE.INTRA.SOLV.lig_0>
-53.4755

>  <SCORE.INTRA.VDW>
-2.27977

>  <SCORE.INTRA.VDW.0>
2.32763

>  <SCORE.INTRA.norm>
-0.399286

>  <SCORE.RESTR>
0

>  <SCORE.RESTR.CAVITY>
0

>  <SCORE.RESTR.norm>
0

>  <SCORE.SYSTEM>
0

>  <SCORE.SYSTEM.CONST>
0

>  <SCORE.SYSTEM.DIHEDRAL>
0

>  <SCORE.SYSTEM.SOLV>
0

>  <SCORE.SYSTEM.norm>
0

>  <SCORE.heavy>
17

>  <SCORE.norm>
-0.961808

>  <RMSD>
5.648

$$$$
ligand
 OpenBabel11021811503D
libRbt.so/2013.1/901 2013/11/27
 17 18  0  0  0  0  0  0  0  0999 V2000
    1.9833    6.5657   19.4970 N   0  0  0  0  0  0  0  0  0  0  0  0
    3.2647    6.0087   19.3977 C   0  0  0  0  0  0  0  0  0  0  0  0
    4.2185    6.5782   18.4904 N   0  0  0  0  0  0  0  0  0  0  0  0
    3.6375    4.9242   20.1621 N   0  0  0  0  0  0  0  0  0  0  0  0
    2.7558    4.3441   21.0504 C   0  0  0  0  0  0  0  0  0  0  0  0
    1.4320    4.8674   21.1886 C   0  0  0  0  0  0  0  0  0  0  0  0
    3.1023    3.3865   21.7155 O   0  0  0  0  0  0  0  0  0  0  0  0
    0.4684    4.2776   22.1145 N   0  0  0  0  0  0  0  0  0  0  0  0
   -0.7616    4.9404   22.3638 C   0  0  2  0  0  0  0  0  0  0  0  0
   -1.2655    5.7863   21.1641 C   0  0  0  0  0  0  0  0  0  0  0  0
    1.0675    5.9946   20.3922 C   0  0  0  0  0  0  0  0  0  0  0  0
   -0.2910    6.5537   20.5196 N   0  0  0  0  0  0  0  0  0  0  0  0
   -0.6149    5.7377   23.6469 C   0  0  1  0  0  0  0  0  0  0  0  0
    0.5364    6.4994   23.6164 O   0  0  0  0  0  0  0  0  0  0  0  0
   -1.8156    6.6107   23.8582 C   0  0  1  0  0  0  0  0  0  0  0  0
   -2.9422    5.9445   23.5684 O   0  0  0  0  0  0  0  0  0  0  0  0
   -1.9040    7.0906   25.3226 C   0  0  0  0  0  0  0  0  0  0  0  0
  1  2  2  0  0  0  0
  1 11  1  0  0  0  0
  2  3  1  0  0  0  0
  2  4  1  0  0  0  0
  4  5  1  0  0  0  0
  5  6  1  0  0  0  0
  5  7  2  0  0  0  0
  6  8  1  0  0  0  0
  6 11  2  0  0  0  0
  9  8  1  6  0  0  0
  9 10  1  0  0  0  0
  9 13  1  0  0  0  0
 10 12  1  0  0  0  0
 11 12  1  0  0  0  0
 13 14  1  6  0  0  0
 13 15  1  0  0  0  0
 15 16  1  1  0  0  0
 15 17  1  0  0  0  0
M  END
>  <CHROM.1>
49.50500455,42.39638096,0.70816337,5.66079629,21.71901022,0.44135443,0.55272294
-0.93346119

>  <Name>
ligand

>  <RI>
0

>  <Rbt.Current_Directory>
/home/itssahil/PROJECTS/Mol_Feturizer/New_Systems/rnas/4LVX

>  <Rbt.Executable>
rbdock ($Id: //depot/dev/client3/rdock/2013.1/src/exe/rbdock.cxx#4 $)

>  <Rbt.Library>
libRbt.so (2013.1, Build901 2013/11/27)

>  <Rbt.Parameter_File>
/export/apps/rDock/src/rDock_2013.1_src/data/scripts/dock_solv.prm

>  <Rbt.Receptor>
prm/pocket_docking_2.prm

>  <SCORE>
-12.4688

>  <SCORE.INTER>
-7.81751

>  <SCORE.INTER.CONST>
1

>  <SCORE.INTER.POLAR>
0

>  <SCORE.INTER.ROT>
2

>  <SCORE.INTER.SOLV>
12.2414

>  <SCORE.INTER.VDW>
-14.2255

>  <SCORE.INTER.norm>
-0.459853

>  <SCORE.INTRA>
-5.48085

>  <SCORE.INTRA.DIHEDRAL>
-8.70139

>  <SCORE.INTRA.DIHEDRAL.0>
10.3255

>  <SCORE.INTRA.POLAR>
0

>  <SCORE.INTRA.POLAR.0>
0

>  <SCORE.INTRA.REPUL>
0

>  <SCORE.INTRA.REPUL.0>
0

>  <SCORE.INTRA.SOLV>
0.146068

>  <SCORE.INTRA.SOLV.lig_0>
-53.4755

>  <SCORE.INTRA.VDW>
-1.20319

>  <SCORE.INTRA.VDW.0>
2.32763

>  <SCORE.INTRA.norm>
-0.322403

>  <SCORE.RESTR>
0.829532

>  <SCORE.RESTR.CAVITY>
0.829532

>  <SCORE.RESTR.norm>
0.048796

>  <SCORE.SYSTEM>
0

>  <SCORE.SYSTEM.CONST>
0

>  <SCORE.SYSTEM.DIHEDRAL>
0

>  <SCORE.SYSTEM.SOLV>
0

>  <SCORE.SYSTEM.norm>
0

>  <SCORE.heavy>
17

>  <SCORE.norm>
-0.73346

>  <RMSD>
5.650

$$$$
ligand
 OpenBabel11021811503D
libRbt.so/2013.1/901 2013/11/27
 17 18  0  0  0  0  0  0  0  0999 V2000
    0.7740    4.9643   18.0898 N   0  0  0  0  0  0  0  0  0  0  0  0
    1.9019    5.3505   17.3544 C   0  0  0  0  0  0  0  0  0  0  0  0
    1.7549    5.7467   15.9838 N   0  0  0  0  0  0  0  0  0  0  0  0
    3.1578    5.3674   17.9218 N   0  0  0  0  0  0  0  0  0  0  0  0
    3.3484    4.9974   19.2370 C   0  0  0  0  0  0  0  0  0  0  0  0
    2.2334    4.5881   20.0335 C   0  0  0  0  0  0  0  0  0  0  0  0
    4.4645    5.0173   19.7201 O   0  0  0  0  0  0  0  0  0  0  0  0
    2.3957    4.1845   21.4280 N   0  0  0  0  0  0  0  0  0  0  0  0
    1.2479    3.9736   22.2357 C   0  0  2  0  0  0  0  0  0  0  0  0
    0.0050    3.4986   21.4367 C   0  0  0  0  0  0  0  0  0  0  0  0
    0.9403    4.5831   19.4289 C   0  0  0  0  0  0  0  0  0  0  0  0
   -0.2252    4.1678   20.2312 N   0  0  0  0  0  0  0  0  0  0  0  0
    1.0021    5.2353   23.0427 C   0  0  1  0  0  0  0  0  0  0  0  0
   -0.1074    5.0865   23.8509 O   0  0  0  0  0  0  0  0  0  0  0  0
    2.2095    5.5706   23.8664 C   0  0  1  0  0  0  0  0  0  0  0  0
    2.0211    6.7150   24.5386 O   0  0  0  0  0  0  0  0  0  0  0  0
    2.5118    4.4559   24.8903 C   0  0  0  0  0  0  0  0  0  0  0  0
  1  2  2  0  0  0  0
  1 11  1  0  0  0  0
  2  3  1  0  0  0  0
  2  4  1  0  0  0  0
  4  5  1  0  0  0  0
  5  6  1  0  0  0  0
  5  7  2  0  0  0  0
  6  8  1  0  0  0  0
  6 11  2  0  0  0  0
  9  8  1  6  0  0  0
  9 10  1  0  0  0  0
  9 13  1  0  0  0  0
 10 12  1  0  0  0  0
 11 12  1  0  0  0  0
 13 14  1  1  0  0  0
 13 15  1  0  0  0  0
 15 16  1  1  0  0  0
 15 17  1  0  0  0  0
M  END
>  <CHROM.1>
-179.97657478,177.37524437,1.74716443,4.92843239,20.88049626,1.46391030,-0.26715341
-1.59649255

>  <Name>
ligand

>  <RI>
0

>  <Rbt.Current_Directory>
/home/itssahil/PROJECTS/Mol_Feturizer/New_Systems/rnas/4LVX

>  <Rbt.Executable>
rbdock ($Id: //depot/dev/client3/rdock/2013.1/src/exe/rbdock.cxx#4 $)

>  <Rbt.Library>
libRbt.so (2013.1, Build901 2013/11/27)

>  <Rbt.Parameter_File>
/export/apps/rDock/src/rDock_2013.1_src/data/scripts/dock_solv.prm

>  <Rbt.Receptor>
prm/pocket_docking_8.prm

>  <SCORE>
-16.1894

>  <SCORE.INTER>
-9.65832

>  <SCORE.INTER.CONST>
1

>  <SCORE.INTER.POLAR>
0

>  <SCORE.INTER.ROT>
2

>  <SCORE.INTER.SOLV>
11.4471

>  <SCORE.INTER.VDW>
-15.1879

>  <SCORE.INTER.norm>
-0.568136

>  <SCORE.INTRA>
-6.53112

>  <SCORE.INTRA.DIHEDRAL>
-10.144

>  <SCORE.INTRA.DIHEDRAL.0>
10.3255

>  <SCORE.INTRA.POLAR>
0

>  <SCORE.INTRA.POLAR.0>
0

>  <SCORE.INTRA.REPUL>
0

>  <SCORE.INTRA.REPUL.0>
0

>  <SCORE.INTRA.SOLV>
-0.50402

>  <SCORE.INTRA.SOLV.lig_0>
-53.4755

>  <SCORE.INTRA.VDW>
-1.20713

>  <SCORE.INTRA.VDW.0>
2.32763

>  <SCORE.INTRA.norm>
-0.384184

>  <SCORE.RESTR>
0

>  <SCORE.RESTR.CAVITY>
0

>  <SCORE.RESTR.norm>
0

>  <SCORE.SYSTEM>
0

>  <SCORE.SYSTEM.CONST>
0

>  <SCORE.SYSTEM.DIHEDRAL>
0

>  <SCORE.SYSTEM.SOLV>
0

>  <SCORE.SYSTEM.norm>
0

>  <SCORE.heavy>
17

>  <SCORE.norm>
-0.95232

>  <RMSD>
5.656

$$$$
ligand
 OpenBabel11021811503D
libRbt.so/2013.1/901 2013/11/27
 17 18  0  0  0  0  0  0  0  0999 V2000
    0.8210    4.9500   18.0839 N   0  0  0  0  0  0  0  0  0  0  0  0
    1.9555    5.3446   17.3633 C   0  0  0  0  0  0  0  0  0  0  0  0
    1.8243    5.7339   15.9891 N   0  0  0  0  0  0  0  0  0  0  0  0
    3.2028    5.3763   17.9486 N   0  0  0  0  0  0  0  0  0  0  0  0
    3.3782    5.0135   19.2679 C   0  0  0  0  0  0  0  0  0  0  0  0
    2.2560    4.5961   20.0499 C   0  0  0  0  0  0  0  0  0  0  0  0
    4.4870    5.0465   19.7669 O   0  0  0  0  0  0  0  0  0  0  0  0
    2.4022    4.1996   21.4482 N   0  0  0  0  0  0  0  0  0  0  0  0
    1.2450    3.9803   22.2401 C   0  0  2  0  0  0  0  0  0  0  0  0
    0.0186    3.4897   21.4253 C   0  0  0  0  0  0  0  0  0  0  0  0
    0.9718    4.5757   19.4268 C   0  0  0  0  0  0  0  0  0  0  0  0
   -0.2009    4.1518   20.2139 N   0  0  0  0  0  0  0  0  0  0  0  0
    0.9750    5.2426   23.0385 C   0  0  1  0  0  0  0  0  0  0  0  0
   -0.1368    5.0812   23.8411 O   0  0  0  0  0  0  0  0  0  0  0  0
    2.1722    5.6014   23.8670 C   0  0  1  0  0  0  0  0  0  0  0  0
    1.9559    6.7377   24.5444 O   0  0  0  0  0  0  0  0  0  0  0  0
    2.4974    4.4887   24.8862 C   0  0  0  0  0  0  0  0  0  0  0  0
  1  2  2  0  0  0  0
  1 11  1  0  0  0  0
  2  3  1  0  0  0  0
  2  4  1  0  0  0  0
  4  5  1  0  0  0  0
  5  6  1  0  0  0  0
  5  7  2  0  0  0  0
  6  8  1  0  0  0  0
  6 11  2  0  0  0  0
  9  8  1  6  0  0  0
  9 10  1  0  0  0  0
  9 13  1  0  0  0  0
 10 12  1  0  0  0  0
 11 12  1  0  0  0  0
 13 14  1  1  0  0  0
 13 15  1  0  0  0  0
 15 16  1  1  0  0  0
 15 17  1  0  0  0  0
M  END
>  <CHROM.1>
-179.38031631,178.14466260,1.75693180,4.93508686,20.88702636,1.44983121,-0.27638991
-1.60452077

>  <Name>
ligand

>  <RI>
0

>  <Rbt.Current_Directory>
/home/itssahil/PROJECTS/Mol_Feturizer/New_Systems/rnas/4LVX

>  <Rbt.Executable>
rbdock ($Id: //depot/dev/client3/rdock/2013.1/src/exe/rbdock.cxx#4 $)

>  <Rbt.Library>
libRbt.so (2013.1, Build901 2013/11/27)

>  <Rbt.Parameter_File>
/export/apps/rDock/src/rDock_2013.1_src/data/scripts/dock_solv.prm

>  <Rbt.Receptor>
prm/pocket_docking_6.prm

>  <SCORE>
-16.2533

>  <SCORE.INTER>
-9.75244

>  <SCORE.INTER.CONST>
1

>  <SCORE.INTER.POLAR>
0

>  <SCORE.INTER.ROT>
2

>  <SCORE.INTER.SOLV>
11.3915

>  <SCORE.INTER.VDW>
-15.2321

>  <SCORE.INTER.norm>
-0.573673

>  <SCORE.INTRA>
-6.50087

>  <SCORE.INTRA.DIHEDRAL>
-10.157

>  <SCORE.INTRA.DIHEDRAL.0>
10.3255

>  <SCORE.INTRA.POLAR>
0

>  <SCORE.INTRA.POLAR.0>
0

>  <SCORE.INTRA.REPUL>
0

>  <SCORE.INTRA.REPUL.0>
0

>  <SCORE.INTRA.SOLV>
-0.49509

>  <SCORE.INTRA.SOLV.lig_0>
-53.4755

>  <SCORE.INTRA.VDW>
-1.17483

>  <SCORE.INTRA.VDW.0>
2.32763

>  <SCORE.INTRA.norm>
-0.382404

>  <SCORE.RESTR>
0

>  <SCORE.RESTR.CAVITY>
0

>  <SCORE.RESTR.norm>
0

>  <SCORE.SYSTEM>
0

>  <SCORE.SYSTEM.CONST>
0

>  <SCORE.SYSTEM.DIHEDRAL>
0

>  <SCORE.SYSTEM.SOLV>
0

>  <SCORE.SYSTEM.norm>
0

>  <SCORE.heavy>
17

>  <SCORE.norm>
-0.956077

>  <RMSD>
5.663

$$$$
ligand
 OpenBabel11021811503D
libRbt.so/2013.1/901 2013/11/27
 17 18  0  0  0  0  0  0  0  0999 V2000
    0.6650    5.0203   17.8300 N   0  0  0  0  0  0  0  0  0  0  0  0
    0.5569    6.1487   17.0072 C   0  0  0  0  0  0  0  0  0  0  0  0
    0.5942    5.9947   15.5817 N   0  0  0  0  0  0  0  0  0  0  0  0
    0.4061    7.4120   17.5371 N   0  0  0  0  0  0  0  0  0  0  0  0
    0.3620    7.6097   18.9016 C   0  0  0  0  0  0  0  0  0  0  0  0
    0.4738    6.4943   19.7897 C   0  0  0  0  0  0  0  0  0  0  0  0
    0.2298    8.7323   19.3509 O   0  0  0  0  0  0  0  0  0  0  0  0
    0.4367    6.6638   21.2401 N   0  0  0  0  0  0  0  0  0  0  0  0
    0.3552    5.5214   22.0783 C   0  0  2  0  0  0  0  0  0  0  0  0
    1.0132    4.2551   21.4680 C   0  0  0  0  0  0  0  0  0  0  0  0
    0.6236    5.1937   19.2209 C   0  0  0  0  0  0  0  0  0  0  0  0
    0.7377    4.0278   20.1165 N   0  0  0  0  0  0  0  0  0  0  0  0
   -1.0997    5.3219   22.4617 C   0  0  1  0  0  0  0  0  0  0  0  0
   -1.2629    4.1344   23.1471 O   0  0  0  0  0  0  0  0  0  0  0  0
   -1.5836    6.4753   23.2887 C   0  0  1  0  0  0  0  0  0  0  0  0
   -2.8310    6.2535   23.7266 O   0  0  0  0  0  0  0  0  0  0  0  0
   -0.6758    6.6994   24.5167 C   0  0  0  0  0  0  0  0  0  0  0  0
  1  2  2  0  0  0  0
  1 11  1  0  0  0  0
  2  3  1  0  0  0  0
  2  4  1  0  0  0  0
  4  5  1  0  0  0  0
  5  6  1  0  0  0  0
  5  7  2  0  0  0  0
  6  8  1  0  0  0  0
  6 11  2  0  0  0  0
  9  8  1  6  0  0  0
  9 10  1  0  0  0  0
  9 13  1  0  0  0  0
 10 12  1  0  0  0  0
 11 12  1  0  0  0  0
 13 14  1  1  0  0  0
 13 15  1  0  0  0  0
 15 16  1  1  0  0  0
 15 17  1  0  0  0  0
M  END
>  <CHROM.1>
172.90324708,-174.73787002,-0.10285441,6.00050455,20.51756094,-0.64232724
-1.19517034,2.57108920

>  <Name>
ligand

>  <RI>
0

>  <Rbt.Current_Directory>
/home/itssahil/PROJECTS/Mol_Feturizer/New_Systems/rnas/4LVX

>  <Rbt.Executable>
rbdock ($Id: //depot/dev/client3/rdock/2013.1/src/exe/rbdock.cxx#4 $)

>  <Rbt.Library>
libRbt.so (2013.1, Build901 2013/11/27)

>  <Rbt.Parameter_File>
/export/apps/rDock/src/rDock_2013.1_src/data/scripts/dock_solv.prm

>  <Rbt.Receptor>
prm/pocket_docking_7.prm

>  <SCORE>
-15.517

>  <SCORE.INTER>
-9.58762

>  <SCORE.INTER.CONST>
1

>  <SCORE.INTER.POLAR>
0

>  <SCORE.INTER.ROT>
2

>  <SCORE.INTER.SOLV>
12.3677

>  <SCORE.INTER.VDW>
-15.4476

>  <SCORE.INTER.norm>
-0.563978

>  <SCORE.INTRA>
-5.92938

>  <SCORE.INTRA.DIHEDRAL>
-9.90092

>  <SCORE.INTRA.DIHEDRAL.0>
10.3255

>  <SCORE.INTRA.POLAR>
0

>  <SCORE.INTRA.POLAR.0>
0

>  <SCORE.INTRA.REPUL>
0

>  <SCORE.INTRA.REPUL.0>
0

>  <SCORE.INTRA.SOLV>
-0.506951

>  <SCORE.INTRA.SOLV.lig_0>
-53.4755

>  <SCORE.INTRA.VDW>
-0.725445

>  <SCORE.INTRA.VDW.0>
2.32763

>  <SCORE.INTRA.norm>
-0.348787

>  <SCORE.RESTR>
0

>  <SCORE.RESTR.CAVITY>
0

>  <SCORE.RESTR.norm>
0

>  <SCORE.SYSTEM>
0

>  <SCORE.SYSTEM.CONST>
0

>  <SCORE.SYSTEM.DIHEDRAL>
0

>  <SCORE.SYSTEM.SOLV>
0

>  <SCORE.SYSTEM.norm>
0

>  <SCORE.heavy>
17

>  <SCORE.norm>
-0.912765

>  <RMSD>
5.681

$$$$
ligand
 OpenBabel11021811503D
libRbt.so/2013.1/901 2013/11/27
 17 18  0  0  0  0  0  0  0  0999 V2000
    1.7417    6.3190   19.3023 N   0  0  0  0  0  0  0  0  0  0  0  0
    3.0449    5.8216   19.1746 C   0  0  0  0  0  0  0  0  0  0  0  0
    3.9160    6.3610   18.1709 N   0  0  0  0  0  0  0  0  0  0  0  0
    3.5173    4.8250   20.0011 N   0  0  0  0  0  0  0  0  0  0  0  0
    2.7176    4.2771   20.9825 C   0  0  0  0  0  0  0  0  0  0  0  0
    1.3761    4.7421   21.1541 C   0  0  0  0  0  0  0  0  0  0  0  0
    3.1515    3.3972   21.7016 O   0  0  0  0  0  0  0  0  0  0  0  0
    0.4973    4.1834   22.1785 N   0  0  0  0  0  0  0  0  0  0  0  0
   -0.7525    4.8014   22.4439 C   0  0  2  0  0  0  0  0  0  0  0  0
   -1.3656    5.5174   21.2110 C   0  0  0  0  0  0  0  0  0  0  0  0
    0.9078    5.7788   20.2918 C   0  0  0  0  0  0  0  0  0  0  0  0
   -0.4709    6.2769   20.4517 N   0  0  0  0  0  0  0  0  0  0  0  0
   -0.5821    5.7095   23.6480 C   0  0  1  0  0  0  0  0  0  0  0  0
    0.2311    6.7811   23.3370 O   0  0  0  0  0  0  0  0  0  0  0  0
   -1.9178    6.1884   24.1329 C   0  0  1  0  0  0  0  0  0  0  0  0
   -2.5990    5.1878   24.7089 O   0  0  0  0  0  0  0  0  0  0  0  0
   -1.7603    7.3216   25.1690 C   0  0  0  0  0  0  0  0  0  0  0  0
  1  2  2  0  0  0  0
  1 11  1  0  0  0  0
  2  3  1  0  0  0  0
  2  4  1  0  0  0  0
  4  5  1  0  0  0  0
  5  6  1  0  0  0  0
  5  7  2  0  0  0  0
  6  8  1  0  0  0  0
  6 11  2  0  0  0  0
  9  8  1  6  0  0  0
  9 10  1  0  0  0  0
  9 13  1  0  0  0  0
 10 12  1  0  0  0  0
 11 12  1  0  0  0  0
 13 14  1  6  0  0  0
 13 15  1  0  0  0  0
 15 16  1  1  0  0  0
 15 17  1  0  0  0  0
M  END
>  <CHROM.1>
68.09889048,71.00203702,0.64090774,5.50862860,21.72715068,0.49285829,0.62306851
-0.89997379

>  <Name>
ligand

>  <RI>
0

>  <Rbt.Current_Directory>
/home/itssahil/PROJECTS/Mol_Feturizer/New_Systems/rnas/4LVX

>  <Rbt.Executable>
rbdock ($Id: //depot/dev/client3/rdock/2013.1/src/exe/rbdock.cxx#4 $)

>  <Rbt.Library>
libRbt.so (2013.1, Build901 2013/11/27)

>  <Rbt.Parameter_File>
/export/apps/rDock/src/rDock_2013.1_src/data/scripts/dock_solv.prm

>  <Rbt.Receptor>
prm/pocket_docking_2.prm

>  <SCORE>
-14.3325

>  <SCORE.INTER>
-8.59594

>  <SCORE.INTER.CONST>
1

>  <SCORE.INTER.POLAR>
0

>  <SCORE.INTER.ROT>
2

>  <SCORE.INTER.SOLV>
13.9811

>  <SCORE.INTER.VDW>
-15.3243

>  <SCORE.INTER.norm>
-0.505644

>  <SCORE.INTRA>
-6.66759

>  <SCORE.INTRA.DIHEDRAL>
-9.53663

>  <SCORE.INTRA.DIHEDRAL.0>
10.3255

>  <SCORE.INTRA.POLAR>
0

>  <SCORE.INTRA.POLAR.0>
0

>  <SCORE.INTRA.REPUL>
0

>  <SCORE.INTRA.REPUL.0>
0

>  <SCORE.INTRA.SOLV>
-0.230164

>  <SCORE.INTRA.SOLV.lig_0>
-53.4755

>  <SCORE.INTRA.VDW>
-1.78419

>  <SCORE.INTRA.VDW.0>
2.32763

>  <SCORE.INTRA.norm>
-0.392211

>  <SCORE.RESTR>
0.931078

>  <SCORE.RESTR.CAVITY>
0.931078

>  <SCORE.RESTR.norm>
0.0547693

>  <SCORE.SYSTEM>
0

>  <SCORE.SYSTEM.CONST>
0

>  <SCORE.SYSTEM.DIHEDRAL>
0

>  <SCORE.SYSTEM.SOLV>
0

>  <SCORE.SYSTEM.norm>
0

>  <SCORE.heavy>
17

>  <SCORE.norm>
-0.843086

>  <RMSD>
5.694

$$$$
ligand
 OpenBabel11021811503D
libRbt.so/2013.1/901 2013/11/27
 17 18  0  0  0  0  0  0  0  0999 V2000
    0.8965    4.7572   18.7528 N   0  0  0  0  0  0  0  0  0  0  0  0
    0.7851    5.4931   17.5662 C   0  0  0  0  0  0  0  0  0  0  0  0
    0.8946    4.8239   16.3023 N   0  0  0  0  0  0  0  0  0  0  0  0
    0.5629    6.8531   17.5829 N   0  0  0  0  0  0  0  0  0  0  0  0
    0.4479    7.5399   18.7737 C   0  0  0  0  0  0  0  0  0  0  0  0
    0.5595    6.8405   20.0161 C   0  0  0  0  0  0  0  0  0  0  0  0
    0.2532    8.7405   18.7686 O   0  0  0  0  0  0  0  0  0  0  0  0
    0.4484    7.5332   21.2974 N   0  0  0  0  0  0  0  0  0  0  0  0
    0.3704    6.7802   22.4978 C   0  0  2  0  0  0  0  0  0  0  0  0
    1.1027    5.4139   22.4226 C   0  0  0  0  0  0  0  0  0  0  0  0
    0.7838    5.4313   19.9772 C   0  0  0  0  0  0  0  0  0  0  0  0
    0.8993    4.6880   21.2455 N   0  0  0  0  0  0  0  0  0  0  0  0
   -1.0924    6.6619   22.8848 C   0  0  1  0  0  0  0  0  0  0  0  0
   -1.7421    5.7653   22.0599 O   0  0  0  0  0  0  0  0  0  0  0  0
   -1.2200    6.2424   24.3188 C   0  0  1  0  0  0  0  0  0  0  0  0
   -0.5042    7.0502   25.1138 O   0  0  0  0  0  0  0  0  0  0  0  0
   -2.6909    6.2902   24.7840 C   0  0  0  0  0  0  0  0  0  0  0  0
  1  2  2  0  0  0  0
  1 11  1  0  0  0  0
  2  3  1  0  0  0  0
  2  4  1  0  0  0  0
  4  5  1  0  0  0  0
  5  6  1  0  0  0  0
  5  7  2  0  0  0  0
  6  8  1  0  0  0  0
  6 11  2  0  0  0  0
  9  8  1  6  0  0  0
  9 10  1  0  0  0  0
  9 13  1  0  0  0  0
 10 12  1  0  0  0  0
 11 12  1  0  0  0  0
 13 14  1  6  0  0  0
 13 15  1  0  0  0  0
 15 16  1  1  0  0  0
 15 17  1  0  0  0  0
M  END
>  <CHROM.1>
74.08940405,52.57322636,0.00269350,6.30660173,20.92122054,-0.44791568,-1.24067408
2.61058344

>  <Name>
ligand

>  <RI>
0

>  <Rbt.Current_Directory>
/home/itssahil/PROJECTS/Mol_Feturizer/New_Systems/rnas/4LVX

>  <Rbt.Executable>
rbdock ($Id: //depot/dev/client3/rdock/2013.1/src/exe/rbdock.cxx#4 $)

>  <Rbt.Library>
libRbt.so (2013.1, Build901 2013/11/27)

>  <Rbt.Parameter_File>
/export/apps/rDock/src/rDock_2013.1_src/data/scripts/dock_solv.prm

>  <Rbt.Receptor>
prm/pocket_docking_8.prm

>  <SCORE>
-16.3682

>  <SCORE.INTER>
-9.32361

>  <SCORE.INTER.CONST>
1

>  <SCORE.INTER.POLAR>
0

>  <SCORE.INTER.ROT>
2

>  <SCORE.INTER.SOLV>
11.4239

>  <SCORE.INTER.VDW>
-14.957

>  <SCORE.INTER.norm>
-0.548448

>  <SCORE.INTRA>
-7.04462

>  <SCORE.INTRA.DIHEDRAL>
-9.3042

>  <SCORE.INTRA.DIHEDRAL.0>
10.3255

>  <SCORE.INTRA.POLAR>
0

>  <SCORE.INTRA.POLAR.0>
0

>  <SCORE.INTRA.REPUL>
0

>  <SCORE.INTRA.REPUL.0>
0

>  <SCORE.INTRA.SOLV>
-0.162845

>  <SCORE.INTRA.SOLV.lig_0>
-53.4755

>  <SCORE.INTRA.VDW>
-2.3111

>  <SCORE.INTRA.VDW.0>
2.32763

>  <SCORE.INTRA.norm>
-0.41439

>  <SCORE.RESTR>
0

>  <SCORE.RESTR.CAVITY>
0

>  <SCORE.RESTR.norm>
0

>  <SCORE.SYSTEM>
0

>  <SCORE.SYSTEM.CONST>
0

>  <SCORE.SYSTEM.DIHEDRAL>
0

>  <SCORE.SYSTEM.SOLV>
0

>  <SCORE.SYSTEM.norm>
0

>  <SCORE.heavy>
17

>  <SCORE.norm>
-0.962837

>  <RMSD>
5.695

$$$$
ligand
 OpenBabel11021811503D
libRbt.so/2013.1/901 2013/11/27
 17 18  0  0  0  0  0  0  0  0999 V2000
    0.6738    5.0180   17.8035 N   0  0  0  0  0  0  0  0  0  0  0  0
    0.5515    6.1427   16.9775 C   0  0  0  0  0  0  0  0  0  0  0  0
    0.5920    5.9852   15.5524 N   0  0  0  0  0  0  0  0  0  0  0  0
    0.3836    7.4053   17.5038 N   0  0  0  0  0  0  0  0  0  0  0  0
    0.3358    7.6061   18.8677 C   0  0  0  0  0  0  0  0  0  0  0  0
    0.4615    6.4948   19.7589 C   0  0  0  0  0  0  0  0  0  0  0  0
    0.1883    8.7280   19.3138 O   0  0  0  0  0  0  0  0  0  0  0  0
    0.4210    6.6677   21.2089 N   0  0  0  0  0  0  0  0  0  0  0  0
    0.3539    5.5266   22.0501 C   0  0  2  0  0  0  0  0  0  0  0  0
    1.0291    4.2675   21.4438 C   0  0  0  0  0  0  0  0  0  0  0  0
    0.6289    5.1946   19.1938 C   0  0  0  0  0  0  0  0  0  0  0  0
    0.7577    4.0328   20.0928 N   0  0  0  0  0  0  0  0  0  0  0  0
   -1.0986    5.3089   22.4329 C   0  0  1  0  0  0  0  0  0  0  0  0
   -1.2477    4.1182   23.1158 O   0  0  0  0  0  0  0  0  0  0  0  0
   -1.5964    6.4548   23.2622 C   0  0  1  0  0  0  0  0  0  0  0  0
   -2.8577    6.2379   23.6609 O   0  0  0  0  0  0  0  0  0  0  0  0
   -0.7224    6.6533   24.5189 C   0  0  0  0  0  0  0  0  0  0  0  0
  1  2  2  0  0  0  0
  1 11  1  0  0  0  0
  2  3  1  0  0  0  0
  2  4  1  0  0  0  0
  4  5  1  0  0  0  0
  5  6  1  0  0  0  0
  5  7  2  0  0  0  0
  6  8  1  0  0  0  0
  6 11  2  0  0  0  0
  9  8  1  6  0  0  0
  9 10  1  0  0  0  0
  9 13  1  0  0  0  0
 10 12  1  0  0  0  0
 11 12  1  0  0  0  0
 13 14  1  1  0  0  0
 13 15  1  0  0  0  0
 15 16  1  1  0  0  0
 15 17  1  0  0  0  0
M  END
>  <CHROM.1>
172.61383449,-176.87975232,-0.11191082,5.99325634,20.48761049,-0.68010124
-1.18320731,2.53258726

>  <Name>
ligand

>  <RI>
0

>  <Rbt.Current_Directory>
/home/itssahil/PROJECTS/Mol_Feturizer/New_Systems/rnas/4LVX

>  <Rbt.Executable>
rbdock ($Id: //depot/dev/client3/rdock/2013.1/src/exe/rbdock.cxx#4 $)

>  <Rbt.Library>
libRbt.so (2013.1, Build901 2013/11/27)

>  <Rbt.Parameter_File>
/export/apps/rDock/src/rDock_2013.1_src/data/scripts/dock_solv.prm

>  <Rbt.Receptor>
prm/pocket_docking_6.prm

>  <SCORE>
-15.4771

>  <SCORE.INTER>
-9.36419

>  <SCORE.INTER.CONST>
1

>  <SCORE.INTER.POLAR>
0

>  <SCORE.INTER.ROT>
2

>  <SCORE.INTER.SOLV>
12.4395

>  <SCORE.INTER.VDW>
-15.3226

>  <SCORE.INTER.norm>
-0.550835

>  <SCORE.INTRA>
-6.11289

>  <SCORE.INTRA.DIHEDRAL>
-9.94835

>  <SCORE.INTRA.DIHEDRAL.0>
10.3255

>  <SCORE.INTRA.POLAR>
0

>  <SCORE.INTRA.POLAR.0>
0

>  <SCORE.INTRA.REPUL>
0

>  <SCORE.INTRA.REPUL.0>
0

>  <SCORE.INTRA.SOLV>
-0.520249

>  <SCORE.INTRA.SOLV.lig_0>
-53.4755

>  <SCORE.INTRA.VDW>
-0.878588

>  <SCORE.INTRA.VDW.0>
2.32763

>  <SCORE.INTRA.norm>
-0.359582

>  <SCORE.RESTR>
0

>  <SCORE.RESTR.CAVITY>
0

>  <SCORE.RESTR.norm>
0

>  <SCORE.SYSTEM>
0

>  <SCORE.SYSTEM.CONST>
0

>  <SCORE.SYSTEM.DIHEDRAL>
0

>  <SCORE.SYSTEM.SOLV>
0

>  <SCORE.SYSTEM.norm>
0

>  <SCORE.heavy>
17

>  <SCORE.norm>
-0.910416

>  <RMSD>
5.696

$$$$
ligand
 OpenBabel11021811503D
libRbt.so/2013.1/901 2013/11/27
 17 18  0  0  0  0  0  0  0  0999 V2000
    3.3252    6.3277   20.5936 N   0  0  0  0  0  0  0  0  0  0  0  0
    4.4912    5.5747   20.7818 C   0  0  0  0  0  0  0  0  0  0  0  0
    5.7412    6.0621   20.2747 N   0  0  0  0  0  0  0  0  0  0  0  0
    4.4686    4.3721   21.4545 N   0  0  0  0  0  0  0  0  0  0  0  0
    3.2910    3.8639   21.9625 C   0  0  0  0  0  0  0  0  0  0  0  0
    2.0688    4.5872   21.7943 C   0  0  0  0  0  0  0  0  0  0  0  0
    3.2904    2.8001   22.5522 O   0  0  0  0  0  0  0  0  0  0  0  0
    0.8012    4.0796   22.3133 N   0  0  0  0  0  0  0  0  0  0  0  0
   -0.3477    4.9127   22.2973 C   0  0  2  0  0  0  0  0  0  0  0  0
   -0.3488    5.9469   21.1400 C   0  0  0  0  0  0  0  0  0  0  0  0
    2.1145    5.8334   21.0998 C   0  0  0  0  0  0  0  0  0  0  0  0
    0.8674    6.5988   20.9166 N   0  0  0  0  0  0  0  0  0  0  0  0
   -0.4919    5.5419   23.6709 C   0  0  1  0  0  0  0  0  0  0  0  0
    0.6642    6.2096   24.0231 O   0  0  0  0  0  0  0  0  0  0  0  0
   -1.6649    6.4757   23.6959 C   0  0  1  0  0  0  0  0  0  0  0  0
   -2.7498    5.8871   23.1731 O   0  0  0  0  0  0  0  0  0  0  0  0
   -2.0011    6.9084   25.1389 C   0  0  0  0  0  0  0  0  0  0  0  0
  1  2  2  0  0  0  0
  1 11  1  0  0  0  0
  2  3  1  0  0  0  0
  2  4  1  0  0  0  0
  4  5  1  0  0  0  0
  5  6  1  0  0  0  0
  5  7  2  0  0  0  0
  6  8  1  0  0  0  0
  6 11  2  0  0  0  0
  9  8  1  1  0  0  0
  9 10  1  0  0  0  0
  9 13  1  0  0  0  0
 10 12  1  0  0  0  0
 11 12  1  0  0  0  0
 13 14  1  6  0  0  0
 13 15  1  0  0  0  0
 15 16  1  1  0  0  0
 15 17  1  0  0  0  0
M  END
>  <CHROM.1>
55.35720164,48.52968816,1.31669301,5.41821574,22.22266647,0.07667271,0.44855726
-0.59062099

>  <Name>
ligand

>  <RI>
0

>  <Rbt.Current_Directory>
/home/itssahil/PROJECTS/Mol_Feturizer/New_Systems/rnas/4LVX

>  <Rbt.Executable>
rbdock ($Id: //depot/dev/client3/rdock/2013.1/src/exe/rbdock.cxx#4 $)

>  <Rbt.Library>
libRbt.so (2013.1, Build901 2013/11/27)

>  <Rbt.Parameter_File>
/export/apps/rDock/src/rDock_2013.1_src/data/scripts/dock_solv.prm

>  <Rbt.Receptor>
prm/pocket_docking_6.prm

>  <SCORE>
-15.2518

>  <SCORE.INTER>
-8.59959

>  <SCORE.INTER.CONST>
1

>  <SCORE.INTER.POLAR>
0

>  <SCORE.INTER.ROT>
2

>  <SCORE.INTER.SOLV>
9.82631

>  <SCORE.INTER.VDW>
-13.9418

>  <SCORE.INTER.norm>
-0.505858

>  <SCORE.INTRA>
-6.65219

>  <SCORE.INTRA.DIHEDRAL>
-9.60696

>  <SCORE.INTRA.DIHEDRAL.0>
10.3255

>  <SCORE.INTRA.POLAR>
0

>  <SCORE.INTRA.POLAR.0>
0

>  <SCORE.INTRA.REPUL>
0

>  <SCORE.INTRA.REPUL.0>
0

>  <SCORE.INTRA.SOLV>
-0.0416574

>  <SCORE.INTRA.SOLV.lig_0>
-53.4755

>  <SCORE.INTRA.VDW>
-1.82788

>  <SCORE.INTRA.VDW.0>
2.32763

>  <SCORE.INTRA.norm>
-0.391305

>  <SCORE.RESTR>
0

>  <SCORE.RESTR.CAVITY>
0

>  <SCORE.RESTR.norm>
0

>  <SCORE.SYSTEM>
0

>  <SCORE.SYSTEM.CONST>
0

>  <SCORE.SYSTEM.DIHEDRAL>
0

>  <SCORE.SYSTEM.SOLV>
0

>  <SCORE.SYSTEM.norm>
0

>  <SCORE.heavy>
17

>  <SCORE.norm>
-0.897164

>  <RMSD>
5.708

$$$$
ligand
 OpenBabel11021811503D
libRbt.so/2013.1/901 2013/11/27
 17 18  0  0  0  0  0  0  0  0999 V2000
    1.6101    5.8856   19.0301 N   0  0  0  0  0  0  0  0  0  0  0  0
    2.9501    5.5046   18.8841 C   0  0  0  0  0  0  0  0  0  0  0  0
    3.6950    5.9505   17.7424 N   0  0  0  0  0  0  0  0  0  0  0  0
    3.5777    4.7129   19.8214 N   0  0  0  0  0  0  0  0  0  0  0  0
    2.9033    4.2620   20.9371 C   0  0  0  0  0  0  0  0  0  0  0  0
    1.5315    4.6148   21.1345 C   0  0  0  0  0  0  0  0  0  0  0  0
    3.4735    3.5629   21.7529 O   0  0  0  0  0  0  0  0  0  0  0  0
    0.7822    4.1528   22.3003 N   0  0  0  0  0  0  0  0  0  0  0  0
   -0.5098    4.6805   22.5583 C   0  0  2  0  0  0  0  0  0  0  0  0
   -1.2705    5.1147   21.2771 C   0  0  0  0  0  0  0  0  0  0  0  0
    0.9014    5.4403   20.1551 C   0  0  0  0  0  0  0  0  0  0  0  0
   -0.5117    5.8199   20.3386 N   0  0  0  0  0  0  0  0  0  0  0  0
   -0.3685    5.7907   23.5835 C   0  0  1  0  0  0  0  0  0  0  0  0
    0.3435    6.8502   23.0571 O   0  0  0  0  0  0  0  0  0  0  0  0
   -1.7195    6.2462   24.0480 C   0  0  1  0  0  0  0  0  0  0  0  0
   -2.4006    5.2285   24.5934 O   0  0  0  0  0  0  0  0  0  0  0  0
   -1.5969    7.3640   25.1054 C   0  0  0  0  0  0  0  0  0  0  0  0
  1  2  2  0  0  0  0
  1 11  1  0  0  0  0
  2  3  1  0  0  0  0
  2  4  1  0  0  0  0
  4  5  1  0  0  0  0
  5  6  1  0  0  0  0
  5  7  2  0  0  0  0
  6  8  1  0  0  0  0
  6 11  2  0  0  0  0
  9  8  1  6  0  0  0
  9 10  1  0  0  0  0
  9 13  1  0  0  0  0
 10 12  1  0  0  0  0
 11 12  1  0  0  0  0
 13 14  1  6  0  0  0
 13 15  1  0  0  0  0
 15 16  1  1  0  0  0
 15 17  1  0  0  0  0
M  END
>  <CHROM.1>
65.95900029,59.09248023,0.74616085,5.37980153,21.62419691,0.64863317,0.53482052
-1.18305745

>  <Name>
ligand

>  <RI>
0

>  <Rbt.Current_Directory>
/home/itssahil/PROJECTS/Mol_Feturizer/New_Systems/rnas/4LVX

>  <Rbt.Executable>
rbdock ($Id: //depot/dev/client3/rdock/2013.1/src/exe/rbdock.cxx#4 $)

>  <Rbt.Library>
libRbt.so (2013.1, Build901 2013/11/27)

>  <Rbt.Parameter_File>
/export/apps/rDock/src/rDock_2013.1_src/data/scripts/dock_solv.prm

>  <Rbt.Receptor>
prm/pocket_docking_3.prm

>  <SCORE>
-16.8892

>  <SCORE.INTER>
-9.63134

>  <SCORE.INTER.CONST>
1

>  <SCORE.INTER.POLAR>
0

>  <SCORE.INTER.ROT>
2

>  <SCORE.INTER.SOLV>
15.3637

>  <SCORE.INTER.VDW>
-16.4755

>  <SCORE.INTER.norm>
-0.566549

>  <SCORE.INTRA>
-7.25789

>  <SCORE.INTRA.DIHEDRAL>
-10.0497

>  <SCORE.INTRA.DIHEDRAL.0>
10.3255

>  <SCORE.INTRA.POLAR>
0

>  <SCORE.INTRA.POLAR.0>
0

>  <SCORE.INTRA.REPUL>
0

>  <SCORE.INTRA.REPUL.0>
0

>  <SCORE.INTRA.SOLV>
-0.155809

>  <SCORE.INTRA.SOLV.lig_0>
-53.4755

>  <SCORE.INTRA.VDW>
-2.15513

>  <SCORE.INTRA.VDW.0>
2.32763

>  <SCORE.INTRA.norm>
-0.426935

>  <SCORE.RESTR>
0

>  <SCORE.RESTR.CAVITY>
0

>  <SCORE.RESTR.norm>
0

>  <SCORE.SYSTEM>
0

>  <SCORE.SYSTEM.CONST>
0

>  <SCORE.SYSTEM.DIHEDRAL>
0

>  <SCORE.SYSTEM.SOLV>
0

>  <SCORE.SYSTEM.norm>
0

>  <SCORE.heavy>
17

>  <SCORE.norm>
-0.993484

>  <RMSD>
5.717

$$$$
ligand
 OpenBabel11021811503D
libRbt.so/2013.1/901 2013/11/27
 17 18  0  0  0  0  0  0  0  0999 V2000
    1.0586    6.7603   18.3804 N   0  0  0  0  0  0  0  0  0  0  0  0
    1.5372    5.5539   17.8536 C   0  0  0  0  0  0  0  0  0  0  0  0
    2.1323    5.5349   16.5488 N   0  0  0  0  0  0  0  0  0  0  0  0
    1.4576    4.3772   18.5667 N   0  0  0  0  0  0  0  0  0  0  0  0
    0.8962    4.3462   19.8264 C   0  0  0  0  0  0  0  0  0  0  0  0
    0.3855    5.5472   20.4114 C   0  0  0  0  0  0  0  0  0  0  0  0
    0.8334    3.2979   20.4401 O   0  0  0  0  0  0  0  0  0  0  0  0
   -0.2205    5.5538   21.7405 N   0  0  0  0  0  0  0  0  0  0  0  0
   -0.5362    6.7902   22.3617 C   0  0  2  0  0  0  0  0  0  0  0  0
   -0.8758    7.9219   21.3554 C   0  0  0  0  0  0  0  0  0  0  0  0
    0.4828    6.7563   19.6590 C   0  0  0  0  0  0  0  0  0  0  0  0
   -0.0341    8.0080   20.2426 N   0  0  0  0  0  0  0  0  0  0  0  0
    0.5954    7.1431   23.3096 C   0  0  1  0  0  0  0  0  0  0  0  0
    1.7229    7.5131   22.6035 O   0  0  0  0  0  0  0  0  0  0  0  0
    0.1740    8.2426   24.2380 C   0  0  1  0  0  0  0  0  0  0  0  0
   -0.9496    7.9085   24.8882 O   0  0  0  0  0  0  0  0  0  0  0  0
    1.2677    8.5349   25.2872 C   0  0  0  0  0  0  0  0  0  0  0  0
  1  2  2  0  0  0  0
  1 11  1  0  0  0  0
  2  3  1  0  0  0  0
  2  4  1  0  0  0  0
  4  5  1  0  0  0  0
  5  6  1  0  0  0  0
  5  7  2  0  0  0  0
  6  8  1  0  0  0  0
  6 11  2  0  0  0  0
  9  8  1  6  0  0  0
  9 10  1  0  0  0  0
  9 13  1  0  0  0  0
 10 12  1  0  0  0  0
 11 12  1  0  0  0  0
 13 14  1  6  0  0  0
 13 15  1  0  0  0  0
 15 16  1  1  0  0  0
 15 17  1  0  0  0  0
M  END
>  <CHROM.1>
71.59063840,55.03430851,0.58377522,6.48101368,21.12758294,-0.17492917,1.39123749
-0.26815296

>  <Name>
ligand

>  <RI>
0

>  <Rbt.Current_Directory>
/home/itssahil/PROJECTS/Mol_Feturizer/New_Systems/rnas/4LVX

>  <Rbt.Executable>
rbdock ($Id: //depot/dev/client3/rdock/2013.1/src/exe/rbdock.cxx#4 $)

>  <Rbt.Library>
libRbt.so (2013.1, Build901 2013/11/27)

>  <Rbt.Parameter_File>
/export/apps/rDock/src/rDock_2013.1_src/data/scripts/dock_solv.prm

>  <Rbt.Receptor>
prm/pocket_docking_7.prm

>  <SCORE>
-14.8443

>  <SCORE.INTER>
-7.66291

>  <SCORE.INTER.CONST>
1

>  <SCORE.INTER.POLAR>
0

>  <SCORE.INTER.ROT>
2

>  <SCORE.INTER.SOLV>
8.96955

>  <SCORE.INTER.VDW>
-13.0318

>  <SCORE.INTER.norm>
-0.450759

>  <SCORE.INTRA>
-7.18143

>  <SCORE.INTRA.DIHEDRAL>
-9.62557

>  <SCORE.INTRA.DIHEDRAL.0>
10.3255

>  <SCORE.INTRA.POLAR>
0

>  <SCORE.INTRA.POLAR.0>
0

>  <SCORE.INTRA.REPUL>
0

>  <SCORE.INTRA.REPUL.0>
0

>  <SCORE.INTRA.SOLV>
-0.162633

>  <SCORE.INTRA.SOLV.lig_0>
-53.4755

>  <SCORE.INTRA.VDW>
-2.28732

>  <SCORE.INTRA.VDW.0>
2.32763

>  <SCORE.INTRA.norm>
-0.422437

>  <SCORE.RESTR>
0

>  <SCORE.RESTR.CAVITY>
0

>  <SCORE.RESTR.norm>
0

>  <SCORE.SYSTEM>
0

>  <SCORE.SYSTEM.CONST>
0

>  <SCORE.SYSTEM.DIHEDRAL>
0

>  <SCORE.SYSTEM.SOLV>
0

>  <SCORE.SYSTEM.norm>
0

>  <SCORE.heavy>
17

>  <SCORE.norm>
-0.873196

>  <RMSD>
5.722

$$$$
ligand
 OpenBabel11021811503D
libRbt.so/2013.1/901 2013/11/27
 17 18  0  0  0  0  0  0  0  0999 V2000
    3.7608    6.0164   20.1330 N   0  0  0  0  0  0  0  0  0  0  0  0
    4.6825    5.1144   20.6799 C   0  0  0  0  0  0  0  0  0  0  0  0
    6.0855    5.3073   20.4531 N   0  0  0  0  0  0  0  0  0  0  0  0
    4.2721    4.0429   21.4433 N   0  0  0  0  0  0  0  0  0  0  0  0
    2.9338    3.8178   21.6910 C   0  0  0  0  0  0  0  0  0  0  0  0
    1.9482    4.7031   21.1525 C   0  0  0  0  0  0  0  0  0  0  0  0
    2.5906    2.8659   22.3659 O   0  0  0  0  0  0  0  0  0  0  0  0
    0.5217    4.4953   21.3884 N   0  0  0  0  0  0  0  0  0  0  0  0
   -0.4066    5.4976   21.0036 C   0  0  2  0  0  0  0  0  0  0  0  0
    0.0573    6.3386   19.7845 C   0  0  0  0  0  0  0  0  0  0  0  0
    2.3941    5.8102   20.3694 C   0  0  0  0  0  0  0  0  0  0  0  0
    1.3965    6.7386   19.8061 N   0  0  0  0  0  0  0  0  0  0  0  0
   -0.7300    6.3343   22.2279 C   0  0  1  0  0  0  0  0  0  0  0  0
   -1.1878    7.5827   21.8558 O   0  0  0  0  0  0  0  0  0  0  0  0
   -1.7457    5.6368   23.0825 C   0  0  1  0  0  0  0  0  0  0  0  0
   -1.3374    4.3967   23.3862 O   0  0  0  0  0  0  0  0  0  0  0  0
   -1.9824    6.4017   24.4021 C   0  0  0  0  0  0  0  0  0  0  0  0
  1  2  2  0  0  0  0
  1 11  1  0  0  0  0
  2  3  1  0  0  0  0
  2  4  1  0  0  0  0
  4  5  1  0  0  0  0
  5  6  1  0  0  0  0
  5  7  2  0  0  0  0
  6  8  1  0  0  0  0
  6 11  2  0  0  0  0
  9  8  1  1  0  0  0
  9 10  1  0  0  0  0
  9 13  1  0  0  0  0
 10 12  1  0  0  0  0
 11 12  1  0  0  0  0
 13 14  1  6  0  0  0
 13 15  1  0  0  0  0
 15 16  1  1  0  0  0
 15 17  1  0  0  0  0
M  END
>  <CHROM.1>
157.01760214,54.05305859,1.29284274,5.36411469,21.53290249,0.07394920,0.38011288
-0.72106878

>  <Name>
ligand

>  <RI>
0

>  <Rbt.Current_Directory>
/home/itssahil/PROJECTS/Mol_Feturizer/New_Systems/rnas/4LVX

>  <Rbt.Executable>
rbdock ($Id: //depot/dev/client3/rdock/2013.1/src/exe/rbdock.cxx#4 $)

>  <Rbt.Library>
libRbt.so (2013.1, Build901 2013/11/27)

>  <Rbt.Parameter_File>
/export/apps/rDock/src/rDock_2013.1_src/data/scripts/dock_solv.prm

>  <Rbt.Receptor>
prm/pocket_docking_3.prm

>  <SCORE>
-15.1213

>  <SCORE.INTER>
-9.11881

>  <SCORE.INTER.CONST>
1

>  <SCORE.INTER.POLAR>
0

>  <SCORE.INTER.ROT>
2

>  <SCORE.INTER.SOLV>
11.1951

>  <SCORE.INTER.VDW>
-14.7442

>  <SCORE.INTER.norm>
-0.536401

>  <SCORE.INTRA>
-6.00247

>  <SCORE.INTRA.DIHEDRAL>
-8.37869

>  <SCORE.INTRA.DIHEDRAL.0>
10.3255

>  <SCORE.INTRA.POLAR>
0

>  <SCORE.INTRA.POLAR.0>
0

>  <SCORE.INTRA.REPUL>
0

>  <SCORE.INTRA.REPUL.0>
0

>  <SCORE.INTRA.SOLV>
-0.142829

>  <SCORE.INTRA.SOLV.lig_0>
-53.4755

>  <SCORE.INTRA.VDW>
-1.74171

>  <SCORE.INTRA.VDW.0>
2.32763

>  <SCORE.INTRA.norm>
-0.353087

>  <SCORE.RESTR>
0

>  <SCORE.RESTR.CAVITY>
0

>  <SCORE.RESTR.norm>
0

>  <SCORE.SYSTEM>
0

>  <SCORE.SYSTEM.CONST>
0

>  <SCORE.SYSTEM.DIHEDRAL>
0

>  <SCORE.SYSTEM.SOLV>
0

>  <SCORE.SYSTEM.norm>
0

>  <SCORE.heavy>
17

>  <SCORE.norm>
-0.889487

>  <RMSD>
5.726

$$$$
ligand
 OpenBabel11021811503D
libRbt.so/2013.1/901 2013/11/27
 17 18  0  0  0  0  0  0  0  0999 V2000
    1.5367    5.8927   18.9464 N   0  0  0  0  0  0  0  0  0  0  0  0
    2.8684    5.4891   18.7855 C   0  0  0  0  0  0  0  0  0  0  0  0
    3.6080    5.9225   17.6356 N   0  0  0  0  0  0  0  0  0  0  0  0
    3.4929    4.6868   19.7159 N   0  0  0  0  0  0  0  0  0  0  0  0
    2.8234    4.2472   20.8390 C   0  0  0  0  0  0  0  0  0  0  0  0
    1.4600    4.6232   21.0516 C   0  0  0  0  0  0  0  0  0  0  0  0
    3.3907    3.5385   21.6485 O   0  0  0  0  0  0  0  0  0  0  0  0
    0.7161    4.1737   22.2256 N   0  0  0  0  0  0  0  0  0  0  0  0
   -0.5639    4.7231   22.4980 C   0  0  2  0  0  0  0  0  0  0  0  0
   -1.3314    5.1703   21.2253 C   0  0  0  0  0  0  0  0  0  0  0  0
    0.8331    5.4593   20.0793 C   0  0  0  0  0  0  0  0  0  0  0  0
   -0.5712    5.8627   20.2784 N   0  0  0  0  0  0  0  0  0  0  0  0
   -0.3925    5.8307   23.5215 C   0  0  1  0  0  0  0  0  0  0  0  0
    0.3073    6.8898   22.9784 O   0  0  0  0  0  0  0  0  0  0  0  0
   -1.7295    6.2880   24.0234 C   0  0  1  0  0  0  0  0  0  0  0  0
   -2.4065    5.2660   24.5657 O   0  0  0  0  0  0  0  0  0  0  0  0
   -1.5750    7.3860   25.0971 C   0  0  0  0  0  0  0  0  0  0  0  0
  1  2  2  0  0  0  0
  1 11  1  0  0  0  0
  2  3  1  0  0  0  0
  2  4  1  0  0  0  0
  4  5  1  0  0  0  0
  5  6  1  0  0  0  0
  5  7  2  0  0  0  0
  6  8  1  0  0  0  0
  6 11  2  0  0  0  0
  9  8  1  6  0  0  0
  9 10  1  0  0  0  0
  9 13  1  0  0  0  0
 10 12  1  0  0  0  0
 11 12  1  0  0  0  0
 13 14  1  6  0  0  0
 13 15  1  0  0  0  0
 15 16  1  1  0  0  0
 15 17  1  0  0  0  0
M  END
>  <CHROM.1>
67.20763254,58.11921045,0.69285630,5.39591490,21.55399983,0.65766995,0.55298377
-1.18567457

>  <Name>
ligand

>  <RI>
0

>  <Rbt.Current_Directory>
/home/itssahil/PROJECTS/Mol_Feturizer/New_Systems/rnas/4LVX

>  <Rbt.Executable>
rbdock ($Id: //depot/dev/client3/rdock/2013.1/src/exe/rbdock.cxx#4 $)

>  <Rbt.Library>
libRbt.so (2013.1, Build901 2013/11/27)

>  <Rbt.Parameter_File>
/export/apps/rDock/src/rDock_2013.1_src/data/scripts/dock_solv.prm

>  <Rbt.Receptor>
prm/pocket_docking_3.prm

>  <SCORE>
-16.8905

>  <SCORE.INTER>
-9.62476

>  <SCORE.INTER.CONST>
1

>  <SCORE.INTER.POLAR>
0

>  <SCORE.INTER.ROT>
2

>  <SCORE.INTER.SOLV>
15.613

>  <SCORE.INTER.VDW>
-16.5542

>  <SCORE.INTER.norm>
-0.566162

>  <SCORE.INTRA>
-7.26571

>  <SCORE.INTRA.DIHEDRAL>
-9.98236

>  <SCORE.INTRA.DIHEDRAL.0>
10.3255

>  <SCORE.INTRA.POLAR>
0

>  <SCORE.INTRA.POLAR.0>
0

>  <SCORE.INTRA.REPUL>
0

>  <SCORE.INTRA.REPUL.0>
0

>  <SCORE.INTRA.SOLV>
-0.156819

>  <SCORE.INTRA.SOLV.lig_0>
-53.4755

>  <SCORE.INTRA.VDW>
-2.19612

>  <SCORE.INTRA.VDW.0>
2.32763

>  <SCORE.INTRA.norm>
-0.427395

>  <SCORE.RESTR>
0

>  <SCORE.RESTR.CAVITY>
0

>  <SCORE.RESTR.norm>
0

>  <SCORE.SYSTEM>
0

>  <SCORE.SYSTEM.CONST>
0

>  <SCORE.SYSTEM.DIHEDRAL>
0

>  <SCORE.SYSTEM.SOLV>
0

>  <SCORE.SYSTEM.norm>
0

>  <SCORE.heavy>
17

>  <SCORE.norm>
-0.993557

>  <RMSD>
5.728

$$$$
ligand
 OpenBabel11021811503D
libRbt.so/2013.1/901 2013/11/27
 17 18  0  0  0  0  0  0  0  0999 V2000
    1.5404    5.8161   18.8355 N   0  0  0  0  0  0  0  0  0  0  0  0
    2.9035    5.5521   18.6504 C   0  0  0  0  0  0  0  0  0  0  0  0
    3.5581    6.0004   17.4556 N   0  0  0  0  0  0  0  0  0  0  0  0
    3.6389    4.8745   19.5988 N   0  0  0  0  0  0  0  0  0  0  0  0
    3.0538    4.4262   20.7649 C   0  0  0  0  0  0  0  0  0  0  0  0
    1.6637    4.6622   21.0040 C   0  0  0  0  0  0  0  0  0  0  0  0
    3.7186    3.8286   21.5898 O   0  0  0  0  0  0  0  0  0  0  0  0
    1.0073    4.1988   22.2239 N   0  0  0  0  0  0  0  0  0  0  0  0
   -0.3175    4.6192   22.5111 C   0  0  2  0  0  0  0  0  0  0  0  0
   -1.1651    4.9102   21.2439 C   0  0  0  0  0  0  0  0  0  0  0  0
    0.9211    5.3708   20.0121 C   0  0  0  0  0  0  0  0  0  0  0  0
   -0.5131    5.6289   20.2378 N   0  0  0  0  0  0  0  0  0  0  0  0
   -0.2412    5.7929   23.4704 C   0  0  1  0  0  0  0  0  0  0  0  0
    0.3991    6.8633   22.8783 O   0  0  0  0  0  0  0  0  0  0  0  0
   -1.6158    6.1881   23.9209 C   0  0  1  0  0  0  0  0  0  0  0  0
   -2.2710    5.1323   24.4238 O   0  0  0  0  0  0  0  0  0  0  0  0
   -1.5520    7.2784   25.0115 C   0  0  0  0  0  0  0  0  0  0  0  0
  1  2  2  0  0  0  0
  1 11  1  0  0  0  0
  2  3  1  0  0  0  0
  2  4  1  0  0  0  0
  4  5  1  0  0  0  0
  5  6  1  0  0  0  0
  5  7  2  0  0  0  0
  6  8  1  0  0  0  0
  6 11  2  0  0  0  0
  9  8  1  6  0  0  0
  9 10  1  0  0  0  0
  9 13  1  0  0  0  0
 10 12  1  0  0  0  0
 11 12  1  0  0  0  0
 13 14  1  6  0  0  0
 13 15  1  0  0  0  0
 15 16  1  1  0  0  0
 15 17  1  0  0  0  0
M  END
>  <CHROM.1>
63.35880621,53.70812193,0.82607699,5.37756823,21.47771372,0.73184452,0.43862506
-1.29834864

>  <Name>
ligand

>  <RI>
0

>  <Rbt.Current_Directory>
/home/itssahil/PROJECTS/Mol_Feturizer/New_Systems/rnas/4LVX

>  <Rbt.Executable>
rbdock ($Id: //depot/dev/client3/rdock/2013.1/src/exe/rbdock.cxx#4 $)

>  <Rbt.Library>
libRbt.so (2013.1, Build901 2013/11/27)

>  <Rbt.Parameter_File>
/export/apps/rDock/src/rDock_2013.1_src/data/scripts/dock_solv.prm

>  <Rbt.Receptor>
prm/pocket_docking_3.prm

>  <SCORE>
-17.0516

>  <SCORE.INTER>
-9.83223

>  <SCORE.INTER.CONST>
1

>  <SCORE.INTER.POLAR>
0

>  <SCORE.INTER.ROT>
2

>  <SCORE.INTER.SOLV>
14.6708

>  <SCORE.INTER.VDW>
-16.3784

>  <SCORE.INTER.norm>
-0.578366

>  <SCORE.INTRA>
-7.21939

>  <SCORE.INTRA.DIHEDRAL>
-9.98189

>  <SCORE.INTRA.DIHEDRAL.0>
10.3255

>  <SCORE.INTRA.POLAR>
0

>  <SCORE.INTRA.POLAR.0>
0

>  <SCORE.INTRA.REPUL>
0

>  <SCORE.INTRA.REPUL.0>
0

>  <SCORE.INTRA.SOLV>
-0.113557

>  <SCORE.INTRA.SOLV.lig_0>
-53.4755

>  <SCORE.INTRA.VDW>
-2.17167

>  <SCORE.INTRA.VDW.0>
2.32763

>  <SCORE.INTRA.norm>
-0.42467

>  <SCORE.RESTR>
0

>  <SCORE.RESTR.CAVITY>
0

>  <SCORE.RESTR.norm>
0

>  <SCORE.SYSTEM>
0

>  <SCORE.SYSTEM.CONST>
0

>  <SCORE.SYSTEM.DIHEDRAL>
0

>  <SCORE.SYSTEM.SOLV>
0

>  <SCORE.SYSTEM.norm>
0

>  <SCORE.heavy>
17

>  <SCORE.norm>
-1.00304

>  <RMSD>
5.731

$$$$
ligand
 OpenBabel11021811503D
libRbt.so/2013.1/901 2013/11/27
 17 18  0  0  0  0  0  0  0  0999 V2000
    1.5682    5.8166   18.8583 N   0  0  0  0  0  0  0  0  0  0  0  0
    2.9277    5.5304   18.6796 C   0  0  0  0  0  0  0  0  0  0  0  0
    3.5984    5.9799   17.4941 N   0  0  0  0  0  0  0  0  0  0  0  0
    3.6445    4.8298   19.6255 N   0  0  0  0  0  0  0  0  0  0  0  0
    3.0436    4.3795   20.7827 C   0  0  0  0  0  0  0  0  0  0  0  0
    1.6563    4.6375   21.0151 C   0  0  0  0  0  0  0  0  0  0  0  0
    3.6921    3.7615   21.6055 O   0  0  0  0  0  0  0  0  0  0  0  0
    0.9834    4.1727   22.2255 N   0  0  0  0  0  0  0  0  0  0  0  0
   -0.3357    4.6135   22.5082 C   0  0  2  0  0  0  0  0  0  0  0  0
   -1.1693    4.9330   21.2387 C   0  0  0  0  0  0  0  0  0  0  0  0
    0.9331    5.3698   20.0259 C   0  0  0  0  0  0  0  0  0  0  0  0
   -0.4978    5.6507   20.2448 N   0  0  0  0  0  0  0  0  0  0  0  0
   -0.2454    5.7753   23.4807 C   0  0  1  0  0  0  0  0  0  0  0  0
    0.4118    6.8429   22.9022 O   0  0  0  0  0  0  0  0  0  0  0  0
   -1.6154    6.1850   23.9320 C   0  0  1  0  0  0  0  0  0  0  0  0
   -2.2769    5.1388   24.4467 O   0  0  0  0  0  0  0  0  0  0  0  0
   -1.5397    7.2847   25.0126 C   0  0  0  0  0  0  0  0  0  0  0  0
  1  2  2  0  0  0  0
  1 11  1  0  0  0  0
  2  3  1  0  0  0  0
  2  4  1  0  0  0  0
  4  5  1  0  0  0  0
  5  6  1  0  0  0  0
  5  7  2  0  0  0  0
  6  8  1  0  0  0  0
  6 11  2  0  0  0  0
  9  8  1  6  0  0  0
  9 10  1  0  0  0  0
  9 13  1  0  0  0  0
 10 12  1  0  0  0  0
 11 12  1  0  0  0  0
 13 14  1  6  0  0  0
 13 15  1  0  0  0  0
 15 16  1  1  0  0  0
 15 17  1  0  0  0  0
M  END
>  <CHROM.1>
63.66877504,54.96788273,0.82888662,5.36337267,21.49222848,0.71775103,0.45862316
-1.27718803

>  <Name>
ligand

>  <RI>
0

>  <Rbt.Current_Directory>
/home/itssahil/PROJECTS/Mol_Feturizer/New_Systems/rnas/4LVX

>  <Rbt.Executable>
rbdock ($Id: //depot/dev/client3/rdock/2013.1/src/exe/rbdock.cxx#4 $)

>  <Rbt.Library>
libRbt.so (2013.1, Build901 2013/11/27)

>  <Rbt.Parameter_File>
/export/apps/rDock/src/rDock_2013.1_src/data/scripts/dock_solv.prm

>  <Rbt.Receptor>
prm/pocket_docking_3.prm

>  <SCORE>
-16.9869

>  <SCORE.INTER>
-9.7394

>  <SCORE.INTER.CONST>
1

>  <SCORE.INTER.POLAR>
0

>  <SCORE.INTER.ROT>
2

>  <SCORE.INTER.SOLV>
14.882

>  <SCORE.INTER.VDW>
-16.3869

>  <SCORE.INTER.norm>
-0.572906

>  <SCORE.INTRA>
-7.2475

>  <SCORE.INTRA.DIHEDRAL>
-10.0282

>  <SCORE.INTRA.DIHEDRAL.0>
10.3255

>  <SCORE.INTRA.POLAR>
0

>  <SCORE.INTRA.POLAR.0>
0

>  <SCORE.INTRA.REPUL>
0

>  <SCORE.INTRA.REPUL.0>
0

>  <SCORE.INTRA.SOLV>
-0.121967

>  <SCORE.INTRA.SOLV.lig_0>
-53.4755

>  <SCORE.INTRA.VDW>
-2.17239

>  <SCORE.INTRA.VDW.0>
2.32763

>  <SCORE.INTRA.norm>
-0.426323

>  <SCORE.RESTR>
0

>  <SCORE.RESTR.CAVITY>
0

>  <SCORE.RESTR.norm>
0

>  <SCORE.SYSTEM>
0

>  <SCORE.SYSTEM.CONST>
0

>  <SCORE.SYSTEM.DIHEDRAL>
0

>  <SCORE.SYSTEM.SOLV>
0

>  <SCORE.SYSTEM.norm>
0

>  <SCORE.heavy>
17

>  <SCORE.norm>
-0.999229

>  <RMSD>
5.734

$$$$
ligand
 OpenBabel11021811503D
libRbt.so/2013.1/901 2013/11/27
 17 18  0  0  0  0  0  0  0  0999 V2000
    1.5569    5.8118   18.8419 N   0  0  0  0  0  0  0  0  0  0  0  0
    2.9176    5.5334   18.6598 C   0  0  0  0  0  0  0  0  0  0  0  0
    3.5816    5.9825   17.4704 N   0  0  0  0  0  0  0  0  0  0  0  0
    3.6417    4.8410   19.6061 N   0  0  0  0  0  0  0  0  0  0  0  0
    3.0474    4.3914   20.7669 C   0  0  0  0  0  0  0  0  0  0  0  0
    1.6593    4.6416   21.0028 C   0  0  0  0  0  0  0  0  0  0  0  0
    3.7024    3.7806   21.5900 O   0  0  0  0  0  0  0  0  0  0  0  0
    0.9932    4.1773   22.2172 N   0  0  0  0  0  0  0  0  0  0  0  0
   -0.3277    4.6109   22.5025 C   0  0  2  0  0  0  0  0  0  0  0  0
   -1.1674    4.9203   21.2345 C   0  0  0  0  0  0  0  0  0  0  0  0
    0.9284    5.3655   20.0132 C   0  0  0  0  0  0  0  0  0  0  0  0
   -0.5036    5.6384   20.2356 N   0  0  0  0  0  0  0  0  0  0  0  0
   -0.2415    5.7770   23.4703 C   0  0  1  0  0  0  0  0  0  0  0  0
    0.4071    6.8465   22.8855 O   0  0  0  0  0  0  0  0  0  0  0  0
   -1.6126    6.1800   23.9244 C   0  0  1  0  0  0  0  0  0  0  0  0
   -2.2592    5.1360   24.4617 O   0  0  0  0  0  0  0  0  0  0  0  0
   -1.5411    7.2989   24.9852 C   0  0  0  0  0  0  0  0  0  0  0  0
  1  2  2  0  0  0  0
  1 11  1  0  0  0  0
  2  3  1  0  0  0  0
  2  4  1  0  0  0  0
  4  5  1  0  0  0  0
  5  6  1  0  0  0  0
  5  7  2  0  0  0  0
  6  8  1  0  0  0  0
  6 11  2  0  0  0  0
  9  8  1  6  0  0  0
  9 10  1  0  0  0  0
  9 13  1  0  0  0  0
 10 12  1  0  0  0  0
 11 12  1  0  0  0  0
 13 14  1  6  0  0  0
 13 15  1  0  0  0  0
 15 16  1  1  0  0  0
 15 17  1  0  0  0  0
M  END
>  <CHROM.1>
63.66522070,55.80972235,0.82929610,5.36539189,21.48002353,0.72180957,0.45654172
-1.28073752

>  <Name>
ligand

>  <RI>
0

>  <Rbt.Current_Directory>
/home/itssahil/PROJECTS/Mol_Feturizer/New_Systems/rnas/4LVX

>  <Rbt.Executable>
rbdock ($Id: //depot/dev/client3/rdock/2013.1/src/exe/rbdock.cxx#4 $)

>  <Rbt.Library>
libRbt.so (2013.1, Build901 2013/11/27)

>  <Rbt.Parameter_File>
/export/apps/rDock/src/rDock_2013.1_src/data/scripts/dock_solv.prm

>  <Rbt.Receptor>
prm/pocket_docking_3.prm

>  <SCORE>
-16.9845

>  <SCORE.INTER>
-9.73323

>  <SCORE.INTER.CONST>
1

>  <SCORE.INTER.POLAR>
0

>  <SCORE.INTER.ROT>
2

>  <SCORE.INTER.SOLV>
14.8613

>  <SCORE.INTER.VDW>
-16.3759

>  <SCORE.INTER.norm>
-0.572543

>  <SCORE.INTRA>
-7.25686

>  <SCORE.INTRA.DIHEDRAL>
-10.058

>  <SCORE.INTRA.DIHEDRAL.0>
10.3255

>  <SCORE.INTRA.POLAR>
0

>  <SCORE.INTRA.POLAR.0>
0

>  <SCORE.INTRA.REPUL>
0

>  <SCORE.INTRA.REPUL.0>
0

>  <SCORE.INTRA.SOLV>
-0.126502

>  <SCORE.INTRA.SOLV.lig_0>
-53.4755

>  <SCORE.INTRA.VDW>
-2.16462

>  <SCORE.INTRA.VDW.0>
2.32763

>  <SCORE.INTRA.norm>
-0.426874

>  <SCORE.RESTR>
0.00558622

>  <SCORE.RESTR.CAVITY>
0.00558622

>  <SCORE.RESTR.norm>
0.000328601

>  <SCORE.SYSTEM>
0

>  <SCORE.SYSTEM.CONST>
0

>  <SCORE.SYSTEM.DIHEDRAL>
0

>  <SCORE.SYSTEM.SOLV>
0

>  <SCORE.SYSTEM.norm>
0

>  <SCORE.heavy>
17

>  <SCORE.norm>
-0.999088

>  <RMSD>
5.735

$$$$
ligand
 OpenBabel11021811503D
libRbt.so/2013.1/901 2013/11/27
 17 18  0  0  0  0  0  0  0  0999 V2000
    1.5713    5.7946   18.8573 N   0  0  0  0  0  0  0  0  0  0  0  0
    2.9330    5.5166   18.6823 C   0  0  0  0  0  0  0  0  0  0  0  0
    3.6018    5.9612   17.4938 N   0  0  0  0  0  0  0  0  0  0  0  0
    3.6536    4.8287   19.6346 N   0  0  0  0  0  0  0  0  0  0  0  0
    3.0546    4.3836   20.7947 C   0  0  0  0  0  0  0  0  0  0  0  0
    1.6653    4.6336   21.0236 C   0  0  0  0  0  0  0  0  0  0  0  0
    3.7065    3.7768   21.6232 O   0  0  0  0  0  0  0  0  0  0  0  0
    0.9943    4.1740   22.2370 N   0  0  0  0  0  0  0  0  0  0  0  0
   -0.3282    4.6077   22.5148 C   0  0  2  0  0  0  0  0  0  0  0  0
   -1.1626    4.9110   21.2418 C   0  0  0  0  0  0  0  0  0  0  0  0
    0.9381    5.3528   20.0278 C   0  0  0  0  0  0  0  0  0  0  0  0
   -0.4951    5.6254   20.2428 N   0  0  0  0  0  0  0  0  0  0  0  0
   -0.2471    5.7779   23.4779 C   0  0  1  0  0  0  0  0  0  0  0  0
    0.3925    6.8496   22.8873 O   0  0  0  0  0  0  0  0  0  0  0  0
   -1.6196    6.1732   23.9346 C   0  0  1  0  0  0  0  0  0  0  0  0
   -2.2794    5.1136   24.4233 O   0  0  0  0  0  0  0  0  0  0  0  0
   -1.5502    7.2481   25.0401 C   0  0  0  0  0  0  0  0  0  0  0  0
  1  2  2  0  0  0  0
  1 11  1  0  0  0  0
  2  3  1  0  0  0  0
  2  4  1  0  0  0  0
  4  5  1  0  0  0  0
  5  6  1  0  0  0  0
  5  7  2  0  0  0  0
  6  8  1  0  0  0  0
  6 11  2  0  0  0  0
  9  8  1  6  0  0  0
  9 10  1  0  0  0  0
  9 13  1  0  0  0  0
 10 12  1  0  0  0  0
 11 12  1  0  0  0  0
 13 14  1  6  0  0  0
 13 15  1  0  0  0  0
 15 16  1  1  0  0  0
 15 17  1  0  0  0  0
M  END
>  <CHROM.1>
64.20638188,53.06380811,0.83150591,5.35315357,21.49545031,0.72299082,0.44553662
-1.29045564

>  <Name>
ligand

>  <RI>
0

>  <Rbt.Current_Directory>
/home/itssahil/PROJECTS/Mol_Feturizer/New_Systems/rnas/4LVX

>  <Rbt.Executable>
rbdock ($Id: //depot/dev/client3/rdock/2013.1/src/exe/rbdock.cxx#4 $)

>  <Rbt.Library>
libRbt.so (2013.1, Build901 2013/11/27)

>  <Rbt.Parameter_File>
/export/apps/rDock/src/rDock_2013.1_src/data/scripts/dock_solv.prm

>  <Rbt.Receptor>
prm/pocket_docking_3.prm

>  <SCORE>
-17.0104

>  <SCORE.INTER>
-9.79146

>  <SCORE.INTER.CONST>
1

>  <SCORE.INTER.POLAR>
0

>  <SCORE.INTER.ROT>
2

>  <SCORE.INTER.SOLV>
14.9486

>  <SCORE.INTER.VDW>
-16.4438

>  <SCORE.INTER.norm>
-0.575968

>  <SCORE.INTRA>
-7.21896

>  <SCORE.INTRA.DIHEDRAL>
-9.92837

>  <SCORE.INTRA.DIHEDRAL.0>
10.3255

>  <SCORE.INTRA.POLAR>
0

>  <SCORE.INTRA.POLAR.0>
0

>  <SCORE.INTRA.REPUL>
0

>  <SCORE.INTRA.REPUL.0>
0

>  <SCORE.INTRA.SOLV>
-0.114539

>  <SCORE.INTRA.SOLV.lig_0>
-53.4755

>  <SCORE.INTRA.VDW>
-2.1975

>  <SCORE.INTRA.VDW.0>
2.32763

>  <SCORE.INTRA.norm>
-0.424644

>  <SCORE.RESTR>
0

>  <SCORE.RESTR.CAVITY>
0

>  <SCORE.RESTR.norm>
0

>  <SCORE.SYSTEM>
0

>  <SCORE.SYSTEM.CONST>
0

>  <SCORE.SYSTEM.DIHEDRAL>
0

>  <SCORE.SYSTEM.SOLV>
0

>  <SCORE.SYSTEM.norm>
0

>  <SCORE.heavy>
17

>  <SCORE.norm>
-1.00061

>  <RMSD>
5.735

$$$$
ligand
 OpenBabel11021811503D
libRbt.so/2013.1/901 2013/11/27
 17 18  0  0  0  0  0  0  0  0999 V2000
    1.0072    6.8574   18.2948 N   0  0  0  0  0  0  0  0  0  0  0  0
    1.4623    5.6512   17.7469 C   0  0  0  0  0  0  0  0  0  0  0  0
    2.0258    5.6380   16.4280 N   0  0  0  0  0  0  0  0  0  0  0  0
    1.3893    4.4694   18.4522 N   0  0  0  0  0  0  0  0  0  0  0  0
    0.8580    4.4328   19.7247 C   0  0  0  0  0  0  0  0  0  0  0  0
    0.3722    5.6333   20.3315 C   0  0  0  0  0  0  0  0  0  0  0  0
    0.8006    3.3801   20.3312 O   0  0  0  0  0  0  0  0  0  0  0  0
   -0.2018    5.6341   21.6748 N   0  0  0  0  0  0  0  0  0  0  0  0
   -0.4915    6.8680   22.3133 C   0  0  2  0  0  0  0  0  0  0  0  0
   -0.8449    8.0110   21.3247 C   0  0  0  0  0  0  0  0  0  0  0  0
    0.4622    6.8477   19.5868 C   0  0  0  0  0  0  0  0  0  0  0  0
   -0.0294    8.0990   20.1928 N   0  0  0  0  0  0  0  0  0  0  0  0
    0.6656    7.2031   23.2366 C   0  0  1  0  0  0  0  0  0  0  0  0
    1.7776    7.5738   22.5069 O   0  0  0  0  0  0  0  0  0  0  0  0
    0.2746    8.2948   24.1874 C   0  0  1  0  0  0  0  0  0  0  0  0
   -0.8324    7.9588   24.8645 O   0  0  0  0  0  0  0  0  0  0  0  0
    1.3978    8.5715   25.2093 C   0  0  0  0  0  0  0  0  0  0  0  0
  1  2  2  0  0  0  0
  1 11  1  0  0  0  0
  2  3  1  0  0  0  0
  2  4  1  0  0  0  0
  4  5  1  0  0  0  0
  5  6  1  0  0  0  0
  5  7  2  0  0  0  0
  6  8  1  0  0  0  0
  6 11  2  0  0  0  0
  9  8  1  6  0  0  0
  9 10  1  0  0  0  0
  9 13  1  0  0  0  0
 10 12  1  0  0  0  0
 11 12  1  0  0  0  0
 13 14  1  6  0  0  0
 13 15  1  0  0  0  0
 15 16  1  1  0  0  0
 15 17  1  0  0  0  0
M  END
>  <CHROM.1>
71.81131255,55.21700665,0.59579537,6.55872386,21.05093502,-0.19673035,1.41651711
-0.23755994

>  <Name>
ligand

>  <RI>
0

>  <Rbt.Current_Directory>
/home/itssahil/PROJECTS/Mol_Feturizer/New_Systems/rnas/4LVX

>  <Rbt.Executable>
rbdock ($Id: //depot/dev/client3/rdock/2013.1/src/exe/rbdock.cxx#4 $)

>  <Rbt.Library>
libRbt.so (2013.1, Build901 2013/11/27)

>  <Rbt.Parameter_File>
/export/apps/rDock/src/rDock_2013.1_src/data/scripts/dock_solv.prm

>  <Rbt.Receptor>
prm/pocket_docking_7.prm

>  <SCORE>
-14.8039

>  <SCORE.INTER>
-7.62687

>  <SCORE.INTER.CONST>
1

>  <SCORE.INTER.POLAR>
0

>  <SCORE.INTER.ROT>
2

>  <SCORE.INTER.SOLV>
8.17242

>  <SCORE.INTER.VDW>
-12.7421

>  <SCORE.INTER.norm>
-0.44864

>  <SCORE.INTRA>
-7.17705

>  <SCORE.INTRA.DIHEDRAL>
-9.61545

>  <SCORE.INTRA.DIHEDRAL.0>
10.3255

>  <SCORE.INTRA.POLAR>
0

>  <SCORE.INTRA.POLAR.0>
0

>  <SCORE.INTRA.REPUL>
0

>  <SCORE.INTRA.REPUL.0>
0

>  <SCORE.INTRA.SOLV>
-0.164664

>  <SCORE.INTRA.SOLV.lig_0>
-53.4755

>  <SCORE.INTRA.VDW>
-2.28699

>  <SCORE.INTRA.VDW.0>
2.32763

>  <SCORE.INTRA.norm>
-0.42218

>  <SCORE.RESTR>
0

>  <SCORE.RESTR.CAVITY>
0

>  <SCORE.RESTR.norm>
0

>  <SCORE.SYSTEM>
0

>  <SCORE.SYSTEM.CONST>
0

>  <SCORE.SYSTEM.DIHEDRAL>
0

>  <SCORE.SYSTEM.SOLV>
0

>  <SCORE.SYSTEM.norm>
0

>  <SCORE.heavy>
17

>  <SCORE.norm>
-0.870819

>  <RMSD>
5.736

$$$$
ligand
 OpenBabel11021811503D
libRbt.so/2013.1/901 2013/11/27
 17 18  0  0  0  0  0  0  0  0999 V2000
    1.5721    5.8022   18.8505 N   0  0  0  0  0  0  0  0  0  0  0  0
    2.9319    5.5106   18.6832 C   0  0  0  0  0  0  0  0  0  0  0  0
    3.6125    5.9509   17.4999 N   0  0  0  0  0  0  0  0  0  0  0  0
    3.6395    4.8133   19.6383 N   0  0  0  0  0  0  0  0  0  0  0  0
    3.0289    4.3717   20.7938 C   0  0  0  0  0  0  0  0  0  0  0  0
    1.6408    4.6355   21.0147 C   0  0  0  0  0  0  0  0  0  0  0  0
    3.6694    3.7565   21.6248 O   0  0  0  0  0  0  0  0  0  0  0  0
    0.9577    4.1801   22.2229 N   0  0  0  0  0  0  0  0  0  0  0  0
   -0.3620    4.6267   22.4936 C   0  0  2  0  0  0  0  0  0  0  0  0
   -1.1854    4.9414   21.2162 C   0  0  0  0  0  0  0  0  0  0  0  0
    0.9271    5.3643   20.0160 C   0  0  0  0  0  0  0  0  0  0  0  0
   -0.5044    5.6511   20.2229 N   0  0  0  0  0  0  0  0  0  0  0  0
   -0.2748    5.7939   23.4598 C   0  0  1  0  0  0  0  0  0  0  0  0
    0.3591    6.8682   22.8678 O   0  0  0  0  0  0  0  0  0  0  0  0
   -1.6442    6.1862   23.9282 C   0  0  1  0  0  0  0  0  0  0  0  0
   -2.2937    5.1273   24.4318 O   0  0  0  0  0  0  0  0  0  0  0  0
   -1.5681    7.2697   25.0249 C   0  0  0  0  0  0  0  0  0  0  0  0
  1  2  2  0  0  0  0
  1 11  1  0  0  0  0
  2  3  1  0  0  0  0
  2  4  1  0  0  0  0
  4  5  1  0  0  0  0
  5  6  1  0  0  0  0
  5  7  2  0  0  0  0
  6  8  1  0  0  0  0
  6 11  2  0  0  0  0
  9  8  1  6  0  0  0
  9 10  1  0  0  0  0
  9 13  1  0  0  0  0
 10 12  1  0  0  0  0
 11 12  1  0  0  0  0
 13 14  1  6  0  0  0
 13 15  1  0  0  0  0
 15 16  1  1  0  0  0
 15 17  1  0  0  0  0
M  END
>  <CHROM.1>
65.22871789,53.73263654,0.81232233,5.36044462,21.48685158,0.71427947,0.45742877
-1.27909530

>  <Name>
ligand

>  <RI>
0

>  <Rbt.Current_Directory>
/home/itssahil/PROJECTS/Mol_Feturizer/New_Systems/rnas/4LVX

>  <Rbt.Executable>
rbdock ($Id: //depot/dev/client3/rdock/2013.1/src/exe/rbdock.cxx#4 $)

>  <Rbt.Library>
libRbt.so (2013.1, Build901 2013/11/27)

>  <Rbt.Parameter_File>
/export/apps/rDock/src/rDock_2013.1_src/data/scripts/dock_solv.prm

>  <Rbt.Receptor>
prm/pocket_docking_3.prm

>  <SCORE>
-16.9968

>  <SCORE.INTER>
-9.75232

>  <SCORE.INTER.CONST>
1

>  <SCORE.INTER.POLAR>
0

>  <SCORE.INTER.ROT>
2

>  <SCORE.INTER.SOLV>
15.0592

>  <SCORE.INTER.VDW>
-16.4546

>  <SCORE.INTER.norm>
-0.573666

>  <SCORE.INTRA>
-7.24598

>  <SCORE.INTRA.DIHEDRAL>
-9.92847

>  <SCORE.INTRA.DIHEDRAL.0>
10.3255

>  <SCORE.INTRA.POLAR>
0

>  <SCORE.INTRA.POLAR.0>
0

>  <SCORE.INTRA.REPUL>
0

>  <SCORE.INTRA.REPUL.0>
0

>  <SCORE.INTRA.SOLV>
-0.123436

>  <SCORE.INTRA.SOLV.lig_0>
-53.4755

>  <SCORE.INTRA.VDW>
-2.22002

>  <SCORE.INTRA.VDW.0>
2.32763

>  <SCORE.INTRA.norm>
-0.426234

>  <SCORE.RESTR>
0.00153702

>  <SCORE.RESTR.CAVITY>
0.00153702

>  <SCORE.RESTR.norm>
9.04129e-05

>  <SCORE.SYSTEM>
0

>  <SCORE.SYSTEM.CONST>
0

>  <SCORE.SYSTEM.DIHEDRAL>
0

>  <SCORE.SYSTEM.SOLV>
0

>  <SCORE.SYSTEM.norm>
0

>  <SCORE.heavy>
17

>  <SCORE.norm>
-0.99981

>  <RMSD>
5.738

$$$$
ligand
 OpenBabel11021811503D
libRbt.so/2013.1/901 2013/11/27
 17 18  0  0  0  0  0  0  0  0999 V2000
    1.5729    5.7565   18.8482 N   0  0  0  0  0  0  0  0  0  0  0  0
    2.9347    5.4777   18.6760 C   0  0  0  0  0  0  0  0  0  0  0  0
    3.6030    5.9099   17.4828 N   0  0  0  0  0  0  0  0  0  0  0  0
    3.6560    4.8008   19.6356 N   0  0  0  0  0  0  0  0  0  0  0  0
    3.0576    4.3677   20.8007 C   0  0  0  0  0  0  0  0  0  0  0  0
    1.6680    4.6191   21.0270 C   0  0  0  0  0  0  0  0  0  0  0  0
    3.7100    3.7705   21.6356 O   0  0  0  0  0  0  0  0  0  0  0  0
    0.9976    4.1721   22.2454 N   0  0  0  0  0  0  0  0  0  0  0  0
   -0.3252    4.6078   22.5186 C   0  0  2  0  0  0  0  0  0  0  0  0
   -1.1601    4.8966   21.2426 C   0  0  0  0  0  0  0  0  0  0  0  0
    0.9401    5.3269   20.0235 C   0  0  0  0  0  0  0  0  0  0  0  0
   -0.4932    5.6006   20.2358 N   0  0  0  0  0  0  0  0  0  0  0  0
   -0.2449    5.7884   23.4690 C   0  0  1  0  0  0  0  0  0  0  0  0
    0.3990    6.8521   22.8688 O   0  0  0  0  0  0  0  0  0  0  0  0
   -1.6182    6.1917   23.9164 C   0  0  1  0  0  0  0  0  0  0  0  0
   -2.2738    5.1439   24.4353 O   0  0  0  0  0  0  0  0  0  0  0  0
   -1.5510    7.2971   24.9916 C   0  0  0  0  0  0  0  0  0  0  0  0
  1  2  2  0  0  0  0
  1 11  1  0  0  0  0
  2  3  1  0  0  0  0
  2  4  1  0  0  0  0
  4  5  1  0  0  0  0
  5  6  1  0  0  0  0
  5  7  2  0  0  0  0
  6  8  1  0  0  0  0
  6 11  2  0  0  0  0
  9  8  1  6  0  0  0
  9 10  1  0  0  0  0
  9 13  1  0  0  0  0
 10 12  1  0  0  0  0
 11 12  1  0  0  0  0
 13 14  1  6  0  0  0
 13 15  1  0  0  0  0
 15 16  1  1  0  0  0
 15 17  1  0  0  0  0
M  END
>  <CHROM.1>
63.93673250,54.10752641,0.83415946,5.34537967,21.49037883,0.72115940,0.44813542
-1.29883952

>  <Name>
ligand

>  <RI>
0

>  <Rbt.Current_Directory>
/home/itssahil/PROJECTS/Mol_Feturizer/New_Systems/rnas/4LVX

>  <Rbt.Executable>
rbdock ($Id: //depot/dev/client3/rdock/2013.1/src/exe/rbdock.cxx#4 $)

>  <Rbt.Library>
libRbt.so (2013.1, Build901 2013/11/27)

>  <Rbt.Parameter_File>
/export/apps/rDock/src/rDock_2013.1_src/data/scripts/dock_solv.prm

>  <Rbt.Receptor>
prm/pocket_docking_3.prm

>  <SCORE>
-17.0242

>  <SCORE.INTER>
-9.78625

>  <SCORE.INTER.CONST>
1

>  <SCORE.INTER.POLAR>
0

>  <SCORE.INTER.ROT>
2

>  <SCORE.INTER.SOLV>
15.1347

>  <SCORE.INTER.VDW>
-16.5024

>  <SCORE.INTER.norm>
-0.575662

>  <SCORE.INTRA>
-7.23791

>  <SCORE.INTRA.DIHEDRAL>
-9.98583

>  <SCORE.INTRA.DIHEDRAL.0>
10.3255

>  <SCORE.INTRA.POLAR>
0

>  <SCORE.INTRA.POLAR.0>
0

>  <SCORE.INTRA.REPUL>
0

>  <SCORE.INTRA.REPUL.0>
0

>  <SCORE.INTRA.SOLV>
-0.118722

>  <SCORE.INTRA.SOLV.lig_0>
-53.4755

>  <SCORE.INTRA.VDW>
-2.18563

>  <SCORE.INTRA.VDW.0>
2.32763

>  <SCORE.INTRA.norm>
-0.425759

>  <SCORE.RESTR>
0

>  <SCORE.RESTR.CAVITY>
0

>  <SCORE.RESTR.norm>
0

>  <SCORE.SYSTEM>
0

>  <SCORE.SYSTEM.CONST>
0

>  <SCORE.SYSTEM.DIHEDRAL>
0

>  <SCORE.SYSTEM.SOLV>
0

>  <SCORE.SYSTEM.norm>
0

>  <SCORE.heavy>
17

>  <SCORE.norm>
-1.00142

>  <RMSD>
5.738

$$$$
ligand
 OpenBabel11021811503D
libRbt.so/2013.1/901 2013/11/27
 17 18  0  0  0  0  0  0  0  0999 V2000
    1.5440    5.9108   18.8470 N   0  0  0  0  0  0  0  0  0  0  0  0
    2.8887    5.5598   18.6720 C   0  0  0  0  0  0  0  0  0  0  0  0
    3.5941    6.0082   17.5064 N   0  0  0  0  0  0  0  0  0  0  0  0
    3.5584    4.7955   19.6031 N   0  0  0  0  0  0  0  0  0  0  0  0
    2.9229    4.3434   20.7409 C   0  0  0  0  0  0  0  0  0  0  0  0
    1.5484    4.6662   20.9684 C   0  0  0  0  0  0  0  0  0  0  0  0
    3.5299    3.6688   21.5508 O   0  0  0  0  0  0  0  0  0  0  0  0
    0.8397    4.2018   22.1583 N   0  0  0  0  0  0  0  0  0  0  0  0
   -0.4578    4.7020   22.4422 C   0  0  2  0  0  0  0  0  0  0  0  0
   -1.2604    5.1013   21.1753 C   0  0  0  0  0  0  0  0  0  0  0  0
    0.8744    5.4636   19.9950 C   0  0  0  0  0  0  0  0  0  0  0  0
   -0.5423    5.8120   20.2092 N   0  0  0  0  0  0  0  0  0  0  0  0
   -0.3178    5.8287   23.4496 C   0  0  1  0  0  0  0  0  0  0  0  0
    0.3384    6.9050   22.8863 O   0  0  0  0  0  0  0  0  0  0  0  0
   -1.6661    6.2440   23.9578 C   0  0  1  0  0  0  0  0  0  0  0  0
   -2.3141    5.1982   24.4902 O   0  0  0  0  0  0  0  0  0  0  0  0
   -1.5401    7.3345   25.0429 C   0  0  0  0  0  0  0  0  0  0  0  0
  1  2  2  0  0  0  0
  1 11  1  0  0  0  0
  2  3  1  0  0  0  0
  2  4  1  0  0  0  0
  4  5  1  0  0  0  0
  5  6  1  0  0  0  0
  5  7  2  0  0  0  0
  6  8  1  0  0  0  0
  6 11  2  0  0  0  0
  9  8  1  6  0  0  0
  9 10  1  0  0  0  0
  9 13  1  0  0  0  0
 10 12  1  0  0  0  0
 11 12  1  0  0  0  0
 13 14  1  6  0  0  0
 13 15  1  0  0  0  0
 15 16  1  1  0  0  0
 15 17  1  0  0  0  0
M  END
>  <CHROM.1>
66.81479823,56.60420922,0.75629152,5.41239702,21.47063908,0.69219144,0.51448946
-1.22065833

>  <Name>
ligand

>  <RI>
0

>  <Rbt.Current_Directory>
/home/itssahil/PROJECTS/Mol_Feturizer/New_Systems/rnas/4LVX

>  <Rbt.Executable>
rbdock ($Id: //depot/dev/client3/rdock/2013.1/src/exe/rbdock.cxx#4 $)

>  <Rbt.Library>
libRbt.so (2013.1, Build901 2013/11/27)

>  <Rbt.Parameter_File>
/export/apps/rDock/src/rDock_2013.1_src/data/scripts/dock_solv.prm

>  <Rbt.Receptor>
prm/pocket_docking_3.prm

>  <SCORE>
-16.9652

>  <SCORE.INTER>
-9.69629

>  <SCORE.INTER.CONST>
1

>  <SCORE.INTER.POLAR>
0

>  <SCORE.INTER.ROT>
2

>  <SCORE.INTER.SOLV>
14.967

>  <SCORE.INTER.VDW>
-16.3865

>  <SCORE.INTER.norm>
-0.57037

>  <SCORE.INTRA>
-7.26895

>  <SCORE.INTRA.DIHEDRAL>
-9.96918

>  <SCORE.INTRA.DIHEDRAL.0>
10.3255

>  <SCORE.INTRA.POLAR>
0

>  <SCORE.INTRA.POLAR.0>
0

>  <SCORE.INTRA.REPUL>
0

>  <SCORE.INTRA.REPUL.0>
0

>  <SCORE.INTRA.SOLV>
-0.146803

>  <SCORE.INTRA.SOLV.lig_0>
-53.4755

>  <SCORE.INTRA.VDW>
-2.21096

>  <SCORE.INTRA.VDW.0>
2.32763

>  <SCORE.INTRA.norm>
-0.427585

>  <SCORE.RESTR>
0

>  <SCORE.RESTR.CAVITY>
0

>  <SCORE.RESTR.norm>
0

>  <SCORE.SYSTEM>
0

>  <SCORE.SYSTEM.CONST>
0

>  <SCORE.SYSTEM.DIHEDRAL>
0

>  <SCORE.SYSTEM.SOLV>
0

>  <SCORE.SYSTEM.norm>
0

>  <SCORE.heavy>
17

>  <SCORE.norm>
-0.997955

>  <RMSD>
5.739

$$$$
ligand
 OpenBabel11021811503D
libRbt.so/2013.1/901 2013/11/27
 17 18  0  0  0  0  0  0  0  0999 V2000
    2.2922    6.5992   20.2031 N   0  0  0  0  0  0  0  0  0  0  0  0
    2.6721    5.4475   19.5021 C   0  0  0  0  0  0  0  0  0  0  0  0
    3.8390    5.4757   18.6686 N   0  0  0  0  0  0  0  0  0  0  0  0
    1.9520    4.2766   19.6008 N   0  0  0  0  0  0  0  0  0  0  0  0
    0.8245    4.2002   20.3918 C   0  0  0  0  0  0  0  0  0  0  0  0
    0.3865    5.3472   21.1252 C   0  0  0  0  0  0  0  0  0  0  0  0
    0.2008    3.1585   20.4653 O   0  0  0  0  0  0  0  0  0  0  0  0
   -0.8050    5.3071   21.9694 N   0  0  0  0  0  0  0  0  0  0  0  0
   -1.0942    6.4000   22.8274 C   0  0  2  0  0  0  0  0  0  0  0  0
   -0.5732    7.7618   22.2957 C   0  0  0  0  0  0  0  0  0  0  0  0
    1.1494    6.5485   21.0142 C   0  0  0  0  0  0  0  0  0  0  0  0
    0.7192    7.7435   21.7634 N   0  0  0  0  0  0  0  0  0  0  0  0
   -0.5834    6.0570   24.2149 C   0  0  1  0  0  0  0  0  0  0  0  0
    0.7881    6.2035   24.2775 O   0  0  0  0  0  0  0  0  0  0  0  0
   -1.2504    6.9199   25.2440 C   0  0  1  0  0  0  0  0  0  0  0  0
   -1.0464    8.2177   24.9777 O   0  0  0  0  0  0  0  0  0  0  0  0
   -2.7731    6.6697   25.2779 C   0  0  0  0  0  0  0  0  0  0  0  0
  1  2  2  0  0  0  0
  1 11  1  0  0  0  0
  2  3  1  0  0  0  0
  2  4  1  0  0  0  0
  4  5  1  0  0  0  0
  5  6  1  0  0  0  0
  5  7  2  0  0  0  0
  6  8  1  0  0  0  0
  6 11  2  0  0  0  0
  9  8  1  6  0  0  0
  9 10  1  0  0  0  0
  9 13  1  0  0  0  0
 10 12  1  0  0  0  0
 11 12  1  0  0  0  0
 13 14  1  6  0  0  0
 13 15  1  0  0  0  0
 15 16  1  6  0  0  0
 15 17  1  0  0  0  0
M  END
>  <CHROM.1>
76.85768800,-57.45172816,0.35736052,6.03458710,22.05957882,-0.72909885,0.74718411
0.53752466

>  <Name>
ligand

>  <RI>
0

>  <Rbt.Current_Directory>
/home/itssahil/PROJECTS/Mol_Feturizer/New_Systems/rnas/4LVX

>  <Rbt.Executable>
rbdock ($Id: //depot/dev/client3/rdock/2013.1/src/exe/rbdock.cxx#4 $)

>  <Rbt.Library>
libRbt.so (2013.1, Build901 2013/11/27)

>  <Rbt.Parameter_File>
/export/apps/rDock/src/rDock_2013.1_src/data/scripts/dock_solv.prm

>  <Rbt.Receptor>
prm/pocket_docking_3.prm

>  <SCORE>
-14.8589

>  <SCORE.INTER>
-9.37121

>  <SCORE.INTER.CONST>
1

>  <SCORE.INTER.POLAR>
0

>  <SCORE.INTER.ROT>
2

>  <SCORE.INTER.SOLV>
15.2039

>  <SCORE.INTER.VDW>
-16.2488

>  <SCORE.INTER.norm>
-0.551248

>  <SCORE.INTRA>
-5.48767

>  <SCORE.INTRA.DIHEDRAL>
-9.22962

>  <SCORE.INTRA.DIHEDRAL.0>
10.3255

>  <SCORE.INTRA.POLAR>
0

>  <SCORE.INTRA.POLAR.0>
0

>  <SCORE.INTRA.REPUL>
0

>  <SCORE.INTRA.REPUL.0>
0

>  <SCORE.INTRA.SOLV>
0.490612

>  <SCORE.INTRA.SOLV.lig_0>
-53.4755

>  <SCORE.INTRA.VDW>
-1.11817

>  <SCORE.INTRA.VDW.0>
2.32763

>  <SCORE.INTRA.norm>
-0.322804

>  <SCORE.RESTR>
0

>  <SCORE.RESTR.CAVITY>
0

>  <SCORE.RESTR.norm>
0

>  <SCORE.SYSTEM>
0

>  <SCORE.SYSTEM.CONST>
0

>  <SCORE.SYSTEM.DIHEDRAL>
0

>  <SCORE.SYSTEM.SOLV>
0

>  <SCORE.SYSTEM.norm>
0

>  <SCORE.heavy>
17

>  <SCORE.norm>
-0.874052

>  <RMSD>
5.740

$$$$
ligand
 OpenBabel11021811503D
libRbt.so/2013.1/901 2013/11/27
 17 18  0  0  0  0  0  0  0  0999 V2000
    1.5610    5.8740   18.8662 N   0  0  0  0  0  0  0  0  0  0  0  0
    2.9031    5.5084   18.7017 C   0  0  0  0  0  0  0  0  0  0  0  0
    3.6209    5.9448   17.5392 N   0  0  0  0  0  0  0  0  0  0  0  0
    3.5584    4.7410   19.6403 N   0  0  0  0  0  0  0  0  0  0  0  0
    2.9107    4.3000   20.7756 C   0  0  0  0  0  0  0  0  0  0  0  0
    1.5381    4.6380   20.9925 C   0  0  0  0  0  0  0  0  0  0  0  0
    3.5051    3.6224   21.5922 O   0  0  0  0  0  0  0  0  0  0  0  0
    0.8166    4.1858   22.1794 N   0  0  0  0  0  0  0  0  0  0  0  0
   -0.4775    4.7006   22.4525 C   0  0  2  0  0  0  0  0  0  0  0  0
   -1.2674    5.1032   21.1786 C   0  0  0  0  0  0  0  0  0  0  0  0
    0.8790    5.4385   20.0114 C   0  0  0  0  0  0  0  0  0  0  0  0
   -0.5354    5.8024   20.2146 N   0  0  0  0  0  0  0  0  0  0  0  0
   -0.3326    5.8298   23.4564 C   0  0  1  0  0  0  0  0  0  0  0  0
    0.3191    6.9055   22.8866 O   0  0  0  0  0  0  0  0  0  0  0  0
   -1.6781    6.2449   23.9718 C   0  0  1  0  0  0  0  0  0  0  0  0
   -2.3224    5.1995   24.5092 O   0  0  0  0  0  0  0  0  0  0  0  0
   -1.5466    7.3369   25.0547 C   0  0  0  0  0  0  0  0  0  0  0  0
  1  2  2  0  0  0  0
  1 11  1  0  0  0  0
  2  3  1  0  0  0  0
  2  4  1  0  0  0  0
  4  5  1  0  0  0  0
  5  6  1  0  0  0  0
  5  7  2  0  0  0  0
  6  8  1  0  0  0  0
  6 11  2  0  0  0  0
  9  8  1  6  0  0  0
  9 10  1  0  0  0  0
  9 13  1  0  0  0  0
 10 12  1  0  0  0  0
 11 12  1  0  0  0  0
 13 14  1  6  0  0  0
 13 15  1  0  0  0  0
 15 16  1  1  0  0  0
 15 17  1  0  0  0  0
M  END
>  <CHROM.1>
67.80396106,56.53541997,0.75076899,5.39126664,21.48976038,0.68291918,0.52292738
-1.21681022

>  <Name>
ligand

>  <RI>
0

>  <Rbt.Current_Directory>
/home/itssahil/PROJECTS/Mol_Feturizer/New_Systems/rnas/4LVX

>  <Rbt.Executable>
rbdock ($Id: //depot/dev/client3/rdock/2013.1/src/exe/rbdock.cxx#4 $)

>  <Rbt.Library>
libRbt.so (2013.1, Build901 2013/11/27)

>  <Rbt.Parameter_File>
/export/apps/rDock/src/rDock_2013.1_src/data/scripts/dock_solv.prm

>  <Rbt.Receptor>
prm/pocket_docking_3.prm

>  <SCORE>
-16.8731

>  <SCORE.INTER>
-9.60919

>  <SCORE.INTER.CONST>
1

>  <SCORE.INTER.POLAR>
0

>  <SCORE.INTER.ROT>
2

>  <SCORE.INTER.SOLV>
15.327

>  <SCORE.INTER.VDW>
-16.4485

>  <SCORE.INTER.norm>
-0.565246

>  <SCORE.INTRA>
-7.2639

>  <SCORE.INTRA.DIHEDRAL>
-9.91845

>  <SCORE.INTRA.DIHEDRAL.0>
10.3255

>  <SCORE.INTRA.POLAR>
0

>  <SCORE.INTRA.POLAR.0>
0

>  <SCORE.INTRA.REPUL>
0

>  <SCORE.INTRA.REPUL.0>
0

>  <SCORE.INTRA.SOLV>
-0.151422

>  <SCORE.INTRA.SOLV.lig_0>
-53.4755

>  <SCORE.INTRA.VDW>
-2.22896

>  <SCORE.INTRA.VDW.0>
2.32763

>  <SCORE.INTRA.norm>
-0.427288

>  <SCORE.RESTR>
0

>  <SCORE.RESTR.CAVITY>
0

>  <SCORE.RESTR.norm>
0

>  <SCORE.SYSTEM>
0

>  <SCORE.SYSTEM.CONST>
0

>  <SCORE.SYSTEM.DIHEDRAL>
0

>  <SCORE.SYSTEM.SOLV>
0

>  <SCORE.SYSTEM.norm>
0

>  <SCORE.heavy>
17

>  <SCORE.norm>
-0.992535

>  <RMSD>
5.741

$$$$
ligand
 OpenBabel11021811503D
libRbt.so/2013.1/901 2013/11/27
 17 18  0  0  0  0  0  0  0  0999 V2000
    1.2147    6.7745   18.4108 N   0  0  0  0  0  0  0  0  0  0  0  0
    1.6708    5.5552   17.8938 C   0  0  0  0  0  0  0  0  0  0  0  0
    2.3225    5.5244   16.6165 N   0  0  0  0  0  0  0  0  0  0  0  0
    1.5154    4.3765   18.5910 N   0  0  0  0  0  0  0  0  0  0  0  0
    0.8976    4.3565   19.8242 C   0  0  0  0  0  0  0  0  0  0  0  0
    0.4066    5.5711   20.3979 C   0  0  0  0  0  0  0  0  0  0  0  0
    0.7682    3.3064   20.4242 O   0  0  0  0  0  0  0  0  0  0  0  0
   -0.2575    5.5898   21.6988 N   0  0  0  0  0  0  0  0  0  0  0  0
   -0.5541    6.8321   22.3175 C   0  0  2  0  0  0  0  0  0  0  0  0
   -0.8057    7.9841   21.3084 C   0  0  0  0  0  0  0  0  0  0  0  0
    0.5826    6.7818   19.6625 C   0  0  0  0  0  0  0  0  0  0  0  0
    0.0874    8.0473   20.2349 N   0  0  0  0  0  0  0  0  0  0  0  0
    0.5465    7.1341   23.3181 C   0  0  1  0  0  0  0  0  0  0  0  0
    1.7108    7.4899   22.6668 O   0  0  0  0  0  0  0  0  0  0  0  0
    0.1155    8.2234   24.2541 C   0  0  1  0  0  0  0  0  0  0  0  0
   -1.0174    7.8844   24.8854 O   0  0  0  0  0  0  0  0  0  0  0  0
    1.1960    8.5003   25.3210 C   0  0  0  0  0  0  0  0  0  0  0  0
  1  2  2  0  0  0  0
  1 11  1  0  0  0  0
  2  3  1  0  0  0  0
  2  4  1  0  0  0  0
  4  5  1  0  0  0  0
  5  6  1  0  0  0  0
  5  7  2  0  0  0  0
  6  8  1  0  0  0  0
  6 11  2  0  0  0  0
  9  8  1  6  0  0  0
  9 10  1  0  0  0  0
  9 13  1  0  0  0  0
 10 12  1  0  0  0  0
 11 12  1  0  0  0  0
 13 14  1  6  0  0  0
 13 15  1  0  0  0  0
 15 16  1  1  0  0  0
 15 17  1  0  0  0  0
M  END
>  <CHROM.1>
72.65310006,57.18170955,0.60885810,6.48844294,21.13469911,-0.44261337,1.34961422
0.00819991

>  <Name>
ligand

>  <RI>
0

>  <Rbt.Current_Directory>
/home/itssahil/PROJECTS/Mol_Feturizer/New_Systems/rnas/4LVX

>  <Rbt.Executable>
rbdock ($Id: //depot/dev/client3/rdock/2013.1/src/exe/rbdock.cxx#4 $)

>  <Rbt.Library>
libRbt.so (2013.1, Build901 2013/11/27)

>  <Rbt.Parameter_File>
/export/apps/rDock/src/rDock_2013.1_src/data/scripts/dock_solv.prm

>  <Rbt.Receptor>
prm/pocket_docking_8.prm

>  <SCORE>
-14.8186

>  <SCORE.INTER>
-7.65854

>  <SCORE.INTER.CONST>
1

>  <SCORE.INTER.POLAR>
0

>  <SCORE.INTER.ROT>
2

>  <SCORE.INTER.SOLV>
9.19913

>  <SCORE.INTER.VDW>
-13.1054

>  <SCORE.INTER.norm>
-0.450503

>  <SCORE.INTRA>
-7.16001

>  <SCORE.INTRA.DIHEDRAL>
-9.60623

>  <SCORE.INTRA.DIHEDRAL.0>
10.3255

>  <SCORE.INTRA.POLAR>
0

>  <SCORE.INTRA.POLAR.0>
0

>  <SCORE.INTRA.REPUL>
0

>  <SCORE.INTRA.REPUL.0>
0

>  <SCORE.INTRA.SOLV>
-0.17883

>  <SCORE.INTRA.SOLV.lig_0>
-53.4755

>  <SCORE.INTRA.VDW>
-2.26748

>  <SCORE.INTRA.VDW.0>
2.32763

>  <SCORE.INTRA.norm>
-0.421177

>  <SCORE.RESTR>
0

>  <SCORE.RESTR.CAVITY>
0

>  <SCORE.RESTR.norm>
0

>  <SCORE.SYSTEM>
0

>  <SCORE.SYSTEM.CONST>
0

>  <SCORE.SYSTEM.DIHEDRAL>
0

>  <SCORE.SYSTEM.SOLV>
0

>  <SCORE.SYSTEM.norm>
0

>  <SCORE.heavy>
17

>  <SCORE.norm>
-0.871679

>  <RMSD>
5.746

$$$$
ligand
 OpenBabel11021811503D
libRbt.so/2013.1/901 2013/11/27
 17 18  0  0  0  0  0  0  0  0999 V2000
    1.6464    5.8529   18.8474 N   0  0  0  0  0  0  0  0  0  0  0  0
    3.0054    5.5509   18.6927 C   0  0  0  0  0  0  0  0  0  0  0  0
    3.7055    6.0040   17.5257 N   0  0  0  0  0  0  0  0  0  0  0  0
    3.6939    4.8309   19.6450 N   0  0  0  0  0  0  0  0  0  0  0  0
    3.0642    4.3762   20.7850 C   0  0  0  0  0  0  0  0  0  0  0  0
    1.6759    4.6499   20.9925 C   0  0  0  0  0  0  0  0  0  0  0  0
    3.6880    3.7410   21.6138 O   0  0  0  0  0  0  0  0  0  0  0  0
    0.9729    4.1813   22.1841 N   0  0  0  0  0  0  0  0  0  0  0  0
   -0.3458    4.6363   22.4453 C   0  0  2  0  0  0  0  0  0  0  0  0
   -1.1496    4.9802   21.1630 C   0  0  0  0  0  0  0  0  0  0  0  0
    0.9823    5.4021   19.9972 C   0  0  0  0  0  0  0  0  0  0  0  0
   -0.4490    5.6995   20.1905 N   0  0  0  0  0  0  0  0  0  0  0  0
   -0.2600    5.7864   23.4320 C   0  0  1  0  0  0  0  0  0  0  0  0
    0.3748    6.8709   22.8598 O   0  0  0  0  0  0  0  0  0  0  0  0
   -1.6300    6.1705   23.9053 C   0  0  1  0  0  0  0  0  0  0  0  0
   -2.2753    5.1055   24.4016 O   0  0  0  0  0  0  0  0  0  0  0  0
   -1.5560    7.2457   25.0103 C   0  0  0  0  0  0  0  0  0  0  0  0
  1  2  2  0  0  0  0
  1 11  1  0  0  0  0
  2  3  1  0  0  0  0
  2  4  1  0  0  0  0
  4  5  1  0  0  0  0
  5  6  1  0  0  0  0
  5  7  2  0  0  0  0
  6  8  1  0  0  0  0
  6 11  2  0  0  0  0
  9  8  1  6  0  0  0
  9 10  1  0  0  0  0
  9 13  1  0  0  0  0
 10 12  1  0  0  0  0
 11 12  1  0  0  0  0
 13 14  1  6  0  0  0
 13 15  1  0  0  0  0
 15 16  1  1  0  0  0
 15 17  1  0  0  0  0
M  END
>  <CHROM.1>
66.09265548,54.34387962,0.84904495,5.37329866,21.46929869,0.69809043,0.46609656
-1.25067224

>  <Name>
ligand

>  <RI>
0

>  <Rbt.Current_Directory>
/home/itssahil/PROJECTS/Mol_Feturizer/New_Systems/rnas/4LVX

>  <Rbt.Executable>
rbdock ($Id: //depot/dev/client3/rdock/2013.1/src/exe/rbdock.cxx#4 $)

>  <Rbt.Library>
libRbt.so (2013.1, Build901 2013/11/27)

>  <Rbt.Parameter_File>
/export/apps/rDock/src/rDock_2013.1_src/data/scripts/dock_solv.prm

>  <Rbt.Receptor>
prm/pocket_docking_4.prm

>  <SCORE>
-17.1022

>  <SCORE.INTER>
-9.85714

>  <SCORE.INTER.CONST>
1

>  <SCORE.INTER.POLAR>
0

>  <SCORE.INTER.ROT>
2

>  <SCORE.INTER.SOLV>
14.7681

>  <SCORE.INTER.VDW>
-16.4275

>  <SCORE.INTER.norm>
-0.579832

>  <SCORE.INTRA>
-7.24503

>  <SCORE.INTRA.DIHEDRAL>
-9.92258

>  <SCORE.INTRA.DIHEDRAL.0>
10.3255

>  <SCORE.INTRA.POLAR>
0

>  <SCORE.INTRA.POLAR.0>
0

>  <SCORE.INTRA.REPUL>
0

>  <SCORE.INTRA.REPUL.0>
0

>  <SCORE.INTRA.SOLV>
-0.131145

>  <SCORE.INTRA.SOLV.lig_0>
-53.4755

>  <SCORE.INTRA.VDW>
-2.21817

>  <SCORE.INTRA.VDW.0>
2.32763

>  <SCORE.INTRA.norm>
-0.426178

>  <SCORE.RESTR>
0

>  <SCORE.RESTR.CAVITY>
0

>  <SCORE.RESTR.norm>
0

>  <SCORE.SYSTEM>
0

>  <SCORE.SYSTEM.CONST>
0

>  <SCORE.SYSTEM.DIHEDRAL>
0

>  <SCORE.SYSTEM.SOLV>
0

>  <SCORE.SYSTEM.norm>
0

>  <SCORE.heavy>
17

>  <SCORE.norm>
-1.00601

>  <RMSD>
5.748

$$$$
ligand
 OpenBabel11021811503D
libRbt.so/2013.1/901 2013/11/27
 17 18  0  0  0  0  0  0  0  0999 V2000
    1.4608    6.0388   18.6528 N   0  0  0  0  0  0  0  0  0  0  0  0
    2.8200    5.7984   18.4147 C   0  0  0  0  0  0  0  0  0  0  0  0
    3.4326    6.3052   17.2208 N   0  0  0  0  0  0  0  0  0  0  0  0
    3.5914    5.0890   19.3098 N   0  0  0  0  0  0  0  0  0  0  0  0
    3.0474    4.5844   20.4727 C   0  0  0  0  0  0  0  0  0  0  0  0
    1.6632    4.7941   20.7645 C   0  0  0  0  0  0  0  0  0  0  0  0
    3.7436    3.9595   21.2501 O   0  0  0  0  0  0  0  0  0  0  0  0
    1.0497    4.2712   21.9827 N   0  0  0  0  0  0  0  0  0  0  0  0
   -0.2696    4.6639   22.3283 C   0  0  2  0  0  0  0  0  0  0  0  0
   -1.1592    4.9995   21.1016 C   0  0  0  0  0  0  0  0  0  0  0  0
    0.8830    5.5363   19.8274 C   0  0  0  0  0  0  0  0  0  0  0  0
   -0.5460    5.7681   20.1080 N   0  0  0  0  0  0  0  0  0  0  0  0
   -0.1752    5.7960   23.3348 C   0  0  1  0  0  0  0  0  0  0  0  0
    0.4476    6.8935   22.7744 O   0  0  0  0  0  0  0  0  0  0  0  0
   -1.5403    6.1655   23.8332 C   0  0  1  0  0  0  0  0  0  0  0  0
   -2.1775    5.0875   24.3116 O   0  0  0  0  0  0  0  0  0  0  0  0
   -1.4555    7.2143   24.9625 C   0  0  0  0  0  0  0  0  0  0  0  0
  1  2  2  0  0  0  0
  1 11  1  0  0  0  0
  2  3  1  0  0  0  0
  2  4  1  0  0  0  0
  4  5  1  0  0  0  0
  5  6  1  0  0  0  0
  5  7  2  0  0  0  0
  6  8  1  0  0  0  0
  6 11  2  0  0  0  0
  9  8  1  6  0  0  0
  9 10  1  0  0  0  0
  9 13  1  0  0  0  0
 10 12  1  0  0  0  0
 11 12  1  0  0  0  0
 13 14  1  6  0  0  0
 13 15  1  0  0  0  0
 15 16  1  1  0  0  0
 15 17  1  0  0  0  0
M  END
>  <CHROM.1>
62.76441588,54.00970342,0.83343537,5.48116262,21.29223572,0.76626207,0.43735096
-1.27109421

>  <Name>
ligand

>  <RI>
0

>  <Rbt.Current_Directory>
/home/itssahil/PROJECTS/Mol_Feturizer/New_Systems/rnas/4LVX

>  <Rbt.Executable>
rbdock ($Id: //depot/dev/client3/rdock/2013.1/src/exe/rbdock.cxx#4 $)

>  <Rbt.Library>
libRbt.so (2013.1, Build901 2013/11/27)

>  <Rbt.Parameter_File>
/export/apps/rDock/src/rDock_2013.1_src/data/scripts/dock_solv.prm

>  <Rbt.Receptor>
prm/pocket_docking_4.prm

>  <SCORE>
-17.1566

>  <SCORE.INTER>
-9.94392

>  <SCORE.INTER.CONST>
1

>  <SCORE.INTER.POLAR>
0

>  <SCORE.INTER.ROT>
2

>  <SCORE.INTER.SOLV>
13.195

>  <SCORE.INTER.VDW>
-15.9609

>  <SCORE.INTER.norm>
-0.584937

>  <SCORE.INTRA>
-7.21268

>  <SCORE.INTRA.DIHEDRAL>
-10.0081

>  <SCORE.INTRA.DIHEDRAL.0>
10.3255

>  <SCORE.INTRA.POLAR>
0

>  <SCORE.INTRA.POLAR.0>
0

>  <SCORE.INTRA.REPUL>
0

>  <SCORE.INTRA.REPUL.0>
0

>  <SCORE.INTRA.SOLV>
-0.112078

>  <SCORE.INTRA.SOLV.lig_0>
-53.4755

>  <SCORE.INTRA.VDW>
-2.15261

>  <SCORE.INTRA.VDW.0>
2.32763

>  <SCORE.INTRA.norm>
-0.424275

>  <SCORE.RESTR>
0

>  <SCORE.RESTR.CAVITY>
0

>  <SCORE.RESTR.norm>
0

>  <SCORE.SYSTEM>
0

>  <SCORE.SYSTEM.CONST>
0

>  <SCORE.SYSTEM.DIHEDRAL>
0

>  <SCORE.SYSTEM.SOLV>
0

>  <SCORE.SYSTEM.norm>
0

>  <SCORE.heavy>
17

>  <SCORE.norm>
-1.00921

>  <RMSD>
5.752

$$$$
ligand
 OpenBabel11021811503D
libRbt.so/2013.1/901 2013/11/27
 17 18  0  0  0  0  0  0  0  0999 V2000
    1.7175    5.7851   18.8609 N   0  0  0  0  0  0  0  0  0  0  0  0
    3.0824    5.5030   18.7214 C   0  0  0  0  0  0  0  0  0  0  0  0
    3.7856    5.9546   17.5557 N   0  0  0  0  0  0  0  0  0  0  0  0
    3.7737    4.8043   19.6874 N   0  0  0  0  0  0  0  0  0  0  0  0
    3.1411    4.3520   20.8268 C   0  0  0  0  0  0  0  0  0  0  0  0
    1.7469    4.6059   21.0192 C   0  0  0  0  0  0  0  0  0  0  0  0
    3.7674    3.7358   21.6679 O   0  0  0  0  0  0  0  0  0  0  0  0
    1.0408    4.1389   22.2097 N   0  0  0  0  0  0  0  0  0  0  0  0
   -0.2872    4.5757   22.4544 C   0  0  2  0  0  0  0  0  0  0  0  0
   -1.0848    4.8930   21.1614 C   0  0  0  0  0  0  0  0  0  0  0  0
    1.0504    5.3362   20.0097 C   0  0  0  0  0  0  0  0  0  0  0  0
   -0.3871    5.6129   20.1873 N   0  0  0  0  0  0  0  0  0  0  0  0
   -0.2283    5.7376   23.4292 C   0  0  1  0  0  0  0  0  0  0  0  0
    0.4125    6.8190   22.8578 O   0  0  0  0  0  0  0  0  0  0  0  0
   -1.6100    6.1195   23.8691 C   0  0  1  0  0  0  0  0  0  0  0  0
   -2.2612    5.0559   24.3607 O   0  0  0  0  0  0  0  0  0  0  0  0
   -1.5650    7.2046   24.9659 C   0  0  0  0  0  0  0  0  0  0  0  0
  1  2  2  0  0  0  0
  1 11  1  0  0  0  0
  2  3  1  0  0  0  0
  2  4  1  0  0  0  0
  4  5  1  0  0  0  0
  5  6  1  0  0  0  0
  5  7  2  0  0  0  0
  6  8  1  0  0  0  0
  6 11  2  0  0  0  0
  9  8  1  6  0  0  0
  9 10  1  0  0  0  0
  9 13  1  0  0  0  0
 10 12  1  0  0  0  0
 11 12  1  0  0  0  0
 13 14  1  6  0  0  0
 13 15  1  0  0  0  0
 15 16  1  1  0  0  0
 15 17  1  0  0  0  0
M  END
>  <CHROM.1>
65.17498927,54.17113561,0.90405188,5.32356546,21.47754477,0.69256556,0.44650771
-1.26273914

>  <Name>
ligand

>  <RI>
0

>  <Rbt.Current_Directory>
/home/itssahil/PROJECTS/Mol_Feturizer/New_Systems/rnas/4LVX

>  <Rbt.Executable>
rbdock ($Id: //depot/dev/client3/rdock/2013.1/src/exe/rbdock.cxx#4 $)

>  <Rbt.Library>
libRbt.so (2013.1, Build901 2013/11/27)

>  <Rbt.Parameter_File>
/export/apps/rDock/src/rDock_2013.1_src/data/scripts/dock_solv.prm

>  <Rbt.Receptor>
prm/pocket_docking_5.prm

>  <SCORE>
-17.0672

>  <SCORE.INTER>
-9.83054

>  <SCORE.INTER.CONST>
1

>  <SCORE.INTER.POLAR>
0

>  <SCORE.INTER.ROT>
2

>  <SCORE.INTER.SOLV>
14.9442

>  <SCORE.INTER.VDW>
-16.4684

>  <SCORE.INTER.norm>
-0.578267

>  <SCORE.INTRA>
-7.23662

>  <SCORE.INTRA.DIHEDRAL>
-9.95027

>  <SCORE.INTRA.DIHEDRAL.0>
10.3255

>  <SCORE.INTRA.POLAR>
0

>  <SCORE.INTRA.POLAR.0>
0

>  <SCORE.INTRA.REPUL>
0

>  <SCORE.INTRA.REPUL.0>
0

>  <SCORE.INTRA.SOLV>
-0.12549

>  <SCORE.INTRA.SOLV.lig_0>
-53.4755

>  <SCORE.INTRA.VDW>
-2.19874

>  <SCORE.INTRA.VDW.0>
2.32763

>  <SCORE.INTRA.norm>
-0.425683

>  <SCORE.RESTR>
0

>  <SCORE.RESTR.CAVITY>
0

>  <SCORE.RESTR.norm>
0

>  <SCORE.SYSTEM>
0

>  <SCORE.SYSTEM.CONST>
0

>  <SCORE.SYSTEM.DIHEDRAL>
0

>  <SCORE.SYSTEM.SOLV>
0

>  <SCORE.SYSTEM.norm>
0

>  <SCORE.heavy>
17

>  <SCORE.norm>
-1.00395

>  <RMSD>
5.755

$$$$
ligand
 OpenBabel11021811503D
libRbt.so/2013.1/901 2013/11/27
 17 18  0  0  0  0  0  0  0  0999 V2000
    1.5237    5.9811   18.7050 N   0  0  0  0  0  0  0  0  0  0  0  0
    2.8816    5.7099   18.4938 C   0  0  0  0  0  0  0  0  0  0  0  0
    3.5290    6.2028   17.3126 N   0  0  0  0  0  0  0  0  0  0  0  0
    3.6187    4.9831   19.4035 N   0  0  0  0  0  0  0  0  0  0  0  0
    3.0406    4.4908   20.5552 C   0  0  0  0  0  0  0  0  0  0  0  0
    1.6559    4.7318   20.8196 C   0  0  0  0  0  0  0  0  0  0  0  0
    3.7068    3.8501   21.3459 O   0  0  0  0  0  0  0  0  0  0  0  0
    1.0068    4.2228   22.0252 N   0  0  0  0  0  0  0  0  0  0  0  0
   -0.3099    4.6453   22.3448 C   0  0  2  0  0  0  0  0  0  0  0  0
   -1.1671    5.0011   21.1010 C   0  0  0  0  0  0  0  0  0  0  0  0
    0.9115    5.4917   19.8678 C   0  0  0  0  0  0  0  0  0  0  0  0
   -0.5172    5.7558   20.1202 N   0  0  0  0  0  0  0  0  0  0  0  0
   -0.2098    5.7748   23.3537 C   0  0  1  0  0  0  0  0  0  0  0  0
    0.4244    6.8679   22.7975 O   0  0  0  0  0  0  0  0  0  0  0  0
   -1.5736    6.1550   23.8475 C   0  0  1  0  0  0  0  0  0  0  0  0
   -2.2126    5.0860   24.3434 O   0  0  0  0  0  0  0  0  0  0  0  0
   -1.4854    7.2212   24.9602 C   0  0  0  0  0  0  0  0  0  0  0  0
  1  2  2  0  0  0  0
  1 11  1  0  0  0  0
  2  3  1  0  0  0  0
  2  4  1  0  0  0  0
  4  5  1  0  0  0  0
  5  6  1  0  0  0  0
  5  7  2  0  0  0  0
  6  8  1  0  0  0  0
  6 11  2  0  0  0  0
  9  8  1  6  0  0  0
  9 10  1  0  0  0  0
  9 13  1  0  0  0  0
 10 12  1  0  0  0  0
 11 12  1  0  0  0  0
 13 14  1  6  0  0  0
 13 15  1  0  0  0  0
 15 16  1  1  0  0  0
 15 17  1  0  0  0  0
M  END
>  <CHROM.1>
63.99399783,55.10623486,0.83274137,5.43522904,21.33576988,0.73851769,0.45873193
-1.25171656

>  <Name>
ligand

>  <RI>
0

>  <Rbt.Current_Directory>
/home/itssahil/PROJECTS/Mol_Feturizer/New_Systems/rnas/4LVX

>  <Rbt.Executable>
rbdock ($Id: //depot/dev/client3/rdock/2013.1/src/exe/rbdock.cxx#4 $)

>  <Rbt.Library>
libRbt.so (2013.1, Build901 2013/11/27)

>  <Rbt.Parameter_File>
/export/apps/rDock/src/rDock_2013.1_src/data/scripts/dock_solv.prm

>  <Rbt.Receptor>
prm/pocket_docking_7.prm

>  <SCORE>
-17.1028

>  <SCORE.INTER>
-9.84811

>  <SCORE.INTER.CONST>
1

>  <SCORE.INTER.POLAR>
0

>  <SCORE.INTER.ROT>
2

>  <SCORE.INTER.SOLV>
13.862

>  <SCORE.INTER.VDW>
-16.1194

>  <SCORE.INTER.norm>
-0.579301

>  <SCORE.INTRA>
-7.25473

>  <SCORE.INTRA.DIHEDRAL>
-10.025

>  <SCORE.INTRA.DIHEDRAL.0>
10.3255

>  <SCORE.INTRA.POLAR>
0

>  <SCORE.INTRA.POLAR.0>
0

>  <SCORE.INTRA.REPUL>
0

>  <SCORE.INTRA.REPUL.0>
0

>  <SCORE.INTRA.SOLV>
-0.124394

>  <SCORE.INTRA.SOLV.lig_0>
-53.4755

>  <SCORE.INTRA.VDW>
-2.18003

>  <SCORE.INTRA.VDW.0>
2.32763

>  <SCORE.INTRA.norm>
-0.426749

>  <SCORE.RESTR>
0

>  <SCORE.RESTR.CAVITY>
0

>  <SCORE.RESTR.norm>
0

>  <SCORE.SYSTEM>
0

>  <SCORE.SYSTEM.CONST>
0

>  <SCORE.SYSTEM.DIHEDRAL>
0

>  <SCORE.SYSTEM.SOLV>
0

>  <SCORE.SYSTEM.norm>
0

>  <SCORE.heavy>
17

>  <SCORE.norm>
-1.00605

>  <RMSD>
5.755

$$$$
ligand
 OpenBabel11021811503D
libRbt.so/2013.1/901 2013/11/27
 17 18  0  0  0  0  0  0  0  0999 V2000
    1.6170    5.9655   18.7347 N   0  0  0  0  0  0  0  0  0  0  0  0
    2.9820    5.7140   18.5463 C   0  0  0  0  0  0  0  0  0  0  0  0
    3.6383    6.2022   17.3681 N   0  0  0  0  0  0  0  0  0  0  0  0
    3.7177    5.0111   19.4759 N   0  0  0  0  0  0  0  0  0  0  0  0
    3.1311    4.5242   20.6255 C   0  0  0  0  0  0  0  0  0  0  0  0
    1.7390    4.7459   20.8671 C   0  0  0  0  0  0  0  0  0  0  0  0
    3.7961    3.9048   21.4339 O   0  0  0  0  0  0  0  0  0  0  0  0
    1.0809    4.2419   22.0699 N   0  0  0  0  0  0  0  0  0  0  0  0
   -0.2469    4.6468   22.3653 C   0  0  2  0  0  0  0  0  0  0  0  0
   -1.0918    4.9725   21.1049 C   0  0  0  0  0  0  0  0  0  0  0  0
    0.9961    5.4811   19.8949 C   0  0  0  0  0  0  0  0  0  0  0  0
   -0.4401    5.7250   20.1235 N   0  0  0  0  0  0  0  0  0  0  0  0
   -0.1797    5.7906   23.3606 C   0  0  1  0  0  0  0  0  0  0  0  0
    0.4516    6.8841   22.8018 O   0  0  0  0  0  0  0  0  0  0  0  0
   -1.5571    6.1604   23.8235 C   0  0  1  0  0  0  0  0  0  0  0  0
   -2.2034    5.0842   24.2936 O   0  0  0  0  0  0  0  0  0  0  0  0
   -1.5017    7.2168   24.9476 C   0  0  0  0  0  0  0  0  0  0  0  0
  1  2  2  0  0  0  0
  1 11  1  0  0  0  0
  2  3  1  0  0  0  0
  2  4  1  0  0  0  0
  4  5  1  0  0  0  0
  5  6  1  0  0  0  0
  5  7  2  0  0  0  0
  6  8  1  0  0  0  0
  6 11  2  0  0  0  0
  9  8  1  6  0  0  0
  9 10  1  0  0  0  0
  9 13  1  0  0  0  0
 10 12  1  0  0  0  0
 11 12  1  0  0  0  0
 13 14  1  6  0  0  0
 13 15  1  0  0  0  0
 15 16  1  1  0  0  0
 15 17  1  0  0  0  0
M  END
>  <CHROM.1>
63.64208273,53.70583008,0.89636208,5.44132489,21.36071866,0.73045906,0.43329215
-1.26594536

>  <Name>
ligand

>  <RI>
0

>  <Rbt.Current_Directory>
/home/itssahil/PROJECTS/Mol_Feturizer/New_Systems/rnas/4LVX

>  <Rbt.Executable>
rbdock ($Id: //depot/dev/client3/rdock/2013.1/src/exe/rbdock.cxx#4 $)

>  <Rbt.Library>
libRbt.so (2013.1, Build901 2013/11/27)

>  <Rbt.Parameter_File>
/export/apps/rDock/src/rDock_2013.1_src/data/scripts/dock_solv.prm

>  <Rbt.Receptor>
prm/pocket_docking_4.prm

>  <SCORE>
-17.1248

>  <SCORE.INTER>
-9.9001

>  <SCORE.INTER.CONST>
1

>  <SCORE.INTER.POLAR>
0

>  <SCORE.INTER.ROT>
2

>  <SCORE.INTER.SOLV>
13.5449

>  <SCORE.INTER.VDW>
-16.0484

>  <SCORE.INTER.norm>
-0.582359

>  <SCORE.INTRA>
-7.22473

>  <SCORE.INTRA.DIHEDRAL>
-9.97506

>  <SCORE.INTRA.DIHEDRAL.0>
10.3255

>  <SCORE.INTRA.POLAR>
0

>  <SCORE.INTRA.POLAR.0>
0

>  <SCORE.INTRA.REPUL>
0

>  <SCORE.INTRA.REPUL.0>
0

>  <SCORE.INTRA.SOLV>
-0.115026

>  <SCORE.INTRA.SOLV.lig_0>
-53.4755

>  <SCORE.INTRA.VDW>
-2.17969

>  <SCORE.INTRA.VDW.0>
2.32763

>  <SCORE.INTRA.norm>
-0.424984

>  <SCORE.RESTR>
0

>  <SCORE.RESTR.CAVITY>
0

>  <SCORE.RESTR.norm>
0

>  <SCORE.SYSTEM>
0

>  <SCORE.SYSTEM.CONST>
0

>  <SCORE.SYSTEM.DIHEDRAL>
0

>  <SCORE.SYSTEM.SOLV>
0

>  <SCORE.SYSTEM.norm>
0

>  <SCORE.heavy>
17

>  <SCORE.norm>
-1.00734

>  <RMSD>
5.756

$$$$
ligand
 OpenBabel11021811503D
libRbt.so/2013.1/901 2013/11/27
 17 18  0  0  0  0  0  0  0  0999 V2000
    1.5789    6.0173   18.7031 N   0  0  0  0  0  0  0  0  0  0  0  0
    2.9420    5.7600   18.5085 C   0  0  0  0  0  0  0  0  0  0  0  0
    3.5980    6.2564   17.3336 N   0  0  0  0  0  0  0  0  0  0  0  0
    3.6760    5.0434   19.4289 N   0  0  0  0  0  0  0  0  0  0  0  0
    3.0896    4.5481   20.5751 C   0  0  0  0  0  0  0  0  0  0  0  0
    1.6995    4.7752   20.8227 C   0  0  0  0  0  0  0  0  0  0  0  0
    3.7533    3.9167   21.3753 O   0  0  0  0  0  0  0  0  0  0  0  0
    1.0417    4.2627   22.0220 N   0  0  0  0  0  0  0  0  0  0  0  0
   -0.2830    4.6721   22.3250 C   0  0  2  0  0  0  0  0  0  0  0  0
   -1.1293    5.0155   21.0702 C   0  0  0  0  0  0  0  0  0  0  0  0
    0.9583    5.5246   19.8600 C   0  0  0  0  0  0  0  0  0  0  0  0
   -0.4759    5.7743   20.0949 N   0  0  0  0  0  0  0  0  0  0  0  0
   -0.2066    5.8053   23.3318 C   0  0  1  0  0  0  0  0  0  0  0  0
    0.4070    6.9095   22.7745 O   0  0  0  0  0  0  0  0  0  0  0  0
   -1.5785    6.1598   23.8227 C   0  0  1  0  0  0  0  0  0  0  0  0
   -2.2075    5.0743   24.2949 O   0  0  0  0  0  0  0  0  0  0  0  0
   -1.5112    7.2069   24.9547 C   0  0  0  0  0  0  0  0  0  0  0  0
  1  2  2  0  0  0  0
  1 11  1  0  0  0  0
  2  3  1  0  0  0  0
  2  4  1  0  0  0  0
  4  5  1  0  0  0  0
  5  6  1  0  0  0  0
  5  7  2  0  0  0  0
  6  8  1  0  0  0  0
  6 11  2  0  0  0  0
  9  8  1  6  0  0  0
  9 10  1  0  0  0  0
  9 13  1  0  0  0  0
 10 12  1  0  0  0  0
 11 12  1  0  0  0  0
 13 14  1  6  0  0  0
 13 15  1  0  0  0  0
 15 16  1  1  0  0  0
 15 17  1  0  0  0  0
M  END
>  <CHROM.1>
64.76889521,53.86122871,0.86275157,5.46711161,21.32949485,0.73343178,0.44169250
-1.25261415

>  <Name>
ligand

>  <RI>
0

>  <Rbt.Current_Directory>
/home/itssahil/PROJECTS/Mol_Feturizer/New_Systems/rnas/4LVX

>  <Rbt.Executable>
rbdock ($Id: //depot/dev/client3/rdock/2013.1/src/exe/rbdock.cxx#4 $)

>  <Rbt.Library>
libRbt.so (2013.1, Build901 2013/11/27)

>  <Rbt.Parameter_File>
/export/apps/rDock/src/rDock_2013.1_src/data/scripts/dock_solv.prm

>  <Rbt.Receptor>
prm/pocket_docking_4.prm

>  <SCORE>
-17.1136

>  <SCORE.INTER>
-9.86932

>  <SCORE.INTER.CONST>
1

>  <SCORE.INTER.POLAR>
0

>  <SCORE.INTER.ROT>
2

>  <SCORE.INTER.SOLV>
13.4084

>  <SCORE.INTER.VDW>
-15.9824

>  <SCORE.INTER.norm>
-0.580548

>  <SCORE.INTRA>
-7.24429

>  <SCORE.INTRA.DIHEDRAL>
-9.95008

>  <SCORE.INTRA.DIHEDRAL.0>
10.3255

>  <SCORE.INTRA.POLAR>
0

>  <SCORE.INTRA.POLAR.0>
0

>  <SCORE.INTRA.REPUL>
0

>  <SCORE.INTRA.REPUL.0>
0

>  <SCORE.INTRA.SOLV>
-0.121732

>  <SCORE.INTRA.SOLV.lig_0>
-53.4755

>  <SCORE.INTRA.VDW>
-2.20838

>  <SCORE.INTRA.VDW.0>
2.32763

>  <SCORE.INTRA.norm>
-0.426135

>  <SCORE.RESTR>
0

>  <SCORE.RESTR.CAVITY>
0

>  <SCORE.RESTR.norm>
0

>  <SCORE.SYSTEM>
0

>  <SCORE.SYSTEM.CONST>
0

>  <SCORE.SYSTEM.DIHEDRAL>
0

>  <SCORE.SYSTEM.SOLV>
0

>  <SCORE.SYSTEM.norm>
0

>  <SCORE.heavy>
17

>  <SCORE.norm>
-1.00668

>  <RMSD>
5.758

$$$$
ligand
 OpenBabel11021811503D
libRbt.so/2013.1/901 2013/11/27
 17 18  0  0  0  0  0  0  0  0999 V2000
    0.5427    4.9944   18.1919 N   0  0  0  0  0  0  0  0  0  0  0  0
    1.7449    5.1518   17.4904 C   0  0  0  0  0  0  0  0  0  0  0  0
    1.7189    5.3329   16.0679 N   0  0  0  0  0  0  0  0  0  0  0  0
    2.9608    5.1453   18.1391 N   0  0  0  0  0  0  0  0  0  0  0  0
    3.0361    4.9770   19.5062 C   0  0  0  0  0  0  0  0  0  0  0  0
    1.8408    4.8057   20.2725 C   0  0  0  0  0  0  0  0  0  0  0  0
    4.1185    4.9726   20.0611 O   0  0  0  0  0  0  0  0  0  0  0  0
    1.8798    4.6198   21.7208 N   0  0  0  0  0  0  0  0  0  0  0  0
    0.6715    4.6482   22.4648 C   0  0  2  0  0  0  0  0  0  0  0  0
   -0.5648    4.1659   21.6601 C   0  0  0  0  0  0  0  0  0  0  0  0
    0.5912    4.8212   19.5825 C   0  0  0  0  0  0  0  0  0  0  0  0
   -0.6551    4.6496   20.3516 N   0  0  0  0  0  0  0  0  0  0  0  0
    0.5094    6.0409   23.0458 C   0  0  1  0  0  0  0  0  0  0  0  0
    0.0047    6.9075   22.0967 O   0  0  0  0  0  0  0  0  0  0  0  0
   -0.3847    6.0029   24.2491 C   0  0  1  0  0  0  0  0  0  0  0  0
   -0.2358    7.1135   24.9848 O   0  0  0  0  0  0  0  0  0  0  0  0
   -1.8682    5.8944   23.8370 C   0  0  0  0  0  0  0  0  0  0  0  0
  1  2  2  0  0  0  0
  1 11  1  0  0  0  0
  2  3  1  0  0  0  0
  2  4  1  0  0  0  0
  4  5  1  0  0  0  0
  5  6  1  0  0  0  0
  5  7  2  0  0  0  0
  6  8  1  0  0  0  0
  6 11  2  0  0  0  0
  9  8  1  6  0  0  0
  9 10  1  0  0  0  0
  9 13  1  0  0  0  0
 10 12  1  0  0  0  0
 11 12  1  0  0  0  0
 13 14  1  6  0  0  0
 13 15  1  0  0  0  0
 15 16  1  6  0  0  0
 15 17  1  0  0  0  0
M  END
>  <CHROM.1>
80.57862194,162.31483343,0.91158580,5.34639816,20.88412413,1.13953231,0.01538041
-1.74822325

>  <Name>
ligand

>  <RI>
0

>  <Rbt.Current_Directory>
/home/itssahil/PROJECTS/Mol_Feturizer/New_Systems/rnas/4LVX

>  <Rbt.Executable>
rbdock ($Id: //depot/dev/client3/rdock/2013.1/src/exe/rbdock.cxx#4 $)

>  <Rbt.Library>
libRbt.so (2013.1, Build901 2013/11/27)

>  <Rbt.Parameter_File>
/export/apps/rDock/src/rDock_2013.1_src/data/scripts/dock_solv.prm

>  <Rbt.Receptor>
prm/pocket_docking_8.prm

>  <SCORE>
-15.6168

>  <SCORE.INTER>
-11.405

>  <SCORE.INTER.CONST>
1

>  <SCORE.INTER.POLAR>
0

>  <SCORE.INTER.ROT>
2

>  <SCORE.INTER.SOLV>
10.9874

>  <SCORE.INTER.VDW>
-16.1991

>  <SCORE.INTER.norm>
-0.670882

>  <SCORE.INTRA>
-4.2118

>  <SCORE.INTRA.DIHEDRAL>
-7.74004

>  <SCORE.INTRA.DIHEDRAL.0>
10.3255

>  <SCORE.INTRA.POLAR>
0

>  <SCORE.INTRA.POLAR.0>
0

>  <SCORE.INTRA.REPUL>
0

>  <SCORE.INTRA.REPUL.0>
0

>  <SCORE.INTRA.SOLV>
0.0394429

>  <SCORE.INTRA.SOLV.lig_0>
-53.4755

>  <SCORE.INTRA.VDW>
-0.361495

>  <SCORE.INTRA.VDW.0>
2.32763

>  <SCORE.INTRA.norm>
-0.247753

>  <SCORE.RESTR>
0

>  <SCORE.RESTR.CAVITY>
0

>  <SCORE.RESTR.norm>
0

>  <SCORE.SYSTEM>
0

>  <SCORE.SYSTEM.CONST>
0

>  <SCORE.SYSTEM.DIHEDRAL>
0

>  <SCORE.SYSTEM.SOLV>
0

>  <SCORE.SYSTEM.norm>
0

>  <SCORE.heavy>
17

>  <SCORE.norm>
-0.918634

>  <RMSD>
5.763

$$$$
ligand
 OpenBabel11021811503D
libRbt.so/2013.1/901 2013/11/27
 17 18  0  0  0  0  0  0  0  0999 V2000
    1.7000    5.8367   18.7665 N   0  0  0  0  0  0  0  0  0  0  0  0
    3.0672    5.5776   18.6066 C   0  0  0  0  0  0  0  0  0  0  0  0
    3.7433    6.0332   17.4266 N   0  0  0  0  0  0  0  0  0  0  0  0
    3.7863    4.8981   19.5661 N   0  0  0  0  0  0  0  0  0  0  0  0
    3.1803    4.4429   20.7187 C   0  0  0  0  0  0  0  0  0  0  0  0
    1.7851    4.6736   20.9320 C   0  0  0  0  0  0  0  0  0  0  0  0
    3.8309    3.8438   21.5536 O   0  0  0  0  0  0  0  0  0  0  0  0
    1.1067    4.2028   22.1370 N   0  0  0  0  0  0  0  0  0  0  0  0
   -0.2247    4.6180   22.4003 C   0  0  2  0  0  0  0  0  0  0  0  0
   -1.0486    4.9119   21.1184 C   0  0  0  0  0  0  0  0  0  0  0  0
    1.0595    5.3843   19.9290 C   0  0  0  0  0  0  0  0  0  0  0  0
   -0.3796    5.6370   20.1281 N   0  0  0  0  0  0  0  0  0  0  0  0
   -0.1706    5.7877   23.3660 C   0  0  1  0  0  0  0  0  0  0  0  0
    0.4488    6.8734   22.7796 O   0  0  0  0  0  0  0  0  0  0  0  0
   -1.5523    6.1539   23.8191 C   0  0  1  0  0  0  0  0  0  0  0  0
   -2.2001    5.0755   24.2820 O   0  0  0  0  0  0  0  0  0  0  0  0
   -1.5075    7.2081   24.9457 C   0  0  0  0  0  0  0  0  0  0  0  0
  1  2  2  0  0  0  0
  1 11  1  0  0  0  0
  2  3  1  0  0  0  0
  2  4  1  0  0  0  0
  4  5  1  0  0  0  0
  5  6  1  0  0  0  0
  5  7  2  0  0  0  0
  6  8  1  0  0  0  0
  6 11  2  0  0  0  0
  9  8  1  6  0  0  0
  9 10  1  0  0  0  0
  9 13  1  0  0  0  0
 10 12  1  0  0  0  0
 11 12  1  0  0  0  0
 13 14  1  6  0  0  0
 13 15  1  0  0  0  0
 15 16  1  1  0  0  0
 15 17  1  0  0  0  0
M  END
>  <CHROM.1>
64.81866584,51.98472288,0.93601649,5.37750892,21.39730101,0.71805204,0.42626778
-1.28738124

>  <Name>
ligand

>  <RI>
0

>  <Rbt.Current_Directory>
/home/itssahil/PROJECTS/Mol_Feturizer/New_Systems/rnas/4LVX

>  <Rbt.Executable>
rbdock ($Id: //depot/dev/client3/rdock/2013.1/src/exe/rbdock.cxx#4 $)

>  <Rbt.Library>
libRbt.so (2013.1, Build901 2013/11/27)

>  <Rbt.Parameter_File>
/export/apps/rDock/src/rDock_2013.1_src/data/scripts/dock_solv.prm

>  <Rbt.Receptor>
prm/pocket_docking_4.prm

>  <SCORE>
-17.0634

>  <SCORE.INTER>
-9.86722

>  <SCORE.INTER.CONST>
1

>  <SCORE.INTER.POLAR>
0

>  <SCORE.INTER.ROT>
2

>  <SCORE.INTER.SOLV>
14.2305

>  <SCORE.INTER.VDW>
-16.255

>  <SCORE.INTER.norm>
-0.580425

>  <SCORE.INTRA>
-7.19618

>  <SCORE.INTRA.DIHEDRAL>
-9.85005

>  <SCORE.INTRA.DIHEDRAL.0>
10.3255

>  <SCORE.INTRA.POLAR>
0

>  <SCORE.INTRA.POLAR.0>
0

>  <SCORE.INTRA.REPUL>
0

>  <SCORE.INTRA.REPUL.0>
0

>  <SCORE.INTRA.SOLV>
-0.112022

>  <SCORE.INTRA.SOLV.lig_0>
-53.4755

>  <SCORE.INTRA.VDW>
-2.21515

>  <SCORE.INTRA.VDW.0>
2.32763

>  <SCORE.INTRA.norm>
-0.423305

>  <SCORE.RESTR>
0

>  <SCORE.RESTR.CAVITY>
0

>  <SCORE.RESTR.norm>
0

>  <SCORE.SYSTEM>
0

>  <SCORE.SYSTEM.CONST>
0

>  <SCORE.SYSTEM.DIHEDRAL>
0

>  <SCORE.SYSTEM.SOLV>
0

>  <SCORE.SYSTEM.norm>
0

>  <SCORE.heavy>
17

>  <SCORE.norm>
-1.00373

>  <RMSD>
5.766

$$$$
ligand
 OpenBabel11021811503D
libRbt.so/2013.1/901 2013/11/27
 17 18  0  0  0  0  0  0  0  0999 V2000
    1.8139    5.4207   18.8632 N   0  0  0  0  0  0  0  0  0  0  0  0
    3.1996    5.2661   18.7285 C   0  0  0  0  0  0  0  0  0  0  0  0
    3.8408    5.6452   17.5028 N   0  0  0  0  0  0  0  0  0  0  0  0
    3.9691    4.7629   19.7551 N   0  0  0  0  0  0  0  0  0  0  0  0
    3.3979    4.3873   20.9533 C   0  0  0  0  0  0  0  0  0  0  0  0
    1.9866    4.5173   21.1444 C   0  0  0  0  0  0  0  0  0  0  0  0
    4.0930    3.9439   21.8475 O   0  0  0  0  0  0  0  0  0  0  0  0
    1.3442    4.1258   22.3965 N   0  0  0  0  0  0  0  0  0  0  0  0
   -0.0200    4.4495   22.6166 C   0  0  2  0  0  0  0  0  0  0  0  0
   -0.8583    4.5260   21.3127 C   0  0  0  0  0  0  0  0  0  0  0  0
    1.2081    5.0460   20.0710 C   0  0  0  0  0  0  0  0  0  0  0  0
   -0.2488    5.1923   20.2457 N   0  0  0  0  0  0  0  0  0  0  0  0
   -0.0744    5.7195   23.4461 C   0  0  1  0  0  0  0  0  0  0  0  0
    0.5174    6.7674   22.7692 O   0  0  0  0  0  0  0  0  0  0  0  0
   -1.4940    6.0548   23.7934 C   0  0  1  0  0  0  0  0  0  0  0  0
   -2.1293    4.9789   24.2791 O   0  0  0  0  0  0  0  0  0  0  0  0
   -1.5579    7.1716   24.8569 C   0  0  0  0  0  0  0  0  0  0  0  0
  1  2  2  0  0  0  0
  1 11  1  0  0  0  0
  2  3  1  0  0  0  0
  2  4  1  0  0  0  0
  4  5  1  0  0  0  0
  5  6  1  0  0  0  0
  5  7  2  0  0  0  0
  6  8  1  0  0  0  0
  6 11  2  0  0  0  0
  9  8  1  6  0  0  0
  9 10  1  0  0  0  0
  9 13  1  0  0  0  0
 10 12  1  0  0  0  0
 11 12  1  0  0  0  0
 13 14  1  6  0  0  0
 13 15  1  0  0  0  0
 15 16  1  1  0  0  0
 15 17  1  0  0  0  0
M  END
>  <CHROM.1>
61.55234294,48.67217907,1.07309319,5.19481989,21.51812689,0.73345810,0.32406050
-1.42469558

>  <Name>
ligand

>  <RI>
0

>  <Rbt.Current_Directory>
/home/itssahil/PROJECTS/Mol_Feturizer/New_Systems/rnas/4LVX

>  <Rbt.Executable>
rbdock ($Id: //depot/dev/client3/rdock/2013.1/src/exe/rbdock.cxx#4 $)

>  <Rbt.Library>
libRbt.so (2013.1, Build901 2013/11/27)

>  <Rbt.Parameter_File>
/export/apps/rDock/src/rDock_2013.1_src/data/scripts/dock_solv.prm

>  <Rbt.Receptor>
prm/pocket_docking_3.prm

>  <SCORE>
-16.4998

>  <SCORE.INTER>
-9.51466

>  <SCORE.INTER.CONST>
1

>  <SCORE.INTER.POLAR>
0

>  <SCORE.INTER.ROT>
2

>  <SCORE.INTER.SOLV>
15.7436

>  <SCORE.INTER.VDW>
-16.5243

>  <SCORE.INTER.norm>
-0.559686

>  <SCORE.INTRA>
-6.98517

>  <SCORE.INTRA.DIHEDRAL>
-9.68994

>  <SCORE.INTRA.DIHEDRAL.0>
10.3255

>  <SCORE.INTRA.POLAR>
0

>  <SCORE.INTRA.POLAR.0>
0

>  <SCORE.INTRA.REPUL>
0

>  <SCORE.INTRA.REPUL.0>
0

>  <SCORE.INTRA.SOLV>
-0.076803

>  <SCORE.INTRA.SOLV.lig_0>
-53.4755

>  <SCORE.INTRA.VDW>
-2.1018

>  <SCORE.INTRA.VDW.0>
2.32763

>  <SCORE.INTRA.norm>
-0.410893

>  <SCORE.RESTR>
0

>  <SCORE.RESTR.CAVITY>
0

>  <SCORE.RESTR.norm>
0

>  <SCORE.SYSTEM>
0

>  <SCORE.SYSTEM.CONST>
0

>  <SCORE.SYSTEM.DIHEDRAL>
0

>  <SCORE.SYSTEM.SOLV>
0

>  <SCORE.SYSTEM.norm>
0

>  <SCORE.heavy>
17

>  <SCORE.norm>
-0.970578

>  <RMSD>
5.769

$$$$
ligand
 OpenBabel11021811503D
libRbt.so/2013.1/901 2013/11/27
 17 18  0  0  0  0  0  0  0  0999 V2000
    1.5664    5.9323   18.6398 N   0  0  0  0  0  0  0  0  0  0  0  0
    2.9314    5.7025   18.4249 C   0  0  0  0  0  0  0  0  0  0  0  0
    3.5523    6.1832   17.2246 N   0  0  0  0  0  0  0  0  0  0  0  0
    3.7002    5.0282   19.3488 N   0  0  0  0  0  0  0  0  0  0  0  0
    3.1482    4.5496   20.5189 C   0  0  0  0  0  0  0  0  0  0  0  0
    1.7580    4.7499   20.7880 C   0  0  0  0  0  0  0  0  0  0  0  0
    3.8423    3.9556   21.3219 O   0  0  0  0  0  0  0  0  0  0  0  0
    1.1361    4.2537   22.0131 N   0  0  0  0  0  0  0  0  0  0  0  0
   -0.1921    4.6393   22.3317 C   0  0  2  0  0  0  0  0  0  0  0  0
   -1.0706    4.9291   21.0854 C   0  0  0  0  0  0  0  0  0  0  0  0
    0.9804    5.4557   19.8212 C   0  0  0  0  0  0  0  0  0  0  0  0
   -0.4547    5.6772   20.0779 N   0  0  0  0  0  0  0  0  0  0  0  0
   -0.1241    5.8003   23.3069 C   0  0  1  0  0  0  0  0  0  0  0  0
    0.4689    6.8977   22.7149 O   0  0  0  0  0  0  0  0  0  0  0  0
   -1.4969    6.1482   23.7997 C   0  0  1  0  0  0  0  0  0  0  0  0
   -2.1221    5.0587   24.2676 O   0  0  0  0  0  0  0  0  0  0  0  0
   -1.4326    7.1908   24.9361 C   0  0  0  0  0  0  0  0  0  0  0  0
  1  2  2  0  0  0  0
  1 11  1  0  0  0  0
  2  3  1  0  0  0  0
  2  4  1  0  0  0  0
  4  5  1  0  0  0  0
  5  6  1  0  0  0  0
  5  7  2  0  0  0  0
  6  8  1  0  0  0  0
  6 11  2  0  0  0  0
  9  8  1  6  0  0  0
  9 10  1  0  0  0  0
  9 13  1  0  0  0  0
 10 12  1  0  0  0  0
 11 12  1  0  0  0  0
 13 14  1  6  0  0  0
 13 15  1  0  0  0  0
 15 16  1  1  0  0  0
 15 17  1  0  0  0  0
M  END
>  <CHROM.1>
63.91717219,51.91363513,0.91311458,5.43452179,21.28975548,0.76275796,0.41599527
-1.29880395

>  <Name>
ligand

>  <RI>
0

>  <Rbt.Current_Directory>
/home/itssahil/PROJECTS/Mol_Feturizer/New_Systems/rnas/4LVX

>  <Rbt.Executable>
rbdock ($Id: //depot/dev/client3/rdock/2013.1/src/exe/rbdock.cxx#4 $)

>  <Rbt.Library>
libRbt.so (2013.1, Build901 2013/11/27)

>  <Rbt.Parameter_File>
/export/apps/rDock/src/rDock_2013.1_src/data/scripts/dock_solv.prm

>  <Rbt.Receptor>
prm/pocket_docking_4.prm

>  <SCORE>
-17.1246

>  <SCORE.INTER>
-9.94327

>  <SCORE.INTER.CONST>
1

>  <SCORE.INTER.POLAR>
0

>  <SCORE.INTER.ROT>
2

>  <SCORE.INTER.SOLV>
13.5362

>  <SCORE.INTER.VDW>
-16.0743

>  <SCORE.INTER.norm>
-0.584898

>  <SCORE.INTRA>
-7.18136

>  <SCORE.INTRA.DIHEDRAL>
-9.87263

>  <SCORE.INTRA.DIHEDRAL.0>
10.3255

>  <SCORE.INTRA.POLAR>
0

>  <SCORE.INTRA.POLAR.0>
0

>  <SCORE.INTRA.REPUL>
0

>  <SCORE.INTRA.REPUL.0>
0

>  <SCORE.INTRA.SOLV>
-0.106878

>  <SCORE.INTRA.SOLV.lig_0>
-53.4755

>  <SCORE.INTRA.VDW>
-2.19161

>  <SCORE.INTRA.VDW.0>
2.32763

>  <SCORE.INTRA.norm>
-0.422433

>  <SCORE.RESTR>
0

>  <SCORE.RESTR.CAVITY>
0

>  <SCORE.RESTR.norm>
0

>  <SCORE.SYSTEM>
0

>  <SCORE.SYSTEM.CONST>
0

>  <SCORE.SYSTEM.DIHEDRAL>
0

>  <SCORE.SYSTEM.SOLV>
0

>  <SCORE.SYSTEM.norm>
0

>  <SCORE.heavy>
17

>  <SCORE.norm>
-1.00733

>  <RMSD>
5.771

$$$$
ligand
 OpenBabel11021811503D
libRbt.so/2013.1/901 2013/11/27
 17 18  0  0  0  0  0  0  0  0999 V2000
    0.6264    5.0300   18.1847 N   0  0  0  0  0  0  0  0  0  0  0  0
    1.8421    5.1771   17.5047 C   0  0  0  0  0  0  0  0  0  0  0  0
    1.8423    5.3682   16.0831 N   0  0  0  0  0  0  0  0  0  0  0  0
    3.0468    5.1510   18.1735 N   0  0  0  0  0  0  0  0  0  0  0  0
    3.0970    4.9726   19.5405 C   0  0  0  0  0  0  0  0  0  0  0  0
    1.8869    4.8109   20.2854 C   0  0  0  0  0  0  0  0  0  0  0  0
    4.1697    4.9509   20.1134 O   0  0  0  0  0  0  0  0  0  0  0  0
    1.8993    4.6146   21.7328 N   0  0  0  0  0  0  0  0  0  0  0  0
    0.6791    4.6530   22.4567 C   0  0  2  0  0  0  0  0  0  0  0  0
   -0.5493    4.1917   21.6280 C   0  0  0  0  0  0  0  0  0  0  0  0
    0.6494    4.8467   19.5748 C   0  0  0  0  0  0  0  0  0  0  0  0
   -0.6117    4.6853   20.3217 N   0  0  0  0  0  0  0  0  0  0  0  0
    0.5244    6.0437   23.0447 C   0  0  1  0  0  0  0  0  0  0  0  0
    0.0306    6.9191   22.0980 O   0  0  0  0  0  0  0  0  0  0  0  0
   -0.3756    6.0055   24.2435 C   0  0  1  0  0  0  0  0  0  0  0  0
   -0.2120    7.1045   24.9935 O   0  0  0  0  0  0  0  0  0  0  0  0
   -1.8588    5.9264   23.8237 C   0  0  0  0  0  0  0  0  0  0  0  0
  1  2  2  0  0  0  0
  1 11  1  0  0  0  0
  2  3  1  0  0  0  0
  2  4  1  0  0  0  0
  4  5  1  0  0  0  0
  5  6  1  0  0  0  0
  5  7  2  0  0  0  0
  6  8  1  0  0  0  0
  6 11  2  0  0  0  0
  9  8  1  6  0  0  0
  9 10  1  0  0  0  0
  9 13  1  0  0  0  0
 10 12  1  0  0  0  0
 11 12  1  0  0  0  0
 13 14  1  6  0  0  0
 13 15  1  0  0  0  0
 15 16  1  6  0  0  0
 15 17  1  0  0  0  0
M  END
>  <CHROM.1>
81.33273835,161.66865885,0.95653790,5.35831591,20.88902581,1.12766232,0.02974331
-1.74078342

>  <Name>
ligand

>  <RI>
0

>  <Rbt.Current_Directory>
/home/itssahil/PROJECTS/Mol_Feturizer/New_Systems/rnas/4LVX

>  <Rbt.Executable>
rbdock ($Id: //depot/dev/client3/rdock/2013.1/src/exe/rbdock.cxx#4 $)

>  <Rbt.Library>
libRbt.so (2013.1, Build901 2013/11/27)

>  <Rbt.Parameter_File>
/export/apps/rDock/src/rDock_2013.1_src/data/scripts/dock_solv.prm

>  <Rbt.Receptor>
prm/pocket_docking_8.prm

>  <SCORE>
-15.495

>  <SCORE.INTER>
-11.2827

>  <SCORE.INTER.CONST>
1

>  <SCORE.INTER.POLAR>
0

>  <SCORE.INTER.ROT>
2

>  <SCORE.INTER.SOLV>
11.0285

>  <SCORE.INTER.VDW>
-16.1313

>  <SCORE.INTER.norm>
-0.663687

>  <SCORE.INTRA>
-4.21236

>  <SCORE.INTRA.DIHEDRAL>
-7.57609

>  <SCORE.INTRA.DIHEDRAL.0>
10.3255

>  <SCORE.INTRA.POLAR>
0

>  <SCORE.INTRA.POLAR.0>
0

>  <SCORE.INTRA.REPUL>
0

>  <SCORE.INTRA.REPUL.0>
0

>  <SCORE.INTRA.SOLV>
0.0180449

>  <SCORE.INTRA.SOLV.lig_0>
-53.4755

>  <SCORE.INTRA.VDW>
-0.433343

>  <SCORE.INTRA.VDW.0>
2.32763

>  <SCORE.INTRA.norm>
-0.247786

>  <SCORE.RESTR>
0

>  <SCORE.RESTR.CAVITY>
0

>  <SCORE.RESTR.norm>
0

>  <SCORE.SYSTEM>
0

>  <SCORE.SYSTEM.CONST>
0

>  <SCORE.SYSTEM.DIHEDRAL>
0

>  <SCORE.SYSTEM.SOLV>
0

>  <SCORE.SYSTEM.norm>
0

>  <SCORE.heavy>
17

>  <SCORE.norm>
-0.911473

>  <RMSD>
5.773

$$$$
ligand
 OpenBabel11021811503D
libRbt.so/2013.1/901 2013/11/27
 17 18  0  0  0  0  0  0  0  0999 V2000
    1.6985    5.8329   18.7000 N   0  0  0  0  0  0  0  0  0  0  0  0
    3.0736    5.6310   18.5259 C   0  0  0  0  0  0  0  0  0  0  0  0
    3.7146    6.0986   17.3310 N   0  0  0  0  0  0  0  0  0  0  0  0
    3.8334    4.9970   19.4851 N   0  0  0  0  0  0  0  0  0  0  0  0
    3.2622    4.5324   20.6516 C   0  0  0  0  0  0  0  0  0  0  0  0
    1.8611    4.7055   20.8800 C   0  0  0  0  0  0  0  0  0  0  0  0
    3.9486    3.9740   21.4862 O   0  0  0  0  0  0  0  0  0  0  0  0
    1.2188    4.2230   22.1000 N   0  0  0  0  0  0  0  0  0  0  0  0
   -0.1260    4.5838   22.3750 C   0  0  2  0  0  0  0  0  0  0  0  0
   -0.9778    4.8235   21.1000 C   0  0  0  0  0  0  0  0  0  0  0  0
    1.0928    5.3698   19.8769 C   0  0  0  0  0  0  0  0  0  0  0  0
   -0.3533    5.5627   20.0913 N   0  0  0  0  0  0  0  0  0  0  0  0
   -0.1108    5.7683   23.3239 C   0  0  1  0  0  0  0  0  0  0  0  0
    0.4719    6.8657   22.7215 O   0  0  0  0  0  0  0  0  0  0  0  0
   -1.5039    6.0946   23.7726 C   0  0  1  0  0  0  0  0  0  0  0  0
   -2.1256    4.9959   24.2235 O   0  0  0  0  0  0  0  0  0  0  0  0
   -1.4923    7.1404   24.9078 C   0  0  0  0  0  0  0  0  0  0  0  0
  1  2  2  0  0  0  0
  1 11  1  0  0  0  0
  2  3  1  0  0  0  0
  2  4  1  0  0  0  0
  4  5  1  0  0  0  0
  5  6  1  0  0  0  0
  5  7  2  0  0  0  0
  6  8  1  0  0  0  0
  6 11  2  0  0  0  0
  9  8  1  6  0  0  0
  9 10  1  0  0  0  0
  9 13  1  0  0  0  0
 10 12  1  0  0  0  0
 11 12  1  0  0  0  0
 13 14  1  6  0  0  0
 13 15  1  0  0  0  0
 15 16  1  1  0  0  0
 15 17  1  0  0  0  0
M  END
>  <CHROM.1>
63.91063757,50.59787974,0.98686984,5.37910915,21.34300707,0.74384816,0.38154469
-1.31819022

>  <Name>
ligand

>  <RI>
0

>  <Rbt.Current_Directory>
/home/itssahil/PROJECTS/Mol_Feturizer/New_Systems/rnas/4LVX

>  <Rbt.Executable>
rbdock ($Id: //depot/dev/client3/rdock/2013.1/src/exe/rbdock.cxx#4 $)

>  <Rbt.Library>
libRbt.so (2013.1, Build901 2013/11/27)

>  <Rbt.Parameter_File>
/export/apps/rDock/src/rDock_2013.1_src/data/scripts/dock_solv.prm

>  <Rbt.Receptor>
prm/pocket_docking_7.prm

>  <SCORE>
-17.0901

>  <SCORE.INTER>
-9.95633

>  <SCORE.INTER.CONST>
1

>  <SCORE.INTER.POLAR>
0

>  <SCORE.INTER.ROT>
2

>  <SCORE.INTER.SOLV>
13.7706

>  <SCORE.INTER.VDW>
-16.1611

>  <SCORE.INTER.norm>
-0.585667

>  <SCORE.INTRA>
-7.1338

>  <SCORE.INTRA.DIHEDRAL>
-9.7891

>  <SCORE.INTRA.DIHEDRAL.0>
10.3255

>  <SCORE.INTRA.POLAR>
0

>  <SCORE.INTRA.POLAR.0>
0

>  <SCORE.INTRA.REPUL>
0

>  <SCORE.INTRA.REPUL.0>
0

>  <SCORE.INTRA.SOLV>
-0.0998523

>  <SCORE.INTRA.SOLV.lig_0>
-53.4755

>  <SCORE.INTRA.VDW>
-2.18932

>  <SCORE.INTRA.VDW.0>
2.32763

>  <SCORE.INTRA.norm>
-0.419635

>  <SCORE.RESTR>
0

>  <SCORE.RESTR.CAVITY>
0

>  <SCORE.RESTR.norm>
0

>  <SCORE.SYSTEM>
0

>  <SCORE.SYSTEM.CONST>
0

>  <SCORE.SYSTEM.DIHEDRAL>
0

>  <SCORE.SYSTEM.SOLV>
0

>  <SCORE.SYSTEM.norm>
0

>  <SCORE.heavy>
17

>  <SCORE.norm>
-1.0053

>  <RMSD>
5.774

$$$$
ligand
 OpenBabel11021811503D
libRbt.so/2013.1/901 2013/11/27
 17 18  0  0  0  0  0  0  0  0999 V2000
    1.7093    5.9273   18.6957 N   0  0  0  0  0  0  0  0  0  0  0  0
    3.0816    5.7167   18.5102 C   0  0  0  0  0  0  0  0  0  0  0  0
    3.7228    6.2125   17.3269 N   0  0  0  0  0  0  0  0  0  0  0  0
    3.8385    5.0473   19.4474 N   0  0  0  0  0  0  0  0  0  0  0  0
    3.2668    4.5546   20.6022 C   0  0  0  0  0  0  0  0  0  0  0  0
    1.8684    4.7351   20.8411 C   0  0  0  0  0  0  0  0  0  0  0  0
    3.9506    3.9651   21.4173 O   0  0  0  0  0  0  0  0  0  0  0  0
    1.2258    4.2237   22.0491 N   0  0  0  0  0  0  0  0  0  0  0  0
   -0.1142    4.5899   22.3400 C   0  0  2  0  0  0  0  0  0  0  0  0
   -0.9683    4.8754   21.0759 C   0  0  0  0  0  0  0  0  0  0  0  0
    1.1033    5.4362   19.8610 C   0  0  0  0  0  0  0  0  0  0  0  0
   -0.3400    5.6374   20.0867 N   0  0  0  0  0  0  0  0  0  0  0  0
   -0.0833    5.7460   23.3229 C   0  0  1  0  0  0  0  0  0  0  0  0
    0.5234    6.8492   22.7562 O   0  0  0  0  0  0  0  0  0  0  0  0
   -1.4730    6.0851   23.7725 C   0  0  1  0  0  0  0  0  0  0  0  0
   -2.1020    4.9936   24.2307 O   0  0  0  0  0  0  0  0  0  0  0  0
   -1.4515    7.1371   24.9018 C   0  0  0  0  0  0  0  0  0  0  0  0
  1  2  2  0  0  0  0
  1 11  1  0  0  0  0
  2  3  1  0  0  0  0
  2  4  1  0  0  0  0
  4  5  1  0  0  0  0
  5  6  1  0  0  0  0
  5  7  2  0  0  0  0
  6  8  1  0  0  0  0
  6 11  2  0  0  0  0
  9  8  1  6  0  0  0
  9 10  1  0  0  0  0
  9 13  1  0  0  0  0
 10 12  1  0  0  0  0
 11 12  1  0  0  0  0
 13 14  1  6  0  0  0
 13 15  1  0  0  0  0
 15 16  1  1  0  0  0
 15 17  1  0  0  0  0
M  END
>  <CHROM.1>
63.15440985,52.73409262,1.00344716,5.40913568,21.32507579,0.74045487,0.39900429
-1.28493456

>  <Name>
ligand

>  <RI>
0

>  <Rbt.Current_Directory>
/home/itssahil/PROJECTS/Mol_Feturizer/New_Systems/rnas/4LVX

>  <Rbt.Executable>
rbdock ($Id: //depot/dev/client3/rdock/2013.1/src/exe/rbdock.cxx#4 $)

>  <Rbt.Library>
libRbt.so (2013.1, Build901 2013/11/27)

>  <Rbt.Parameter_File>
/export/apps/rDock/src/rDock_2013.1_src/data/scripts/dock_solv.prm

>  <Rbt.Receptor>
prm/pocket_docking_4.prm

>  <SCORE>
-17.0535

>  <SCORE.INTER>
-9.86228

>  <SCORE.INTER.CONST>
1

>  <SCORE.INTER.POLAR>
0

>  <SCORE.INTER.ROT>
2

>  <SCORE.INTER.SOLV>
13.2928

>  <SCORE.INTER.VDW>
-15.9391

>  <SCORE.INTER.norm>
-0.580134

>  <SCORE.INTRA>
-7.19123

>  <SCORE.INTRA.DIHEDRAL>
-9.93729

>  <SCORE.INTRA.DIHEDRAL.0>
10.3255

>  <SCORE.INTRA.POLAR>
0

>  <SCORE.INTRA.POLAR.0>
0

>  <SCORE.INTRA.REPUL>
0

>  <SCORE.INTRA.REPUL.0>
0

>  <SCORE.INTRA.SOLV>
-0.107237

>  <SCORE.INTRA.SOLV.lig_0>
-53.4755

>  <SCORE.INTRA.VDW>
-2.16897

>  <SCORE.INTRA.VDW.0>
2.32763

>  <SCORE.INTRA.norm>
-0.423014

>  <SCORE.RESTR>
0

>  <SCORE.RESTR.CAVITY>
0

>  <SCORE.RESTR.norm>
0

>  <SCORE.SYSTEM>
0

>  <SCORE.SYSTEM.CONST>
0

>  <SCORE.SYSTEM.DIHEDRAL>
0

>  <SCORE.SYSTEM.SOLV>
0

>  <SCORE.SYSTEM.norm>
0

>  <SCORE.heavy>
17

>  <SCORE.norm>
-1.00315

>  <RMSD>
5.775

$$$$
ligand
 OpenBabel11021811503D
libRbt.so/2013.1/901 2013/11/27
 17 18  0  0  0  0  0  0  0  0999 V2000
    1.5431    5.9421   18.5774 N   0  0  0  0  0  0  0  0  0  0  0  0
    2.9125    5.7762   18.3343 C   0  0  0  0  0  0  0  0  0  0  0  0
    3.4852    6.2836   17.1211 N   0  0  0  0  0  0  0  0  0  0  0  0
    3.7312    5.1401   19.2423 N   0  0  0  0  0  0  0  0  0  0  0  0
    3.2267    4.6378   20.4239 C   0  0  0  0  0  0  0  0  0  0  0  0
    1.8345    4.7733   20.7218 C   0  0  0  0  0  0  0  0  0  0  0  0
    3.9644    4.0782   21.2126 O   0  0  0  0  0  0  0  0  0  0  0  0
    1.2620    4.2503   21.9598 N   0  0  0  0  0  0  0  0  0  0  0  0
   -0.0759    4.5737   22.3058 C   0  0  2  0  0  0  0  0  0  0  0  0
   -0.9926    4.8202   21.0780 C   0  0  0  0  0  0  0  0  0  0  0  0
    1.0047    5.4404   19.7710 C   0  0  0  0  0  0  0  0  0  0  0  0
   -0.4336    5.5948   20.0575 N   0  0  0  0  0  0  0  0  0  0  0  0
   -0.0420    5.7381   23.2788 C   0  0  1  0  0  0  0  0  0  0  0  0
    0.5570    6.8386   22.6987 O   0  0  0  0  0  0  0  0  0  0  0  0
   -1.4297    6.0763   23.7354 C   0  0  1  0  0  0  0  0  0  0  0  0
   -2.0574    4.9834   24.1920 O   0  0  0  0  0  0  0  0  0  0  0  0
   -1.4028    7.1240   24.8687 C   0  0  0  0  0  0  0  0  0  0  0  0
  1  2  2  0  0  0  0
  1 11  1  0  0  0  0
  2  3  1  0  0  0  0
  2  4  1  0  0  0  0
  4  5  1  0  0  0  0
  5  6  1  0  0  0  0
  5  7  2  0  0  0  0
  6  8  1  0  0  0  0
  6 11  2  0  0  0  0
  9  8  1  6  0  0  0
  9 10  1  0  0  0  0
  9 13  1  0  0  0  0
 10 12  1  0  0  0  0
 11 12  1  0  0  0  0
 13 14  1  6  0  0  0
 13 15  1  0  0  0  0
 15 16  1  1  0  0  0
 15 17  1  0  0  0  0
M  END
>  <CHROM.1>
60.45510752,51.97933685,0.96669031,5.42867393,21.22849743,0.78995392,0.37107511
-1.32219272

>  <Name>
ligand

>  <RI>
0

>  <Rbt.Current_Directory>
/home/itssahil/PROJECTS/Mol_Feturizer/New_Systems/rnas/4LVX

>  <Rbt.Executable>
rbdock ($Id: //depot/dev/client3/rdock/2013.1/src/exe/rbdock.cxx#4 $)

>  <Rbt.Library>
libRbt.so (2013.1, Build901 2013/11/27)

>  <Rbt.Parameter_File>
/export/apps/rDock/src/rDock_2013.1_src/data/scripts/dock_solv.prm

>  <Rbt.Receptor>
prm/pocket_docking_6.prm

>  <SCORE>
-17.1288

>  <SCORE.INTER>
-10.0429

>  <SCORE.INTER.CONST>
1

>  <SCORE.INTER.POLAR>
0

>  <SCORE.INTER.ROT>
2

>  <SCORE.INTER.SOLV>
12.9185

>  <SCORE.INTER.VDW>
-15.9348

>  <SCORE.INTER.norm>
-0.59076

>  <SCORE.INTRA>
-7.08584

>  <SCORE.INTRA.DIHEDRAL>
-9.92694

>  <SCORE.INTRA.DIHEDRAL.0>
10.3255

>  <SCORE.INTRA.POLAR>
0

>  <SCORE.INTRA.POLAR.0>
0

>  <SCORE.INTRA.REPUL>
0

>  <SCORE.INTRA.REPUL.0>
0

>  <SCORE.INTRA.SOLV>
-0.0887803

>  <SCORE.INTRA.SOLV.lig_0>
-53.4755

>  <SCORE.INTRA.VDW>
-2.07798

>  <SCORE.INTRA.VDW.0>
2.32763

>  <SCORE.INTRA.norm>
-0.416814

>  <SCORE.RESTR>
0

>  <SCORE.RESTR.CAVITY>
0

>  <SCORE.RESTR.norm>
0

>  <SCORE.SYSTEM>
0

>  <SCORE.SYSTEM.CONST>
0

>  <SCORE.SYSTEM.DIHEDRAL>
0

>  <SCORE.SYSTEM.SOLV>
0

>  <SCORE.SYSTEM.norm>
0

>  <SCORE.heavy>
17

>  <SCORE.norm>
-1.00757

>  <RMSD>
5.775

$$$$
ligand
 OpenBabel11021811503D
libRbt.so/2013.1/901 2013/11/27
 17 18  0  0  0  0  0  0  0  0999 V2000
    1.5422    5.9452   18.5763 N   0  0  0  0  0  0  0  0  0  0  0  0
    2.9119    5.7814   18.3333 C   0  0  0  0  0  0  0  0  0  0  0  0
    3.4842    6.2910   17.1209 N   0  0  0  0  0  0  0  0  0  0  0  0
    3.7312    5.1453   19.2408 N   0  0  0  0  0  0  0  0  0  0  0  0
    3.2271    4.6410   20.4217 C   0  0  0  0  0  0  0  0  0  0  0  0
    1.8346    4.7742   20.7194 C   0  0  0  0  0  0  0  0  0  0  0  0
    3.9653    4.0814   21.2099 O   0  0  0  0  0  0  0  0  0  0  0  0
    1.2626    4.2490   21.9567 N   0  0  0  0  0  0  0  0  0  0  0  0
   -0.0758    4.5702   22.3028 C   0  0  2  0  0  0  0  0  0  0  0  0
   -0.9926    4.8169   21.0750 C   0  0  0  0  0  0  0  0  0  0  0  0
    1.0042    5.4413   19.7692 C   0  0  0  0  0  0  0  0  0  0  0  0
   -0.4343    5.5935   20.0556 N   0  0  0  0  0  0  0  0  0  0  0  0
   -0.0437    5.7335   23.2772 C   0  0  1  0  0  0  0  0  0  0  0  0
    0.5545    6.8352   22.6987 O   0  0  0  0  0  0  0  0  0  0  0  0
   -1.4320    6.0697   23.7333 C   0  0  1  0  0  0  0  0  0  0  0  0
   -2.0550    4.9777   24.1985 O   0  0  0  0  0  0  0  0  0  0  0  0
   -1.4075    7.1254   24.8591 C   0  0  0  0  0  0  0  0  0  0  0  0
  1  2  2  0  0  0  0
  1 11  1  0  0  0  0
  2  3  1  0  0  0  0
  2  4  1  0  0  0  0
  4  5  1  0  0  0  0
  5  6  1  0  0  0  0
  5  7  2  0  0  0  0
  6  8  1  0  0  0  0
  6 11  2  0  0  0  0
  9  8  1  6  0  0  0
  9 10  1  0  0  0  0
  9 13  1  0  0  0  0
 10 12  1  0  0  0  0
 11 12  1  0  0  0  0
 13 14  1  6  0  0  0
 13 15  1  0  0  0  0
 15 16  1  1  0  0  0
 15 17  1  0  0  0  0
M  END
>  <CHROM.1>
60.42761554,52.48943936,0.96608305,5.42866277,21.22672212,0.78941575,0.37159905
-1.31966391

>  <Name>
ligand

>  <RI>
0

>  <Rbt.Current_Directory>
/home/itssahil/PROJECTS/Mol_Feturizer/New_Systems/rnas/4LVX

>  <Rbt.Executable>
rbdock ($Id: //depot/dev/client3/rdock/2013.1/src/exe/rbdock.cxx#4 $)

>  <Rbt.Library>
libRbt.so (2013.1, Build901 2013/11/27)

>  <Rbt.Parameter_File>
/export/apps/rDock/src/rDock_2013.1_src/data/scripts/dock_solv.prm

>  <Rbt.Receptor>
prm/pocket_docking_7.prm

>  <SCORE>
-17.1247

>  <SCORE.INTER>
-10.0238

>  <SCORE.INTER.CONST>
1

>  <SCORE.INTER.POLAR>
0

>  <SCORE.INTER.ROT>
2

>  <SCORE.INTER.SOLV>
12.9073

>  <SCORE.INTER.VDW>
-15.9183

>  <SCORE.INTER.norm>
-0.589637

>  <SCORE.INTRA>
-7.10083

>  <SCORE.INTRA.DIHEDRAL>
-9.95614

>  <SCORE.INTRA.DIHEDRAL.0>
10.3255

>  <SCORE.INTRA.POLAR>
0

>  <SCORE.INTRA.POLAR.0>
0

>  <SCORE.INTRA.REPUL>
0

>  <SCORE.INTRA.REPUL.0>
0

>  <SCORE.INTRA.SOLV>
-0.0914327

>  <SCORE.INTRA.SOLV.lig_0>
-53.4755

>  <SCORE.INTRA.VDW>
-2.07704

>  <SCORE.INTRA.VDW.0>
2.32763

>  <SCORE.INTRA.norm>
-0.417696

>  <SCORE.RESTR>
0

>  <SCORE.RESTR.CAVITY>
0

>  <SCORE.RESTR.norm>
0

>  <SCORE.SYSTEM>
0

>  <SCORE.SYSTEM.CONST>
0

>  <SCORE.SYSTEM.DIHEDRAL>
0

>  <SCORE.SYSTEM.SOLV>
0

>  <SCORE.SYSTEM.norm>
0

>  <SCORE.heavy>
17

>  <SCORE.norm>
-1.00733

>  <RMSD>
5.775

$$$$
ligand
 OpenBabel11021811503D
libRbt.so/2013.1/901 2013/11/27
 17 18  0  0  0  0  0  0  0  0999 V2000
    1.5444    5.9310   18.5817 N   0  0  0  0  0  0  0  0  0  0  0  0
    2.9138    5.7461   18.3524 C   0  0  0  0  0  0  0  0  0  0  0  0
    3.5053    6.2436   17.1441 N   0  0  0  0  0  0  0  0  0  0  0  0
    3.7147    5.1006   19.2696 N   0  0  0  0  0  0  0  0  0  0  0  0
    3.1918    4.6074   20.4469 C   0  0  0  0  0  0  0  0  0  0  0  0
    1.7987    4.7622   20.7308 C   0  0  0  0  0  0  0  0  0  0  0  0
    3.9140    4.0392   21.2439 O   0  0  0  0  0  0  0  0  0  0  0  0
    1.2070    4.2493   21.9639 N   0  0  0  0  0  0  0  0  0  0  0  0
   -0.1298    4.5914   22.2961 C   0  0  2  0  0  0  0  0  0  0  0  0
   -1.0309    4.8481   21.0588 C   0  0  0  0  0  0  0  0  0  0  0  0
    0.9875    5.4388   19.7707 C   0  0  0  0  0  0  0  0  0  0  0  0
   -0.4513    5.6132   20.0426 N   0  0  0  0  0  0  0  0  0  0  0  0
   -0.0898    5.7569   23.2674 C   0  0  1  0  0  0  0  0  0  0  0  0
    0.4856    6.8634   22.6749 O   0  0  0  0  0  0  0  0  0  0  0  0
   -1.4719    6.0803   23.7509 C   0  0  1  0  0  0  0  0  0  0  0  0
   -2.0722    4.9843   24.2360 O   0  0  0  0  0  0  0  0  0  0  0  0
   -1.4358    7.1435   24.8693 C   0  0  0  0  0  0  0  0  0  0  0  0
  1  2  2  0  0  0  0
  1 11  1  0  0  0  0
  2  3  1  0  0  0  0
  2  4  1  0  0  0  0
  4  5  1  0  0  0  0
  5  6  1  0  0  0  0
  5  7  2  0  0  0  0
  6  8  1  0  0  0  0
  6 11  2  0  0  0  0
  9  8  1  6  0  0  0
  9 10  1  0  0  0  0
  9 13  1  0  0  0  0
 10 12  1  0  0  0  0
 11 12  1  0  0  0  0
 13 14  1  6  0  0  0
 13 15  1  0  0  0  0
 15 16  1  1  0  0  0
 15 17  1  0  0  0  0
M  END
>  <CHROM.1>
62.65504274,52.76208552,0.93646346,5.42481621,21.23574705,0.77984523,0.38798355
-1.31064708

>  <Name>
ligand

>  <RI>
0

>  <Rbt.Current_Directory>
/home/itssahil/PROJECTS/Mol_Feturizer/New_Systems/rnas/4LVX

>  <Rbt.Executable>
rbdock ($Id: //depot/dev/client3/rdock/2013.1/src/exe/rbdock.cxx#4 $)

>  <Rbt.Library>
libRbt.so (2013.1, Build901 2013/11/27)

>  <Rbt.Parameter_File>
/export/apps/rDock/src/rDock_2013.1_src/data/scripts/dock_solv.prm

>  <Rbt.Receptor>
prm/pocket_docking_5.prm

>  <SCORE>
-17.0986

>  <SCORE.INTER>
-9.91819

>  <SCORE.INTER.CONST>
1

>  <SCORE.INTER.POLAR>
0

>  <SCORE.INTER.ROT>
2

>  <SCORE.INTER.SOLV>
13.2572

>  <SCORE.INTER.VDW>
-15.9645

>  <SCORE.INTER.norm>
-0.583423

>  <SCORE.INTRA>
-7.18044

>  <SCORE.INTRA.DIHEDRAL>
-9.94857

>  <SCORE.INTRA.DIHEDRAL.0>
10.3255

>  <SCORE.INTRA.POLAR>
0

>  <SCORE.INTRA.POLAR.0>
0

>  <SCORE.INTRA.REPUL>
0

>  <SCORE.INTRA.REPUL.0>
0

>  <SCORE.INTRA.SOLV>
-0.104751

>  <SCORE.INTRA.SOLV.lig_0>
-53.4755

>  <SCORE.INTRA.VDW>
-2.15377

>  <SCORE.INTRA.VDW.0>
2.32763

>  <SCORE.INTRA.norm>
-0.422379

>  <SCORE.RESTR>
0

>  <SCORE.RESTR.CAVITY>
0

>  <SCORE.RESTR.norm>
0

>  <SCORE.SYSTEM>
0

>  <SCORE.SYSTEM.CONST>
0

>  <SCORE.SYSTEM.DIHEDRAL>
0

>  <SCORE.SYSTEM.SOLV>
0

>  <SCORE.SYSTEM.norm>
0

>  <SCORE.heavy>
17

>  <SCORE.norm>
-1.0058

>  <RMSD>
5.776

$$$$
ligand
 OpenBabel11021811503D
libRbt.so/2013.1/901 2013/11/27
 17 18  0  0  0  0  0  0  0  0999 V2000
    1.5449    5.9219   18.5515 N   0  0  0  0  0  0  0  0  0  0  0  0
    2.9159    5.7519   18.3199 C   0  0  0  0  0  0  0  0  0  0  0  0
    3.4978    6.2462   17.1057 N   0  0  0  0  0  0  0  0  0  0  0  0
    3.7272    5.1242   19.2403 N   0  0  0  0  0  0  0  0  0  0  0  0
    3.2137    4.6348   20.4234 C   0  0  0  0  0  0  0  0  0  0  0  0
    1.8196    4.7748   20.7099 C   0  0  0  0  0  0  0  0  0  0  0  0
    3.9451    4.0824   21.2231 O   0  0  0  0  0  0  0  0  0  0  0  0
    1.2377    4.2653   21.9491 N   0  0  0  0  0  0  0  0  0  0  0  0
   -0.1023    4.5938   22.2821 C   0  0  2  0  0  0  0  0  0  0  0  0
   -1.0099    4.8286   21.0453 C   0  0  0  0  0  0  0  0  0  0  0  0
    0.9974    5.4331   19.7464 C   0  0  0  0  0  0  0  0  0  0  0  0
   -0.4427    5.5921   20.0209 N   0  0  0  0  0  0  0  0  0  0  0  0
   -0.0740    5.7681   23.2433 C   0  0  1  0  0  0  0  0  0  0  0  0
    0.4958    6.8733   22.6432 O   0  0  0  0  0  0  0  0  0  0  0  0
   -1.4601    6.0859   23.7190 C   0  0  1  0  0  0  0  0  0  0  0  0
   -2.0609    4.9863   24.1954 O   0  0  0  0  0  0  0  0  0  0  0  0
   -1.4341    7.1444   24.8421 C   0  0  0  0  0  0  0  0  0  0  0  0
  1  2  2  0  0  0  0
  1 11  1  0  0  0  0
  2  3  1  0  0  0  0
  2  4  1  0  0  0  0
  4  5  1  0  0  0  0
  5  6  1  0  0  0  0
  5  7  2  0  0  0  0
  6  8  1  0  0  0  0
  6 11  2  0  0  0  0
  9  8  1  6  0  0  0
  9 10  1  0  0  0  0
  9 13  1  0  0  0  0
 10 12  1  0  0  0  0
 11 12  1  0  0  0  0
 13 14  1  6  0  0  0
 13 15  1  0  0  0  0
 15 16  1  1  0  0  0
 15 17  1  0  0  0  0
M  END
>  <CHROM.1>
62.17663518,51.95177958,0.94997416,5.43130962,21.20971085,0.78605788,0.37298442
-1.32518544

>  <Name>
ligand

>  <RI>
0

>  <Rbt.Current_Directory>
/home/itssahil/PROJECTS/Mol_Feturizer/New_Systems/rnas/4LVX

>  <Rbt.Executable>
rbdock ($Id: //depot/dev/client3/rdock/2013.1/src/exe/rbdock.cxx#4 $)

>  <Rbt.Library>
libRbt.so (2013.1, Build901 2013/11/27)

>  <Rbt.Parameter_File>
/export/apps/rDock/src/rDock_2013.1_src/data/scripts/dock_solv.prm

>  <Rbt.Receptor>
prm/pocket_docking_4.prm

>  <SCORE>
-17.1174

>  <SCORE.INTER>
-9.97403

>  <SCORE.INTER.CONST>
1

>  <SCORE.INTER.POLAR>
0

>  <SCORE.INTER.ROT>
2

>  <SCORE.INTER.SOLV>
13.1001

>  <SCORE.INTER.VDW>
-15.9494

>  <SCORE.INTER.norm>
-0.586708

>  <SCORE.INTRA>
-7.14342

>  <SCORE.INTRA.DIHEDRAL>
-9.9107

>  <SCORE.INTRA.DIHEDRAL.0>
10.3255

>  <SCORE.INTRA.POLAR>
0

>  <SCORE.INTRA.POLAR.0>
0

>  <SCORE.INTRA.REPUL>
0

>  <SCORE.INTRA.REPUL.0>
0

>  <SCORE.INTRA.SOLV>
-0.0978325

>  <SCORE.INTRA.SOLV.lig_0>
-53.4755

>  <SCORE.INTRA.VDW>
-2.13915

>  <SCORE.INTRA.VDW.0>
2.32763

>  <SCORE.INTRA.norm>
-0.420201

>  <SCORE.RESTR>
0

>  <SCORE.RESTR.CAVITY>
0

>  <SCORE.RESTR.norm>
0

>  <SCORE.SYSTEM>
0

>  <SCORE.SYSTEM.CONST>
0

>  <SCORE.SYSTEM.DIHEDRAL>
0

>  <SCORE.SYSTEM.SOLV>
0

>  <SCORE.SYSTEM.norm>
0

>  <SCORE.heavy>
17

>  <SCORE.norm>
-1.00691

>  <RMSD>
5.781

$$$$
ligand
 OpenBabel11021811503D
libRbt.so/2013.1/901 2013/11/27
 17 18  0  0  0  0  0  0  0  0999 V2000
    1.5837    5.9004   18.5749 N   0  0  0  0  0  0  0  0  0  0  0  0
    2.9575    5.7373   18.3554 C   0  0  0  0  0  0  0  0  0  0  0  0
    3.5478    6.2350   17.1467 N   0  0  0  0  0  0  0  0  0  0  0  0
    3.7638    5.1134   19.2828 N   0  0  0  0  0  0  0  0  0  0  0  0
    3.2422    4.6208   20.4610 C   0  0  0  0  0  0  0  0  0  0  0  0
    1.8449    4.7538   20.7352 C   0  0  0  0  0  0  0  0  0  0  0  0
    3.9691    4.0718   21.2670 O   0  0  0  0  0  0  0  0  0  0  0  0
    1.2545    4.2409   21.9690 N   0  0  0  0  0  0  0  0  0  0  0  0
   -0.0900    4.5625   22.2902 C   0  0  2  0  0  0  0  0  0  0  0  0
   -0.9877    4.7934   21.0454 C   0  0  0  0  0  0  0  0  0  0  0  0
    1.0280    5.4083   19.7646 C   0  0  0  0  0  0  0  0  0  0  0  0
   -0.4152    5.5601   20.0264 N   0  0  0  0  0  0  0  0  0  0  0  0
   -0.0761    5.7365   23.2520 C   0  0  1  0  0  0  0  0  0  0  0  0
    0.4862    6.8471   22.6547 O   0  0  0  0  0  0  0  0  0  0  0  0
   -1.4669    6.0417   23.7221 C   0  0  1  0  0  0  0  0  0  0  0  0
   -2.0626    4.9351   24.1884 O   0  0  0  0  0  0  0  0  0  0  0  0
   -1.4543    7.0933   24.8519 C   0  0  0  0  0  0  0  0  0  0  0  0
  1  2  2  0  0  0  0
  1 11  1  0  0  0  0
  2  3  1  0  0  0  0
  2  4  1  0  0  0  0
  4  5  1  0  0  0  0
  5  6  1  0  0  0  0
  5  7  2  0  0  0  0
  6  8  1  0  0  0  0
  6 11  2  0  0  0  0
  9  8  1  6  0  0  0
  9 10  1  0  0  0  0
  9 13  1  0  0  0  0
 10 12  1  0  0  0  0
 11 12  1  0  0  0  0
 13 14  1  6  0  0  0
 13 15  1  0  0  0  0
 15 16  1  1  0  0  0
 15 17  1  0  0  0  0
M  END
>  <CHROM.1>
62.53203766,51.59406953,0.96768279,5.40416270,21.22866425,0.77934522,0.36517461
-1.32201520

>  <Name>
ligand

>  <RI>
0

>  <Rbt.Current_Directory>
/home/itssahil/PROJECTS/Mol_Feturizer/New_Systems/rnas/4LVX

>  <Rbt.Executable>
rbdock ($Id: //depot/dev/client3/rdock/2013.1/src/exe/rbdock.cxx#4 $)

>  <Rbt.Library>
libRbt.so (2013.1, Build901 2013/11/27)

>  <Rbt.Parameter_File>
/export/apps/rDock/src/rDock_2013.1_src/data/scripts/dock_solv.prm

>  <Rbt.Receptor>
prm/pocket_docking_8.prm

>  <SCORE>
-17.0702

>  <SCORE.INTER>
-9.92916

>  <SCORE.INTER.CONST>
1

>  <SCORE.INTER.POLAR>
0

>  <SCORE.INTER.ROT>
2

>  <SCORE.INTER.SOLV>
13.2587

>  <SCORE.INTER.VDW>
-15.9723

>  <SCORE.INTER.norm>
-0.584068

>  <SCORE.INTRA>
-7.14105

>  <SCORE.INTRA.DIHEDRAL>
-9.88356

>  <SCORE.INTRA.DIHEDRAL.0>
10.3255

>  <SCORE.INTRA.POLAR>
0

>  <SCORE.INTRA.POLAR.0>
0

>  <SCORE.INTRA.REPUL>
0

>  <SCORE.INTRA.REPUL.0>
0

>  <SCORE.INTRA.SOLV>
-0.097799

>  <SCORE.INTRA.SOLV.lig_0>
-53.4755

>  <SCORE.INTRA.VDW>
-2.15037

>  <SCORE.INTRA.VDW.0>
2.32763

>  <SCORE.INTRA.norm>
-0.420062

>  <SCORE.RESTR>
0

>  <SCORE.RESTR.CAVITY>
0

>  <SCORE.RESTR.norm>
0

>  <SCORE.SYSTEM>
0

>  <SCORE.SYSTEM.CONST>
0

>  <SCORE.SYSTEM.DIHEDRAL>
0

>  <SCORE.SYSTEM.SOLV>
0

>  <SCORE.SYSTEM.norm>
0

>  <SCORE.heavy>
17

>  <SCORE.norm>
-1.00413

>  <RMSD>
5.782

$$$$
ligand
 OpenBabel11021811503D
libRbt.so/2013.1/901 2013/11/27
 17 18  0  0  0  0  0  0  0  0999 V2000
    1.7850    5.8257   18.7232 N   0  0  0  0  0  0  0  0  0  0  0  0
    3.1595    5.5997   18.5761 C   0  0  0  0  0  0  0  0  0  0  0  0
    3.8338    6.0643   17.3985 N   0  0  0  0  0  0  0  0  0  0  0  0
    3.8873    4.9444   19.5458 N   0  0  0  0  0  0  0  0  0  0  0  0
    3.2833    4.4816   20.6964 C   0  0  0  0  0  0  0  0  0  0  0  0
    1.8811    4.6790   20.8970 C   0  0  0  0  0  0  0  0  0  0  0  0
    3.9417    3.9042   21.5406 O   0  0  0  0  0  0  0  0  0  0  0  0
    1.2047    4.1992   22.0995 N   0  0  0  0  0  0  0  0  0  0  0  0
   -0.1387    4.5828   22.3494 C   0  0  2  0  0  0  0  0  0  0  0  0
   -0.9591    4.8480   21.0589 C   0  0  0  0  0  0  0  0  0  0  0  0
    1.1464    5.3650   19.8835 C   0  0  0  0  0  0  0  0  0  0  0  0
   -0.3001    5.5831   20.0693 N   0  0  0  0  0  0  0  0  0  0  0  0
   -0.1216    5.7596   23.3077 C   0  0  1  0  0  0  0  0  0  0  0  0
    0.4713    6.8581   22.7175 O   0  0  0  0  0  0  0  0  0  0  0  0
   -1.5152    6.0911   23.7511 C   0  0  1  0  0  0  0  0  0  0  0  0
   -2.1358    4.9986   24.2183 O   0  0  0  0  0  0  0  0  0  0  0  0
   -1.5051    7.1538   24.8705 C   0  0  0  0  0  0  0  0  0  0  0  0
  1  2  2  0  0  0  0
  1 11  1  0  0  0  0
  2  3  1  0  0  0  0
  2  4  1  0  0  0  0
  4  5  1  0  0  0  0
  5  6  1  0  0  0  0
  5  7  2  0  0  0  0
  6  8  1  0  0  0  0
  6 11  2  0  0  0  0
  9  8  1  6  0  0  0
  9 10  1  0  0  0  0
  9 13  1  0  0  0  0
 10 12  1  0  0  0  0
 11 12  1  0  0  0  0
 13 14  1  6  0  0  0
 13 15  1  0  0  0  0
 15 16  1  1  0  0  0
 15 17  1  0  0  0  0
M  END
>  <CHROM.1>
65.02510859,52.01820212,1.01114085,5.36395383,21.35148912,0.71741684,0.40055253
-1.29281946

>  <Name>
ligand

>  <RI>
0

>  <Rbt.Current_Directory>
/home/itssahil/PROJECTS/Mol_Feturizer/New_Systems/rnas/4LVX

>  <Rbt.Executable>
rbdock ($Id: //depot/dev/client3/rdock/2013.1/src/exe/rbdock.cxx#4 $)

>  <Rbt.Library>
libRbt.so (2013.1, Build901 2013/11/27)

>  <Rbt.Parameter_File>
/export/apps/rDock/src/rDock_2013.1_src/data/scripts/dock_solv.prm

>  <Rbt.Receptor>
prm/pocket_docking_4.prm

>  <SCORE>
-17.056

>  <SCORE.INTER>
-9.85667

>  <SCORE.INTER.CONST>
1

>  <SCORE.INTER.POLAR>
0

>  <SCORE.INTER.ROT>
2

>  <SCORE.INTER.SOLV>
13.9754

>  <SCORE.INTER.VDW>
-16.1629

>  <SCORE.INTER.norm>
-0.579804

>  <SCORE.INTRA>
-7.19938

>  <SCORE.INTRA.DIHEDRAL>
-9.84511

>  <SCORE.INTRA.DIHEDRAL.0>
10.3255

>  <SCORE.INTRA.POLAR>
0

>  <SCORE.INTRA.POLAR.0>
0

>  <SCORE.INTRA.REPUL>
0

>  <SCORE.INTRA.REPUL.0>
0

>  <SCORE.INTRA.SOLV>
-0.113288

>  <SCORE.INTRA.SOLV.lig_0>
-53.4755

>  <SCORE.INTRA.VDW>
-2.22018

>  <SCORE.INTRA.VDW.0>
2.32763

>  <SCORE.INTRA.norm>
-0.423493

>  <SCORE.RESTR>
0

>  <SCORE.RESTR.CAVITY>
0

>  <SCORE.RESTR.norm>
0

>  <SCORE.SYSTEM>
0

>  <SCORE.SYSTEM.CONST>
0

>  <SCORE.SYSTEM.DIHEDRAL>
0

>  <SCORE.SYSTEM.SOLV>
0

>  <SCORE.SYSTEM.norm>
0

>  <SCORE.heavy>
17

>  <SCORE.norm>
-1.0033

>  <RMSD>
5.784

$$$$
ligand
 OpenBabel11021811503D
libRbt.so/2013.1/901 2013/11/27
 17 18  0  0  0  0  0  0  0  0999 V2000
    1.6111    5.9114   18.5704 N   0  0  0  0  0  0  0  0  0  0  0  0
    2.9853    5.7445   18.3570 C   0  0  0  0  0  0  0  0  0  0  0  0
    3.5823    6.2410   17.1510 N   0  0  0  0  0  0  0  0  0  0  0  0
    3.7857    5.1180   19.2877 N   0  0  0  0  0  0  0  0  0  0  0  0
    3.2575    4.6266   20.4634 C   0  0  0  0  0  0  0  0  0  0  0  0
    1.8594    4.7634   20.7315 C   0  0  0  0  0  0  0  0  0  0  0  0
    3.9793    4.0752   21.2724 O   0  0  0  0  0  0  0  0  0  0  0  0
    1.2621    4.2518   21.9624 N   0  0  0  0  0  0  0  0  0  0  0  0
   -0.0829    4.5771   22.2778 C   0  0  2  0  0  0  0  0  0  0  0  0
   -0.9744    4.8109   21.0292 C   0  0  0  0  0  0  0  0  0  0  0  0
    1.0487    5.4206   19.7575 C   0  0  0  0  0  0  0  0  0  0  0  0
   -0.3952    5.5763   20.0130 N   0  0  0  0  0  0  0  0  0  0  0  0
   -0.0699    5.7508   23.2401 C   0  0  1  0  0  0  0  0  0  0  0  0
    0.4924    6.8618   22.6435 O   0  0  0  0  0  0  0  0  0  0  0  0
   -1.4611    6.0553   23.7095 C   0  0  1  0  0  0  0  0  0  0  0  0
   -2.0635    4.9446   24.1571 O   0  0  0  0  0  0  0  0  0  0  0  0
   -1.4480    7.0899   24.8549 C   0  0  0  0  0  0  0  0  0  0  0  0
  1  2  2  0  0  0  0
  1 11  1  0  0  0  0
  2  3  1  0  0  0  0
  2  4  1  0  0  0  0
  4  5  1  0  0  0  0
  5  6  1  0  0  0  0
  5  7  2  0  0  0  0
  6  8  1  0  0  0  0
  6 11  2  0  0  0  0
  9  8  1  6  0  0  0
  9 10  1  0  0  0  0
  9 13  1  0  0  0  0
 10 12  1  0  0  0  0
 11 12  1  0  0  0  0
 13 14  1  6  0  0  0
 13 15  1  0  0  0  0
 15 16  1  1  0  0  0
 15 17  1  0  0  0  0
M  END
>  <CHROM.1>
62.81843814,50.69741922,0.98167462,5.41393882,21.22203105,0.77571426,0.36394831
-1.32159452

>  <Name>
ligand

>  <RI>
0

>  <Rbt.Current_Directory>
/home/itssahil/PROJECTS/Mol_Feturizer/New_Systems/rnas/4LVX

>  <Rbt.Executable>
rbdock ($Id: //depot/dev/client3/rdock/2013.1/src/exe/rbdock.cxx#4 $)

>  <Rbt.Library>
libRbt.so (2013.1, Build901 2013/11/27)

>  <Rbt.Parameter_File>
/export/apps/rDock/src/rDock_2013.1_src/data/scripts/dock_solv.prm

>  <Rbt.Receptor>
prm/pocket_docking_7.prm

>  <SCORE>
-17.0844

>  <SCORE.INTER>
-9.96942

>  <SCORE.INTER.CONST>
1

>  <SCORE.INTER.POLAR>
0

>  <SCORE.INTER.ROT>
2

>  <SCORE.INTER.SOLV>
13.1482

>  <SCORE.INTER.VDW>
-15.9624

>  <SCORE.INTER.norm>
-0.586437

>  <SCORE.INTRA>
-7.11497

>  <SCORE.INTRA.DIHEDRAL>
-9.82071

>  <SCORE.INTRA.DIHEDRAL.0>
10.3255

>  <SCORE.INTRA.POLAR>
0

>  <SCORE.INTRA.POLAR.0>
0

>  <SCORE.INTRA.REPUL>
0

>  <SCORE.INTRA.REPUL.0>
0

>  <SCORE.INTRA.SOLV>
-0.0945219

>  <SCORE.INTRA.SOLV.lig_0>
-53.4755

>  <SCORE.INTRA.VDW>
-2.15735

>  <SCORE.INTRA.VDW.0>
2.32763

>  <SCORE.INTRA.norm>
-0.418527

>  <SCORE.RESTR>
0

>  <SCORE.RESTR.CAVITY>
0

>  <SCORE.RESTR.norm>
0

>  <SCORE.SYSTEM>
0

>  <SCORE.SYSTEM.CONST>
0

>  <SCORE.SYSTEM.DIHEDRAL>
0

>  <SCORE.SYSTEM.SOLV>
0

>  <SCORE.SYSTEM.norm>
0

>  <SCORE.heavy>
17

>  <SCORE.norm>
-1.00496

>  <RMSD>
5.787

$$$$
ligand
 OpenBabel11021811503D
libRbt.so/2013.1/901 2013/11/27
 17 18  0  0  0  0  0  0  0  0999 V2000
    0.6261    4.9651   17.9027 N   0  0  0  0  0  0  0  0  0  0  0  0
    0.5592    5.8923   16.8549 C   0  0  0  0  0  0  0  0  0  0  0  0
    0.5166    5.4291   15.4981 N   0  0  0  0  0  0  0  0  0  0  0  0
    0.5244    7.2485   17.0973 N   0  0  0  0  0  0  0  0  0  0  0  0
    0.5605    7.7415   18.3852 C   0  0  0  0  0  0  0  0  0  0  0  0
    0.6352    6.8409   19.4936 C   0  0  0  0  0  0  0  0  0  0  0  0
    0.5304    8.9418   18.5795 O   0  0  0  0  0  0  0  0  0  0  0  0
    0.6803    7.3245   20.8713 N   0  0  0  0  0  0  0  0  0  0  0  0
    0.5581    6.4022   21.9431 C   0  0  2  0  0  0  0  0  0  0  0  0
    1.0940    4.9849   21.6070 C   0  0  0  0  0  0  0  0  0  0  0  0
    0.6643    5.4399   19.2216 C   0  0  0  0  0  0  0  0  0  0  0  0
    0.7382    4.4916   20.3485 N   0  0  0  0  0  0  0  0  0  0  0  0
   -0.8871    6.4082   22.4066 C   0  0  1  0  0  0  0  0  0  0  0  0
   -1.6773    5.6764   21.5427 O   0  0  0  0  0  0  0  0  0  0  0  0
   -0.9899    5.8634   23.7999 C   0  0  1  0  0  0  0  0  0  0  0  0
   -0.0800    6.4362   24.6005 O   0  0  0  0  0  0  0  0  0  0  0  0
   -2.3887    6.1247   24.3979 C   0  0  0  0  0  0  0  0  0  0  0  0
  1  2  2  0  0  0  0
  1 11  1  0  0  0  0
  2  3  1  0  0  0  0
  2  4  1  0  0  0  0
  4  5  1  0  0  0  0
  5  6  1  0  0  0  0
  5  7  2  0  0  0  0
  6  8  1  0  0  0  0
  6 11  2  0  0  0  0
  9  8  1  6  0  0  0
  9 10  1  0  0  0  0
  9 13  1  0  0  0  0
 10 12  1  0  0  0  0
 11 12  1  0  0  0  0
 13 14  1  6  0  0  0
 13 15  1  0  0  0  0
 15 16  1  1  0  0  0
 15 17  1  0  0  0  0
M  END
>  <CHROM.1>
77.80965216,48.17161344,0.06365416,6.25916044,20.34891639,-0.07498396,-1.33602676
3.11339016

>  <Name>
ligand

>  <RI>
0

>  <Rbt.Current_Directory>
/home/itssahil/PROJECTS/Mol_Feturizer/New_Systems/rnas/4LVX

>  <Rbt.Executable>
rbdock ($Id: //depot/dev/client3/rdock/2013.1/src/exe/rbdock.cxx#4 $)

>  <Rbt.Library>
libRbt.so (2013.1, Build901 2013/11/27)

>  <Rbt.Parameter_File>
/export/apps/rDock/src/rDock_2013.1_src/data/scripts/dock_solv.prm

>  <Rbt.Receptor>
prm/pocket_docking_8.prm

>  <SCORE>
-15.9448

>  <SCORE.INTER>
-9.27433

>  <SCORE.INTER.CONST>
1

>  <SCORE.INTER.POLAR>
0

>  <SCORE.INTER.ROT>
2

>  <SCORE.INTER.SOLV>
10.0728

>  <SCORE.INTER.VDW>
-14.4738

>  <SCORE.INTER.norm>
-0.545549

>  <SCORE.INTRA>
-6.67049

>  <SCORE.INTRA.DIHEDRAL>
-8.63181

>  <SCORE.INTRA.DIHEDRAL.0>
10.3255

>  <SCORE.INTRA.POLAR>
0

>  <SCORE.INTRA.POLAR.0>
0

>  <SCORE.INTRA.REPUL>
0

>  <SCORE.INTRA.REPUL.0>
0

>  <SCORE.INTRA.SOLV>
-0.160742

>  <SCORE.INTRA.SOLV.lig_0>
-53.4755

>  <SCORE.INTRA.VDW>
-2.27422

>  <SCORE.INTRA.VDW.0>
2.32763

>  <SCORE.INTRA.norm>
-0.392382

>  <SCORE.RESTR>
0

>  <SCORE.RESTR.CAVITY>
0

>  <SCORE.RESTR.norm>
0

>  <SCORE.SYSTEM>
0

>  <SCORE.SYSTEM.CONST>
0

>  <SCORE.SYSTEM.DIHEDRAL>
0

>  <SCORE.SYSTEM.SOLV>
0

>  <SCORE.SYSTEM.norm>
0

>  <SCORE.heavy>
17

>  <SCORE.norm>
-0.937931

>  <RMSD>
5.790

$$$$
ligand
 OpenBabel11021811503D
libRbt.so/2013.1/901 2013/11/27
 17 18  0  0  0  0  0  0  0  0999 V2000
    4.4980    5.2698   20.1476 N   0  0  0  0  0  0  0  0  0  0  0  0
    5.4392    4.8163   21.0805 C   0  0  0  0  0  0  0  0  0  0  0  0
    6.8164    5.1919   20.9403 N   0  0  0  0  0  0  0  0  0  0  0  0
    5.0710    4.0190   22.1426 N   0  0  0  0  0  0  0  0  0  0  0  0
    3.7583    3.6340   22.3206 C   0  0  0  0  0  0  0  0  0  0  0  0
    2.7557    4.0625   21.3951 C   0  0  0  0  0  0  0  0  0  0  0  0
    3.4524    2.9288   23.2632 O   0  0  0  0  0  0  0  0  0  0  0  0
    1.3564    3.6716   21.5469 N   0  0  0  0  0  0  0  0  0  0  0  0
    0.3670    4.2722   20.7256 C   0  0  2  0  0  0  0  0  0  0  0  0
    0.8971    4.7102   19.3342 C   0  0  0  0  0  0  0  0  0  0  0  0
    3.1567    4.8925   20.3052 C   0  0  0  0  0  0  0  0  0  0  0  0
    2.1401    5.3495   19.3396 N   0  0  0  0  0  0  0  0  0  0  0  0
   -0.2750    5.4011   21.5111 C   0  0  1  0  0  0  0  0  0  0  0  0
   -1.2740    6.0012   20.7706 O   0  0  0  0  0  0  0  0  0  0  0  0
   -0.8214    4.8875   22.8097 C   0  0  1  0  0  0  0  0  0  0  0  0
    0.1736    4.5258   23.6319 O   0  0  0  0  0  0  0  0  0  0  0  0
   -1.6666    5.9645   23.5225 C   0  0  0  0  0  0  0  0  0  0  0  0
  1  2  2  0  0  0  0
  1 11  1  0  0  0  0
  2  3  1  0  0  0  0
  2  4  1  0  0  0  0
  4  5  1  0  0  0  0
  5  6  1  0  0  0  0
  5  7  2  0  0  0  0
  6  8  1  0  0  0  0
  6 11  2  0  0  0  0
  9  8  1  1  0  0  0
  9 10  1  0  0  0  0
  9 13  1  0  0  0  0
 10 12  1  0  0  0  0
 11 12  1  0  0  0  0
 13 14  1  6  0  0  0
 13 15  1  0  0  0  0
 15 16  1  1  0  0  0
 15 17  1  0  0  0  0
M  END
>  <CHROM.1>
-178.41886060,68.60945025,2.03089898,4.69195785,21.49835576,0.09954896,0.16851456
-1.23015357

>  <Name>
ligand

>  <RI>
0

>  <Rbt.Current_Directory>
/home/itssahil/PROJECTS/Mol_Feturizer/New_Systems/rnas/4LVX

>  <Rbt.Executable>
rbdock ($Id: //depot/dev/client3/rdock/2013.1/src/exe/rbdock.cxx#4 $)

>  <Rbt.Library>
libRbt.so (2013.1, Build901 2013/11/27)

>  <Rbt.Parameter_File>
/export/apps/rDock/src/rDock_2013.1_src/data/scripts/dock_solv.prm

>  <Rbt.Receptor>
prm/pocket_docking_3.prm

>  <SCORE>
-17.3972

>  <SCORE.INTER>
-11.275

>  <SCORE.INTER.CONST>
1

>  <SCORE.INTER.POLAR>
0

>  <SCORE.INTER.ROT>
2

>  <SCORE.INTER.SOLV>
11.3852

>  <SCORE.INTER.VDW>
-16.2451

>  <SCORE.INTER.norm>
-0.663236

>  <SCORE.INTRA>
-6.48705

>  <SCORE.INTRA.DIHEDRAL>
-9.9118

>  <SCORE.INTRA.DIHEDRAL.0>
10.3255

>  <SCORE.INTRA.POLAR>
0

>  <SCORE.INTRA.POLAR.0>
0

>  <SCORE.INTRA.REPUL>
0

>  <SCORE.INTRA.REPUL.0>
0

>  <SCORE.INTRA.SOLV>
0.04081

>  <SCORE.INTRA.SOLV.lig_0>
-53.4755

>  <SCORE.INTRA.VDW>
-1.55155

>  <SCORE.INTRA.VDW.0>
2.32763

>  <SCORE.INTRA.norm>
-0.381591

>  <SCORE.RESTR>
0.3649

>  <SCORE.RESTR.CAVITY>
0.3649

>  <SCORE.RESTR.norm>
0.0214647

>  <SCORE.SYSTEM>
0

>  <SCORE.SYSTEM.CONST>
0

>  <SCORE.SYSTEM.DIHEDRAL>
0

>  <SCORE.SYSTEM.SOLV>
0

>  <SCORE.SYSTEM.norm>
0

>  <SCORE.heavy>
17

>  <SCORE.norm>
-1.02336

>  <RMSD>
5.792

$$$$
ligand
 OpenBabel11021811503D
libRbt.so/2013.1/901 2013/11/27
 17 18  0  0  0  0  0  0  0  0999 V2000
    3.5312    5.9900   20.3765 N   0  0  0  0  0  0  0  0  0  0  0  0
    4.7243    5.3065   20.6436 C   0  0  0  0  0  0  0  0  0  0  0  0
    5.9470    5.7481   20.0377 N   0  0  0  0  0  0  0  0  0  0  0  0
    4.7543    4.2170   21.4871 N   0  0  0  0  0  0  0  0  0  0  0  0
    3.6046    3.7570   22.0950 C   0  0  0  0  0  0  0  0  0  0  0  0
    2.3567    4.4125   21.8536 C   0  0  0  0  0  0  0  0  0  0  0  0
    3.6504    2.7930   22.8353 O   0  0  0  0  0  0  0  0  0  0  0  0
    1.1173    3.9522   22.4747 N   0  0  0  0  0  0  0  0  0  0  0  0
   -0.0574    4.7410   22.3655 C   0  0  2  0  0  0  0  0  0  0  0  0
   -0.1162    5.5914   21.0685 C   0  0  0  0  0  0  0  0  0  0  0  0
    2.3480    5.5426   20.9815 C   0  0  0  0  0  0  0  0  0  0  0  0
    1.0736    6.2369   20.7197 N   0  0  0  0  0  0  0  0  0  0  0  0
   -0.1919    5.5630   23.6343 C   0  0  1  0  0  0  0  0  0  0  0  0
    0.9118    6.3746   23.8066 O   0  0  0  0  0  0  0  0  0  0  0  0
   -1.4455    6.3848   23.5926 C   0  0  1  0  0  0  0  0  0  0  0  0
   -2.4813    5.6471   23.1683 O   0  0  0  0  0  0  0  0  0  0  0  0
   -1.7925    6.9420   24.9896 C   0  0  0  0  0  0  0  0  0  0  0  0
  1  2  2  0  0  0  0
  1 11  1  0  0  0  0
  2  3  1  0  0  0  0
  2  4  1  0  0  0  0
  4  5  1  0  0  0  0
  5  6  1  0  0  0  0
  5  7  2  0  0  0  0
  6  8  1  0  0  0  0
  6 11  2  0  0  0  0
  9  8  1  1  0  0  0
  9 10  1  0  0  0  0
  9 13  1  0  0  0  0
 10 12  1  0  0  0  0
 11 12  1  0  0  0  0
 13 14  1  6  0  0  0
 13 15  1  0  0  0  0
 15 16  1  1  0  0  0
 15 17  1  0  0  0  0
M  END
>  <CHROM.1>
59.35455380,45.30884925,1.57662004,5.25939962,22.17840643,0.13276808,0.44207395
-0.76009566

>  <Name>
ligand

>  <RI>
0

>  <Rbt.Current_Directory>
/home/itssahil/PROJECTS/Mol_Feturizer/New_Systems/rnas/4LVX

>  <Rbt.Executable>
rbdock ($Id: //depot/dev/client3/rdock/2013.1/src/exe/rbdock.cxx#4 $)

>  <Rbt.Library>
libRbt.so (2013.1, Build901 2013/11/27)

>  <Rbt.Parameter_File>
/export/apps/rDock/src/rDock_2013.1_src/data/scripts/dock_solv.prm

>  <Rbt.Receptor>
prm/pocket_docking_6.prm

>  <SCORE>
-15.1559

>  <SCORE.INTER>
-8.47356

>  <SCORE.INTER.CONST>
1

>  <SCORE.INTER.POLAR>
0

>  <SCORE.INTER.ROT>
2

>  <SCORE.INTER.SOLV>
10.3773

>  <SCORE.INTER.VDW>
-14.0415

>  <SCORE.INTER.norm>
-0.498445

>  <SCORE.INTRA>
-6.68231

>  <SCORE.INTRA.DIHEDRAL>
-9.39361

>  <SCORE.INTRA.DIHEDRAL.0>
10.3255

>  <SCORE.INTRA.POLAR>
0

>  <SCORE.INTRA.POLAR.0>
0

>  <SCORE.INTRA.REPUL>
0

>  <SCORE.INTRA.REPUL.0>
0

>  <SCORE.INTRA.SOLV>
-0.0464742

>  <SCORE.INTRA.SOLV.lig_0>
-53.4755

>  <SCORE.INTRA.VDW>
-1.96227

>  <SCORE.INTRA.VDW.0>
2.32763

>  <SCORE.INTRA.norm>
-0.393077

>  <SCORE.RESTR>
0

>  <SCORE.RESTR.CAVITY>
0

>  <SCORE.RESTR.norm>
0

>  <SCORE.SYSTEM>
0

>  <SCORE.SYSTEM.CONST>
0

>  <SCORE.SYSTEM.DIHEDRAL>
0

>  <SCORE.SYSTEM.SOLV>
0

>  <SCORE.SYSTEM.norm>
0

>  <SCORE.heavy>
17

>  <SCORE.norm>
-0.891522

>  <RMSD>
5.793

$$$$
ligand
 OpenBabel11021811503D
libRbt.so/2013.1/901 2013/11/27
 17 18  0  0  0  0  0  0  0  0999 V2000
    4.4109    5.4222   19.9642 N   0  0  0  0  0  0  0  0  0  0  0  0
    5.4046    4.9787   20.8463 C   0  0  0  0  0  0  0  0  0  0  0  0
    6.7635    5.3947   20.6527 N   0  0  0  0  0  0  0  0  0  0  0  0
    5.1054    4.1533   21.9086 N   0  0  0  0  0  0  0  0  0  0  0  0
    3.8127    3.7291   22.1369 C   0  0  0  0  0  0  0  0  0  0  0  0
    2.7588    4.1457   21.2645 C   0  0  0  0  0  0  0  0  0  0  0  0
    3.5680    2.9995   23.0788 O   0  0  0  0  0  0  0  0  0  0  0  0
    1.3787    3.7138   21.4704 N   0  0  0  0  0  0  0  0  0  0  0  0
    0.3380    4.3009   20.7045 C   0  0  2  0  0  0  0  0  0  0  0  0
    0.7938    4.7774   19.2996 C   0  0  0  0  0  0  0  0  0  0  0  0
    3.0886    5.0053   20.1736 C   0  0  0  0  0  0  0  0  0  0  0  0
    2.0183    5.4506   19.2623 N   0  0  0  0  0  0  0  0  0  0  0  0
   -0.2985    5.3978   21.5383 C   0  0  1  0  0  0  0  0  0  0  0  0
   -1.3426    5.9856   20.8521 O   0  0  0  0  0  0  0  0  0  0  0  0
   -0.7766    4.8461   22.8481 C   0  0  1  0  0  0  0  0  0  0  0  0
    0.2606    4.4834   23.6159 O   0  0  0  0  0  0  0  0  0  0  0  0
   -1.6060    5.8920   23.6232 C   0  0  0  0  0  0  0  0  0  0  0  0
  1  2  2  0  0  0  0
  1 11  1  0  0  0  0
  2  3  1  0  0  0  0
  2  4  1  0  0  0  0
  4  5  1  0  0  0  0
  5  6  1  0  0  0  0
  5  7  2  0  0  0  0
  6  8  1  0  0  0  0
  6 11  2  0  0  0  0
  9  8  1  1  0  0  0
  9 10  1  0  0  0  0
  9 13  1  0  0  0  0
 10 12  1  0  0  0  0
 11 12  1  0  0  0  0
 13 14  1  6  0  0  0
 13 15  1  0  0  0  0
 15 16  1  1  0  0  0
 15 17  1  0  0  0  0
M  END
>  <CHROM.1>
-178.59884315,68.03497632,2.02274327,4.75243081,21.41085214,0.15097369,0.15786546
-1.21922982

>  <Name>
ligand

>  <RI>
0

>  <Rbt.Current_Directory>
/home/itssahil/PROJECTS/Mol_Feturizer/New_Systems/rnas/4LVX

>  <Rbt.Executable>
rbdock ($Id: //depot/dev/client3/rdock/2013.1/src/exe/rbdock.cxx#4 $)

>  <Rbt.Library>
libRbt.so (2013.1, Build901 2013/11/27)

>  <Rbt.Parameter_File>
/export/apps/rDock/src/rDock_2013.1_src/data/scripts/dock_solv.prm

>  <Rbt.Receptor>
prm/pocket_docking_6.prm

>  <SCORE>
-18.2084

>  <SCORE.INTER>
-11.6997

>  <SCORE.INTER.CONST>
1

>  <SCORE.INTER.POLAR>
0

>  <SCORE.INTER.ROT>
2

>  <SCORE.INTER.SOLV>
11.065

>  <SCORE.INTER.VDW>
-16.4215

>  <SCORE.INTER.norm>
-0.688217

>  <SCORE.INTRA>
-6.50867

>  <SCORE.INTRA.DIHEDRAL>
-9.94675

>  <SCORE.INTRA.DIHEDRAL.0>
10.3255

>  <SCORE.INTRA.POLAR>
0

>  <SCORE.INTRA.POLAR.0>
0

>  <SCORE.INTRA.REPUL>
0

>  <SCORE.INTRA.REPUL.0>
0

>  <SCORE.INTRA.SOLV>
0.0449502

>  <SCORE.INTRA.SOLV.lig_0>
-53.4755

>  <SCORE.INTRA.VDW>
-1.55777

>  <SCORE.INTRA.VDW.0>
2.32763

>  <SCORE.INTRA.norm>
-0.382863

>  <SCORE.RESTR>
0

>  <SCORE.RESTR.CAVITY>
0

>  <SCORE.RESTR.norm>
0

>  <SCORE.SYSTEM>
0

>  <SCORE.SYSTEM.CONST>
0

>  <SCORE.SYSTEM.DIHEDRAL>
0

>  <SCORE.SYSTEM.SOLV>
0

>  <SCORE.SYSTEM.norm>
0

>  <SCORE.heavy>
17

>  <SCORE.norm>
-1.07108

>  <RMSD>
5.805

$$$$
ligand
 OpenBabel11021811503D
libRbt.so/2013.1/901 2013/11/27
 17 18  0  0  0  0  0  0  0  0999 V2000
    4.4349    5.3941   19.9756 N   0  0  0  0  0  0  0  0  0  0  0  0
    5.4258    4.9742   20.8721 C   0  0  0  0  0  0  0  0  0  0  0  0
    6.7844    5.3899   20.6751 N   0  0  0  0  0  0  0  0  0  0  0  0
    5.1243    4.1723   21.9517 N   0  0  0  0  0  0  0  0  0  0  0  0
    3.8320    3.7494   22.1838 C   0  0  0  0  0  0  0  0  0  0  0  0
    2.7808    4.1425   21.2974 C   0  0  0  0  0  0  0  0  0  0  0  0
    3.5852    3.0408   23.1412 O   0  0  0  0  0  0  0  0  0  0  0  0
    1.4011    3.7109   21.5069 N   0  0  0  0  0  0  0  0  0  0  0  0
    0.3621    4.2770   20.7231 C   0  0  2  0  0  0  0  0  0  0  0  0
    0.8228    4.7227   19.3096 C   0  0  0  0  0  0  0  0  0  0  0  0
    3.1129    4.9779   20.1885 C   0  0  0  0  0  0  0  0  0  0  0  0
    2.0454    5.3988   19.2624 N   0  0  0  0  0  0  0  0  0  0  0  0
   -0.2816    5.3907   21.5286 C   0  0  1  0  0  0  0  0  0  0  0  0
   -1.3130    5.9710   20.8172 O   0  0  0  0  0  0  0  0  0  0  0  0
   -0.7812    4.8635   22.8404 C   0  0  1  0  0  0  0  0  0  0  0  0
    0.2432    4.5173   23.6326 O   0  0  0  0  0  0  0  0  0  0  0  0
   -1.6249    5.9229   23.5810 C   0  0  0  0  0  0  0  0  0  0  0  0
  1  2  2  0  0  0  0
  1 11  1  0  0  0  0
  2  3  1  0  0  0  0
  2  4  1  0  0  0  0
  4  5  1  0  0  0  0
  5  6  1  0  0  0  0
  5  7  2  0  0  0  0
  6  8  1  0  0  0  0
  6 11  2  0  0  0  0
  9  8  1  1  0  0  0
  9 10  1  0  0  0  0
  9 13  1  0  0  0  0
 10 12  1  0  0  0  0
 11 12  1  0  0  0  0
 13 14  1  6  0  0  0
 13 15  1  0  0  0  0
 15 16  1  1  0  0  0
 15 17  1  0  0  0  0
M  END
>  <CHROM.1>
-179.39218647,68.40875747,2.03853441,4.74964115,21.42481038,0.14700030,0.15351194
-1.23772320

>  <Name>
ligand

>  <RI>
0

>  <Rbt.Current_Directory>
/home/itssahil/PROJECTS/Mol_Feturizer/New_Systems/rnas/4LVX

>  <Rbt.Executable>
rbdock ($Id: //depot/dev/client3/rdock/2013.1/src/exe/rbdock.cxx#4 $)

>  <Rbt.Library>
libRbt.so (2013.1, Build901 2013/11/27)

>  <Rbt.Parameter_File>
/export/apps/rDock/src/rDock_2013.1_src/data/scripts/dock_solv.prm

>  <Rbt.Receptor>
prm/pocket_docking_8.prm

>  <SCORE>
-18.221

>  <SCORE.INTER>
-11.6929

>  <SCORE.INTER.CONST>
1

>  <SCORE.INTER.POLAR>
0

>  <SCORE.INTER.ROT>
2

>  <SCORE.INTER.SOLV>
11.0226

>  <SCORE.INTER.VDW>
-16.4028

>  <SCORE.INTER.norm>
-0.68782

>  <SCORE.INTRA>
-6.52803

>  <SCORE.INTRA.DIHEDRAL>
-9.9304

>  <SCORE.INTRA.DIHEDRAL.0>
10.3255

>  <SCORE.INTRA.POLAR>
0

>  <SCORE.INTRA.POLAR.0>
0

>  <SCORE.INTRA.REPUL>
0

>  <SCORE.INTRA.REPUL.0>
0

>  <SCORE.INTRA.SOLV>
0.0292132

>  <SCORE.INTRA.SOLV.lig_0>
-53.4755

>  <SCORE.INTRA.VDW>
-1.57743

>  <SCORE.INTRA.VDW.0>
2.32763

>  <SCORE.INTRA.norm>
-0.384002

>  <SCORE.RESTR>
0

>  <SCORE.RESTR.CAVITY>
0

>  <SCORE.RESTR.norm>
0

>  <SCORE.SYSTEM>
0

>  <SCORE.SYSTEM.CONST>
0

>  <SCORE.SYSTEM.DIHEDRAL>
0

>  <SCORE.SYSTEM.SOLV>
0

>  <SCORE.SYSTEM.norm>
0

>  <SCORE.heavy>
17

>  <SCORE.norm>
-1.07182

>  <RMSD>
5.805

$$$$
ligand
 OpenBabel11021811503D
libRbt.so/2013.1/901 2013/11/27
 17 18  0  0  0  0  0  0  0  0999 V2000
    4.4334    5.3989   19.9891 N   0  0  0  0  0  0  0  0  0  0  0  0
    5.4273    4.9796   20.8826 C   0  0  0  0  0  0  0  0  0  0  0  0
    6.7830    5.4053   20.6879 N   0  0  0  0  0  0  0  0  0  0  0  0
    5.1313    4.1689   21.9571 N   0  0  0  0  0  0  0  0  0  0  0  0
    3.8418    3.7362   22.1869 C   0  0  0  0  0  0  0  0  0  0  0  0
    2.7878    4.1282   21.3033 C   0  0  0  0  0  0  0  0  0  0  0  0
    3.5999    3.0198   23.1397 O   0  0  0  0  0  0  0  0  0  0  0  0
    1.4109    3.6865   21.5104 N   0  0  0  0  0  0  0  0  0  0  0  0
    0.3680    4.2509   20.7306 C   0  0  2  0  0  0  0  0  0  0  0  0
    0.8254    4.7087   19.3199 C   0  0  0  0  0  0  0  0  0  0  0  0
    3.1141    4.9729   20.1998 C   0  0  0  0  0  0  0  0  0  0  0  0
    2.0436    5.3929   19.2767 N   0  0  0  0  0  0  0  0  0  0  0  0
   -0.2825    5.3553   21.5435 C   0  0  1  0  0  0  0  0  0  0  0  0
   -1.3194    5.9318   20.8371 O   0  0  0  0  0  0  0  0  0  0  0  0
   -0.7759    4.8170   22.8532 C   0  0  1  0  0  0  0  0  0  0  0  0
    0.2527    4.4911   23.6487 O   0  0  0  0  0  0  0  0  0  0  0  0
   -1.6435    5.8584   23.5916 C   0  0  0  0  0  0  0  0  0  0  0  0
  1  2  2  0  0  0  0
  1 11  1  0  0  0  0
  2  3  1  0  0  0  0
  2  4  1  0  0  0  0
  4  5  1  0  0  0  0
  5  6  1  0  0  0  0
  5  7  2  0  0  0  0
  6  8  1  0  0  0  0
  6 11  2  0  0  0  0
  9  8  1  1  0  0  0
  9 10  1  0  0  0  0
  9 13  1  0  0  0  0
 10 12  1  0  0  0  0
 11 12  1  0  0  0  0
 13 14  1  6  0  0  0
 13 15  1  0  0  0  0
 15 16  1  1  0  0  0
 15 17  1  0  0  0  0
M  END
>  <CHROM.1>
-179.27940331,69.25516484,2.04100187,4.73057419,21.43494054,0.14941647,0.14754717
-1.23280794

>  <Name>
ligand

>  <RI>
0

>  <Rbt.Current_Directory>
/home/itssahil/PROJECTS/Mol_Feturizer/New_Systems/rnas/4LVX

>  <Rbt.Executable>
rbdock ($Id: //depot/dev/client3/rdock/2013.1/src/exe/rbdock.cxx#4 $)

>  <Rbt.Library>
libRbt.so (2013.1, Build901 2013/11/27)

>  <Rbt.Parameter_File>
/export/apps/rDock/src/rDock_2013.1_src/data/scripts/dock_solv.prm

>  <Rbt.Receptor>
prm/pocket_docking_7.prm

>  <SCORE>
-18.1971

>  <SCORE.INTER>
-11.6999

>  <SCORE.INTER.CONST>
1

>  <SCORE.INTER.POLAR>
0

>  <SCORE.INTER.ROT>
2

>  <SCORE.INTER.SOLV>
11.1108

>  <SCORE.INTER.VDW>
-16.4368

>  <SCORE.INTER.norm>
-0.688228

>  <SCORE.INTRA>
-6.49719

>  <SCORE.INTRA.DIHEDRAL>
-9.87816

>  <SCORE.INTRA.DIHEDRAL.0>
10.3255

>  <SCORE.INTRA.POLAR>
0

>  <SCORE.INTRA.POLAR.0>
0

>  <SCORE.INTRA.REPUL>
0

>  <SCORE.INTRA.REPUL.0>
0

>  <SCORE.INTRA.SOLV>
0.0209255

>  <SCORE.INTRA.SOLV.lig_0>
-53.4755

>  <SCORE.INTRA.VDW>
-1.56858

>  <SCORE.INTRA.VDW.0>
2.32763

>  <SCORE.INTRA.norm>
-0.382188

>  <SCORE.RESTR>
0

>  <SCORE.RESTR.CAVITY>
0

>  <SCORE.RESTR.norm>
0

>  <SCORE.SYSTEM>
0

>  <SCORE.SYSTEM.CONST>
0

>  <SCORE.SYSTEM.DIHEDRAL>
0

>  <SCORE.SYSTEM.SOLV>
0

>  <SCORE.SYSTEM.norm>
0

>  <SCORE.heavy>
17

>  <SCORE.norm>
-1.07042

>  <RMSD>
5.807

$$$$
ligand
 OpenBabel11021811503D
libRbt.so/2013.1/901 2013/11/27
 17 18  0  0  0  0  0  0  0  0999 V2000
    4.4274    5.4116   19.9716 N   0  0  0  0  0  0  0  0  0  0  0  0
    5.4233    4.9839   20.8588 C   0  0  0  0  0  0  0  0  0  0  0  0
    6.7805    5.4025   20.6587 N   0  0  0  0  0  0  0  0  0  0  0  0
    5.1281    4.1715   21.9322 N   0  0  0  0  0  0  0  0  0  0  0  0
    3.8373    3.7454   22.1671 C   0  0  0  0  0  0  0  0  0  0  0  0
    2.7812    4.1462   21.2900 C   0  0  0  0  0  0  0  0  0  0  0  0
    3.5961    3.0274   23.1189 O   0  0  0  0  0  0  0  0  0  0  0  0
    1.4029    3.7116   21.5027 N   0  0  0  0  0  0  0  0  0  0  0  0
    0.3594    4.2843   20.7298 C   0  0  2  0  0  0  0  0  0  0  0  0
    0.8123    4.7439   19.3183 C   0  0  0  0  0  0  0  0  0  0  0  0
    3.1068    4.9924   20.1875 C   0  0  0  0  0  0  0  0  0  0  0  0
    2.0341    5.4213   19.2711 N   0  0  0  0  0  0  0  0  0  0  0  0
   -0.2809    5.3898   21.5493 C   0  0  1  0  0  0  0  0  0  0  0  0
   -1.3144    5.9781   20.8478 O   0  0  0  0  0  0  0  0  0  0  0  0
   -0.7761    4.8490   22.8573 C   0  0  1  0  0  0  0  0  0  0  0  0
    0.2509    4.4909   23.6409 O   0  0  0  0  0  0  0  0  0  0  0  0
   -1.6135    5.9021   23.6137 C   0  0  0  0  0  0  0  0  0  0  0  0
  1  2  2  0  0  0  0
  1 11  1  0  0  0  0
  2  3  1  0  0  0  0
  2  4  1  0  0  0  0
  4  5  1  0  0  0  0
  5  6  1  0  0  0  0
  5  7  2  0  0  0  0
  6  8  1  0  0  0  0
  6 11  2  0  0  0  0
  9  8  1  1  0  0  0
  9 10  1  0  0  0  0
  9 13  1  0  0  0  0
 10 12  1  0  0  0  0
 11 12  1  0  0  0  0
 13 14  1  6  0  0  0
 13 15  1  0  0  0  0
 15 16  1  1  0  0  0
 15 17  1  0  0  0  0
M  END
>  <CHROM.1>
-179.52733621,68.26320146,2.03882060,4.75127838,21.42691621,0.15219069,0.15459130
-1.22813722

>  <Name>
ligand

>  <RI>
0

>  <Rbt.Current_Directory>
/home/itssahil/PROJECTS/Mol_Feturizer/New_Systems/rnas/4LVX

>  <Rbt.Executable>
rbdock ($Id: //depot/dev/client3/rdock/2013.1/src/exe/rbdock.cxx#4 $)

>  <Rbt.Library>
libRbt.so (2013.1, Build901 2013/11/27)

>  <Rbt.Parameter_File>
/export/apps/rDock/src/rDock_2013.1_src/data/scripts/dock_solv.prm

>  <Rbt.Receptor>
prm/pocket_docking_5.prm

>  <SCORE>
-18.2063

>  <SCORE.INTER>
-11.6697

>  <SCORE.INTER.CONST>
1

>  <SCORE.INTER.POLAR>
0

>  <SCORE.INTER.ROT>
2

>  <SCORE.INTER.SOLV>
10.9839

>  <SCORE.INTER.VDW>
-16.3744

>  <SCORE.INTER.norm>
-0.686452

>  <SCORE.INTRA>
-6.53665

>  <SCORE.INTRA.DIHEDRAL>
-9.93924

>  <SCORE.INTRA.DIHEDRAL.0>
10.3255

>  <SCORE.INTRA.POLAR>
0

>  <SCORE.INTRA.POLAR.0>
0

>  <SCORE.INTRA.REPUL>
0

>  <SCORE.INTRA.REPUL.0>
0

>  <SCORE.INTRA.SOLV>
0.0289564

>  <SCORE.INTRA.SOLV.lig_0>
-53.4755

>  <SCORE.INTRA.VDW>
-1.58151

>  <SCORE.INTRA.VDW.0>
2.32763

>  <SCORE.INTRA.norm>
-0.384509

>  <SCORE.RESTR>
0

>  <SCORE.RESTR.CAVITY>
0

>  <SCORE.RESTR.norm>
0

>  <SCORE.SYSTEM>
0

>  <SCORE.SYSTEM.CONST>
0

>  <SCORE.SYSTEM.DIHEDRAL>
0

>  <SCORE.SYSTEM.SOLV>
0

>  <SCORE.SYSTEM.norm>
0

>  <SCORE.heavy>
17

>  <SCORE.norm>
-1.07096

>  <RMSD>
5.808

$$$$
ligand
 OpenBabel11021811503D
libRbt.so/2013.1/901 2013/11/27
 17 18  0  0  0  0  0  0  0  0999 V2000
    4.4281    5.3916   19.9759 N   0  0  0  0  0  0  0  0  0  0  0  0
    5.4136    4.9588   20.8723 C   0  0  0  0  0  0  0  0  0  0  0  0
    6.7727    5.3800   20.6916 N   0  0  0  0  0  0  0  0  0  0  0  0
    5.1060    4.1390   21.9366 N   0  0  0  0  0  0  0  0  0  0  0  0
    3.8129    3.7101   22.1529 C   0  0  0  0  0  0  0  0  0  0  0  0
    2.7672    4.1158   21.2656 C   0  0  0  0  0  0  0  0  0  0  0  0
    3.5608    2.9857   23.0968 O   0  0  0  0  0  0  0  0  0  0  0  0
    1.3868    3.6786   21.4584 N   0  0  0  0  0  0  0  0  0  0  0  0
    0.3522    4.2556   20.6767 C   0  0  2  0  0  0  0  0  0  0  0  0
    0.8220    4.7249   19.2739 C   0  0  0  0  0  0  0  0  0  0  0  0
    3.1054    4.9697   20.1728 C   0  0  0  0  0  0  0  0  0  0  0  0
    2.0436    5.4038   19.2462 N   0  0  0  0  0  0  0  0  0  0  0  0
   -0.2991    5.3550   21.4957 C   0  0  1  0  0  0  0  0  0  0  0  0
   -1.3404    5.9305   20.7950 O   0  0  0  0  0  0  0  0  0  0  0  0
   -0.7859    4.8106   22.8053 C   0  0  1  0  0  0  0  0  0  0  0  0
    0.2465    4.4810   23.5942 O   0  0  0  0  0  0  0  0  0  0  0  0
   -1.6500    5.8484   23.5527 C   0  0  0  0  0  0  0  0  0  0  0  0
  1  2  2  0  0  0  0
  1 11  1  0  0  0  0
  2  3  1  0  0  0  0
  2  4  1  0  0  0  0
  4  5  1  0  0  0  0
  5  6  1  0  0  0  0
  5  7  2  0  0  0  0
  6  8  1  0  0  0  0
  6 11  2  0  0  0  0
  9  8  1  1  0  0  0
  9 10  1  0  0  0  0
  9 13  1  0  0  0  0
 10 12  1  0  0  0  0
 11 12  1  0  0  0  0
 13 14  1  6  0  0  0
 13 15  1  0  0  0  0
 15 16  1  1  0  0  0
 15 17  1  0  0  0  0
M  END
>  <CHROM.1>
-178.42758384,69.04161343,2.02592223,4.72091703,21.39954261,0.14165591,0.14940054
-1.22609741

>  <Name>
ligand

>  <RI>
0

>  <Rbt.Current_Directory>
/home/itssahil/PROJECTS/Mol_Feturizer/New_Systems/rnas/4LVX

>  <Rbt.Executable>
rbdock ($Id: //depot/dev/client3/rdock/2013.1/src/exe/rbdock.cxx#4 $)

>  <Rbt.Library>
libRbt.so (2013.1, Build901 2013/11/27)

>  <Rbt.Parameter_File>
/export/apps/rDock/src/rDock_2013.1_src/data/scripts/dock_solv.prm

>  <Rbt.Receptor>
prm/pocket_docking_8.prm

>  <SCORE>
-18.1943

>  <SCORE.INTER>
-11.7197

>  <SCORE.INTER.CONST>
1

>  <SCORE.INTER.POLAR>
0

>  <SCORE.INTER.ROT>
2

>  <SCORE.INTER.SOLV>
11.3387

>  <SCORE.INTER.VDW>
-16.526

>  <SCORE.INTER.norm>
-0.689393

>  <SCORE.INTRA>
-6.47466

>  <SCORE.INTRA.DIHEDRAL>
-9.88545

>  <SCORE.INTRA.DIHEDRAL.0>
10.3255

>  <SCORE.INTRA.POLAR>
0

>  <SCORE.INTRA.POLAR.0>
0

>  <SCORE.INTRA.REPUL>
0

>  <SCORE.INTRA.REPUL.0>
0

>  <SCORE.INTRA.SOLV>
0.0355774

>  <SCORE.INTRA.SOLV.lig_0>
-53.4755

>  <SCORE.INTRA.VDW>
-1.54972

>  <SCORE.INTRA.VDW.0>
2.32763

>  <SCORE.INTRA.norm>
-0.380862

>  <SCORE.RESTR>
0

>  <SCORE.RESTR.CAVITY>
0

>  <SCORE.RESTR.norm>
0

>  <SCORE.SYSTEM>
0

>  <SCORE.SYSTEM.CONST>
0

>  <SCORE.SYSTEM.DIHEDRAL>
0

>  <SCORE.SYSTEM.SOLV>
0

>  <SCORE.SYSTEM.norm>
0

>  <SCORE.heavy>
17

>  <SCORE.norm>
-1.07026

>  <RMSD>
5.808

$$$$
ligand
 OpenBabel11021811503D
libRbt.so/2013.1/901 2013/11/27
 17 18  0  0  0  0  0  0  0  0999 V2000
    4.4733    5.4162   20.0209 N   0  0  0  0  0  0  0  0  0  0  0  0
    5.4580    4.9853   20.9191 C   0  0  0  0  0  0  0  0  0  0  0  0
    6.8163    5.4102   20.7417 N   0  0  0  0  0  0  0  0  0  0  0  0
    5.1503    4.1637   21.9819 N   0  0  0  0  0  0  0  0  0  0  0  0
    3.8578    3.7312   22.1950 C   0  0  0  0  0  0  0  0  0  0  0  0
    2.8130    4.1349   21.3058 C   0  0  0  0  0  0  0  0  0  0  0  0
    3.6056    3.0052   23.1377 O   0  0  0  0  0  0  0  0  0  0  0  0
    1.4334    3.6939   21.4953 N   0  0  0  0  0  0  0  0  0  0  0  0
    0.3990    4.2688   20.7119 C   0  0  2  0  0  0  0  0  0  0  0  0
    0.8705    4.7407   19.3106 C   0  0  0  0  0  0  0  0  0  0  0  0
    3.1513    4.9907   20.2146 C   0  0  0  0  0  0  0  0  0  0  0  0
    2.0904    5.4228   19.2861 N   0  0  0  0  0  0  0  0  0  0  0  0
   -0.2570    5.3658   21.5305 C   0  0  1  0  0  0  0  0  0  0  0  0
   -1.2902    5.9478   20.8232 O   0  0  0  0  0  0  0  0  0  0  0  0
   -0.7576    4.8159   22.8326 C   0  0  1  0  0  0  0  0  0  0  0  0
    0.2665    4.4619   23.6219 O   0  0  0  0  0  0  0  0  0  0  0  0
   -1.6078    5.8598   23.5875 C   0  0  0  0  0  0  0  0  0  0  0  0
  1  2  2  0  0  0  0
  1 11  1  0  0  0  0
  2  3  1  0  0  0  0
  2  4  1  0  0  0  0
  4  5  1  0  0  0  0
  5  6  1  0  0  0  0
  5  7  2  0  0  0  0
  6  8  1  0  0  0  0
  6 11  2  0  0  0  0
  9  8  1  1  0  0  0
  9 10  1  0  0  0  0
  9 13  1  0  0  0  0
 10 12  1  0  0  0  0
 11 12  1  0  0  0  0
 13 14  1  6  0  0  0
 13 15  1  0  0  0  0
 15 16  1  1  0  0  0
 15 17  1  0  0  0  0
M  END
>  <CHROM.1>
-178.99611071,68.16939232,2.06873464,4.73673545,21.43773559,0.14017979,0.14625569
-1.22141012

>  <Name>
ligand

>  <RI>
0

>  <Rbt.Current_Directory>
/home/itssahil/PROJECTS/Mol_Feturizer/New_Systems/rnas/4LVX

>  <Rbt.Executable>
rbdock ($Id: //depot/dev/client3/rdock/2013.1/src/exe/rbdock.cxx#4 $)

>  <Rbt.Library>
libRbt.so (2013.1, Build901 2013/11/27)

>  <Rbt.Parameter_File>
/export/apps/rDock/src/rDock_2013.1_src/data/scripts/dock_solv.prm

>  <Rbt.Receptor>
prm/pocket_docking_5.prm

>  <SCORE>
-18.2112

>  <SCORE.INTER>
-11.6907

>  <SCORE.INTER.CONST>
1

>  <SCORE.INTER.POLAR>
0

>  <SCORE.INTER.ROT>
2

>  <SCORE.INTER.SOLV>
10.9254

>  <SCORE.INTER.VDW>
-16.3689

>  <SCORE.INTER.norm>
-0.687687

>  <SCORE.INTRA>
-6.52056

>  <SCORE.INTRA.DIHEDRAL>
-9.94224

>  <SCORE.INTRA.DIHEDRAL.0>
10.3255

>  <SCORE.INTRA.POLAR>
0

>  <SCORE.INTRA.POLAR.0>
0

>  <SCORE.INTRA.REPUL>
0

>  <SCORE.INTRA.REPUL.0>
0

>  <SCORE.INTRA.SOLV>
0.0376916

>  <SCORE.INTRA.SOLV.lig_0>
-53.4755

>  <SCORE.INTRA.VDW>
-1.56829

>  <SCORE.INTRA.VDW.0>
2.32763

>  <SCORE.INTRA.norm>
-0.383562

>  <SCORE.RESTR>
0

>  <SCORE.RESTR.CAVITY>
0

>  <SCORE.RESTR.norm>
0

>  <SCORE.SYSTEM>
0

>  <SCORE.SYSTEM.CONST>
0

>  <SCORE.SYSTEM.DIHEDRAL>
0

>  <SCORE.SYSTEM.SOLV>
0

>  <SCORE.SYSTEM.norm>
0

>  <SCORE.heavy>
17

>  <SCORE.norm>
-1.07125

>  <RMSD>
5.810

$$$$
ligand
 OpenBabel11021811503D
libRbt.so/2013.1/901 2013/11/27
 17 18  0  0  0  0  0  0  0  0999 V2000
    4.4262    5.3997   19.9713 N   0  0  0  0  0  0  0  0  0  0  0  0
    5.4212    4.9663   20.8567 C   0  0  0  0  0  0  0  0  0  0  0  0
    6.7801    5.3787   20.6553 N   0  0  0  0  0  0  0  0  0  0  0  0
    5.1236    4.1541   21.9296 N   0  0  0  0  0  0  0  0  0  0  0  0
    3.8311    3.7338   22.1657 C   0  0  0  0  0  0  0  0  0  0  0  0
    2.7757    4.1406   21.2904 C   0  0  0  0  0  0  0  0  0  0  0  0
    3.5877    3.0160   23.1170 O   0  0  0  0  0  0  0  0  0  0  0  0
    1.3957    3.7123   21.5044 N   0  0  0  0  0  0  0  0  0  0  0  0
    0.3539    4.2908   20.7335 C   0  0  2  0  0  0  0  0  0  0  0  0
    0.8072    4.7498   19.3219 C   0  0  0  0  0  0  0  0  0  0  0  0
    3.1039    4.9865   20.1885 C   0  0  0  0  0  0  0  0  0  0  0  0
    2.0321    5.4215   19.2739 N   0  0  0  0  0  0  0  0  0  0  0  0
   -0.2801    5.3984   21.5551 C   0  0  1  0  0  0  0  0  0  0  0  0
   -1.3105    5.9937   20.8548 O   0  0  0  0  0  0  0  0  0  0  0  0
   -0.7781    4.8580   22.8622 C   0  0  1  0  0  0  0  0  0  0  0  0
    0.2474    4.5060   23.6504 O   0  0  0  0  0  0  0  0  0  0  0  0
   -1.6229    5.9090   23.6133 C   0  0  0  0  0  0  0  0  0  0  0  0
  1  2  2  0  0  0  0
  1 11  1  0  0  0  0
  2  3  1  0  0  0  0
  2  4  1  0  0  0  0
  4  5  1  0  0  0  0
  5  6  1  0  0  0  0
  5  7  2  0  0  0  0
  6  8  1  0  0  0  0
  6 11  2  0  0  0  0
  9  8  1  1  0  0  0
  9 10  1  0  0  0  0
  9 13  1  0  0  0  0
 10 12  1  0  0  0  0
 11 12  1  0  0  0  0
 13 14  1  6  0  0  0
 13 15  1  0  0  0  0
 15 16  1  1  0  0  0
 15 17  1  0  0  0  0
M  END
>  <CHROM.1>
-179.61287393,68.90926939,2.03521317,4.74951661,21.42870151,0.15163945,0.15950049
-1.22694254

>  <Name>
ligand

>  <RI>
0

>  <Rbt.Current_Directory>
/home/itssahil/PROJECTS/Mol_Feturizer/New_Systems/rnas/4LVX

>  <Rbt.Executable>
rbdock ($Id: //depot/dev/client3/rdock/2013.1/src/exe/rbdock.cxx#4 $)

>  <Rbt.Library>
libRbt.so (2013.1, Build901 2013/11/27)

>  <Rbt.Parameter_File>
/export/apps/rDock/src/rDock_2013.1_src/data/scripts/dock_solv.prm

>  <Rbt.Receptor>
prm/pocket_docking_6.prm

>  <SCORE>
-18.2087

>  <SCORE.INTER>
-11.6891

>  <SCORE.INTER.CONST>
1

>  <SCORE.INTER.POLAR>
0

>  <SCORE.INTER.ROT>
2

>  <SCORE.INTER.SOLV>
11.0231

>  <SCORE.INTER.VDW>
-16.4004

>  <SCORE.INTER.norm>
-0.687593

>  <SCORE.INTRA>
-6.51961

>  <SCORE.INTRA.DIHEDRAL>
-9.90095

>  <SCORE.INTRA.DIHEDRAL.0>
10.3255

>  <SCORE.INTRA.POLAR>
0

>  <SCORE.INTRA.POLAR.0>
0

>  <SCORE.INTRA.REPUL>
0

>  <SCORE.INTRA.REPUL.0>
0

>  <SCORE.INTRA.SOLV>
0.0202014

>  <SCORE.INTRA.SOLV.lig_0>
-53.4755

>  <SCORE.INTRA.VDW>
-1.57924

>  <SCORE.INTRA.VDW.0>
2.32763

>  <SCORE.INTRA.norm>
-0.383506

>  <SCORE.RESTR>
0

>  <SCORE.RESTR.CAVITY>
0

>  <SCORE.RESTR.norm>
0

>  <SCORE.SYSTEM>
0

>  <SCORE.SYSTEM.CONST>
0

>  <SCORE.SYSTEM.DIHEDRAL>
0

>  <SCORE.SYSTEM.SOLV>
0

>  <SCORE.SYSTEM.norm>
0

>  <SCORE.heavy>
17

>  <SCORE.norm>
-1.0711

>  <RMSD>
5.810

$$$$
ligand
 OpenBabel11021811503D
libRbt.so/2013.1/901 2013/11/27
 17 18  0  0  0  0  0  0  0  0999 V2000
    4.4361    5.3993   19.9579 N   0  0  0  0  0  0  0  0  0  0  0  0
    5.4306    4.9784   20.8501 C   0  0  0  0  0  0  0  0  0  0  0  0
    6.7880    5.3962   20.6494 N   0  0  0  0  0  0  0  0  0  0  0  0
    5.1337    4.1738   21.9289 N   0  0  0  0  0  0  0  0  0  0  0  0
    3.8427    3.7489   22.1645 C   0  0  0  0  0  0  0  0  0  0  0  0
    2.7880    4.1428   21.2826 C   0  0  0  0  0  0  0  0  0  0  0  0
    3.6000    3.0378   23.1211 O   0  0  0  0  0  0  0  0  0  0  0  0
    1.4095    3.7092   21.4958 N   0  0  0  0  0  0  0  0  0  0  0  0
    0.3672    4.2758   20.7169 C   0  0  2  0  0  0  0  0  0  0  0  0
    0.8225    4.7252   19.3029 C   0  0  0  0  0  0  0  0  0  0  0  0
    3.1153    4.9810   20.1745 C   0  0  0  0  0  0  0  0  0  0  0  0
    2.0442    5.4028   19.2530 N   0  0  0  0  0  0  0  0  0  0  0  0
   -0.2750    5.3870   21.5271 C   0  0  1  0  0  0  0  0  0  0  0  0
   -1.3060    5.9712   20.8185 O   0  0  0  0  0  0  0  0  0  0  0  0
   -0.7747    4.8551   22.8371 C   0  0  1  0  0  0  0  0  0  0  0  0
    0.2499    4.5094   23.6294 O   0  0  0  0  0  0  0  0  0  0  0  0
   -1.6218    5.9103   23.5795 C   0  0  0  0  0  0  0  0  0  0  0  0
  1  2  2  0  0  0  0
  1 11  1  0  0  0  0
  2  3  1  0  0  0  0
  2  4  1  0  0  0  0
  4  5  1  0  0  0  0
  5  6  1  0  0  0  0
  5  7  2  0  0  0  0
  6  8  1  0  0  0  0
  6 11  2  0  0  0  0
  9  8  1  1  0  0  0
  9 10  1  0  0  0  0
  9 13  1  0  0  0  0
 10 12  1  0  0  0  0
 11 12  1  0  0  0  0
 13 14  1  6  0  0  0
 13 15  1  0  0  0  0
 15 16  1  1  0  0  0
 15 17  1  0  0  0  0
M  END
>  <CHROM.1>
-179.62793372,68.64768619,2.04422774,4.74881644,21.41341200,0.15042681,0.15361167
-1.23494643

>  <Name>
ligand

>  <RI>
0

>  <Rbt.Current_Directory>
/home/itssahil/PROJECTS/Mol_Feturizer/New_Systems/rnas/4LVX

>  <Rbt.Executable>
rbdock ($Id: //depot/dev/client3/rdock/2013.1/src/exe/rbdock.cxx#4 $)

>  <Rbt.Library>
libRbt.so (2013.1, Build901 2013/11/27)

>  <Rbt.Parameter_File>
/export/apps/rDock/src/rDock_2013.1_src/data/scripts/dock_solv.prm

>  <Rbt.Receptor>
prm/pocket_docking_4.prm

>  <SCORE>
-18.2343

>  <SCORE.INTER>
-11.7057

>  <SCORE.INTER.CONST>
1

>  <SCORE.INTER.POLAR>
0

>  <SCORE.INTER.ROT>
2

>  <SCORE.INTER.SOLV>
11.0443

>  <SCORE.INTER.VDW>
-16.4186

>  <SCORE.INTER.norm>
-0.688573

>  <SCORE.INTRA>
-6.52855

>  <SCORE.INTRA.DIHEDRAL>
-9.91689

>  <SCORE.INTRA.DIHEDRAL.0>
10.3255

>  <SCORE.INTRA.POLAR>
0

>  <SCORE.INTRA.POLAR.0>
0

>  <SCORE.INTRA.REPUL>
0

>  <SCORE.INTRA.REPUL.0>
0

>  <SCORE.INTRA.SOLV>
0.023037

>  <SCORE.INTRA.SOLV.lig_0>
-53.4755

>  <SCORE.INTRA.VDW>
-1.58162

>  <SCORE.INTRA.VDW.0>
2.32763

>  <SCORE.INTRA.norm>
-0.384032

>  <SCORE.RESTR>
0

>  <SCORE.RESTR.CAVITY>
0

>  <SCORE.RESTR.norm>
0

>  <SCORE.SYSTEM>
0

>  <SCORE.SYSTEM.CONST>
0

>  <SCORE.SYSTEM.DIHEDRAL>
0

>  <SCORE.SYSTEM.SOLV>
0

>  <SCORE.SYSTEM.norm>
0

>  <SCORE.heavy>
17

>  <SCORE.norm>
-1.07261

>  <RMSD>
5.812

$$$$
ligand
 OpenBabel11021811503D
libRbt.so/2013.1/901 2013/11/27
 17 18  0  0  0  0  0  0  0  0999 V2000
    1.9859    5.5476   18.7689 N   0  0  0  0  0  0  0  0  0  0  0  0
    3.3753    5.4261   18.6386 C   0  0  0  0  0  0  0  0  0  0  0  0
    4.0189    5.8814   17.4404 N   0  0  0  0  0  0  0  0  0  0  0  0
    4.1461    4.8837   19.6441 N   0  0  0  0  0  0  0  0  0  0  0  0
    3.5726    4.4347   20.8156 C   0  0  0  0  0  0  0  0  0  0  0  0
    2.1576    4.5281   21.0007 C   0  0  0  0  0  0  0  0  0  0  0  0
    4.2689    3.9575   21.6913 O   0  0  0  0  0  0  0  0  0  0  0  0
    1.5129    4.0590   22.2247 N   0  0  0  0  0  0  0  0  0  0  0  0
    0.1411    4.3452   22.4493 C   0  0  2  0  0  0  0  0  0  0  0  0
   -0.6882    4.4750   21.1438 C   0  0  0  0  0  0  0  0  0  0  0  0
    1.3777    5.0983   19.9498 C   0  0  0  0  0  0  0  0  0  0  0  0
   -0.0831    5.2081   20.1189 N   0  0  0  0  0  0  0  0  0  0  0  0
    0.0559    5.5682   23.3441 C   0  0  1  0  0  0  0  0  0  0  0  0
    0.7086    6.6391   22.7664 O   0  0  0  0  0  0  0  0  0  0  0  0
   -1.3770    5.9141   23.6192 C   0  0  1  0  0  0  0  0  0  0  0  0
   -2.0522    4.8349   24.0392 O   0  0  0  0  0  0  0  0  0  0  0  0
   -1.4876    7.0037   24.7068 C   0  0  0  0  0  0  0  0  0  0  0  0
  1  2  2  0  0  0  0
  1 11  1  0  0  0  0
  2  3  1  0  0  0  0
  2  4  1  0  0  0  0
  4  5  1  0  0  0  0
  5  6  1  0  0  0  0
  5  7  2  0  0  0  0
  6  8  1  0  0  0  0
  6 11  2  0  0  0  0
  9  8  1  6  0  0  0
  9 10  1  0  0  0  0
  9 13  1  0  0  0  0
 10 12  1  0  0  0  0
 11 12  1  0  0  0  0
 13 14  1  6  0  0  0
 13 15  1  0  0  0  0
 15 16  1  1  0  0  0
 15 17  1  0  0  0  0
M  END
>  <CHROM.1>
57.67992278,50.45595245,1.22779202,5.18105574,21.38733463,0.71730943,0.30538770
-1.37552260

>  <Name>
ligand

>  <RI>
0

>  <Rbt.Current_Directory>
/home/itssahil/PROJECTS/Mol_Feturizer/New_Systems/rnas/4LVX

>  <Rbt.Executable>
rbdock ($Id: //depot/dev/client3/rdock/2013.1/src/exe/rbdock.cxx#4 $)

>  <Rbt.Library>
libRbt.so (2013.1, Build901 2013/11/27)

>  <Rbt.Parameter_File>
/export/apps/rDock/src/rDock_2013.1_src/data/scripts/dock_solv.prm

>  <Rbt.Receptor>
prm/pocket_docking_8.prm

>  <SCORE>
-17.0287

>  <SCORE.INTER>
-10.1391

>  <SCORE.INTER.CONST>
1

>  <SCORE.INTER.POLAR>
0

>  <SCORE.INTER.ROT>
2

>  <SCORE.INTER.SOLV>
14.5508

>  <SCORE.INTER.VDW>
-16.543

>  <SCORE.INTER.norm>
-0.59642

>  <SCORE.INTRA>
-6.88955

>  <SCORE.INTRA.DIHEDRAL>
-9.80941

>  <SCORE.INTRA.DIHEDRAL.0>
10.3255

>  <SCORE.INTRA.POLAR>
0

>  <SCORE.INTRA.POLAR.0>
0

>  <SCORE.INTRA.REPUL>
0

>  <SCORE.INTRA.REPUL.0>
0

>  <SCORE.INTRA.SOLV>
-0.0653234

>  <SCORE.INTRA.SOLV.lig_0>
-53.4755

>  <SCORE.INTRA.VDW>
-1.95218

>  <SCORE.INTRA.VDW.0>
2.32763

>  <SCORE.INTRA.norm>
-0.405267

>  <SCORE.RESTR>
0

>  <SCORE.RESTR.CAVITY>
0

>  <SCORE.RESTR.norm>
0

>  <SCORE.SYSTEM>
0

>  <SCORE.SYSTEM.CONST>
0

>  <SCORE.SYSTEM.DIHEDRAL>
0

>  <SCORE.SYSTEM.SOLV>
0

>  <SCORE.SYSTEM.norm>
0

>  <SCORE.heavy>
17

>  <SCORE.norm>
-1.00169

>  <RMSD>
5.812

$$$$
ligand
 OpenBabel11021811503D
libRbt.so/2013.1/901 2013/11/27
 17 18  0  0  0  0  0  0  0  0999 V2000
    4.4728    5.4020   20.0141 N   0  0  0  0  0  0  0  0  0  0  0  0
    5.4573    4.9730   20.9134 C   0  0  0  0  0  0  0  0  0  0  0  0
    6.8160    5.3964   20.7345 N   0  0  0  0  0  0  0  0  0  0  0  0
    5.1492    4.1550   21.9789 N   0  0  0  0  0  0  0  0  0  0  0  0
    3.8565    3.7241   22.1936 C   0  0  0  0  0  0  0  0  0  0  0  0
    2.8118    4.1259   21.3033 C   0  0  0  0  0  0  0  0  0  0  0  0
    3.6039    3.0012   23.1386 O   0  0  0  0  0  0  0  0  0  0  0  0
    1.4318    3.6864   21.4944 N   0  0  0  0  0  0  0  0  0  0  0  0
    0.3977    4.2597   20.7094 C   0  0  2  0  0  0  0  0  0  0  0  0
    0.8693    4.7269   19.3065 C   0  0  0  0  0  0  0  0  0  0  0  0
    3.1505    4.9780   20.2094 C   0  0  0  0  0  0  0  0  0  0  0  0
    2.0897    5.4080   19.2797 N   0  0  0  0  0  0  0  0  0  0  0  0
   -0.2573    5.3596   21.5247 C   0  0  1  0  0  0  0  0  0  0  0  0
   -1.2892    5.9412   20.8152 O   0  0  0  0  0  0  0  0  0  0  0  0
   -0.7595    4.8139   22.8279 C   0  0  1  0  0  0  0  0  0  0  0  0
    0.2636    4.4689   23.6224 O   0  0  0  0  0  0  0  0  0  0  0  0
   -1.6174    5.8573   23.5747 C   0  0  0  0  0  0  0  0  0  0  0  0
  1  2  2  0  0  0  0
  1 11  1  0  0  0  0
  2  3  1  0  0  0  0
  2  4  1  0  0  0  0
  4  5  1  0  0  0  0
  5  6  1  0  0  0  0
  5  7  2  0  0  0  0
  6  8  1  0  0  0  0
  6 11  2  0  0  0  0
  9  8  1  1  0  0  0
  9 10  1  0  0  0  0
  9 13  1  0  0  0  0
 10 12  1  0  0  0  0
 11 12  1  0  0  0  0
 13 14  1  6  0  0  0
 13 15  1  0  0  0  0
 15 16  1  1  0  0  0
 15 17  1  0  0  0  0
M  END
>  <CHROM.1>
-179.06410978,68.58473755,2.06716578,4.72891499,21.43328885,0.13998631,0.14702350
-1.22442365

>  <Name>
ligand

>  <RI>
0

>  <Rbt.Current_Directory>
/home/itssahil/PROJECTS/Mol_Feturizer/New_Systems/rnas/4LVX

>  <Rbt.Executable>
rbdock ($Id: //depot/dev/client3/rdock/2013.1/src/exe/rbdock.cxx#4 $)

>  <Rbt.Library>
libRbt.so (2013.1, Build901 2013/11/27)

>  <Rbt.Parameter_File>
/export/apps/rDock/src/rDock_2013.1_src/data/scripts/dock_solv.prm

>  <Rbt.Receptor>
prm/pocket_docking_7.prm

>  <SCORE>
-18.2059

>  <SCORE.INTER>
-11.6943

>  <SCORE.INTER.CONST>
1

>  <SCORE.INTER.POLAR>
0

>  <SCORE.INTER.ROT>
2

>  <SCORE.INTER.SOLV>
11.0258

>  <SCORE.INTER.VDW>
-16.4048

>  <SCORE.INTER.norm>
-0.687899

>  <SCORE.INTRA>
-6.51166

>  <SCORE.INTRA.DIHEDRAL>
-9.91849

>  <SCORE.INTRA.DIHEDRAL.0>
10.3255

>  <SCORE.INTRA.POLAR>
0

>  <SCORE.INTRA.POLAR.0>
0

>  <SCORE.INTRA.REPUL>
0

>  <SCORE.INTRA.REPUL.0>
0

>  <SCORE.INTRA.SOLV>
0.0318724

>  <SCORE.INTRA.SOLV.lig_0>
-53.4755

>  <SCORE.INTRA.VDW>
-1.56835

>  <SCORE.INTRA.VDW.0>
2.32763

>  <SCORE.INTRA.norm>
-0.383039

>  <SCORE.RESTR>
0

>  <SCORE.RESTR.CAVITY>
0

>  <SCORE.RESTR.norm>
0

>  <SCORE.SYSTEM>
0

>  <SCORE.SYSTEM.CONST>
0

>  <SCORE.SYSTEM.DIHEDRAL>
0

>  <SCORE.SYSTEM.SOLV>
0

>  <SCORE.SYSTEM.norm>
0

>  <SCORE.heavy>
17

>  <SCORE.norm>
-1.07094

>  <RMSD>
5.813

$$$$
ligand
 OpenBabel11021811503D
libRbt.so/2013.1/901 2013/11/27
 17 18  0  0  0  0  0  0  0  0999 V2000
    4.4371    5.3982   19.9571 N   0  0  0  0  0  0  0  0  0  0  0  0
    5.4321    4.9761   20.8480 C   0  0  0  0  0  0  0  0  0  0  0  0
    6.7894    5.3942   20.6472 N   0  0  0  0  0  0  0  0  0  0  0  0
    5.1359    4.1699   21.9258 N   0  0  0  0  0  0  0  0  0  0  0  0
    3.8450    3.7446   22.1615 C   0  0  0  0  0  0  0  0  0  0  0  0
    2.7898    4.1397   21.2808 C   0  0  0  0  0  0  0  0  0  0  0  0
    3.6029    3.0321   23.1172 O   0  0  0  0  0  0  0  0  0  0  0  0
    1.4114    3.7058   21.4942 N   0  0  0  0  0  0  0  0  0  0  0  0
    0.3687    4.2736   20.7167 C   0  0  2  0  0  0  0  0  0  0  0  0
    0.8232    4.7251   19.3031 C   0  0  0  0  0  0  0  0  0  0  0  0
    3.1165    4.9797   20.1737 C   0  0  0  0  0  0  0  0  0  0  0  0
    2.0448    5.4028   19.2535 N   0  0  0  0  0  0  0  0  0  0  0  0
   -0.2731    5.3835   21.5289 C   0  0  1  0  0  0  0  0  0  0  0  0
   -1.3045    5.9688   20.8217 O   0  0  0  0  0  0  0  0  0  0  0  0
   -0.7720    4.8496   22.8383 C   0  0  1  0  0  0  0  0  0  0  0  0
    0.2528    4.4962   23.6268 O   0  0  0  0  0  0  0  0  0  0  0  0
   -1.6120    5.9065   23.5865 C   0  0  0  0  0  0  0  0  0  0  0  0
  1  2  2  0  0  0  0
  1 11  1  0  0  0  0
  2  3  1  0  0  0  0
  2  4  1  0  0  0  0
  4  5  1  0  0  0  0
  5  6  1  0  0  0  0
  5  7  2  0  0  0  0
  6  8  1  0  0  0  0
  6 11  2  0  0  0  0
  9  8  1  1  0  0  0
  9 10  1  0  0  0  0
  9 13  1  0  0  0  0
 10 12  1  0  0  0  0
 11 12  1  0  0  0  0
 13 14  1  6  0  0  0
 13 15  1  0  0  0  0
 15 16  1  1  0  0  0
 15 17  1  0  0  0  0
M  END
>  <CHROM.1>
-179.62948527,68.32081855,2.04651782,4.74528819,21.41296420,0.15102324,0.15376726
-1.23331077

>  <Name>
ligand

>  <RI>
0

>  <Rbt.Current_Directory>
/home/itssahil/PROJECTS/Mol_Feturizer/New_Systems/rnas/4LVX

>  <Rbt.Executable>
rbdock ($Id: //depot/dev/client3/rdock/2013.1/src/exe/rbdock.cxx#4 $)

>  <Rbt.Library>
libRbt.so (2013.1, Build901 2013/11/27)

>  <Rbt.Parameter_File>
/export/apps/rDock/src/rDock_2013.1_src/data/scripts/dock_solv.prm

>  <Rbt.Receptor>
prm/pocket_docking_7.prm

>  <SCORE>
-18.2341

>  <SCORE.INTER>
-11.6958

>  <SCORE.INTER.CONST>
1

>  <SCORE.INTER.POLAR>
0

>  <SCORE.INTER.ROT>
2

>  <SCORE.INTER.SOLV>
11.0642

>  <SCORE.INTER.VDW>
-16.4186

>  <SCORE.INTER.norm>
-0.687985

>  <SCORE.INTRA>
-6.53838

>  <SCORE.INTRA.DIHEDRAL>
-9.93615

>  <SCORE.INTRA.DIHEDRAL.0>
10.3255

>  <SCORE.INTRA.POLAR>
0

>  <SCORE.INTRA.POLAR.0>
0

>  <SCORE.INTRA.REPUL>
0

>  <SCORE.INTRA.REPUL.0>
0

>  <SCORE.INTRA.SOLV>
0.0268139

>  <SCORE.INTRA.SOLV.lig_0>
-53.4755

>  <SCORE.INTRA.VDW>
-1.58372

>  <SCORE.INTRA.VDW.0>
2.32763

>  <SCORE.INTRA.norm>
-0.384611

>  <SCORE.RESTR>
0

>  <SCORE.RESTR.CAVITY>
0

>  <SCORE.RESTR.norm>
0

>  <SCORE.SYSTEM>
0

>  <SCORE.SYSTEM.CONST>
0

>  <SCORE.SYSTEM.DIHEDRAL>
0

>  <SCORE.SYSTEM.SOLV>
0

>  <SCORE.SYSTEM.norm>
0

>  <SCORE.heavy>
17

>  <SCORE.norm>
-1.0726

>  <RMSD>
5.814

$$$$
ligand
 OpenBabel11021811503D
libRbt.so/2013.1/901 2013/11/27
 17 18  0  0  0  0  0  0  0  0999 V2000
    4.4398    5.3920   19.9635 N   0  0  0  0  0  0  0  0  0  0  0  0
    5.4344    4.9700   20.8549 C   0  0  0  0  0  0  0  0  0  0  0  0
    6.7918    5.3877   20.6545 N   0  0  0  0  0  0  0  0  0  0  0  0
    5.1376    4.1642   21.9329 N   0  0  0  0  0  0  0  0  0  0  0  0
    3.8465    3.7392   22.1683 C   0  0  0  0  0  0  0  0  0  0  0  0
    2.7918    4.1343   21.2870 C   0  0  0  0  0  0  0  0  0  0  0  0
    3.6040    3.0271   23.1241 O   0  0  0  0  0  0  0  0  0  0  0  0
    1.4132    3.7007   21.5000 N   0  0  0  0  0  0  0  0  0  0  0  0
    0.3708    4.2684   20.7219 C   0  0  2  0  0  0  0  0  0  0  0  0
    0.8260    4.7193   19.3084 C   0  0  0  0  0  0  0  0  0  0  0  0
    3.1190    4.9737   20.1798 C   0  0  0  0  0  0  0  0  0  0  0  0
    2.0477    5.3967   19.2590 N   0  0  0  0  0  0  0  0  0  0  0  0
   -0.2710    5.3787   21.5336 C   0  0  1  0  0  0  0  0  0  0  0  0
   -1.2986    5.9675   20.8237 O   0  0  0  0  0  0  0  0  0  0  0  0
   -0.7757    4.8442   22.8405 C   0  0  1  0  0  0  0  0  0  0  0  0
    0.2459    4.5066   23.6401 O   0  0  0  0  0  0  0  0  0  0  0  0
   -1.6356    5.8938   23.5763 C   0  0  0  0  0  0  0  0  0  0  0  0
  1  2  2  0  0  0  0
  1 11  1  0  0  0  0
  2  3  1  0  0  0  0
  2  4  1  0  0  0  0
  4  5  1  0  0  0  0
  5  6  1  0  0  0  0
  5  7  2  0  0  0  0
  6  8  1  0  0  0  0
  6 11  2  0  0  0  0
  9  8  1  1  0  0  0
  9 10  1  0  0  0  0
  9 13  1  0  0  0  0
 10 12  1  0  0  0  0
 11 12  1  0  0  0  0
 13 14  1  6  0  0  0
 13 15  1  0  0  0  0
 15 16  1  1  0  0  0
 15 17  1  0  0  0  0
M  END
>  <CHROM.1>
-179.86835970,69.28456234,2.04632488,4.74059846,21.41806294,0.15026582,0.15387995
-1.23298827

>  <Name>
ligand

>  <RI>
0

>  <Rbt.Current_Directory>
/home/itssahil/PROJECTS/Mol_Feturizer/New_Systems/rnas/4LVX

>  <Rbt.Executable>
rbdock ($Id: //depot/dev/client3/rdock/2013.1/src/exe/rbdock.cxx#4 $)

>  <Rbt.Library>
libRbt.so (2013.1, Build901 2013/11/27)

>  <Rbt.Parameter_File>
/export/apps/rDock/src/rDock_2013.1_src/data/scripts/dock_solv.prm

>  <Rbt.Receptor>
prm/pocket_docking_7.prm

>  <SCORE>
-18.214

>  <SCORE.INTER>
-11.7

>  <SCORE.INTER.CONST>
1

>  <SCORE.INTER.POLAR>
0

>  <SCORE.INTER.ROT>
2

>  <SCORE.INTER.SOLV>
11.093

>  <SCORE.INTER.VDW>
-16.431

>  <SCORE.INTER.norm>
-0.688238

>  <SCORE.INTRA>
-6.51391

>  <SCORE.INTRA.DIHEDRAL>
-9.87759

>  <SCORE.INTRA.DIHEDRAL.0>
10.3255

>  <SCORE.INTRA.POLAR>
0

>  <SCORE.INTRA.POLAR.0>
0

>  <SCORE.INTRA.REPUL>
0

>  <SCORE.INTRA.REPUL.0>
0

>  <SCORE.INTRA.SOLV>
0.012134

>  <SCORE.INTRA.SOLV.lig_0>
-53.4755

>  <SCORE.INTRA.VDW>
-1.58118

>  <SCORE.INTRA.VDW.0>
2.32763

>  <SCORE.INTRA.norm>
-0.383171

>  <SCORE.RESTR>
0

>  <SCORE.RESTR.CAVITY>
0

>  <SCORE.RESTR.norm>
0

>  <SCORE.SYSTEM>
0

>  <SCORE.SYSTEM.CONST>
0

>  <SCORE.SYSTEM.DIHEDRAL>
0

>  <SCORE.SYSTEM.SOLV>
0

>  <SCORE.SYSTEM.norm>
0

>  <SCORE.heavy>
17

>  <SCORE.norm>
-1.07141

>  <RMSD>
5.815

$$$$
ligand
 OpenBabel11021811503D
libRbt.so/2013.1/901 2013/11/27
 17 18  0  0  0  0  0  0  0  0999 V2000
    4.4384    5.3839   19.9536 N   0  0  0  0  0  0  0  0  0  0  0  0
    5.4327    4.9608   20.8448 C   0  0  0  0  0  0  0  0  0  0  0  0
    6.7908    5.3753   20.6428 N   0  0  0  0  0  0  0  0  0  0  0  0
    5.1349    4.1569   21.9239 N   0  0  0  0  0  0  0  0  0  0  0  0
    3.8431    3.7350   22.1608 C   0  0  0  0  0  0  0  0  0  0  0  0
    2.7886    4.1314   21.2798 C   0  0  0  0  0  0  0  0  0  0  0  0
    3.5997    3.0246   23.1176 O   0  0  0  0  0  0  0  0  0  0  0  0
    1.4092    3.7011   21.4944 N   0  0  0  0  0  0  0  0  0  0  0  0
    0.3675    4.2701   20.7164 C   0  0  2  0  0  0  0  0  0  0  0  0
    0.8226    4.7183   19.3019 C   0  0  0  0  0  0  0  0  0  0  0  0
    3.1168    4.9688   20.1714 C   0  0  0  0  0  0  0  0  0  0  0  0
    2.0458    5.3930   19.2508 N   0  0  0  0  0  0  0  0  0  0  0  0
   -0.2713    5.3828   21.5272 C   0  0  1  0  0  0  0  0  0  0  0  0
   -1.3019    5.9691   20.8197 O   0  0  0  0  0  0  0  0  0  0  0  0
   -0.7705    4.8522   22.8378 C   0  0  1  0  0  0  0  0  0  0  0  0
    0.2541    4.5028   23.6283 O   0  0  0  0  0  0  0  0  0  0  0  0
   -1.6128    5.9102   23.5821 C   0  0  0  0  0  0  0  0  0  0  0  0
  1  2  2  0  0  0  0
  1 11  1  0  0  0  0
  2  3  1  0  0  0  0
  2  4  1  0  0  0  0
  4  5  1  0  0  0  0
  5  6  1  0  0  0  0
  5  7  2  0  0  0  0
  6  8  1  0  0  0  0
  6 11  2  0  0  0  0
  9  8  1  1  0  0  0
  9 10  1  0  0  0  0
  9 13  1  0  0  0  0
 10 12  1  0  0  0  0
 11 12  1  0  0  0  0
 13 14  1  6  0  0  0
 13 15  1  0  0  0  0
 15 16  1  1  0  0  0
 15 17  1  0  0  0  0
M  END
>  <CHROM.1>
-179.60772856,68.56114594,2.04651027,4.73910367,21.41136919,0.15057045,0.15613665
-1.23506089

>  <Name>
ligand

>  <RI>
0

>  <Rbt.Current_Directory>
/home/itssahil/PROJECTS/Mol_Feturizer/New_Systems/rnas/4LVX

>  <Rbt.Executable>
rbdock ($Id: //depot/dev/client3/rdock/2013.1/src/exe/rbdock.cxx#4 $)

>  <Rbt.Library>
libRbt.so (2013.1, Build901 2013/11/27)

>  <Rbt.Parameter_File>
/export/apps/rDock/src/rDock_2013.1_src/data/scripts/dock_solv.prm

>  <Rbt.Receptor>
prm/pocket_docking_4.prm

>  <SCORE>
-18.2317

>  <SCORE.INTER>
-11.7012

>  <SCORE.INTER.CONST>
1

>  <SCORE.INTER.POLAR>
0

>  <SCORE.INTER.ROT>
2

>  <SCORE.INTER.SOLV>
11.1317

>  <SCORE.INTER.VDW>
-16.4447

>  <SCORE.INTER.norm>
-0.688304

>  <SCORE.INTRA>
-6.53059

>  <SCORE.INTRA.DIHEDRAL>
-9.92202

>  <SCORE.INTRA.DIHEDRAL.0>
10.3255

>  <SCORE.INTRA.POLAR>
0

>  <SCORE.INTRA.POLAR.0>
0

>  <SCORE.INTRA.REPUL>
0

>  <SCORE.INTRA.REPUL.0>
0

>  <SCORE.INTRA.SOLV>
0.0243357

>  <SCORE.INTRA.SOLV.lig_0>
-53.4755

>  <SCORE.INTRA.VDW>
-1.58174

>  <SCORE.INTRA.VDW.0>
2.32763

>  <SCORE.INTRA.norm>
-0.384152

>  <SCORE.RESTR>
0

>  <SCORE.RESTR.CAVITY>
0

>  <SCORE.RESTR.norm>
0

>  <SCORE.SYSTEM>
0

>  <SCORE.SYSTEM.CONST>
0

>  <SCORE.SYSTEM.DIHEDRAL>
0

>  <SCORE.SYSTEM.SOLV>
0

>  <SCORE.SYSTEM.norm>
0

>  <SCORE.heavy>
17

>  <SCORE.norm>
-1.07246

>  <RMSD>
5.816

$$$$
ligand
 OpenBabel11021811503D
libRbt.so/2013.1/901 2013/11/27
 17 18  0  0  0  0  0  0  0  0999 V2000
    4.4383    5.3974   19.9485 N   0  0  0  0  0  0  0  0  0  0  0  0
    5.4359    4.9719   20.8350 C   0  0  0  0  0  0  0  0  0  0  0  0
    6.7928    5.3897   20.6312 N   0  0  0  0  0  0  0  0  0  0  0  0
    5.1425    4.1626   21.9113 N   0  0  0  0  0  0  0  0  0  0  0  0
    3.8520    3.7374   22.1498 C   0  0  0  0  0  0  0  0  0  0  0  0
    2.7944    4.1360   21.2736 C   0  0  0  0  0  0  0  0  0  0  0  0
    3.6125    3.0222   23.1040 O   0  0  0  0  0  0  0  0  0  0  0  0
    1.4164    3.7023   21.4900 N   0  0  0  0  0  0  0  0  0  0  0  0
    0.3715    4.2732   20.7175 C   0  0  2  0  0  0  0  0  0  0  0  0
    0.8219    4.7287   19.3039 C   0  0  0  0  0  0  0  0  0  0  0  0
    3.1181    4.9791   20.1681 C   0  0  0  0  0  0  0  0  0  0  0  0
    2.0438    5.4057   19.2525 N   0  0  0  0  0  0  0  0  0  0  0  0
   -0.2669    5.3811   21.5352 C   0  0  1  0  0  0  0  0  0  0  0  0
   -1.3239    5.9444   20.8482 O   0  0  0  0  0  0  0  0  0  0  0  0
   -0.7258    4.8521   22.8611 C   0  0  1  0  0  0  0  0  0  0  0  0
    0.3231    4.5642   23.6446 O   0  0  0  0  0  0  0  0  0  0  0  0
   -1.6068    5.8839   23.5972 C   0  0  0  0  0  0  0  0  0  0  0  0
  1  2  2  0  0  0  0
  1 11  1  0  0  0  0
  2  3  1  0  0  0  0
  2  4  1  0  0  0  0
  4  5  1  0  0  0  0
  5  6  1  0  0  0  0
  5  7  2  0  0  0  0
  6  8  1  0  0  0  0
  6 11  2  0  0  0  0
  9  8  1  1  0  0  0
  9 10  1  0  0  0  0
  9 13  1  0  0  0  0
 10 12  1  0  0  0  0
 11 12  1  0  0  0  0
 13 14  1  6  0  0  0
 13 15  1  0  0  0  0
 15 16  1  1  0  0  0
 15 17  1  0  0  0  0
M  END
>  <CHROM.1>
-177.96538965,70.43078277,2.05575119,4.74474479,21.41292100,0.15497400,0.15506893
-1.24089756

>  <Name>
ligand

>  <RI>
0

>  <Rbt.Current_Directory>
/home/itssahil/PROJECTS/Mol_Feturizer/New_Systems/rnas/4LVX

>  <Rbt.Executable>
rbdock ($Id: //depot/dev/client3/rdock/2013.1/src/exe/rbdock.cxx#4 $)

>  <Rbt.Library>
libRbt.so (2013.1, Build901 2013/11/27)

>  <Rbt.Parameter_File>
/export/apps/rDock/src/rDock_2013.1_src/data/scripts/dock_solv.prm

>  <Rbt.Receptor>
prm/pocket_docking_5.prm

>  <SCORE>
-18.2045

>  <SCORE.INTER>
-11.798

>  <SCORE.INTER.CONST>
1

>  <SCORE.INTER.POLAR>
0

>  <SCORE.INTER.ROT>
2

>  <SCORE.INTER.SOLV>
11.0459

>  <SCORE.INTER.VDW>
-16.4806

>  <SCORE.INTER.norm>
-0.693998

>  <SCORE.INTRA>
-6.40655

>  <SCORE.INTRA.DIHEDRAL>
-9.78671

>  <SCORE.INTRA.DIHEDRAL.0>
10.3255

>  <SCORE.INTRA.POLAR>
0

>  <SCORE.INTRA.POLAR.0>
0

>  <SCORE.INTRA.REPUL>
0

>  <SCORE.INTRA.REPUL.0>
0

>  <SCORE.INTRA.SOLV>
0.0254991

>  <SCORE.INTRA.SOLV.lig_0>
-53.4755

>  <SCORE.INTRA.VDW>
-1.52594

>  <SCORE.INTRA.VDW.0>
2.32763

>  <SCORE.INTRA.norm>
-0.376856

>  <SCORE.RESTR>
0

>  <SCORE.RESTR.CAVITY>
0

>  <SCORE.RESTR.norm>
0

>  <SCORE.SYSTEM>
0

>  <SCORE.SYSTEM.CONST>
0

>  <SCORE.SYSTEM.DIHEDRAL>
0

>  <SCORE.SYSTEM.SOLV>
0

>  <SCORE.SYSTEM.norm>
0

>  <SCORE.heavy>
17

>  <SCORE.norm>
-1.07085

>  <RMSD>
5.816

$$$$
ligand
 OpenBabel11021811503D
libRbt.so/2013.1/901 2013/11/27
 17 18  0  0  0  0  0  0  0  0999 V2000
    4.4385    5.3993   19.9530 N   0  0  0  0  0  0  0  0  0  0  0  0
    5.4358    4.9791   20.8423 C   0  0  0  0  0  0  0  0  0  0  0  0
    6.7920    5.3989   20.6387 N   0  0  0  0  0  0  0  0  0  0  0  0
    5.1427    4.1730   21.9211 N   0  0  0  0  0  0  0  0  0  0  0  0
    3.8529    3.7460   22.1595 C   0  0  0  0  0  0  0  0  0  0  0  0
    2.7955    4.1392   21.2806 C   0  0  0  0  0  0  0  0  0  0  0  0
    3.6136    3.0337   23.1160 O   0  0  0  0  0  0  0  0  0  0  0  0
    1.4181    3.7035   21.4968 N   0  0  0  0  0  0  0  0  0  0  0  0
    0.3730    4.2694   20.7210 C   0  0  2  0  0  0  0  0  0  0  0  0
    0.8242    4.7208   19.3063 C   0  0  0  0  0  0  0  0  0  0  0  0
    3.1188    4.9790   20.1725 C   0  0  0  0  0  0  0  0  0  0  0  0
    2.0448    5.4001   19.2540 N   0  0  0  0  0  0  0  0  0  0  0  0
   -0.2687    5.3789   21.5339 C   0  0  1  0  0  0  0  0  0  0  0  0
   -1.2983    5.9665   20.8259 O   0  0  0  0  0  0  0  0  0  0  0  0
   -0.7704    4.8436   22.8417 C   0  0  1  0  0  0  0  0  0  0  0  0
    0.2527    4.4868   23.6309 O   0  0  0  0  0  0  0  0  0  0  0  0
   -1.6094    5.9008   23.5907 C   0  0  0  0  0  0  0  0  0  0  0  0
  1  2  2  0  0  0  0
  1 11  1  0  0  0  0
  2  3  1  0  0  0  0
  2  4  1  0  0  0  0
  4  5  1  0  0  0  0
  5  6  1  0  0  0  0
  5  7  2  0  0  0  0
  6  8  1  0  0  0  0
  6 11  2  0  0  0  0
  9  8  1  1  0  0  0
  9 10  1  0  0  0  0
  9 13  1  0  0  0  0
 10 12  1  0  0  0  0
 11 12  1  0  0  0  0
 13 14  1  6  0  0  0
 13 15  1  0  0  0  0
 15 16  1  1  0  0  0
 15 17  1  0  0  0  0
M  END
>  <CHROM.1>
-179.90796687,68.27265515,2.05051324,4.74355767,21.41331850,0.15309515,0.15313859
-1.23268818

>  <Name>
ligand

>  <RI>
0

>  <Rbt.Current_Directory>
/home/itssahil/PROJECTS/Mol_Feturizer/New_Systems/rnas/4LVX

>  <Rbt.Executable>
rbdock ($Id: //depot/dev/client3/rdock/2013.1/src/exe/rbdock.cxx#4 $)

>  <Rbt.Library>
libRbt.so (2013.1, Build901 2013/11/27)

>  <Rbt.Parameter_File>
/export/apps/rDock/src/rDock_2013.1_src/data/scripts/dock_solv.prm

>  <Rbt.Receptor>
prm/pocket_docking_5.prm

>  <SCORE>
-18.2285

>  <SCORE.INTER>
-11.6799

>  <SCORE.INTER.CONST>
1

>  <SCORE.INTER.POLAR>
0

>  <SCORE.INTER.ROT>
2

>  <SCORE.INTER.SOLV>
11.0652

>  <SCORE.INTER.VDW>
-16.4083

>  <SCORE.INTER.norm>
-0.687052

>  <SCORE.INTRA>
-6.54859

>  <SCORE.INTRA.DIHEDRAL>
-9.93917

>  <SCORE.INTRA.DIHEDRAL.0>
10.3255

>  <SCORE.INTRA.POLAR>
0

>  <SCORE.INTRA.POLAR.0>
0

>  <SCORE.INTRA.REPUL>
0

>  <SCORE.INTRA.REPUL.0>
0

>  <SCORE.INTRA.SOLV>
0.023345

>  <SCORE.INTRA.SOLV.lig_0>
-53.4755

>  <SCORE.INTRA.VDW>
-1.59068

>  <SCORE.INTRA.VDW.0>
2.32763

>  <SCORE.INTRA.norm>
-0.385211

>  <SCORE.RESTR>
0

>  <SCORE.RESTR.CAVITY>
0

>  <SCORE.RESTR.norm>
0

>  <SCORE.SYSTEM>
0

>  <SCORE.SYSTEM.CONST>
0

>  <SCORE.SYSTEM.DIHEDRAL>
0

>  <SCORE.SYSTEM.SOLV>
0

>  <SCORE.SYSTEM.norm>
0

>  <SCORE.heavy>
17

>  <SCORE.norm>
-1.07226

>  <RMSD>
5.816

$$$$
ligand
 OpenBabel11021811503D
libRbt.so/2013.1/901 2013/11/27
 17 18  0  0  0  0  0  0  0  0999 V2000
    4.4420    5.3954   19.9467 N   0  0  0  0  0  0  0  0  0  0  0  0
    5.4375    4.9729   20.8369 C   0  0  0  0  0  0  0  0  0  0  0  0
    6.7950    5.3892   20.6341 N   0  0  0  0  0  0  0  0  0  0  0  0
    5.1416    4.1680   21.9158 N   0  0  0  0  0  0  0  0  0  0  0  0
    3.8504    3.7444   22.1534 C   0  0  0  0  0  0  0  0  0  0  0  0
    2.7947    4.1400   21.2735 C   0  0  0  0  0  0  0  0  0  0  0  0
    3.6086    3.0332   23.1100 O   0  0  0  0  0  0  0  0  0  0  0  0
    1.4161    3.7079   21.4889 N   0  0  0  0  0  0  0  0  0  0  0  0
    0.3731    4.2762   20.7120 C   0  0  2  0  0  0  0  0  0  0  0  0
    0.8265    4.7258   19.2975 C   0  0  0  0  0  0  0  0  0  0  0  0
    3.1211    4.9785   20.1653 C   0  0  0  0  0  0  0  0  0  0  0  0
    2.0488    5.4020   19.2458 N   0  0  0  0  0  0  0  0  0  0  0  0
   -0.2665    5.3876   21.5239 C   0  0  1  0  0  0  0  0  0  0  0  0
   -1.3092    5.9619   20.8243 O   0  0  0  0  0  0  0  0  0  0  0  0
   -0.7476    4.8595   22.8423 C   0  0  1  0  0  0  0  0  0  0  0  0
    0.2882    4.5390   23.6304 O   0  0  0  0  0  0  0  0  0  0  0  0
   -1.6077    5.9069   23.5810 C   0  0  0  0  0  0  0  0  0  0  0  0
  1  2  2  0  0  0  0
  1 11  1  0  0  0  0
  2  3  1  0  0  0  0
  2  4  1  0  0  0  0
  4  5  1  0  0  0  0
  5  6  1  0  0  0  0
  5  7  2  0  0  0  0
  6  8  1  0  0  0  0
  6 11  2  0  0  0  0
  9  8  1  1  0  0  0
  9 10  1  0  0  0  0
  9 13  1  0  0  0  0
 10 12  1  0  0  0  0
 11 12  1  0  0  0  0
 13 14  1  6  0  0  0
 13 15  1  0  0  0  0
 15 16  1  1  0  0  0
 15 17  1  0  0  0  0
M  END
>  <CHROM.1>
-178.85443559,69.37713715,2.05398373,4.74810311,21.40733783,0.15225026,0.15510579
-1.23918568

>  <Name>
ligand

>  <RI>
0

>  <Rbt.Current_Directory>
/home/itssahil/PROJECTS/Mol_Feturizer/New_Systems/rnas/4LVX

>  <Rbt.Executable>
rbdock ($Id: //depot/dev/client3/rdock/2013.1/src/exe/rbdock.cxx#4 $)

>  <Rbt.Library>
libRbt.so (2013.1, Build901 2013/11/27)

>  <Rbt.Parameter_File>
/export/apps/rDock/src/rDock_2013.1_src/data/scripts/dock_solv.prm

>  <Rbt.Receptor>
prm/pocket_docking_5.prm

>  <SCORE>
-18.2252

>  <SCORE.INTER>
-11.7464

>  <SCORE.INTER.CONST>
1

>  <SCORE.INTER.POLAR>
0

>  <SCORE.INTER.ROT>
2

>  <SCORE.INTER.SOLV>
11.0452

>  <SCORE.INTER.VDW>
-16.446

>  <SCORE.INTER.norm>
-0.690967

>  <SCORE.INTRA>
-6.4788

>  <SCORE.INTRA.DIHEDRAL>
-9.86783

>  <SCORE.INTRA.DIHEDRAL.0>
10.3255

>  <SCORE.INTRA.POLAR>
0

>  <SCORE.INTRA.POLAR.0>
0

>  <SCORE.INTRA.REPUL>
0

>  <SCORE.INTRA.REPUL.0>
0

>  <SCORE.INTRA.SOLV>
0.0255466

>  <SCORE.INTRA.SOLV.lig_0>
-53.4755

>  <SCORE.INTRA.VDW>
-1.55766

>  <SCORE.INTRA.VDW.0>
2.32763

>  <SCORE.INTRA.norm>
-0.381106

>  <SCORE.RESTR>
0

>  <SCORE.RESTR.CAVITY>
0

>  <SCORE.RESTR.norm>
0

>  <SCORE.SYSTEM>
0

>  <SCORE.SYSTEM.CONST>
0

>  <SCORE.SYSTEM.DIHEDRAL>
0

>  <SCORE.SYSTEM.SOLV>
0

>  <SCORE.SYSTEM.norm>
0

>  <SCORE.heavy>
17

>  <SCORE.norm>
-1.07207

>  <RMSD>
5.816

$$$$
ligand
 OpenBabel11021811503D
libRbt.so/2013.1/901 2013/11/27
 17 18  0  0  0  0  0  0  0  0999 V2000
    4.4133    5.3747   19.9243 N   0  0  0  0  0  0  0  0  0  0  0  0
    5.4157    4.9625   20.8116 C   0  0  0  0  0  0  0  0  0  0  0  0
    6.7711    5.3788   20.5952 N   0  0  0  0  0  0  0  0  0  0  0  0
    5.1286    4.1678   21.9003 N   0  0  0  0  0  0  0  0  0  0  0  0
    3.8398    3.7447   22.1511 C   0  0  0  0  0  0  0  0  0  0  0  0
    2.7774    4.1301   21.2748 C   0  0  0  0  0  0  0  0  0  0  0  0
    3.6058    3.0425   23.1163 O   0  0  0  0  0  0  0  0  0  0  0  0
    1.4009    3.6981   21.5041 N   0  0  0  0  0  0  0  0  0  0  0  0
    0.3516    4.2572   20.7291 C   0  0  2  0  0  0  0  0  0  0  0  0
    0.7945    4.6936   19.3070 C   0  0  0  0  0  0  0  0  0  0  0  0
    3.0947    4.9582   20.1562 C   0  0  0  0  0  0  0  0  0  0  0  0
    2.0153    5.3710   19.2402 N   0  0  0  0  0  0  0  0  0  0  0  0
   -0.2839    5.3756   21.5345 C   0  0  1  0  0  0  0  0  0  0  0  0
   -1.3160    5.9584   20.8262 O   0  0  0  0  0  0  0  0  0  0  0  0
   -0.7799    4.8539   22.8499 C   0  0  1  0  0  0  0  0  0  0  0  0
    0.2468    4.5100   23.6403 O   0  0  0  0  0  0  0  0  0  0  0  0
   -1.6205    5.9167   23.5890 C   0  0  0  0  0  0  0  0  0  0  0  0
  1  2  2  0  0  0  0
  1 11  1  0  0  0  0
  2  3  1  0  0  0  0
  2  4  1  0  0  0  0
  4  5  1  0  0  0  0
  5  6  1  0  0  0  0
  5  7  2  0  0  0  0
  6  8  1  0  0  0  0
  6 11  2  0  0  0  0
  9  8  1  1  0  0  0
  9 10  1  0  0  0  0
  9 13  1  0  0  0  0
 10 12  1  0  0  0  0
 11 12  1  0  0  0  0
 13 14  1  6  0  0  0
 13 15  1  0  0  0  0
 15 16  1  1  0  0  0
 15 17  1  0  0  0  0
M  END
>  <CHROM.1>
-179.99428351,68.63130885,2.03305605,4.73678837,21.40577975,0.15857628,0.15620386
-1.24356874

>  <Name>
ligand

>  <RI>
0

>  <Rbt.Current_Directory>
/home/itssahil/PROJECTS/Mol_Feturizer/New_Systems/rnas/4LVX

>  <Rbt.Executable>
rbdock ($Id: //depot/dev/client3/rdock/2013.1/src/exe/rbdock.cxx#4 $)

>  <Rbt.Library>
libRbt.so (2013.1, Build901 2013/11/27)

>  <Rbt.Parameter_File>
/export/apps/rDock/src/rDock_2013.1_src/data/scripts/dock_solv.prm

>  <Rbt.Receptor>
prm/pocket_docking_7.prm

>  <SCORE>
-18.2157

>  <SCORE.INTER>
-11.6755

>  <SCORE.INTER.CONST>
1

>  <SCORE.INTER.POLAR>
0

>  <SCORE.INTER.ROT>
2

>  <SCORE.INTER.SOLV>
11.2319

>  <SCORE.INTER.VDW>
-16.4609

>  <SCORE.INTER.norm>
-0.686791

>  <SCORE.INTRA>
-6.54023

>  <SCORE.INTRA.DIHEDRAL>
-9.91809

>  <SCORE.INTRA.DIHEDRAL.0>
10.3255

>  <SCORE.INTRA.POLAR>
0

>  <SCORE.INTRA.POLAR.0>
0

>  <SCORE.INTRA.REPUL>
0

>  <SCORE.INTRA.REPUL.0>
0

>  <SCORE.INTRA.SOLV>
0.0179396

>  <SCORE.INTRA.SOLV.lig_0>
-53.4755

>  <SCORE.INTRA.VDW>
-1.59016

>  <SCORE.INTRA.VDW.0>
2.32763

>  <SCORE.INTRA.norm>
-0.384719

>  <SCORE.RESTR>
0

>  <SCORE.RESTR.CAVITY>
0

>  <SCORE.RESTR.norm>
0

>  <SCORE.SYSTEM>
0

>  <SCORE.SYSTEM.CONST>
0

>  <SCORE.SYSTEM.DIHEDRAL>
0

>  <SCORE.SYSTEM.SOLV>
0

>  <SCORE.SYSTEM.norm>
0

>  <SCORE.heavy>
17

>  <SCORE.norm>
-1.07151

>  <RMSD>
5.816

$$$$
ligand
 OpenBabel11021811503D
libRbt.so/2013.1/901 2013/11/27
 17 18  0  0  0  0  0  0  0  0999 V2000
    4.4376    5.3946   19.9574 N   0  0  0  0  0  0  0  0  0  0  0  0
    5.4327    4.9705   20.8473 C   0  0  0  0  0  0  0  0  0  0  0  0
    6.7901    5.3880   20.6466 N   0  0  0  0  0  0  0  0  0  0  0  0
    5.1364    4.1627   21.9239 N   0  0  0  0  0  0  0  0  0  0  0  0
    3.8453    3.7378   22.1595 C   0  0  0  0  0  0  0  0  0  0  0  0
    2.7900    4.1351   21.2798 C   0  0  0  0  0  0  0  0  0  0  0  0
    3.6031    3.0240   23.1141 O   0  0  0  0  0  0  0  0  0  0  0  0
    1.4115    3.7017   21.4930 N   0  0  0  0  0  0  0  0  0  0  0  0
    0.3687    4.2713   20.7168 C   0  0  2  0  0  0  0  0  0  0  0  0
    0.8230    4.7247   19.3038 C   0  0  0  0  0  0  0  0  0  0  0  0
    3.1168    4.9765   20.1740 C   0  0  0  0  0  0  0  0  0  0  0  0
    2.0450    5.4017   19.2548 N   0  0  0  0  0  0  0  0  0  0  0  0
   -0.2720    5.3804   21.5310 C   0  0  1  0  0  0  0  0  0  0  0  0
   -1.3002    5.9706   20.8233 O   0  0  0  0  0  0  0  0  0  0  0  0
   -0.7755    4.8436   22.8375 C   0  0  1  0  0  0  0  0  0  0  0  0
    0.2468    4.5041   23.6354 O   0  0  0  0  0  0  0  0  0  0  0  0
   -1.6341    5.8922   23.5762 C   0  0  0  0  0  0  0  0  0  0  0  0
  1  2  2  0  0  0  0
  1 11  1  0  0  0  0
  2  3  1  0  0  0  0
  2  4  1  0  0  0  0
  4  5  1  0  0  0  0
  5  6  1  0  0  0  0
  5  7  2  0  0  0  0
  6  8  1  0  0  0  0
  6 11  2  0  0  0  0
  9  8  1  1  0  0  0
  9 10  1  0  0  0  0
  9 13  1  0  0  0  0
 10 12  1  0  0  0  0
 11 12  1  0  0  0  0
 13 14  1  6  0  0  0
 13 15  1  0  0  0  0
 15 16  1  1  0  0  0
 15 17  1  0  0  0  0
M  END
>  <CHROM.1>
-179.84769277,69.27063407,2.04503944,4.74147045,21.41262310,0.15085833,0.15453288
-1.23124997

>  <Name>
ligand

>  <RI>
0

>  <Rbt.Current_Directory>
/home/itssahil/PROJECTS/Mol_Feturizer/New_Systems/rnas/4LVX

>  <Rbt.Executable>
rbdock ($Id: //depot/dev/client3/rdock/2013.1/src/exe/rbdock.cxx#4 $)

>  <Rbt.Library>
libRbt.so (2013.1, Build901 2013/11/27)

>  <Rbt.Parameter_File>
/export/apps/rDock/src/rDock_2013.1_src/data/scripts/dock_solv.prm

>  <Rbt.Receptor>
prm/pocket_docking_4.prm

>  <SCORE>
-18.2174

>  <SCORE.INTER>
-11.7036

>  <SCORE.INTER.CONST>
1

>  <SCORE.INTER.POLAR>
0

>  <SCORE.INTER.ROT>
2

>  <SCORE.INTER.SOLV>
11.1073

>  <SCORE.INTER.VDW>
-16.4381

>  <SCORE.INTER.norm>
-0.688445

>  <SCORE.INTRA>
-6.51384

>  <SCORE.INTRA.DIHEDRAL>
-9.87848

>  <SCORE.INTRA.DIHEDRAL.0>
10.3255

>  <SCORE.INTRA.POLAR>
0

>  <SCORE.INTRA.POLAR.0>
0

>  <SCORE.INTRA.REPUL>
0

>  <SCORE.INTRA.REPUL.0>
0

>  <SCORE.INTRA.SOLV>
0.0125945

>  <SCORE.INTRA.SOLV.lig_0>
-53.4755

>  <SCORE.INTRA.VDW>
-1.5809

>  <SCORE.INTRA.VDW.0>
2.32763

>  <SCORE.INTRA.norm>
-0.383167

>  <SCORE.RESTR>
0

>  <SCORE.RESTR.CAVITY>
0

>  <SCORE.RESTR.norm>
0

>  <SCORE.SYSTEM>
0

>  <SCORE.SYSTEM.CONST>
0

>  <SCORE.SYSTEM.DIHEDRAL>
0

>  <SCORE.SYSTEM.SOLV>
0

>  <SCORE.SYSTEM.norm>
0

>  <SCORE.heavy>
17

>  <SCORE.norm>
-1.07161

>  <RMSD>
5.817

$$$$
ligand
 OpenBabel11021811503D
libRbt.so/2013.1/901 2013/11/27
 17 18  0  0  0  0  0  0  0  0999 V2000
    4.4636    5.3988   19.9921 N   0  0  0  0  0  0  0  0  0  0  0  0
    5.4504    4.9660   20.8871 C   0  0  0  0  0  0  0  0  0  0  0  0
    6.8093    5.3869   20.7043 N   0  0  0  0  0  0  0  0  0  0  0  0
    5.1443    4.1465   21.9521 N   0  0  0  0  0  0  0  0  0  0  0  0
    3.8514    3.7179   22.1704 C   0  0  0  0  0  0  0  0  0  0  0  0
    2.8044    4.1236   21.2847 C   0  0  0  0  0  0  0  0  0  0  0  0
    3.6006    2.9937   23.1149 O   0  0  0  0  0  0  0  0  0  0  0  0
    1.4243    3.6867   21.4797 N   0  0  0  0  0  0  0  0  0  0  0  0
    0.3886    4.2637   20.6995 C   0  0  2  0  0  0  0  0  0  0  0  0
    0.8563    4.7327   19.2959 C   0  0  0  0  0  0  0  0  0  0  0  0
    3.1411    4.9772   20.1912 C   0  0  0  0  0  0  0  0  0  0  0  0
    2.0780    5.4113   19.2661 N   0  0  0  0  0  0  0  0  0  0  0  0
   -0.2612    5.3634   21.5192 C   0  0  1  0  0  0  0  0  0  0  0  0
   -1.2955    5.9474   20.8152 O   0  0  0  0  0  0  0  0  0  0  0  0
   -0.7583    4.8165   22.8240 C   0  0  1  0  0  0  0  0  0  0  0  0
    0.2678    4.4676   23.6127 O   0  0  0  0  0  0  0  0  0  0  0  0
   -1.6099    5.8607   23.5768 C   0  0  0  0  0  0  0  0  0  0  0  0
  1  2  2  0  0  0  0
  1 11  1  0  0  0  0
  2  3  1  0  0  0  0
  2  4  1  0  0  0  0
  4  5  1  0  0  0  0
  5  6  1  0  0  0  0
  5  7  2  0  0  0  0
  6  8  1  0  0  0  0
  6 11  2  0  0  0  0
  9  8  1  1  0  0  0
  9 10  1  0  0  0  0
  9 13  1  0  0  0  0
 10 12  1  0  0  0  0
 11 12  1  0  0  0  0
 13 14  1  6  0  0  0
 13 15  1  0  0  0  0
 15 16  1  1  0  0  0
 15 17  1  0  0  0  0
M  END
>  <CHROM.1>
-178.98667152,68.51337161,2.06194917,4.72799158,21.41859833,0.14267602,0.15018761
-1.22320614

>  <Name>
ligand

>  <RI>
0

>  <Rbt.Current_Directory>
/home/itssahil/PROJECTS/Mol_Feturizer/New_Systems/rnas/4LVX

>  <Rbt.Executable>
rbdock ($Id: //depot/dev/client3/rdock/2013.1/src/exe/rbdock.cxx#4 $)

>  <Rbt.Library>
libRbt.so (2013.1, Build901 2013/11/27)

>  <Rbt.Parameter_File>
/export/apps/rDock/src/rDock_2013.1_src/data/scripts/dock_solv.prm

>  <Rbt.Receptor>
prm/pocket_docking_5.prm

>  <SCORE>
-18.2146

>  <SCORE.INTER>
-11.7036

>  <SCORE.INTER.CONST>
1

>  <SCORE.INTER.POLAR>
0

>  <SCORE.INTER.ROT>
2

>  <SCORE.INTER.SOLV>
11.1048

>  <SCORE.INTER.VDW>
-16.4374

>  <SCORE.INTER.norm>
-0.688448

>  <SCORE.INTRA>
-6.51097

>  <SCORE.INTRA.DIHEDRAL>
-9.92225

>  <SCORE.INTRA.DIHEDRAL.0>
10.3255

>  <SCORE.INTRA.POLAR>
0

>  <SCORE.INTRA.POLAR.0>
0

>  <SCORE.INTRA.REPUL>
0

>  <SCORE.INTRA.REPUL.0>
0

>  <SCORE.INTRA.SOLV>
0.0338159

>  <SCORE.INTRA.SOLV.lig_0>
-53.4755

>  <SCORE.INTRA.VDW>
-1.56675

>  <SCORE.INTRA.VDW.0>
2.32763

>  <SCORE.INTRA.norm>
-0.382998

>  <SCORE.RESTR>
0

>  <SCORE.RESTR.CAVITY>
0

>  <SCORE.RESTR.norm>
0

>  <SCORE.SYSTEM>
0

>  <SCORE.SYSTEM.CONST>
0

>  <SCORE.SYSTEM.DIHEDRAL>
0

>  <SCORE.SYSTEM.SOLV>
0

>  <SCORE.SYSTEM.norm>
0

>  <SCORE.heavy>
17

>  <SCORE.norm>
-1.07145

>  <RMSD>
5.817

$$$$
ligand
 OpenBabel11021811503D
libRbt.so/2013.1/901 2013/11/27
 17 18  0  0  0  0  0  0  0  0999 V2000
    4.4427    5.3988   19.9467 N   0  0  0  0  0  0  0  0  0  0  0  0
    5.4397    4.9794   20.8368 C   0  0  0  0  0  0  0  0  0  0  0  0
    6.7960    5.3989   20.6332 N   0  0  0  0  0  0  0  0  0  0  0  0
    5.1461    4.1745   21.9163 N   0  0  0  0  0  0  0  0  0  0  0  0
    3.8561    3.7479   22.1547 C   0  0  0  0  0  0  0  0  0  0  0  0
    2.7991    4.1403   21.2749 C   0  0  0  0  0  0  0  0  0  0  0  0
    3.6164    3.0367   23.1119 O   0  0  0  0  0  0  0  0  0  0  0  0
    1.4216    3.7050   21.4911 N   0  0  0  0  0  0  0  0  0  0  0  0
    0.3769    4.2701   20.7143 C   0  0  2  0  0  0  0  0  0  0  0  0
    0.8287    4.7199   19.2993 C   0  0  0  0  0  0  0  0  0  0  0  0
    3.1230    4.9789   20.1661 C   0  0  0  0  0  0  0  0  0  0  0  0
    2.0493    5.3991   19.2467 N   0  0  0  0  0  0  0  0  0  0  0  0
   -0.2651    5.3806   21.5257 C   0  0  1  0  0  0  0  0  0  0  0  0
   -1.3067    5.9547   20.8244 O   0  0  0  0  0  0  0  0  0  0  0  0
   -0.7486    4.8511   22.8427 C   0  0  1  0  0  0  0  0  0  0  0  0
    0.2859    4.5220   23.6292 O   0  0  0  0  0  0  0  0  0  0  0  0
   -1.6019    5.9013   23.5853 C   0  0  0  0  0  0  0  0  0  0  0  0
  1  2  2  0  0  0  0
  1 11  1  0  0  0  0
  2  3  1  0  0  0  0
  2  4  1  0  0  0  0
  4  5  1  0  0  0  0
  5  6  1  0  0  0  0
  5  7  2  0  0  0  0
  6  8  1  0  0  0  0
  6 11  2  0  0  0  0
  9  8  1  1  0  0  0
  9 10  1  0  0  0  0
  9 13  1  0  0  0  0
 10 12  1  0  0  0  0
 11 12  1  0  0  0  0
 13 14  1  6  0  0  0
 13 15  1  0  0  0  0
 15 16  1  1  0  0  0
 15 17  1  0  0  0  0
M  END
>  <CHROM.1>
-179.04380409,68.94520001,2.05671604,4.74614607,21.40835826,0.15332344,0.15294694
-1.23873536

>  <Name>
ligand

>  <RI>
0

>  <Rbt.Current_Directory>
/home/itssahil/PROJECTS/Mol_Feturizer/New_Systems/rnas/4LVX

>  <Rbt.Executable>
rbdock ($Id: //depot/dev/client3/rdock/2013.1/src/exe/rbdock.cxx#4 $)

>  <Rbt.Library>
libRbt.so (2013.1, Build901 2013/11/27)

>  <Rbt.Parameter_File>
/export/apps/rDock/src/rDock_2013.1_src/data/scripts/dock_solv.prm

>  <Rbt.Receptor>
prm/pocket_docking_8.prm

>  <SCORE>
-18.2226

>  <SCORE.INTER>
-11.7228

>  <SCORE.INTER.CONST>
1

>  <SCORE.INTER.POLAR>
0

>  <SCORE.INTER.ROT>
2

>  <SCORE.INTER.SOLV>
11.043

>  <SCORE.INTER.VDW>
-16.4295

>  <SCORE.INTER.norm>
-0.689575

>  <SCORE.INTRA>
-6.49988

>  <SCORE.INTRA.DIHEDRAL>
-9.89647

>  <SCORE.INTRA.DIHEDRAL.0>
10.3255

>  <SCORE.INTRA.POLAR>
0

>  <SCORE.INTRA.POLAR.0>
0

>  <SCORE.INTRA.REPUL>
0

>  <SCORE.INTRA.REPUL.0>
0

>  <SCORE.INTRA.SOLV>
0.0279386

>  <SCORE.INTRA.SOLV.lig_0>
-53.4755

>  <SCORE.INTRA.VDW>
-1.56562

>  <SCORE.INTRA.VDW.0>
2.32763

>  <SCORE.INTRA.norm>
-0.382346

>  <SCORE.RESTR>
0

>  <SCORE.RESTR.CAVITY>
0

>  <SCORE.RESTR.norm>
0

>  <SCORE.SYSTEM>
0

>  <SCORE.SYSTEM.CONST>
0

>  <SCORE.SYSTEM.DIHEDRAL>
0

>  <SCORE.SYSTEM.SOLV>
0

>  <SCORE.SYSTEM.norm>
0

>  <SCORE.heavy>
17

>  <SCORE.norm>
-1.07192

>  <RMSD>
5.817

$$$$
ligand
 OpenBabel11021811503D
libRbt.so/2013.1/901 2013/11/27
 17 18  0  0  0  0  0  0  0  0999 V2000
    4.4619    5.4072   19.9869 N   0  0  0  0  0  0  0  0  0  0  0  0
    5.4536    4.9789   20.8785 C   0  0  0  0  0  0  0  0  0  0  0  0
    6.8108    5.4024   20.6884 N   0  0  0  0  0  0  0  0  0  0  0  0
    5.1543    4.1615   21.9469 N   0  0  0  0  0  0  0  0  0  0  0  0
    3.8633    3.7306   22.1722 C   0  0  0  0  0  0  0  0  0  0  0  0
    2.8114    4.1317   21.2902 C   0  0  0  0  0  0  0  0  0  0  0  0
    3.6185    3.0082   23.1196 O   0  0  0  0  0  0  0  0  0  0  0  0
    1.4332    3.6922   21.4926 N   0  0  0  0  0  0  0  0  0  0  0  0
    0.3927    4.2648   20.7156 C   0  0  2  0  0  0  0  0  0  0  0  0
    0.8529    4.7313   19.3087 C   0  0  0  0  0  0  0  0  0  0  0  0
    3.1413    4.9832   20.1930 C   0  0  0  0  0  0  0  0  0  0  0  0
    2.0730    5.4125   19.2717 N   0  0  0  0  0  0  0  0  0  0  0  0
   -0.2559    5.3652   21.5355 C   0  0  1  0  0  0  0  0  0  0  0  0
   -1.2863    5.9538   20.8296 O   0  0  0  0  0  0  0  0  0  0  0  0
   -0.7584    4.8176   22.8379 C   0  0  1  0  0  0  0  0  0  0  0  0
    0.2643    4.4574   23.6261 O   0  0  0  0  0  0  0  0  0  0  0  0
   -1.6020    5.8659   23.5940 C   0  0  0  0  0  0  0  0  0  0  0  0
  1  2  2  0  0  0  0
  1 11  1  0  0  0  0
  2  3  1  0  0  0  0
  2  4  1  0  0  0  0
  4  5  1  0  0  0  0
  5  6  1  0  0  0  0
  5  7  2  0  0  0  0
  6  8  1  0  0  0  0
  6 11  2  0  0  0  0
  9  8  1  1  0  0  0
  9 10  1  0  0  0  0
  9 13  1  0  0  0  0
 10 12  1  0  0  0  0
 11 12  1  0  0  0  0
 13 14  1  6  0  0  0
 13 15  1  0  0  0  0
 15 16  1  1  0  0  0
 15 17  1  0  0  0  0
M  END
>  <CHROM.1>
-179.56757823,68.18895779,2.06635014,4.73394385,21.42481122,0.14733898,0.14971085
-1.22321834

>  <Name>
ligand

>  <RI>
0

>  <Rbt.Current_Directory>
/home/itssahil/PROJECTS/Mol_Feturizer/New_Systems/rnas/4LVX

>  <Rbt.Executable>
rbdock ($Id: //depot/dev/client3/rdock/2013.1/src/exe/rbdock.cxx#4 $)

>  <Rbt.Library>
libRbt.so (2013.1, Build901 2013/11/27)

>  <Rbt.Parameter_File>
/export/apps/rDock/src/rDock_2013.1_src/data/scripts/dock_solv.prm

>  <Rbt.Receptor>
prm/pocket_docking_5.prm

>  <SCORE>
-18.2178

>  <SCORE.INTER>
-11.6778

>  <SCORE.INTER.CONST>
1

>  <SCORE.INTER.POLAR>
0

>  <SCORE.INTER.ROT>
2

>  <SCORE.INTER.SOLV>
11.0219

>  <SCORE.INTER.VDW>
-16.3925

>  <SCORE.INTER.norm>
-0.68693

>  <SCORE.INTRA>
-6.54003

>  <SCORE.INTRA.DIHEDRAL>
-9.94358

>  <SCORE.INTRA.DIHEDRAL.0>
10.3255

>  <SCORE.INTRA.POLAR>
0

>  <SCORE.INTRA.POLAR.0>
0

>  <SCORE.INTRA.REPUL>
0

>  <SCORE.INTRA.REPUL.0>
0

>  <SCORE.INTRA.SOLV>
0.0292362

>  <SCORE.INTRA.SOLV.lig_0>
-53.4755

>  <SCORE.INTRA.VDW>
-1.58286

>  <SCORE.INTRA.VDW.0>
2.32763

>  <SCORE.INTRA.norm>
-0.384708

>  <SCORE.RESTR>
0

>  <SCORE.RESTR.CAVITY>
0

>  <SCORE.RESTR.norm>
0

>  <SCORE.SYSTEM>
0

>  <SCORE.SYSTEM.CONST>
0

>  <SCORE.SYSTEM.DIHEDRAL>
0

>  <SCORE.SYSTEM.SOLV>
0

>  <SCORE.SYSTEM.norm>
0

>  <SCORE.heavy>
17

>  <SCORE.norm>
-1.07164

>  <RMSD>
5.818

$$$$
ligand
 OpenBabel11021811503D
libRbt.so/2013.1/901 2013/11/27
 17 18  0  0  0  0  0  0  0  0999 V2000
    4.4711    5.3951   19.9920 N   0  0  0  0  0  0  0  0  0  0  0  0
    5.4620    4.9687   20.8855 C   0  0  0  0  0  0  0  0  0  0  0  0
    6.8195    5.3908   20.6950 N   0  0  0  0  0  0  0  0  0  0  0  0
    5.1615    4.1544   21.9560 N   0  0  0  0  0  0  0  0  0  0  0  0
    3.8702    3.7249   22.1817 C   0  0  0  0  0  0  0  0  0  0  0  0
    2.8191    4.1241   21.2979 C   0  0  0  0  0  0  0  0  0  0  0  0
    3.6243    3.0053   23.1310 O   0  0  0  0  0  0  0  0  0  0  0  0
    1.4404    3.6860   21.5007 N   0  0  0  0  0  0  0  0  0  0  0  0
    0.4008    4.2571   20.7215 C   0  0  2  0  0  0  0  0  0  0  0  0
    0.8621    4.7194   19.3136 C   0  0  0  0  0  0  0  0  0  0  0  0
    3.1501    4.9724   20.1986 C   0  0  0  0  0  0  0  0  0  0  0  0
    2.0826    5.3998   19.2754 N   0  0  0  0  0  0  0  0  0  0  0  0
   -0.2477    5.3602   21.5379 C   0  0  1  0  0  0  0  0  0  0  0  0
   -1.2984    5.9252   20.8429 O   0  0  0  0  0  0  0  0  0  0  0  0
   -0.7192    4.8242   22.8566 C   0  0  1  0  0  0  0  0  0  0  0  0
    0.3222    4.5260   23.6461 O   0  0  0  0  0  0  0  0  0  0  0  0
   -1.6012    5.8548   23.5930 C   0  0  0  0  0  0  0  0  0  0  0  0
  1  2  2  0  0  0  0
  1 11  1  0  0  0  0
  2  3  1  0  0  0  0
  2  4  1  0  0  0  0
  4  5  1  0  0  0  0
  5  6  1  0  0  0  0
  5  7  2  0  0  0  0
  6  8  1  0  0  0  0
  6 11  2  0  0  0  0
  9  8  1  1  0  0  0
  9 10  1  0  0  0  0
  9 13  1  0  0  0  0
 10 12  1  0  0  0  0
 11 12  1  0  0  0  0
 13 14  1  6  0  0  0
 13 15  1  0  0  0  0
 15 16  1  1  0  0  0
 15 17  1  0  0  0  0
M  END
>  <CHROM.1>
-178.08851004,70.03785442,2.07770383,4.72999478,21.43307687,0.14752580,0.14979376
-1.23497262

>  <Name>
ligand

>  <RI>
0

>  <Rbt.Current_Directory>
/home/itssahil/PROJECTS/Mol_Feturizer/New_Systems/rnas/4LVX

>  <Rbt.Executable>
rbdock ($Id: //depot/dev/client3/rdock/2013.1/src/exe/rbdock.cxx#4 $)

>  <Rbt.Library>
libRbt.so (2013.1, Build901 2013/11/27)

>  <Rbt.Parameter_File>
/export/apps/rDock/src/rDock_2013.1_src/data/scripts/dock_solv.prm

>  <Rbt.Receptor>
prm/pocket_docking_7.prm

>  <SCORE>
-18.2095

>  <SCORE.INTER>
-11.7825

>  <SCORE.INTER.CONST>
1

>  <SCORE.INTER.POLAR>
0

>  <SCORE.INTER.ROT>
2

>  <SCORE.INTER.SOLV>
11.0057

>  <SCORE.INTER.VDW>
-16.4569

>  <SCORE.INTER.norm>
-0.69309

>  <SCORE.INTRA>
-6.42698

>  <SCORE.INTRA.DIHEDRAL>
-9.81596

>  <SCORE.INTRA.DIHEDRAL.0>
10.3255

>  <SCORE.INTRA.POLAR>
0

>  <SCORE.INTRA.POLAR.0>
0

>  <SCORE.INTRA.REPUL>
0

>  <SCORE.INTRA.REPUL.0>
0

>  <SCORE.INTRA.SOLV>
0.0285003

>  <SCORE.INTRA.SOLV.lig_0>
-53.4755

>  <SCORE.INTRA.VDW>
-1.53325

>  <SCORE.INTRA.VDW.0>
2.32763

>  <SCORE.INTRA.norm>
-0.378058

>  <SCORE.RESTR>
0

>  <SCORE.RESTR.CAVITY>
0

>  <SCORE.RESTR.norm>
0

>  <SCORE.SYSTEM>
0

>  <SCORE.SYSTEM.CONST>
0

>  <SCORE.SYSTEM.DIHEDRAL>
0

>  <SCORE.SYSTEM.SOLV>
0

>  <SCORE.SYSTEM.norm>
0

>  <SCORE.heavy>
17

>  <SCORE.norm>
-1.07115

>  <RMSD>
5.818

$$$$
ligand
 OpenBabel11021811503D
libRbt.so/2013.1/901 2013/11/27
 17 18  0  0  0  0  0  0  0  0999 V2000
    4.4433    5.3927   19.9587 N   0  0  0  0  0  0  0  0  0  0  0  0
    5.4437    4.9744   20.8455 C   0  0  0  0  0  0  0  0  0  0  0  0
    6.7981    5.3993   20.6402 N   0  0  0  0  0  0  0  0  0  0  0  0
    5.1554    4.1653   21.9233 N   0  0  0  0  0  0  0  0  0  0  0  0
    3.8674    3.7333   22.1632 C   0  0  0  0  0  0  0  0  0  0  0  0
    2.8071    4.1244   21.2869 C   0  0  0  0  0  0  0  0  0  0  0  0
    3.6324    3.0185   23.1188 O   0  0  0  0  0  0  0  0  0  0  0  0
    1.4317    3.6835   21.5048 N   0  0  0  0  0  0  0  0  0  0  0  0
    0.3832    4.2471   20.7319 C   0  0  2  0  0  0  0  0  0  0  0  0
    0.8303    4.7026   19.3172 C   0  0  0  0  0  0  0  0  0  0  0  0
    3.1255    4.9674   20.1797 C   0  0  0  0  0  0  0  0  0  0  0  0
    2.0484    5.3863   19.2639 N   0  0  0  0  0  0  0  0  0  0  0  0
   -0.2610    5.3528   21.5479 C   0  0  1  0  0  0  0  0  0  0  0  0
   -1.3111    5.9200   20.8537 O   0  0  0  0  0  0  0  0  0  0  0  0
   -0.7322    4.8197   22.8678 C   0  0  1  0  0  0  0  0  0  0  0  0
    0.3097    4.5008   23.6487 O   0  0  0  0  0  0  0  0  0  0  0  0
   -1.5913    5.8622   23.6145 C   0  0  0  0  0  0  0  0  0  0  0  0
  1  2  2  0  0  0  0
  1 11  1  0  0  0  0
  2  3  1  0  0  0  0
  2  4  1  0  0  0  0
  4  5  1  0  0  0  0
  5  6  1  0  0  0  0
  5  7  2  0  0  0  0
  6  8  1  0  0  0  0
  6 11  2  0  0  0  0
  9  8  1  1  0  0  0
  9 10  1  0  0  0  0
  9 13  1  0  0  0  0
 10 12  1  0  0  0  0
 11 12  1  0  0  0  0
 13 14  1  6  0  0  0
 13 15  1  0  0  0  0
 15 16  1  1  0  0  0
 15 17  1  0  0  0  0
M  END
>  <CHROM.1>
-178.69863252,69.11275758,2.06398703,4.72760454,21.42430881,0.15685565,0.15014946
-1.23827932

>  <Name>
ligand

>  <RI>
0

>  <Rbt.Current_Directory>
/home/itssahil/PROJECTS/Mol_Feturizer/New_Systems/rnas/4LVX

>  <Rbt.Executable>
rbdock ($Id: //depot/dev/client3/rdock/2013.1/src/exe/rbdock.cxx#4 $)

>  <Rbt.Library>
libRbt.so (2013.1, Build901 2013/11/27)

>  <Rbt.Parameter_File>
/export/apps/rDock/src/rDock_2013.1_src/data/scripts/dock_solv.prm

>  <Rbt.Receptor>
prm/pocket_docking_4.prm

>  <SCORE>
-18.2263

>  <SCORE.INTER>
-11.744

>  <SCORE.INTER.CONST>
1

>  <SCORE.INTER.POLAR>
0

>  <SCORE.INTER.ROT>
2

>  <SCORE.INTER.SOLV>
11.1058

>  <SCORE.INTER.VDW>
-16.4646

>  <SCORE.INTER.norm>
-0.690821

>  <SCORE.INTRA>
-6.48234

>  <SCORE.INTRA.DIHEDRAL>
-9.88351

>  <SCORE.INTRA.DIHEDRAL.0>
10.3255

>  <SCORE.INTRA.POLAR>
0

>  <SCORE.INTRA.POLAR.0>
0

>  <SCORE.INTRA.REPUL>
0

>  <SCORE.INTRA.REPUL.0>
0

>  <SCORE.INTRA.SOLV>
0.0308867

>  <SCORE.INTRA.SOLV.lig_0>
-53.4755

>  <SCORE.INTRA.VDW>
-1.55603

>  <SCORE.INTRA.VDW.0>
2.32763

>  <SCORE.INTRA.norm>
-0.381314

>  <SCORE.RESTR>
0

>  <SCORE.RESTR.CAVITY>
0

>  <SCORE.RESTR.norm>
0

>  <SCORE.SYSTEM>
0

>  <SCORE.SYSTEM.CONST>
0

>  <SCORE.SYSTEM.DIHEDRAL>
0

>  <SCORE.SYSTEM.SOLV>
0

>  <SCORE.SYSTEM.norm>
0

>  <SCORE.heavy>
17

>  <SCORE.norm>
-1.07214

>  <RMSD>
5.819

$$$$
ligand
 OpenBabel11021811503D
libRbt.so/2013.1/901 2013/11/27
 17 18  0  0  0  0  0  0  0  0999 V2000
    1.8601    5.5013   18.6314 N   0  0  0  0  0  0  0  0  0  0  0  0
    3.2490    5.4334   18.4632 C   0  0  0  0  0  0  0  0  0  0  0  0
    3.8372    5.8671   17.2290 N   0  0  0  0  0  0  0  0  0  0  0  0
    4.0715    4.9644   19.4646 N   0  0  0  0  0  0  0  0  0  0  0  0
    3.5524    4.5387   20.6697 C   0  0  0  0  0  0  0  0  0  0  0  0
    2.1406    4.5798   20.8946 C   0  0  0  0  0  0  0  0  0  0  0  0
    4.2939    4.1267   21.5414 O   0  0  0  0  0  0  0  0  0  0  0  0
    1.5528    4.1332   22.1550 N   0  0  0  0  0  0  0  0  0  0  0  0
    0.1770    4.3702   22.4106 C   0  0  2  0  0  0  0  0  0  0  0  0
   -0.6947    4.4127   21.1273 C   0  0  0  0  0  0  0  0  0  0  0  0
    1.3066    5.0743   19.8470 C   0  0  0  0  0  0  0  0  0  0  0  0
   -0.1520    5.1291   20.0566 N   0  0  0  0  0  0  0  0  0  0  0  0
    0.0651    5.6232   23.2597 C   0  0  1  0  0  0  0  0  0  0  0  0
    0.6282    6.7029   22.6087 O   0  0  0  0  0  0  0  0  0  0  0  0
   -1.3705    5.9015   23.5915 C   0  0  1  0  0  0  0  0  0  0  0  0
   -1.9825    4.7875   24.0174 O   0  0  0  0  0  0  0  0  0  0  0  0
   -1.4887    6.9688   24.7003 C   0  0  0  0  0  0  0  0  0  0  0  0
  1  2  2  0  0  0  0
  1 11  1  0  0  0  0
  2  3  1  0  0  0  0
  2  4  1  0  0  0  0
  4  5  1  0  0  0  0
  5  6  1  0  0  0  0
  5  7  2  0  0  0  0
  6  8  1  0  0  0  0
  6 11  2  0  0  0  0
  9  8  1  6  0  0  0
  9 10  1  0  0  0  0
  9 13  1  0  0  0  0
 10 12  1  0  0  0  0
 11 12  1  0  0  0  0
 13 14  1  6  0  0  0
 13 15  1  0  0  0  0
 15 16  1  1  0  0  0
 15 17  1  0  0  0  0
M  END
>  <CHROM.1>
58.97213771,47.07034665,1.19455279,5.19955041,21.28835253,0.76148477,0.25805060
-1.43144736

>  <Name>
ligand

>  <RI>
0

>  <Rbt.Current_Directory>
/home/itssahil/PROJECTS/Mol_Feturizer/New_Systems/rnas/4LVX

>  <Rbt.Executable>
rbdock ($Id: //depot/dev/client3/rdock/2013.1/src/exe/rbdock.cxx#4 $)

>  <Rbt.Library>
libRbt.so (2013.1, Build901 2013/11/27)

>  <Rbt.Parameter_File>
/export/apps/rDock/src/rDock_2013.1_src/data/scripts/dock_solv.prm

>  <Rbt.Receptor>
prm/pocket_docking_6.prm

>  <SCORE>
-17.159

>  <SCORE.INTER>
-10.3776

>  <SCORE.INTER.CONST>
1

>  <SCORE.INTER.POLAR>
0

>  <SCORE.INTER.ROT>
2

>  <SCORE.INTER.SOLV>
14.4504

>  <SCORE.INTER.VDW>
-16.6685

>  <SCORE.INTER.norm>
-0.610446

>  <SCORE.INTRA>
-6.78141

>  <SCORE.INTRA.DIHEDRAL>
-9.55707

>  <SCORE.INTRA.DIHEDRAL.0>
10.3255

>  <SCORE.INTRA.POLAR>
0

>  <SCORE.INTRA.POLAR.0>
0

>  <SCORE.INTRA.REPUL>
0

>  <SCORE.INTRA.REPUL.0>
0

>  <SCORE.INTRA.SOLV>
-0.0538299

>  <SCORE.INTRA.SOLV.lig_0>
-53.4755

>  <SCORE.INTRA.VDW>
-1.97595

>  <SCORE.INTRA.VDW.0>
2.32763

>  <SCORE.INTRA.norm>
-0.398906

>  <SCORE.RESTR>
0

>  <SCORE.RESTR.CAVITY>
0

>  <SCORE.RESTR.norm>
0

>  <SCORE.SYSTEM>
0

>  <SCORE.SYSTEM.CONST>
0

>  <SCORE.SYSTEM.DIHEDRAL>
0

>  <SCORE.SYSTEM.SOLV>
0

>  <SCORE.SYSTEM.norm>
0

>  <SCORE.heavy>
17

>  <SCORE.norm>
-1.00935

>  <RMSD>
5.819

$$$$
ligand
 OpenBabel11021811503D
libRbt.so/2013.1/901 2013/11/27
 17 18  0  0  0  0  0  0  0  0999 V2000
    4.4420    5.3975   19.9510 N   0  0  0  0  0  0  0  0  0  0  0  0
    5.4422    4.9763   20.8366 C   0  0  0  0  0  0  0  0  0  0  0  0
    6.7968    5.4010   20.6322 N   0  0  0  0  0  0  0  0  0  0  0  0
    5.1535    4.1648   21.9124 N   0  0  0  0  0  0  0  0  0  0  0  0
    3.8653    3.7330   22.1515 C   0  0  0  0  0  0  0  0  0  0  0  0
    2.8051    4.1270   21.2762 C   0  0  0  0  0  0  0  0  0  0  0  0
    3.6299    3.0159   23.1053 O   0  0  0  0  0  0  0  0  0  0  0  0
    1.4294    3.6863   21.4932 N   0  0  0  0  0  0  0  0  0  0  0  0
    0.3813    4.2525   20.7218 C   0  0  2  0  0  0  0  0  0  0  0  0
    0.8285    4.7113   19.3082 C   0  0  0  0  0  0  0  0  0  0  0  0
    3.1239    4.9725   20.1712 C   0  0  0  0  0  0  0  0  0  0  0  0
    2.0469    5.3944   19.2566 N   0  0  0  0  0  0  0  0  0  0  0  0
   -0.2621    5.3566   21.5407 C   0  0  1  0  0  0  0  0  0  0  0  0
   -1.3178    5.9201   20.8518 O   0  0  0  0  0  0  0  0  0  0  0  0
   -0.7246    4.8226   22.8634 C   0  0  1  0  0  0  0  0  0  0  0  0
    0.3223    4.5100   23.6400 O   0  0  0  0  0  0  0  0  0  0  0  0
   -1.5857    5.8617   23.6127 C   0  0  0  0  0  0  0  0  0  0  0  0
  1  2  2  0  0  0  0
  1 11  1  0  0  0  0
  2  3  1  0  0  0  0
  2  4  1  0  0  0  0
  4  5  1  0  0  0  0
  5  6  1  0  0  0  0
  5  7  2  0  0  0  0
  6  8  1  0  0  0  0
  6 11  2  0  0  0  0
  9  8  1  1  0  0  0
  9 10  1  0  0  0  0
  9 13  1  0  0  0  0
 10 12  1  0  0  0  0
 11 12  1  0  0  0  0
 13 14  1  6  0  0  0
 13 15  1  0  0  0  0
 15 16  1  1  0  0  0
 15 17  1  0  0  0  0
M  END
>  <CHROM.1>
-178.29244515,69.23826166,2.06387489,4.73071641,21.41604210,0.15708391,0.15069435
-1.23798105

>  <Name>
ligand

>  <RI>
0

>  <Rbt.Current_Directory>
/home/itssahil/PROJECTS/Mol_Feturizer/New_Systems/rnas/4LVX

>  <Rbt.Executable>
rbdock ($Id: //depot/dev/client3/rdock/2013.1/src/exe/rbdock.cxx#4 $)

>  <Rbt.Library>
libRbt.so (2013.1, Build901 2013/11/27)

>  <Rbt.Parameter_File>
/export/apps/rDock/src/rDock_2013.1_src/data/scripts/dock_solv.prm

>  <Rbt.Receptor>
prm/pocket_docking_7.prm

>  <SCORE>
-18.2365

>  <SCORE.INTER>
-11.7732

>  <SCORE.INTER.CONST>
1

>  <SCORE.INTER.POLAR>
0

>  <SCORE.INTER.ROT>
2

>  <SCORE.INTER.SOLV>
11.1049

>  <SCORE.INTER.VDW>
-16.4838

>  <SCORE.INTER.norm>
-0.692542

>  <SCORE.INTRA>
-6.46325

>  <SCORE.INTRA.DIHEDRAL>
-9.87156

>  <SCORE.INTRA.DIHEDRAL.0>
10.3255

>  <SCORE.INTRA.POLAR>
0

>  <SCORE.INTRA.POLAR.0>
0

>  <SCORE.INTRA.REPUL>
0

>  <SCORE.INTRA.REPUL.0>
0

>  <SCORE.INTRA.SOLV>
0.0351638

>  <SCORE.INTRA.SOLV.lig_0>
-53.4755

>  <SCORE.INTRA.VDW>
-1.54506

>  <SCORE.INTRA.VDW.0>
2.32763

>  <SCORE.INTRA.norm>
-0.380191

>  <SCORE.RESTR>
0

>  <SCORE.RESTR.CAVITY>
0

>  <SCORE.RESTR.norm>
0

>  <SCORE.SYSTEM>
0

>  <SCORE.SYSTEM.CONST>
0

>  <SCORE.SYSTEM.DIHEDRAL>
0

>  <SCORE.SYSTEM.SOLV>
0

>  <SCORE.SYSTEM.norm>
0

>  <SCORE.heavy>
17

>  <SCORE.norm>
-1.07273

>  <RMSD>
5.819

$$$$
ligand
 OpenBabel11021811503D
libRbt.so/2013.1/901 2013/11/27
 17 18  0  0  0  0  0  0  0  0999 V2000
    4.4381    5.4005   19.9518 N   0  0  0  0  0  0  0  0  0  0  0  0
    5.4377    4.9757   20.8363 C   0  0  0  0  0  0  0  0  0  0  0  0
    6.7929    5.3991   20.6332 N   0  0  0  0  0  0  0  0  0  0  0  0
    5.1479    4.1616   21.9100 N   0  0  0  0  0  0  0  0  0  0  0  0
    3.8591    3.7309   22.1477 C   0  0  0  0  0  0  0  0  0  0  0  0
    2.7995    4.1285   21.2734 C   0  0  0  0  0  0  0  0  0  0  0  0
    3.6227    3.0116   23.0996 O   0  0  0  0  0  0  0  0  0  0  0  0
    1.4232    3.6891   21.4891 N   0  0  0  0  0  0  0  0  0  0  0  0
    0.3759    4.2587   20.7191 C   0  0  2  0  0  0  0  0  0  0  0  0
    0.8239    4.7206   19.3067 C   0  0  0  0  0  0  0  0  0  0  0  0
    3.1196    4.9765   20.1706 C   0  0  0  0  0  0  0  0  0  0  0  0
    2.0432    5.4023   19.2570 N   0  0  0  0  0  0  0  0  0  0  0  0
   -0.2662    5.3614   21.5408 C   0  0  1  0  0  0  0  0  0  0  0  0
   -1.3077    5.9421   20.8447 O   0  0  0  0  0  0  0  0  0  0  0  0
   -0.7499    4.8196   22.8527 C   0  0  1  0  0  0  0  0  0  0  0  0
    0.2843    4.4823   23.6359 O   0  0  0  0  0  0  0  0  0  0  0  0
   -1.6026    5.8631   23.6053 C   0  0  0  0  0  0  0  0  0  0  0  0
  1  2  2  0  0  0  0
  1 11  1  0  0  0  0
  2  3  1  0  0  0  0
  2  4  1  0  0  0  0
  4  5  1  0  0  0  0
  5  6  1  0  0  0  0
  5  7  2  0  0  0  0
  6  8  1  0  0  0  0
  6 11  2  0  0  0  0
  9  8  1  1  0  0  0
  9 10  1  0  0  0  0
  9 13  1  0  0  0  0
 10 12  1  0  0  0  0
 11 12  1  0  0  0  0
 13 14  1  6  0  0  0
 13 15  1  0  0  0  0
 15 16  1  1  0  0  0
 15 17  1  0  0  0  0
M  END
>  <CHROM.1>
-179.22812952,68.90778783,2.05572268,4.73178218,21.41294231,0.15581333,0.15207819
-1.23008537

>  <Name>
ligand

>  <RI>
0

>  <Rbt.Current_Directory>
/home/itssahil/PROJECTS/Mol_Feturizer/New_Systems/rnas/4LVX

>  <Rbt.Executable>
rbdock ($Id: //depot/dev/client3/rdock/2013.1/src/exe/rbdock.cxx#4 $)

>  <Rbt.Library>
libRbt.so (2013.1, Build901 2013/11/27)

>  <Rbt.Parameter_File>
/export/apps/rDock/src/rDock_2013.1_src/data/scripts/dock_solv.prm

>  <Rbt.Receptor>
prm/pocket_docking_4.prm

>  <SCORE>
-18.2219

>  <SCORE.INTER>
-11.7146

>  <SCORE.INTER.CONST>
1

>  <SCORE.INTER.POLAR>
0

>  <SCORE.INTER.ROT>
2

>  <SCORE.INTER.SOLV>
11.1341

>  <SCORE.INTER.VDW>
-16.4544

>  <SCORE.INTER.norm>
-0.689094

>  <SCORE.INTRA>
-6.50731

>  <SCORE.INTRA.DIHEDRAL>
-9.89976

>  <SCORE.INTRA.DIHEDRAL.0>
10.3255

>  <SCORE.INTRA.POLAR>
0

>  <SCORE.INTRA.POLAR.0>
0

>  <SCORE.INTRA.REPUL>
0

>  <SCORE.INTRA.REPUL.0>
0

>  <SCORE.INTRA.SOLV>
0.0257405

>  <SCORE.INTRA.SOLV.lig_0>
-53.4755

>  <SCORE.INTRA.VDW>
-1.5703

>  <SCORE.INTRA.VDW.0>
2.32763

>  <SCORE.INTRA.norm>
-0.382783

>  <SCORE.RESTR>
0

>  <SCORE.RESTR.CAVITY>
0

>  <SCORE.RESTR.norm>
0

>  <SCORE.SYSTEM>
0

>  <SCORE.SYSTEM.CONST>
0

>  <SCORE.SYSTEM.DIHEDRAL>
0

>  <SCORE.SYSTEM.SOLV>
0

>  <SCORE.SYSTEM.norm>
0

>  <SCORE.heavy>
17

>  <SCORE.norm>
-1.07188

>  <RMSD>
5.820

$$$$
ligand
 OpenBabel11021811503D
libRbt.so/2013.1/901 2013/11/27
 17 18  0  0  0  0  0  0  0  0999 V2000
    4.4455    5.3886   19.9589 N   0  0  0  0  0  0  0  0  0  0  0  0
    5.4446    4.9672   20.8456 C   0  0  0  0  0  0  0  0  0  0  0  0
    6.7999    5.3899   20.6416 N   0  0  0  0  0  0  0  0  0  0  0  0
    5.1542    4.1572   21.9222 N   0  0  0  0  0  0  0  0  0  0  0  0
    3.8654    3.7273   22.1609 C   0  0  0  0  0  0  0  0  0  0  0  0
    2.8062    4.1216   21.2845 C   0  0  0  0  0  0  0  0  0  0  0  0
    3.6285    3.0116   23.1155 O   0  0  0  0  0  0  0  0  0  0  0  0
    1.4299    3.6829   21.5012 N   0  0  0  0  0  0  0  0  0  0  0  0
    0.3829    4.2495   20.7285 C   0  0  2  0  0  0  0  0  0  0  0  0
    0.8315    4.7060   19.3147 C   0  0  0  0  0  0  0  0  0  0  0  0
    3.1268    4.9654   20.1787 C   0  0  0  0  0  0  0  0  0  0  0  0
    2.0509    5.3876   19.2629 N   0  0  0  0  0  0  0  0  0  0  0  0
   -0.2597    5.3553   21.5457 C   0  0  1  0  0  0  0  0  0  0  0  0
   -1.3071    5.9268   20.8508 O   0  0  0  0  0  0  0  0  0  0  0  0
   -0.7346    4.8208   22.8637 C   0  0  1  0  0  0  0  0  0  0  0  0
    0.3050    4.5035   23.6483 O   0  0  0  0  0  0  0  0  0  0  0  0
   -1.5983    5.8614   23.6077 C   0  0  0  0  0  0  0  0  0  0  0  0
  1  2  2  0  0  0  0
  1 11  1  0  0  0  0
  2  3  1  0  0  0  0
  2  4  1  0  0  0  0
  4  5  1  0  0  0  0
  5  6  1  0  0  0  0
  5  7  2  0  0  0  0
  6  8  1  0  0  0  0
  6 11  2  0  0  0  0
  9  8  1  1  0  0  0
  9 10  1  0  0  0  0
  9 13  1  0  0  0  0
 10 12  1  0  0  0  0
 11 12  1  0  0  0  0
 13 14  1  6  0  0  0
 13 15  1  0  0  0  0
 15 16  1  1  0  0  0
 15 17  1  0  0  0  0
M  END
>  <CHROM.1>
-178.79334658,69.41511305,2.06340604,4.72609548,21.42220248,0.15564609,0.15176069
-1.23647425

>  <Name>
ligand

>  <RI>
0

>  <Rbt.Current_Directory>
/home/itssahil/PROJECTS/Mol_Feturizer/New_Systems/rnas/4LVX

>  <Rbt.Executable>
rbdock ($Id: //depot/dev/client3/rdock/2013.1/src/exe/rbdock.cxx#4 $)

>  <Rbt.Library>
libRbt.so (2013.1, Build901 2013/11/27)

>  <Rbt.Parameter_File>
/export/apps/rDock/src/rDock_2013.1_src/data/scripts/dock_solv.prm

>  <Rbt.Receptor>
prm/pocket_docking_4.prm

>  <SCORE>
-18.2258

>  <SCORE.INTER>
-11.7504

>  <SCORE.INTER.CONST>
1

>  <SCORE.INTER.POLAR>
0

>  <SCORE.INTER.ROT>
2

>  <SCORE.INTER.SOLV>
11.1316

>  <SCORE.INTER.VDW>
-16.4775

>  <SCORE.INTER.norm>
-0.6912

>  <SCORE.INTRA>
-6.47536

>  <SCORE.INTRA.DIHEDRAL>
-9.86491

>  <SCORE.INTRA.DIHEDRAL.0>
10.3255

>  <SCORE.INTRA.POLAR>
0

>  <SCORE.INTRA.POLAR.0>
0

>  <SCORE.INTRA.REPUL>
0

>  <SCORE.INTRA.REPUL.0>
0

>  <SCORE.INTRA.SOLV>
0.0259656

>  <SCORE.INTRA.SOLV.lig_0>
-53.4755

>  <SCORE.INTRA.VDW>
-1.55588

>  <SCORE.INTRA.VDW.0>
2.32763

>  <SCORE.INTRA.norm>
-0.380903

>  <SCORE.RESTR>
0

>  <SCORE.RESTR.CAVITY>
0

>  <SCORE.RESTR.norm>
0

>  <SCORE.SYSTEM>
0

>  <SCORE.SYSTEM.CONST>
0

>  <SCORE.SYSTEM.DIHEDRAL>
0

>  <SCORE.SYSTEM.SOLV>
0

>  <SCORE.SYSTEM.norm>
0

>  <SCORE.heavy>
17

>  <SCORE.norm>
-1.0721

>  <RMSD>
5.820

$$$$
ligand
 OpenBabel11021811503D
libRbt.so/2013.1/901 2013/11/27
 17 18  0  0  0  0  0  0  0  0999 V2000
    4.4782    5.4042   19.9857 N   0  0  0  0  0  0  0  0  0  0  0  0
    5.4697    4.9763   20.8779 C   0  0  0  0  0  0  0  0  0  0  0  0
    6.8280    5.3947   20.6843 N   0  0  0  0  0  0  0  0  0  0  0  0
    5.1691    4.1641   21.9499 N   0  0  0  0  0  0  0  0  0  0  0  0
    3.8771    3.7383   22.1786 C   0  0  0  0  0  0  0  0  0  0  0  0
    2.8253    4.1392   21.2963 C   0  0  0  0  0  0  0  0  0  0  0  0
    3.6311    3.0205   23.1292 O   0  0  0  0  0  0  0  0  0  0  0  0
    1.4459    3.7050   21.5022 N   0  0  0  0  0  0  0  0  0  0  0  0
    0.4063    4.2778   20.7242 C   0  0  2  0  0  0  0  0  0  0  0  0
    0.8663    4.7371   19.3148 C   0  0  0  0  0  0  0  0  0  0  0  0
    3.1565    4.9852   20.1953 C   0  0  0  0  0  0  0  0  0  0  0  0
    2.0884    5.4143   19.2735 N   0  0  0  0  0  0  0  0  0  0  0  0
   -0.2377    5.3835   21.5404 C   0  0  1  0  0  0  0  0  0  0  0  0
   -1.2803    5.9589   20.8416 O   0  0  0  0  0  0  0  0  0  0  0  0
   -0.7204    4.8474   22.8550 C   0  0  1  0  0  0  0  0  0  0  0  0
    0.3146    4.5304   23.6457 O   0  0  0  0  0  0  0  0  0  0  0  0
   -1.5896    5.8867   23.5945 C   0  0  0  0  0  0  0  0  0  0  0  0
  1  2  2  0  0  0  0
  1 11  1  0  0  0  0
  2  3  1  0  0  0  0
  2  4  1  0  0  0  0
  4  5  1  0  0  0  0
  5  6  1  0  0  0  0
  5  7  2  0  0  0  0
  6  8  1  0  0  0  0
  6 11  2  0  0  0  0
  9  8  1  1  0  0  0
  9 10  1  0  0  0  0
  9 13  1  0  0  0  0
 10 12  1  0  0  0  0
 11 12  1  0  0  0  0
 13 14  1  6  0  0  0
 13 15  1  0  0  0  0
 15 16  1  1  0  0  0
 15 17  1  0  0  0  0
M  END
>  <CHROM.1>
-178.64848465,69.62105819,2.08413530,4.74634897,21.43100654,0.14801474,0.15299261
-1.23310116

>  <Name>
ligand

>  <RI>
0

>  <Rbt.Current_Directory>
/home/itssahil/PROJECTS/Mol_Feturizer/New_Systems/rnas/4LVX

>  <Rbt.Executable>
rbdock ($Id: //depot/dev/client3/rdock/2013.1/src/exe/rbdock.cxx#4 $)

>  <Rbt.Library>
libRbt.so (2013.1, Build901 2013/11/27)

>  <Rbt.Parameter_File>
/export/apps/rDock/src/rDock_2013.1_src/data/scripts/dock_solv.prm

>  <Rbt.Receptor>
prm/pocket_docking_5.prm

>  <SCORE>
-18.2101

>  <SCORE.INTER>
-11.7472

>  <SCORE.INTER.CONST>
1

>  <SCORE.INTER.POLAR>
0

>  <SCORE.INTER.ROT>
2

>  <SCORE.INTER.SOLV>
10.8678

>  <SCORE.INTER.VDW>
-16.3874

>  <SCORE.INTER.norm>
-0.691012

>  <SCORE.INTRA>
-6.46288

>  <SCORE.INTRA.DIHEDRAL>
-9.85018

>  <SCORE.INTRA.DIHEDRAL.0>
10.3255

>  <SCORE.INTRA.POLAR>
0

>  <SCORE.INTRA.POLAR.0>
0

>  <SCORE.INTRA.REPUL>
0

>  <SCORE.INTRA.REPUL.0>
0

>  <SCORE.INTRA.SOLV>
0.0255781

>  <SCORE.INTRA.SOLV.lig_0>
-53.4755

>  <SCORE.INTRA.VDW>
-1.55058

>  <SCORE.INTRA.VDW.0>
2.32763

>  <SCORE.INTRA.norm>
-0.380169

>  <SCORE.RESTR>
0

>  <SCORE.RESTR.CAVITY>
0

>  <SCORE.RESTR.norm>
0

>  <SCORE.SYSTEM>
0

>  <SCORE.SYSTEM.CONST>
0

>  <SCORE.SYSTEM.DIHEDRAL>
0

>  <SCORE.SYSTEM.SOLV>
0

>  <SCORE.SYSTEM.norm>
0

>  <SCORE.heavy>
17

>  <SCORE.norm>
-1.07118

>  <RMSD>
5.820

$$$$
ligand
 OpenBabel11021811503D
libRbt.so/2013.1/901 2013/11/27
 17 18  0  0  0  0  0  0  0  0999 V2000
    4.4448    5.3923   19.9472 N   0  0  0  0  0  0  0  0  0  0  0  0
    5.4448    4.9709   20.8330 C   0  0  0  0  0  0  0  0  0  0  0  0
    6.8005    5.3908   20.6256 N   0  0  0  0  0  0  0  0  0  0  0  0
    5.1549    4.1638   21.9118 N   0  0  0  0  0  0  0  0  0  0  0  0
    3.8657    3.7367   22.1537 C   0  0  0  0  0  0  0  0  0  0  0  0
    2.8057    4.1311   21.2784 C   0  0  0  0  0  0  0  0  0  0  0  0
    3.6292    3.0234   23.1101 O   0  0  0  0  0  0  0  0  0  0  0  0
    1.4289    3.6954   21.4984 N   0  0  0  0  0  0  0  0  0  0  0  0
    0.3816    4.2623   20.7264 C   0  0  2  0  0  0  0  0  0  0  0  0
    0.8285    4.7151   19.3109 C   0  0  0  0  0  0  0  0  0  0  0  0
    3.1258    4.9720   20.1702 C   0  0  0  0  0  0  0  0  0  0  0  0
    2.0490    5.3943   19.2555 N   0  0  0  0  0  0  0  0  0  0  0  0
   -0.2575    5.3710   21.5425 C   0  0  1  0  0  0  0  0  0  0  0  0
   -1.3051    5.9430   20.8483 O   0  0  0  0  0  0  0  0  0  0  0  0
   -0.7310    4.8401   22.8625 C   0  0  1  0  0  0  0  0  0  0  0  0
    0.3094    4.5211   23.6452 O   0  0  0  0  0  0  0  0  0  0  0  0
   -1.5900    5.8845   23.6067 C   0  0  0  0  0  0  0  0  0  0  0  0
  1  2  2  0  0  0  0
  1 11  1  0  0  0  0
  2  3  1  0  0  0  0
  2  4  1  0  0  0  0
  4  5  1  0  0  0  0
  5  6  1  0  0  0  0
  5  7  2  0  0  0  0
  6  8  1  0  0  0  0
  6 11  2  0  0  0  0
  9  8  1  1  0  0  0
  9 10  1  0  0  0  0
  9 13  1  0  0  0  0
 10 12  1  0  0  0  0
 11 12  1  0  0  0  0
 13 14  1  6  0  0  0
 13 15  1  0  0  0  0
 15 16  1  1  0  0  0
 15 17  1  0  0  0  0
M  END
>  <CHROM.1>
-178.79393010,69.34210737,2.06429984,4.73723060,21.41615210,0.15676037,0.15409035
-1.23866805

>  <Name>
ligand

>  <RI>
0

>  <Rbt.Current_Directory>
/home/itssahil/PROJECTS/Mol_Feturizer/New_Systems/rnas/4LVX

>  <Rbt.Executable>
rbdock ($Id: //depot/dev/client3/rdock/2013.1/src/exe/rbdock.cxx#4 $)

>  <Rbt.Library>
libRbt.so (2013.1, Build901 2013/11/27)

>  <Rbt.Parameter_File>
/export/apps/rDock/src/rDock_2013.1_src/data/scripts/dock_solv.prm

>  <Rbt.Receptor>
prm/pocket_docking_4.prm

>  <SCORE>
-18.2188

>  <SCORE.INTER>
-11.7409

>  <SCORE.INTER.CONST>
1

>  <SCORE.INTER.POLAR>
0

>  <SCORE.INTER.ROT>
2

>  <SCORE.INTER.SOLV>
11.0683

>  <SCORE.INTER.VDW>
-16.45

>  <SCORE.INTER.norm>
-0.690638

>  <SCORE.INTRA>
-6.47795

>  <SCORE.INTRA.DIHEDRAL>
-9.86964

>  <SCORE.INTRA.DIHEDRAL.0>
10.3255

>  <SCORE.INTRA.POLAR>
0

>  <SCORE.INTRA.POLAR.0>
0

>  <SCORE.INTRA.REPUL>
0

>  <SCORE.INTRA.REPUL.0>
0

>  <SCORE.INTRA.SOLV>
0.0268213

>  <SCORE.INTRA.SOLV.lig_0>
-53.4755

>  <SCORE.INTRA.VDW>
-1.55653

>  <SCORE.INTRA.VDW.0>
2.32763

>  <SCORE.INTRA.norm>
-0.381056

>  <SCORE.RESTR>
0

>  <SCORE.RESTR.CAVITY>
0

>  <SCORE.RESTR.norm>
0

>  <SCORE.SYSTEM>
0

>  <SCORE.SYSTEM.CONST>
0

>  <SCORE.SYSTEM.DIHEDRAL>
0

>  <SCORE.SYSTEM.SOLV>
0

>  <SCORE.SYSTEM.norm>
0

>  <SCORE.heavy>
17

>  <SCORE.norm>
-1.07169

>  <RMSD>
5.821

$$$$
ligand
 OpenBabel11021811503D
libRbt.so/2013.1/901 2013/11/27
 17 18  0  0  0  0  0  0  0  0999 V2000
    4.4430    5.3906   19.9585 N   0  0  0  0  0  0  0  0  0  0  0  0
    5.4394    4.9669   20.8470 C   0  0  0  0  0  0  0  0  0  0  0  0
    6.7955    5.3892   20.6474 N   0  0  0  0  0  0  0  0  0  0  0  0
    5.1457    4.1551   21.9213 N   0  0  0  0  0  0  0  0  0  0  0  0
    3.8560    3.7255   22.1558 C   0  0  0  0  0  0  0  0  0  0  0  0
    2.7994    4.1220   21.2773 C   0  0  0  0  0  0  0  0  0  0  0  0
    3.6161    3.0081   23.1083 O   0  0  0  0  0  0  0  0  0  0  0  0
    1.4222    3.6837   21.4894 N   0  0  0  0  0  0  0  0  0  0  0  0
    0.3776    4.2524   20.7150 C   0  0  2  0  0  0  0  0  0  0  0  0
    0.8304    4.7114   19.3032 C   0  0  0  0  0  0  0  0  0  0  0  0
    3.1234    4.9677   20.1739 C   0  0  0  0  0  0  0  0  0  0  0  0
    2.0503    5.3923   19.2561 N   0  0  0  0  0  0  0  0  0  0  0  0
   -0.2665    5.3571   21.5325 C   0  0  1  0  0  0  0  0  0  0  0  0
   -1.2991    5.9435   20.8281 O   0  0  0  0  0  0  0  0  0  0  0  0
   -0.7642    4.8159   22.8394 C   0  0  1  0  0  0  0  0  0  0  0  0
    0.2616    4.4758   23.6324 O   0  0  0  0  0  0  0  0  0  0  0  0
   -1.6217    5.8610   23.5842 C   0  0  0  0  0  0  0  0  0  0  0  0
  1  2  2  0  0  0  0
  1 11  1  0  0  0  0
  2  3  1  0  0  0  0
  2  4  1  0  0  0  0
  4  5  1  0  0  0  0
  5  6  1  0  0  0  0
  5  7  2  0  0  0  0
  6  8  1  0  0  0  0
  6 11  2  0  0  0  0
  9  8  1  1  0  0  0
  9 10  1  0  0  0  0
  9 13  1  0  0  0  0
 10 12  1  0  0  0  0
 11 12  1  0  0  0  0
 13 14  1  6  0  0  0
 13 15  1  0  0  0  0
 15 16  1  1  0  0  0
 15 17  1  0  0  0  0
M  END
>  <CHROM.1>
-179.66614951,69.05811258,2.05357199,4.72571633,21.41239423,0.15219143,0.15160713
-1.22931267

>  <Name>
ligand

>  <RI>
0

>  <Rbt.Current_Directory>
/home/itssahil/PROJECTS/Mol_Feturizer/New_Systems/rnas/4LVX

>  <Rbt.Executable>
rbdock ($Id: //depot/dev/client3/rdock/2013.1/src/exe/rbdock.cxx#4 $)

>  <Rbt.Library>
libRbt.so (2013.1, Build901 2013/11/27)

>  <Rbt.Parameter_File>
/export/apps/rDock/src/rDock_2013.1_src/data/scripts/dock_solv.prm

>  <Rbt.Receptor>
prm/pocket_docking_5.prm

>  <SCORE>
-18.2254

>  <SCORE.INTER>
-11.7092

>  <SCORE.INTER.CONST>
1

>  <SCORE.INTER.POLAR>
0

>  <SCORE.INTER.ROT>
2

>  <SCORE.INTER.SOLV>
11.1958

>  <SCORE.INTER.VDW>
-16.4714

>  <SCORE.INTER.norm>
-0.688778

>  <SCORE.INTRA>
-6.51615

>  <SCORE.INTRA.DIHEDRAL>
-9.89178

>  <SCORE.INTRA.DIHEDRAL.0>
10.3255

>  <SCORE.INTRA.POLAR>
0

>  <SCORE.INTRA.POLAR.0>
0

>  <SCORE.INTRA.REPUL>
0

>  <SCORE.INTRA.REPUL.0>
0

>  <SCORE.INTRA.SOLV>
0.0176943

>  <SCORE.INTRA.SOLV.lig_0>
-53.4755

>  <SCORE.INTRA.VDW>
-1.57911

>  <SCORE.INTRA.VDW.0>
2.32763

>  <SCORE.INTRA.norm>
-0.383303

>  <SCORE.RESTR>
0

>  <SCORE.RESTR.CAVITY>
0

>  <SCORE.RESTR.norm>
0

>  <SCORE.SYSTEM>
0

>  <SCORE.SYSTEM.CONST>
0

>  <SCORE.SYSTEM.DIHEDRAL>
0

>  <SCORE.SYSTEM.SOLV>
0

>  <SCORE.SYSTEM.norm>
0

>  <SCORE.heavy>
17

>  <SCORE.norm>
-1.07208

>  <RMSD>
5.821

$$$$
ligand
 OpenBabel11021811503D
libRbt.so/2013.1/901 2013/11/27
 17 18  0  0  0  0  0  0  0  0999 V2000
    4.4337    5.3958   19.9490 N   0  0  0  0  0  0  0  0  0  0  0  0
    5.4249    4.9577   20.8365 C   0  0  0  0  0  0  0  0  0  0  0  0
    6.7834    5.3770   20.6474 N   0  0  0  0  0  0  0  0  0  0  0  0
    5.1236    4.1344   21.8998 N   0  0  0  0  0  0  0  0  0  0  0  0
    3.8312    3.7071   22.1239 C   0  0  0  0  0  0  0  0  0  0  0  0
    2.7798    4.1182   21.2459 C   0  0  0  0  0  0  0  0  0  0  0  0
    3.5846    2.9795   23.0669 O   0  0  0  0  0  0  0  0  0  0  0  0
    1.4001    3.6829   21.4472 N   0  0  0  0  0  0  0  0  0  0  0  0
    0.3609    4.2648   20.6754 C   0  0  2  0  0  0  0  0  0  0  0  0
    0.8212    4.7387   19.2710 C   0  0  0  0  0  0  0  0  0  0  0  0
    3.1117    4.9757   20.1540 C   0  0  0  0  0  0  0  0  0  0  0  0
    2.0440    5.4153   19.2369 N   0  0  0  0  0  0  0  0  0  0  0  0
   -0.2822    5.3623   21.5033 C   0  0  1  0  0  0  0  0  0  0  0  0
   -1.3128    5.9579   20.8036 O   0  0  0  0  0  0  0  0  0  0  0  0
   -0.7827    4.8087   22.8039 C   0  0  1  0  0  0  0  0  0  0  0  0
    0.2409    4.4371   23.5855 O   0  0  0  0  0  0  0  0  0  0  0  0
   -1.6172    5.8567   23.5706 C   0  0  0  0  0  0  0  0  0  0  0  0
  1  2  2  0  0  0  0
  1 11  1  0  0  0  0
  2  3  1  0  0  0  0
  2  4  1  0  0  0  0
  4  5  1  0  0  0  0
  5  6  1  0  0  0  0
  5  7  2  0  0  0  0
  6  8  1  0  0  0  0
  6 11  2  0  0  0  0
  9  8  1  1  0  0  0
  9 10  1  0  0  0  0
  9 13  1  0  0  0  0
 10 12  1  0  0  0  0
 11 12  1  0  0  0  0
 13 14  1  6  0  0  0
 13 15  1  0  0  0  0
 15 16  1  1  0  0  0
 15 17  1  0  0  0  0
M  END
>  <CHROM.1>
-179.44919912,67.99177133,2.03804059,4.72250641,21.38575845,0.14727483,0.15386507
-1.21707800

>  <Name>
ligand

>  <RI>
0

>  <Rbt.Current_Directory>
/home/itssahil/PROJECTS/Mol_Feturizer/New_Systems/rnas/4LVX

>  <Rbt.Executable>
rbdock ($Id: //depot/dev/client3/rdock/2013.1/src/exe/rbdock.cxx#4 $)

>  <Rbt.Library>
libRbt.so (2013.1, Build901 2013/11/27)

>  <Rbt.Parameter_File>
/export/apps/rDock/src/rDock_2013.1_src/data/scripts/dock_solv.prm

>  <Rbt.Receptor>
prm/pocket_docking_5.prm

>  <SCORE>
-18.2443

>  <SCORE.INTER>
-11.7031

>  <SCORE.INTER.CONST>
1

>  <SCORE.INTER.POLAR>
0

>  <SCORE.INTER.ROT>
2

>  <SCORE.INTER.SOLV>
11.3424

>  <SCORE.INTER.VDW>
-16.5162

>  <SCORE.INTER.norm>
-0.68842

>  <SCORE.INTRA>
-6.5412

>  <SCORE.INTRA.DIHEDRAL>
-9.95436

>  <SCORE.INTRA.DIHEDRAL.0>
10.3255

>  <SCORE.INTRA.POLAR>
0

>  <SCORE.INTRA.POLAR.0>
0

>  <SCORE.INTRA.REPUL>
0

>  <SCORE.INTRA.REPUL.0>
0

>  <SCORE.INTRA.SOLV>
0.0332278

>  <SCORE.INTRA.SOLV.lig_0>
-53.4755

>  <SCORE.INTRA.VDW>
-1.58064

>  <SCORE.INTRA.VDW.0>
2.32763

>  <SCORE.INTRA.norm>
-0.384777

>  <SCORE.RESTR>
0

>  <SCORE.RESTR.CAVITY>
0

>  <SCORE.RESTR.norm>
0

>  <SCORE.SYSTEM>
0

>  <SCORE.SYSTEM.CONST>
0

>  <SCORE.SYSTEM.DIHEDRAL>
0

>  <SCORE.SYSTEM.SOLV>
0

>  <SCORE.SYSTEM.norm>
0

>  <SCORE.heavy>
17

>  <SCORE.norm>
-1.0732

>  <RMSD>
5.821

$$$$
ligand
 OpenBabel11021811503D
libRbt.so/2013.1/901 2013/11/27
 17 18  0  0  0  0  0  0  0  0999 V2000
    4.4388    5.3954   19.9431 N   0  0  0  0  0  0  0  0  0  0  0  0
    5.4370    4.9720   20.8298 C   0  0  0  0  0  0  0  0  0  0  0  0
    6.7935    5.3906   20.6248 N   0  0  0  0  0  0  0  0  0  0  0  0
    5.1448    4.1639   21.9073 N   0  0  0  0  0  0  0  0  0  0  0  0
    3.8548    3.7380   22.1470 C   0  0  0  0  0  0  0  0  0  0  0  0
    2.7964    4.1344   21.2706 C   0  0  0  0  0  0  0  0  0  0  0  0
    3.6163    3.0239   23.1023 O   0  0  0  0  0  0  0  0  0  0  0  0
    1.4189    3.6999   21.4883 N   0  0  0  0  0  0  0  0  0  0  0  0
    0.3732    4.2688   20.7154 C   0  0  2  0  0  0  0  0  0  0  0  0
    0.8226    4.7227   19.3010 C   0  0  0  0  0  0  0  0  0  0  0  0
    3.1190    4.9762   20.1638 C   0  0  0  0  0  0  0  0  0  0  0  0
    2.0439    5.4007   19.2481 N   0  0  0  0  0  0  0  0  0  0  0  0
   -0.2658    5.3773   21.5318 C   0  0  1  0  0  0  0  0  0  0  0  0
   -1.2958    5.9676   20.8268 O   0  0  0  0  0  0  0  0  0  0  0  0
   -0.7659    4.8398   22.8393 C   0  0  1  0  0  0  0  0  0  0  0  0
    0.2581    4.4818   23.6268 O   0  0  0  0  0  0  0  0  0  0  0  0
   -1.6042    5.8956   23.5910 C   0  0  0  0  0  0  0  0  0  0  0  0
  1  2  2  0  0  0  0
  1 11  1  0  0  0  0
  2  3  1  0  0  0  0
  2  4  1  0  0  0  0
  4  5  1  0  0  0  0
  5  6  1  0  0  0  0
  5  7  2  0  0  0  0
  6  8  1  0  0  0  0
  6 11  2  0  0  0  0
  9  8  1  1  0  0  0
  9 10  1  0  0  0  0
  9 13  1  0  0  0  0
 10 12  1  0  0  0  0
 11 12  1  0  0  0  0
 13 14  1  6  0  0  0
 13 15  1  0  0  0  0
 15 16  1  1  0  0  0
 15 17  1  0  0  0  0
M  END
>  <CHROM.1>
-179.90596751,68.36320283,2.05235372,4.73944399,21.40593522,0.15426820,0.15485293
-1.23076430

>  <Name>
ligand

>  <RI>
0

>  <Rbt.Current_Directory>
/home/itssahil/PROJECTS/Mol_Feturizer/New_Systems/rnas/4LVX

>  <Rbt.Executable>
rbdock ($Id: //depot/dev/client3/rdock/2013.1/src/exe/rbdock.cxx#4 $)

>  <Rbt.Library>
libRbt.so (2013.1, Build901 2013/11/27)

>  <Rbt.Parameter_File>
/export/apps/rDock/src/rDock_2013.1_src/data/scripts/dock_solv.prm

>  <Rbt.Receptor>
prm/pocket_docking_6.prm

>  <SCORE>
-18.2291

>  <SCORE.INTER>
-11.6832

>  <SCORE.INTER.CONST>
1

>  <SCORE.INTER.POLAR>
0

>  <SCORE.INTER.ROT>
2

>  <SCORE.INTER.SOLV>
11.1208

>  <SCORE.INTER.VDW>
-16.429

>  <SCORE.INTER.norm>
-0.687246

>  <SCORE.INTRA>
-6.54587

>  <SCORE.INTRA.DIHEDRAL>
-9.93394

>  <SCORE.INTRA.DIHEDRAL.0>
10.3255

>  <SCORE.INTRA.POLAR>
0

>  <SCORE.INTRA.POLAR.0>
0

>  <SCORE.INTRA.REPUL>
0

>  <SCORE.INTRA.REPUL.0>
0

>  <SCORE.INTRA.SOLV>
0.0223261

>  <SCORE.INTRA.SOLV.lig_0>
-53.4755

>  <SCORE.INTRA.VDW>
-1.59007

>  <SCORE.INTRA.VDW.0>
2.32763

>  <SCORE.INTRA.norm>
-0.385051

>  <SCORE.RESTR>
0

>  <SCORE.RESTR.CAVITY>
0

>  <SCORE.RESTR.norm>
0

>  <SCORE.SYSTEM>
0

>  <SCORE.SYSTEM.CONST>
0

>  <SCORE.SYSTEM.DIHEDRAL>
0

>  <SCORE.SYSTEM.SOLV>
0

>  <SCORE.SYSTEM.norm>
0

>  <SCORE.heavy>
17

>  <SCORE.norm>
-1.0723

>  <RMSD>
5.821

$$$$
ligand
 OpenBabel11021811503D
libRbt.so/2013.1/901 2013/11/27
 17 18  0  0  0  0  0  0  0  0999 V2000
    4.4384    5.3870   19.9633 N   0  0  0  0  0  0  0  0  0  0  0  0
    5.4341    4.9566   20.8495 C   0  0  0  0  0  0  0  0  0  0  0  0
    6.7915    5.3752   20.6507 N   0  0  0  0  0  0  0  0  0  0  0  0
    5.1384    4.1414   21.9207 N   0  0  0  0  0  0  0  0  0  0  0  0
    3.8474    3.7151   22.1543 C   0  0  0  0  0  0  0  0  0  0  0  0
    2.7916    4.1187   21.2782 C   0  0  0  0  0  0  0  0  0  0  0  0
    3.6059    2.9948   23.1042 O   0  0  0  0  0  0  0  0  0  0  0  0
    1.4131    3.6841   21.4895 N   0  0  0  0  0  0  0  0  0  0  0  0
    0.3699    4.2593   20.7180 C   0  0  2  0  0  0  0  0  0  0  0  0
    0.8232    4.7224   19.3078 C   0  0  0  0  0  0  0  0  0  0  0  0
    3.1177    4.9677   20.1780 C   0  0  0  0  0  0  0  0  0  0  0  0
    2.0453    5.3995   19.2626 N   0  0  0  0  0  0  0  0  0  0  0  0
   -0.2700    5.3628   21.5404 C   0  0  1  0  0  0  0  0  0  0  0  0
   -1.2998    5.9569   20.8383 O   0  0  0  0  0  0  0  0  0  0  0  0
   -0.7708    4.8175   22.8445 C   0  0  1  0  0  0  0  0  0  0  0  0
    0.2532    4.4739   23.6384 O   0  0  0  0  0  0  0  0  0  0  0  0
   -1.6289    5.8608   23.5912 C   0  0  0  0  0  0  0  0  0  0  0  0
  1  2  2  0  0  0  0
  1 11  1  0  0  0  0
  2  3  1  0  0  0  0
  2  4  1  0  0  0  0
  4  5  1  0  0  0  0
  5  6  1  0  0  0  0
  5  7  2  0  0  0  0
  6  8  1  0  0  0  0
  6 11  2  0  0  0  0
  9  8  1  1  0  0  0
  9 10  1  0  0  0  0
  9 13  1  0  0  0  0
 10 12  1  0  0  0  0
 11 12  1  0  0  0  0
 13 14  1  6  0  0  0
 13 15  1  0  0  0  0
 15 16  1  1  0  0  0
 15 17  1  0  0  0  0
M  END
>  <CHROM.1>
-179.76299393,69.28190250,2.04715833,4.72437313,21.41598026,0.15159749,0.15496283
-1.22487565

>  <Name>
ligand

>  <RI>
0

>  <Rbt.Current_Directory>
/home/itssahil/PROJECTS/Mol_Feturizer/New_Systems/rnas/4LVX

>  <Rbt.Executable>
rbdock ($Id: //depot/dev/client3/rdock/2013.1/src/exe/rbdock.cxx#4 $)

>  <Rbt.Library>
libRbt.so (2013.1, Build901 2013/11/27)

>  <Rbt.Parameter_File>
/export/apps/rDock/src/rDock_2013.1_src/data/scripts/dock_solv.prm

>  <Rbt.Receptor>
prm/pocket_docking_6.prm

>  <SCORE>
-18.2135

>  <SCORE.INTER>
-11.7025

>  <SCORE.INTER.CONST>
1

>  <SCORE.INTER.POLAR>
0

>  <SCORE.INTER.ROT>
2

>  <SCORE.INTER.SOLV>
11.2209

>  <SCORE.INTER.VDW>
-16.4753

>  <SCORE.INTER.norm>
-0.688383

>  <SCORE.INTRA>
-6.51099

>  <SCORE.INTRA.DIHEDRAL>
-9.87771

>  <SCORE.INTRA.DIHEDRAL.0>
10.3255

>  <SCORE.INTRA.POLAR>
0

>  <SCORE.INTRA.POLAR.0>
0

>  <SCORE.INTRA.REPUL>
0

>  <SCORE.INTRA.REPUL.0>
0

>  <SCORE.INTRA.SOLV>
0.0136799

>  <SCORE.INTRA.SOLV.lig_0>
-53.4755

>  <SCORE.INTRA.VDW>
-1.57897

>  <SCORE.INTRA.VDW.0>
2.32763

>  <SCORE.INTRA.norm>
-0.382999

>  <SCORE.RESTR>
0

>  <SCORE.RESTR.CAVITY>
0

>  <SCORE.RESTR.norm>
0

>  <SCORE.SYSTEM>
0

>  <SCORE.SYSTEM.CONST>
0

>  <SCORE.SYSTEM.DIHEDRAL>
0

>  <SCORE.SYSTEM.SOLV>
0

>  <SCORE.SYSTEM.norm>
0

>  <SCORE.heavy>
17

>  <SCORE.norm>
-1.07138

>  <RMSD>
5.821

$$$$
ligand
 OpenBabel11021811503D
libRbt.so/2013.1/901 2013/11/27
 17 18  0  0  0  0  0  0  0  0999 V2000
    4.4407    5.4020   19.9494 N   0  0  0  0  0  0  0  0  0  0  0  0
    5.4382    4.9775   20.8365 C   0  0  0  0  0  0  0  0  0  0  0  0
    6.7938    5.4015   20.6368 N   0  0  0  0  0  0  0  0  0  0  0  0
    5.1460    4.1633   21.9093 N   0  0  0  0  0  0  0  0  0  0  0  0
    3.8568    3.7320   22.1438 C   0  0  0  0  0  0  0  0  0  0  0  0
    2.7993    4.1293   21.2668 C   0  0  0  0  0  0  0  0  0  0  0  0
    3.6183    3.0125   23.0950 O   0  0  0  0  0  0  0  0  0  0  0  0
    1.4227    3.6892   21.4789 N   0  0  0  0  0  0  0  0  0  0  0  0
    0.3770    4.2584   20.7063 C   0  0  2  0  0  0  0  0  0  0  0  0
    0.8284    4.7206   19.2952 C   0  0  0  0  0  0  0  0  0  0  0  0
    3.1218    4.9775   20.1649 C   0  0  0  0  0  0  0  0  0  0  0  0
    2.0476    5.4029   19.2486 N   0  0  0  0  0  0  0  0  0  0  0  0
   -0.2676    5.3609   21.5265 C   0  0  1  0  0  0  0  0  0  0  0  0
   -1.3004    5.9487   20.8234 O   0  0  0  0  0  0  0  0  0  0  0  0
   -0.7653    4.8163   22.8319 C   0  0  1  0  0  0  0  0  0  0  0  0
    0.2605    4.4705   23.6225 O   0  0  0  0  0  0  0  0  0  0  0  0
   -1.6190    5.8611   23.5816 C   0  0  0  0  0  0  0  0  0  0  0  0
  1  2  2  0  0  0  0
  1 11  1  0  0  0  0
  2  3  1  0  0  0  0
  2  4  1  0  0  0  0
  4  5  1  0  0  0  0
  5  6  1  0  0  0  0
  5  7  2  0  0  0  0
  6  8  1  0  0  0  0
  6 11  2  0  0  0  0
  9  8  1  1  0  0  0
  9 10  1  0  0  0  0
  9 13  1  0  0  0  0
 10 12  1  0  0  0  0
 11 12  1  0  0  0  0
 13 14  1  6  0  0  0
 13 15  1  0  0  0  0
 15 16  1  1  0  0  0
 15 17  1  0  0  0  0
M  END
>  <CHROM.1>
-179.72828638,68.85195520,2.05299050,4.73175611,21.40347727,0.15312657,0.15094511
-1.22700850

>  <Name>
ligand

>  <RI>
0

>  <Rbt.Current_Directory>
/home/itssahil/PROJECTS/Mol_Feturizer/New_Systems/rnas/4LVX

>  <Rbt.Executable>
rbdock ($Id: //depot/dev/client3/rdock/2013.1/src/exe/rbdock.cxx#4 $)

>  <Rbt.Library>
libRbt.so (2013.1, Build901 2013/11/27)

>  <Rbt.Parameter_File>
/export/apps/rDock/src/rDock_2013.1_src/data/scripts/dock_solv.prm

>  <Rbt.Receptor>
prm/pocket_docking_4.prm

>  <SCORE>
-18.2344

>  <SCORE.INTER>
-11.7093

>  <SCORE.INTER.CONST>
1

>  <SCORE.INTER.POLAR>
0

>  <SCORE.INTER.ROT>
2

>  <SCORE.INTER.SOLV>
11.1716

>  <SCORE.INTER.VDW>
-16.4634

>  <SCORE.INTER.norm>
-0.688783

>  <SCORE.INTRA>
-6.52506

>  <SCORE.INTRA.DIHEDRAL>
-9.90465

>  <SCORE.INTRA.DIHEDRAL.0>
10.3255

>  <SCORE.INTRA.POLAR>
0

>  <SCORE.INTRA.POLAR.0>
0

>  <SCORE.INTRA.REPUL>
0

>  <SCORE.INTRA.REPUL.0>
0

>  <SCORE.INTRA.SOLV>
0.0192099

>  <SCORE.INTRA.SOLV.lig_0>
-53.4755

>  <SCORE.INTRA.VDW>
-1.58234

>  <SCORE.INTRA.VDW.0>
2.32763

>  <SCORE.INTRA.norm>
-0.383827

>  <SCORE.RESTR>
0

>  <SCORE.RESTR.CAVITY>
0

>  <SCORE.RESTR.norm>
0

>  <SCORE.SYSTEM>
0

>  <SCORE.SYSTEM.CONST>
0

>  <SCORE.SYSTEM.DIHEDRAL>
0

>  <SCORE.SYSTEM.SOLV>
0

>  <SCORE.SYSTEM.norm>
0

>  <SCORE.heavy>
17

>  <SCORE.norm>
-1.07261

>  <RMSD>
5.822

$$$$
ligand
 OpenBabel11021811503D
libRbt.so/2013.1/901 2013/11/27
 17 18  0  0  0  0  0  0  0  0999 V2000
    4.4929    5.4029   20.0024 N   0  0  0  0  0  0  0  0  0  0  0  0
    5.4806    4.9714   20.8970 C   0  0  0  0  0  0  0  0  0  0  0  0
    6.8391    5.3931   20.7128 N   0  0  0  0  0  0  0  0  0  0  0  0
    5.1760    4.1524   21.9627 N   0  0  0  0  0  0  0  0  0  0  0  0
    3.8835    3.7231   22.1824 C   0  0  0  0  0  0  0  0  0  0  0  0
    2.8356    4.1274   21.2972 C   0  0  0  0  0  0  0  0  0  0  0  0
    3.6340    2.9993   23.1275 O   0  0  0  0  0  0  0  0  0  0  0  0
    1.4559    3.6897   21.4936 N   0  0  0  0  0  0  0  0  0  0  0  0
    0.4192    4.2654   20.7138 C   0  0  2  0  0  0  0  0  0  0  0  0
    0.8855    4.7338   19.3095 C   0  0  0  0  0  0  0  0  0  0  0  0
    3.1709    4.9805   20.2028 C   0  0  0  0  0  0  0  0  0  0  0  0
    2.1067    5.4132   19.2783 N   0  0  0  0  0  0  0  0  0  0  0  0
   -0.2308    5.3652   21.5333 C   0  0  1  0  0  0  0  0  0  0  0  0
   -1.2824    5.9306   20.8399 O   0  0  0  0  0  0  0  0  0  0  0  0
   -0.7014    4.8249   22.8505 C   0  0  1  0  0  0  0  0  0  0  0  0
    0.3408    4.5094   23.6324 O   0  0  0  0  0  0  0  0  0  0  0  0
   -1.5679    5.8599   23.5990 C   0  0  0  0  0  0  0  0  0  0  0  0
  1  2  2  0  0  0  0
  1 11  1  0  0  0  0
  2  3  1  0  0  0  0
  2  4  1  0  0  0  0
  4  5  1  0  0  0  0
  5  6  1  0  0  0  0
  5  7  2  0  0  0  0
  6  8  1  0  0  0  0
  6 11  2  0  0  0  0
  9  8  1  1  0  0  0
  9 10  1  0  0  0  0
  9 13  1  0  0  0  0
 10 12  1  0  0  0  0
 11 12  1  0  0  0  0
 13 14  1  6  0  0  0
 13 15  1  0  0  0  0
 15 16  1  1  0  0  0
 15 17  1  0  0  0  0
M  END
>  <CHROM.1>
-177.83123779,69.21479371,2.09647610,4.73291823,21.43344939,0.14449911,0.14959868
-1.23061392

>  <Name>
ligand

>  <RI>
0

>  <Rbt.Current_Directory>
/home/itssahil/PROJECTS/Mol_Feturizer/New_Systems/rnas/4LVX

>  <Rbt.Executable>
rbdock ($Id: //depot/dev/client3/rdock/2013.1/src/exe/rbdock.cxx#4 $)

>  <Rbt.Library>
libRbt.so (2013.1, Build901 2013/11/27)

>  <Rbt.Parameter_File>
/export/apps/rDock/src/rDock_2013.1_src/data/scripts/dock_solv.prm

>  <Rbt.Receptor>
prm/pocket_docking_5.prm

>  <SCORE>
-18.2344

>  <SCORE.INTER>
-11.7891

>  <SCORE.INTER.CONST>
1

>  <SCORE.INTER.POLAR>
0

>  <SCORE.INTER.ROT>
2

>  <SCORE.INTER.SOLV>
10.91

>  <SCORE.INTER.VDW>
-16.4294

>  <SCORE.INTER.norm>
-0.693476

>  <SCORE.INTRA>
-6.44526

>  <SCORE.INTRA.DIHEDRAL>
-9.86713

>  <SCORE.INTRA.DIHEDRAL.0>
10.3255

>  <SCORE.INTRA.POLAR>
0

>  <SCORE.INTRA.POLAR.0>
0

>  <SCORE.INTRA.REPUL>
0

>  <SCORE.INTRA.REPUL.0>
0

>  <SCORE.INTRA.SOLV>
0.0431645

>  <SCORE.INTRA.SOLV.lig_0>
-53.4755

>  <SCORE.INTRA.VDW>
-1.53328

>  <SCORE.INTRA.VDW.0>
2.32763

>  <SCORE.INTRA.norm>
-0.379133

>  <SCORE.RESTR>
0

>  <SCORE.RESTR.CAVITY>
0

>  <SCORE.RESTR.norm>
0

>  <SCORE.SYSTEM>
0

>  <SCORE.SYSTEM.CONST>
0

>  <SCORE.SYSTEM.DIHEDRAL>
0

>  <SCORE.SYSTEM.SOLV>
0

>  <SCORE.SYSTEM.norm>
0

>  <SCORE.heavy>
17

>  <SCORE.norm>
-1.07261

>  <RMSD>
5.822

$$$$
ligand
 OpenBabel11021811503D
libRbt.so/2013.1/901 2013/11/27
 17 18  0  0  0  0  0  0  0  0999 V2000
    4.4429    5.3923   19.9421 N   0  0  0  0  0  0  0  0  0  0  0  0
    5.4415    4.9671   20.8275 C   0  0  0  0  0  0  0  0  0  0  0  0
    6.7987    5.3816   20.6197 N   0  0  0  0  0  0  0  0  0  0  0  0
    5.1488    4.1612   21.9065 N   0  0  0  0  0  0  0  0  0  0  0  0
    3.8580    3.7392   22.1490 C   0  0  0  0  0  0  0  0  0  0  0  0
    2.7992    4.1377   21.2740 C   0  0  0  0  0  0  0  0  0  0  0  0
    3.6191    3.0270   23.1056 O   0  0  0  0  0  0  0  0  0  0  0  0
    1.4208    3.7074   21.4946 N   0  0  0  0  0  0  0  0  0  0  0  0
    0.3755    4.2783   20.7229 C   0  0  2  0  0  0  0  0  0  0  0  0
    0.8237    4.7292   19.3071 C   0  0  0  0  0  0  0  0  0  0  0  0
    3.1223    4.9772   20.1656 C   0  0  0  0  0  0  0  0  0  0  0  0
    2.0468    5.4036   19.2513 N   0  0  0  0  0  0  0  0  0  0  0  0
   -0.2590    5.3896   21.5390 C   0  0  1  0  0  0  0  0  0  0  0  0
   -1.2948    5.9757   20.8390 O   0  0  0  0  0  0  0  0  0  0  0  0
   -0.7490    4.8572   22.8524 C   0  0  1  0  0  0  0  0  0  0  0  0
    0.2816    4.5275   23.6437 O   0  0  0  0  0  0  0  0  0  0  0  0
   -1.6073    5.9052   23.5924 C   0  0  0  0  0  0  0  0  0  0  0  0
  1  2  2  0  0  0  0
  1 11  1  0  0  0  0
  2  3  1  0  0  0  0
  2  4  1  0  0  0  0
  4  5  1  0  0  0  0
  5  6  1  0  0  0  0
  5  7  2  0  0  0  0
  6  8  1  0  0  0  0
  6 11  2  0  0  0  0
  9  8  1  1  0  0  0
  9 10  1  0  0  0  0
  9 13  1  0  0  0  0
 10 12  1  0  0  0  0
 11 12  1  0  0  0  0
 13 14  1  6  0  0  0
 13 15  1  0  0  0  0
 15 16  1  1  0  0  0
 15 17  1  0  0  0  0
M  END
>  <CHROM.1>
-179.47584309,69.53213758,2.05731288,4.74627752,21.41055539,0.15518184,0.15805726
-1.23514899

>  <Name>
ligand

>  <RI>
0

>  <Rbt.Current_Directory>
/home/itssahil/PROJECTS/Mol_Feturizer/New_Systems/rnas/4LVX

>  <Rbt.Executable>
rbdock ($Id: //depot/dev/client3/rdock/2013.1/src/exe/rbdock.cxx#4 $)

>  <Rbt.Library>
libRbt.so (2013.1, Build901 2013/11/27)

>  <Rbt.Parameter_File>
/export/apps/rDock/src/rDock_2013.1_src/data/scripts/dock_solv.prm

>  <Rbt.Receptor>
prm/pocket_docking_8.prm

>  <SCORE>
-18.2087

>  <SCORE.INTER>
-11.7156

>  <SCORE.INTER.CONST>
1

>  <SCORE.INTER.POLAR>
0

>  <SCORE.INTER.ROT>
2

>  <SCORE.INTER.SOLV>
11.0503

>  <SCORE.INTER.VDW>
-16.4272

>  <SCORE.INTER.norm>
-0.689154

>  <SCORE.INTRA>
-6.49308

>  <SCORE.INTRA.DIHEDRAL>
-9.86089

>  <SCORE.INTRA.DIHEDRAL.0>
10.3255

>  <SCORE.INTRA.POLAR>
0

>  <SCORE.INTRA.POLAR.0>
0

>  <SCORE.INTRA.REPUL>
0

>  <SCORE.INTRA.REPUL.0>
0

>  <SCORE.INTRA.SOLV>
0.0148526

>  <SCORE.INTRA.SOLV.lig_0>
-53.4755

>  <SCORE.INTRA.VDW>
-1.57006

>  <SCORE.INTRA.VDW.0>
2.32763

>  <SCORE.INTRA.norm>
-0.381946

>  <SCORE.RESTR>
0

>  <SCORE.RESTR.CAVITY>
0

>  <SCORE.RESTR.norm>
0

>  <SCORE.SYSTEM>
0

>  <SCORE.SYSTEM.CONST>
0

>  <SCORE.SYSTEM.DIHEDRAL>
0

>  <SCORE.SYSTEM.SOLV>
0

>  <SCORE.SYSTEM.norm>
0

>  <SCORE.heavy>
17

>  <SCORE.norm>
-1.0711

>  <RMSD>
5.822

$$$$
ligand
 OpenBabel11021811503D
libRbt.so/2013.1/901 2013/11/27
 17 18  0  0  0  0  0  0  0  0999 V2000
    4.4442    5.3980   19.9445 N   0  0  0  0  0  0  0  0  0  0  0  0
    5.4446    4.9744   20.8287 C   0  0  0  0  0  0  0  0  0  0  0  0
    6.7996    5.3978   20.6239 N   0  0  0  0  0  0  0  0  0  0  0  0
    5.1559    4.1616   21.9036 N   0  0  0  0  0  0  0  0  0  0  0  0
    3.8674    3.7309   22.1430 C   0  0  0  0  0  0  0  0  0  0  0  0
    2.8070    4.1274   21.2691 C   0  0  0  0  0  0  0  0  0  0  0  0
    3.6320    3.0127   23.0959 O   0  0  0  0  0  0  0  0  0  0  0  0
    1.4310    3.6880   21.4865 N   0  0  0  0  0  0  0  0  0  0  0  0
    0.3828    4.2565   20.7168 C   0  0  2  0  0  0  0  0  0  0  0  0
    0.8295    4.7168   19.3035 C   0  0  0  0  0  0  0  0  0  0  0  0
    3.1259    4.9741   20.1650 C   0  0  0  0  0  0  0  0  0  0  0  0
    2.0487    5.3986   19.2519 N   0  0  0  0  0  0  0  0  0  0  0  0
   -0.2587    5.3601   21.5378 C   0  0  1  0  0  0  0  0  0  0  0  0
   -1.3088    5.9315   20.8469 O   0  0  0  0  0  0  0  0  0  0  0  0
   -0.7292    4.8227   22.8562 C   0  0  1  0  0  0  0  0  0  0  0  0
    0.3131    4.4950   23.6330 O   0  0  0  0  0  0  0  0  0  0  0  0
   -1.5815    5.8656   23.6101 C   0  0  0  0  0  0  0  0  0  0  0  0
  1  2  2  0  0  0  0
  1 11  1  0  0  0  0
  2  3  1  0  0  0  0
  2  4  1  0  0  0  0
  4  5  1  0  0  0  0
  5  6  1  0  0  0  0
  5  7  2  0  0  0  0
  6  8  1  0  0  0  0
  6 11  2  0  0  0  0
  9  8  1  1  0  0  0
  9 10  1  0  0  0  0
  9 13  1  0  0  0  0
 10 12  1  0  0  0  0
 11 12  1  0  0  0  0
 13 14  1  6  0  0  0
 13 15  1  0  0  0  0
 15 16  1  1  0  0  0
 15 17  1  0  0  0  0
M  END
>  <CHROM.1>
-178.67706864,68.90737223,2.06542919,4.73115391,21.40968501,0.15716802,0.15210946
-1.23432791

>  <Name>
ligand

>  <RI>
0

>  <Rbt.Current_Directory>
/home/itssahil/PROJECTS/Mol_Feturizer/New_Systems/rnas/4LVX

>  <Rbt.Executable>
rbdock ($Id: //depot/dev/client3/rdock/2013.1/src/exe/rbdock.cxx#4 $)

>  <Rbt.Library>
libRbt.so (2013.1, Build901 2013/11/27)

>  <Rbt.Parameter_File>
/export/apps/rDock/src/rDock_2013.1_src/data/scripts/dock_solv.prm

>  <Rbt.Receptor>
prm/pocket_docking_4.prm

>  <SCORE>
-18.2421

>  <SCORE.INTER>
-11.754

>  <SCORE.INTER.CONST>
1

>  <SCORE.INTER.POLAR>
0

>  <SCORE.INTER.ROT>
2

>  <SCORE.INTER.SOLV>
11.1196

>  <SCORE.INTER.VDW>
-16.4759

>  <SCORE.INTER.norm>
-0.691414

>  <SCORE.INTRA>
-6.48809

>  <SCORE.INTRA.DIHEDRAL>
-9.89614

>  <SCORE.INTRA.DIHEDRAL.0>
10.3255

>  <SCORE.INTRA.POLAR>
0

>  <SCORE.INTRA.POLAR.0>
0

>  <SCORE.INTRA.REPUL>
0

>  <SCORE.INTRA.REPUL.0>
0

>  <SCORE.INTRA.SOLV>
0.0336151

>  <SCORE.INTRA.SOLV.lig_0>
-53.4755

>  <SCORE.INTRA.VDW>
-1.55683

>  <SCORE.INTRA.VDW.0>
2.32763

>  <SCORE.INTRA.norm>
-0.381652

>  <SCORE.RESTR>
0

>  <SCORE.RESTR.CAVITY>
0

>  <SCORE.RESTR.norm>
0

>  <SCORE.SYSTEM>
0

>  <SCORE.SYSTEM.CONST>
0

>  <SCORE.SYSTEM.DIHEDRAL>
0

>  <SCORE.SYSTEM.SOLV>
0

>  <SCORE.SYSTEM.norm>
0

>  <SCORE.heavy>
17

>  <SCORE.norm>
-1.07307

>  <RMSD>
5.823

$$$$
ligand
 OpenBabel11021811503D
libRbt.so/2013.1/901 2013/11/27
 17 18  0  0  0  0  0  0  0  0999 V2000
    4.4391    5.3913   19.9386 N   0  0  0  0  0  0  0  0  0  0  0  0
    5.4385    4.9630   20.8217 C   0  0  0  0  0  0  0  0  0  0  0  0
    6.7960    5.3762   20.6126 N   0  0  0  0  0  0  0  0  0  0  0  0
    5.1465    4.1551   21.8994 N   0  0  0  0  0  0  0  0  0  0  0  0
    3.8555    3.7342   22.1429 C   0  0  0  0  0  0  0  0  0  0  0  0
    2.7959    4.1358   21.2703 C   0  0  0  0  0  0  0  0  0  0  0  0
    3.6172    3.0203   23.0983 O   0  0  0  0  0  0  0  0  0  0  0  0
    1.4173    3.7068   21.4921 N   0  0  0  0  0  0  0  0  0  0  0  0
    0.3715    4.2806   20.7231 C   0  0  2  0  0  0  0  0  0  0  0  0
    0.8182    4.7340   19.3076 C   0  0  0  0  0  0  0  0  0  0  0  0
    3.1183    4.9773   20.1633 C   0  0  0  0  0  0  0  0  0  0  0  0
    2.0420    5.4070   19.2514 N   0  0  0  0  0  0  0  0  0  0  0  0
   -0.2603    5.3910   21.5426 C   0  0  1  0  0  0  0  0  0  0  0  0
   -1.2970    5.9792   20.8457 O   0  0  0  0  0  0  0  0  0  0  0  0
   -0.7482    4.8566   22.8560 C   0  0  1  0  0  0  0  0  0  0  0  0
    0.2837    4.5283   23.6462 O   0  0  0  0  0  0  0  0  0  0  0  0
   -1.6079    5.9023   23.5975 C   0  0  0  0  0  0  0  0  0  0  0  0
  1  2  2  0  0  0  0
  1 11  1  0  0  0  0
  2  3  1  0  0  0  0
  2  4  1  0  0  0  0
  4  5  1  0  0  0  0
  5  6  1  0  0  0  0
  5  7  2  0  0  0  0
  6  8  1  0  0  0  0
  6 11  2  0  0  0  0
  9  8  1  1  0  0  0
  9 10  1  0  0  0  0
  9 13  1  0  0  0  0
 10 12  1  0  0  0  0
 11 12  1  0  0  0  0
 13 14  1  6  0  0  0
 13 15  1  0  0  0  0
 15 16  1  1  0  0  0
 15 17  1  0  0  0  0
M  END
>  <CHROM.1>
-179.43732458,69.71766300,2.05487717,4.74525121,21.40933779,0.15621699,0.15969498
-1.23352605

>  <Name>
ligand

>  <RI>
0

>  <Rbt.Current_Directory>
/home/itssahil/PROJECTS/Mol_Feturizer/New_Systems/rnas/4LVX

>  <Rbt.Executable>
rbdock ($Id: //depot/dev/client3/rdock/2013.1/src/exe/rbdock.cxx#4 $)

>  <Rbt.Library>
libRbt.so (2013.1, Build901 2013/11/27)

>  <Rbt.Parameter_File>
/export/apps/rDock/src/rDock_2013.1_src/data/scripts/dock_solv.prm

>  <Rbt.Receptor>
prm/pocket_docking_4.prm

>  <SCORE>
-18.2051

>  <SCORE.INTER>
-11.7204

>  <SCORE.INTER.CONST>
1

>  <SCORE.INTER.POLAR>
0

>  <SCORE.INTER.ROT>
2

>  <SCORE.INTER.SOLV>
11.073

>  <SCORE.INTER.VDW>
-16.438

>  <SCORE.INTER.norm>
-0.689438

>  <SCORE.INTRA>
-6.48468

>  <SCORE.INTRA.DIHEDRAL>
-9.84845

>  <SCORE.INTRA.DIHEDRAL.0>
10.3255

>  <SCORE.INTRA.POLAR>
0

>  <SCORE.INTRA.POLAR.0>
0

>  <SCORE.INTRA.REPUL>
0

>  <SCORE.INTRA.REPUL.0>
0

>  <SCORE.INTRA.SOLV>
0.0132119

>  <SCORE.INTRA.SOLV.lig_0>
-53.4755

>  <SCORE.INTRA.VDW>
-1.56706

>  <SCORE.INTRA.VDW.0>
2.32763

>  <SCORE.INTRA.norm>
-0.381452

>  <SCORE.RESTR>
0

>  <SCORE.RESTR.CAVITY>
0

>  <SCORE.RESTR.norm>
0

>  <SCORE.SYSTEM>
0

>  <SCORE.SYSTEM.CONST>
0

>  <SCORE.SYSTEM.DIHEDRAL>
0

>  <SCORE.SYSTEM.SOLV>
0

>  <SCORE.SYSTEM.norm>
0

>  <SCORE.heavy>
17

>  <SCORE.norm>
-1.07089

>  <RMSD>
5.823

$$$$
ligand
 OpenBabel11021811503D
libRbt.so/2013.1/901 2013/11/27
 17 18  0  0  0  0  0  0  0  0999 V2000
    4.4467    5.3948   19.9423 N   0  0  0  0  0  0  0  0  0  0  0  0
    5.4470    4.9723   20.8272 C   0  0  0  0  0  0  0  0  0  0  0  0
    6.8019    5.3956   20.6222 N   0  0  0  0  0  0  0  0  0  0  0  0
    5.1580    4.1607   21.9030 N   0  0  0  0  0  0  0  0  0  0  0  0
    3.8696    3.7302   22.1426 C   0  0  0  0  0  0  0  0  0  0  0  0
    2.8093    4.1255   21.2681 C   0  0  0  0  0  0  0  0  0  0  0  0
    3.6340    3.0131   23.0964 O   0  0  0  0  0  0  0  0  0  0  0  0
    1.4333    3.6862   21.4857 N   0  0  0  0  0  0  0  0  0  0  0  0
    0.3853    4.2537   20.7151 C   0  0  2  0  0  0  0  0  0  0  0  0
    0.8322    4.7124   19.3014 C   0  0  0  0  0  0  0  0  0  0  0  0
    3.1284    4.9710   20.1631 C   0  0  0  0  0  0  0  0  0  0  0  0
    2.0513    5.3943   19.2492 N   0  0  0  0  0  0  0  0  0  0  0  0
   -0.2566    5.3583   21.5346 C   0  0  1  0  0  0  0  0  0  0  0  0
   -1.3093    5.9259   20.8446 O   0  0  0  0  0  0  0  0  0  0  0  0
   -0.7231    4.8234   22.8555 C   0  0  1  0  0  0  0  0  0  0  0  0
    0.3215    4.5053   23.6330 O   0  0  0  0  0  0  0  0  0  0  0  0
   -1.5814    5.8641   23.6056 C   0  0  0  0  0  0  0  0  0  0  0  0
  1  2  2  0  0  0  0
  1 11  1  0  0  0  0
  2  3  1  0  0  0  0
  2  4  1  0  0  0  0
  4  5  1  0  0  0  0
  5  6  1  0  0  0  0
  5  7  2  0  0  0  0
  6  8  1  0  0  0  0
  6 11  2  0  0  0  0
  9  8  1  1  0  0  0
  9 10  1  0  0  0  0
  9 13  1  0  0  0  0
 10 12  1  0  0  0  0
 11 12  1  0  0  0  0
 13 14  1  6  0  0  0
 13 15  1  0  0  0  0
 15 16  1  1  0  0  0
 15 17  1  0  0  0  0
M  END
>  <CHROM.1>
-178.48530174,69.18084548,2.06804004,4.72978687,21.40810639,0.15711854,0.15189374
-1.23669123

>  <Name>
ligand

>  <RI>
0

>  <Rbt.Current_Directory>
/home/itssahil/PROJECTS/Mol_Feturizer/New_Systems/rnas/4LVX

>  <Rbt.Executable>
rbdock ($Id: //depot/dev/client3/rdock/2013.1/src/exe/rbdock.cxx#4 $)

>  <Rbt.Library>
libRbt.so (2013.1, Build901 2013/11/27)

>  <Rbt.Parameter_File>
/export/apps/rDock/src/rDock_2013.1_src/data/scripts/dock_solv.prm

>  <Rbt.Receptor>
prm/pocket_docking_5.prm

>  <SCORE>
-18.2416

>  <SCORE.INTER>
-11.7693

>  <SCORE.INTER.CONST>
1

>  <SCORE.INTER.POLAR>
0

>  <SCORE.INTER.ROT>
2

>  <SCORE.INTER.SOLV>
11.1318

>  <SCORE.INTER.VDW>
-16.4901

>  <SCORE.INTER.norm>
-0.69231

>  <SCORE.INTRA>
-6.47235

>  <SCORE.INTRA.DIHEDRAL>
-9.87725

>  <SCORE.INTRA.DIHEDRAL.0>
10.3255

>  <SCORE.INTRA.POLAR>
0

>  <SCORE.INTRA.POLAR.0>
0

>  <SCORE.INTRA.REPUL>
0

>  <SCORE.INTRA.REPUL.0>
0

>  <SCORE.INTRA.SOLV>
0.033112

>  <SCORE.INTRA.SOLV.lig_0>
-53.4755

>  <SCORE.INTRA.VDW>
-1.55028

>  <SCORE.INTRA.VDW.0>
2.32763

>  <SCORE.INTRA.norm>
-0.380726

>  <SCORE.RESTR>
0

>  <SCORE.RESTR.CAVITY>
0

>  <SCORE.RESTR.norm>
0

>  <SCORE.SYSTEM>
0

>  <SCORE.SYSTEM.CONST>
0

>  <SCORE.SYSTEM.DIHEDRAL>
0

>  <SCORE.SYSTEM.SOLV>
0

>  <SCORE.SYSTEM.norm>
0

>  <SCORE.heavy>
17

>  <SCORE.norm>
-1.07304

>  <RMSD>
5.824

$$$$
ligand
 OpenBabel11021811503D
libRbt.so/2013.1/901 2013/11/27
 17 18  0  0  0  0  0  0  0  0999 V2000
    4.4905    5.3981   19.9947 N   0  0  0  0  0  0  0  0  0  0  0  0
    5.4793    4.9684   20.8889 C   0  0  0  0  0  0  0  0  0  0  0  0
    6.8375    5.3897   20.7023 N   0  0  0  0  0  0  0  0  0  0  0  0
    5.1759    4.1514   21.9566 N   0  0  0  0  0  0  0  0  0  0  0  0
    3.8837    3.7225   22.1785 C   0  0  0  0  0  0  0  0  0  0  0  0
    2.8347    4.1252   21.2938 C   0  0  0  0  0  0  0  0  0  0  0  0
    3.6353    3.0006   23.1254 O   0  0  0  0  0  0  0  0  0  0  0  0
    1.4552    3.6879   21.4927 N   0  0  0  0  0  0  0  0  0  0  0  0
    0.4177    4.2621   20.7130 C   0  0  2  0  0  0  0  0  0  0  0  0
    0.8823    4.7278   19.3073 C   0  0  0  0  0  0  0  0  0  0  0  0
    3.1687    4.9762   20.1975 C   0  0  0  0  0  0  0  0  0  0  0  0
    2.1034    5.4071   19.2734 N   0  0  0  0  0  0  0  0  0  0  0  0
   -0.2313    5.3635   21.5312 C   0  0  1  0  0  0  0  0  0  0  0  0
   -1.2780    5.9337   20.8343 O   0  0  0  0  0  0  0  0  0  0  0  0
   -0.7092    4.8235   22.8459 C   0  0  1  0  0  0  0  0  0  0  0  0
    0.3286    4.5090   23.6339 O   0  0  0  0  0  0  0  0  0  0  0  0
   -1.5806    5.8584   23.5890 C   0  0  0  0  0  0  0  0  0  0  0  0
  1  2  2  0  0  0  0
  1 11  1  0  0  0  0
  2  3  1  0  0  0  0
  2  4  1  0  0  0  0
  4  5  1  0  0  0  0
  5  6  1  0  0  0  0
  5  7  2  0  0  0  0
  6  8  1  0  0  0  0
  6 11  2  0  0  0  0
  9  8  1  1  0  0  0
  9 10  1  0  0  0  0
  9 13  1  0  0  0  0
 10 12  1  0  0  0  0
 11 12  1  0  0  0  0
 13 14  1  6  0  0  0
 13 15  1  0  0  0  0
 15 16  1  1  0  0  0
 15 17  1  0  0  0  0
M  END
>  <CHROM.1>
-178.23708877,69.50065263,2.09378418,4.73084074,21.42897665,0.14526404,0.15008440
-1.23073269

>  <Name>
ligand

>  <RI>
0

>  <Rbt.Current_Directory>
/home/itssahil/PROJECTS/Mol_Feturizer/New_Systems/rnas/4LVX

>  <Rbt.Executable>
rbdock ($Id: //depot/dev/client3/rdock/2013.1/src/exe/rbdock.cxx#4 $)

>  <Rbt.Library>
libRbt.so (2013.1, Build901 2013/11/27)

>  <Rbt.Parameter_File>
/export/apps/rDock/src/rDock_2013.1_src/data/scripts/dock_solv.prm

>  <Rbt.Receptor>
prm/pocket_docking_5.prm

>  <SCORE>
-18.2319

>  <SCORE.INTER>
-11.7795

>  <SCORE.INTER.CONST>
1

>  <SCORE.INTER.POLAR>
0

>  <SCORE.INTER.ROT>
2

>  <SCORE.INTER.SOLV>
10.9605

>  <SCORE.INTER.VDW>
-16.4399

>  <SCORE.INTER.norm>
-0.692914

>  <SCORE.INTRA>
-6.45232

>  <SCORE.INTRA.DIHEDRAL>
-9.85394

>  <SCORE.INTRA.DIHEDRAL.0>
10.3255

>  <SCORE.INTRA.POLAR>
0

>  <SCORE.INTRA.POLAR.0>
0

>  <SCORE.INTRA.REPUL>
0

>  <SCORE.INTRA.REPUL.0>
0

>  <SCORE.INTRA.SOLV>
0.0328282

>  <SCORE.INTRA.SOLV.lig_0>
-53.4755

>  <SCORE.INTRA.VDW>
-1.54176

>  <SCORE.INTRA.VDW.0>
2.32763

>  <SCORE.INTRA.norm>
-0.379548

>  <SCORE.RESTR>
0

>  <SCORE.RESTR.CAVITY>
0

>  <SCORE.RESTR.norm>
0

>  <SCORE.SYSTEM>
0

>  <SCORE.SYSTEM.CONST>
0

>  <SCORE.SYSTEM.DIHEDRAL>
0

>  <SCORE.SYSTEM.SOLV>
0

>  <SCORE.SYSTEM.norm>
0

>  <SCORE.heavy>
17

>  <SCORE.norm>
-1.07246

>  <RMSD>
5.824

$$$$
ligand
 OpenBabel11021811503D
libRbt.so/2013.1/901 2013/11/27
 17 18  0  0  0  0  0  0  0  0999 V2000
    4.4893    5.3981   19.9935 N   0  0  0  0  0  0  0  0  0  0  0  0
    5.4783    4.9652   20.8859 C   0  0  0  0  0  0  0  0  0  0  0  0
    6.8369    5.3853   20.6991 N   0  0  0  0  0  0  0  0  0  0  0  0
    5.1748    4.1462   21.9520 N   0  0  0  0  0  0  0  0  0  0  0  0
    3.8823    3.7184   22.1742 C   0  0  0  0  0  0  0  0  0  0  0  0
    2.8331    4.1243   21.2912 C   0  0  0  0  0  0  0  0  0  0  0  0
    3.6338    2.9946   23.1196 O   0  0  0  0  0  0  0  0  0  0  0  0
    1.4533    3.6881   21.4903 N   0  0  0  0  0  0  0  0  0  0  0  0
    0.4157    4.2654   20.7127 C   0  0  2  0  0  0  0  0  0  0  0  0
    0.8797    4.7336   19.3077 C   0  0  0  0  0  0  0  0  0  0  0  0
    3.1672    4.9772   20.1964 C   0  0  0  0  0  0  0  0  0  0  0  0
    2.1016    5.4115   19.2742 N   0  0  0  0  0  0  0  0  0  0  0  0
   -0.2313    5.3657   21.5339 C   0  0  1  0  0  0  0  0  0  0  0  0
   -1.2813    5.9350   20.8413 O   0  0  0  0  0  0  0  0  0  0  0  0
   -0.7034    4.8247   22.8503 C   0  0  1  0  0  0  0  0  0  0  0  0
    0.3379    4.5093   23.6334 O   0  0  0  0  0  0  0  0  0  0  0  0
   -1.5713    5.8591   23.5981 C   0  0  0  0  0  0  0  0  0  0  0  0
  1  2  2  0  0  0  0
  1 11  1  0  0  0  0
  2  3  1  0  0  0  0
  2  4  1  0  0  0  0
  4  5  1  0  0  0  0
  5  6  1  0  0  0  0
  5  7  2  0  0  0  0
  6  8  1  0  0  0  0
  6 11  2  0  0  0  0
  9  8  1  1  0  0  0
  9 10  1  0  0  0  0
  9 13  1  0  0  0  0
 10 12  1  0  0  0  0
 11 12  1  0  0  0  0
 13 14  1  6  0  0  0
 13 15  1  0  0  0  0
 15 16  1  1  0  0  0
 15 17  1  0  0  0  0
M  END
>  <CHROM.1>
-177.99397327,69.41685075,2.09407198,4.73063558,21.42881566,0.14587092,0.15144850
-1.22981988

>  <Name>
ligand

>  <RI>
0

>  <Rbt.Current_Directory>
/home/itssahil/PROJECTS/Mol_Feturizer/New_Systems/rnas/4LVX

>  <Rbt.Executable>
rbdock ($Id: //depot/dev/client3/rdock/2013.1/src/exe/rbdock.cxx#4 $)

>  <Rbt.Library>
libRbt.so (2013.1, Build901 2013/11/27)

>  <Rbt.Parameter_File>
/export/apps/rDock/src/rDock_2013.1_src/data/scripts/dock_solv.prm

>  <Rbt.Receptor>
prm/pocket_docking_8.prm

>  <SCORE>
-18.2329

>  <SCORE.INTER>
-11.7873

>  <SCORE.INTER.CONST>
1

>  <SCORE.INTER.POLAR>
0

>  <SCORE.INTER.ROT>
2

>  <SCORE.INTER.SOLV>
10.9595

>  <SCORE.INTER.VDW>
-16.4447

>  <SCORE.INTER.norm>
-0.693373

>  <SCORE.INTRA>
-6.44554

>  <SCORE.INTRA.DIHEDRAL>
-9.85638

>  <SCORE.INTRA.DIHEDRAL.0>
10.3255

>  <SCORE.INTRA.POLAR>
0

>  <SCORE.INTRA.POLAR.0>
0

>  <SCORE.INTRA.REPUL>
0

>  <SCORE.INTRA.REPUL.0>
0

>  <SCORE.INTRA.SOLV>
0.0378726

>  <SCORE.INTRA.SOLV.lig_0>
-53.4755

>  <SCORE.INTRA.VDW>
-1.53629

>  <SCORE.INTRA.VDW.0>
2.32763

>  <SCORE.INTRA.norm>
-0.379149

>  <SCORE.RESTR>
0

>  <SCORE.RESTR.CAVITY>
0

>  <SCORE.RESTR.norm>
0

>  <SCORE.SYSTEM>
0

>  <SCORE.SYSTEM.CONST>
0

>  <SCORE.SYSTEM.DIHEDRAL>
0

>  <SCORE.SYSTEM.SOLV>
0

>  <SCORE.SYSTEM.norm>
0

>  <SCORE.heavy>
17

>  <SCORE.norm>
-1.07252

>  <RMSD>
5.824

$$$$
ligand
 OpenBabel11021811503D
libRbt.so/2013.1/901 2013/11/27
 17 18  0  0  0  0  0  0  0  0999 V2000
    4.4879    5.4024   19.9892 N   0  0  0  0  0  0  0  0  0  0  0  0
    5.4793    4.9704   20.8794 C   0  0  0  0  0  0  0  0  0  0  0  0
    6.8372    5.3912   20.6892 N   0  0  0  0  0  0  0  0  0  0  0  0
    5.1788    4.1517   21.9466 N   0  0  0  0  0  0  0  0  0  0  0  0
    3.8870    3.7232   22.1719 C   0  0  0  0  0  0  0  0  0  0  0  0
    2.8355    4.1282   21.2913 C   0  0  0  0  0  0  0  0  0  0  0  0
    3.6411    2.9997   23.1182 O   0  0  0  0  0  0  0  0  0  0  0  0
    1.4564    3.6914   21.4938 N   0  0  0  0  0  0  0  0  0  0  0  0
    0.4167    4.2677   20.7184 C   0  0  2  0  0  0  0  0  0  0  0  0
    0.8771    4.7356   19.3121 C   0  0  0  0  0  0  0  0  0  0  0  0
    3.1665    4.9809   20.1954 C   0  0  0  0  0  0  0  0  0  0  0  0
    2.0986    5.4142   19.2755 N   0  0  0  0  0  0  0  0  0  0  0  0
   -0.2290    5.3680   21.5406 C   0  0  1  0  0  0  0  0  0  0  0  0
   -1.2760    5.9418   20.8471 O   0  0  0  0  0  0  0  0  0  0  0  0
   -0.7054    4.8254   22.8548 C   0  0  1  0  0  0  0  0  0  0  0  0
    0.3333    4.5008   23.6375 O   0  0  0  0  0  0  0  0  0  0  0  0
   -1.5674    5.8626   23.6056 C   0  0  0  0  0  0  0  0  0  0  0  0
  1  2  2  0  0  0  0
  1 11  1  0  0  0  0
  2  3  1  0  0  0  0
  2  4  1  0  0  0  0
  4  5  1  0  0  0  0
  5  6  1  0  0  0  0
  5  7  2  0  0  0  0
  6  8  1  0  0  0  0
  6 11  2  0  0  0  0
  9  8  1  1  0  0  0
  9 10  1  0  0  0  0
  9 13  1  0  0  0  0
 10 12  1  0  0  0  0
 11 12  1  0  0  0  0
 13 14  1  6  0  0  0
 13 15  1  0  0  0  0
 15 16  1  1  0  0  0
 15 17  1  0  0  0  0
M  END
>  <CHROM.1>
-178.34740361,69.19058826,2.09533465,4.73371593,21.42970358,0.14803342,0.15178314
-1.22856831

>  <Name>
ligand

>  <RI>
0

>  <Rbt.Current_Directory>
/home/itssahil/PROJECTS/Mol_Feturizer/New_Systems/rnas/4LVX

>  <Rbt.Executable>
rbdock ($Id: //depot/dev/client3/rdock/2013.1/src/exe/rbdock.cxx#4 $)

>  <Rbt.Library>
libRbt.so (2013.1, Build901 2013/11/27)

>  <Rbt.Parameter_File>
/export/apps/rDock/src/rDock_2013.1_src/data/scripts/dock_solv.prm

>  <Rbt.Receptor>
prm/pocket_docking_5.prm

>  <SCORE>
-18.2386

>  <SCORE.INTER>
-11.7717

>  <SCORE.INTER.CONST>
1

>  <SCORE.INTER.POLAR>
0

>  <SCORE.INTER.ROT>
2

>  <SCORE.INTER.SOLV>
10.9271

>  <SCORE.INTER.VDW>
-16.4235

>  <SCORE.INTER.norm>
-0.692455

>  <SCORE.INTRA>
-6.46688

>  <SCORE.INTRA.DIHEDRAL>
-9.87521

>  <SCORE.INTRA.DIHEDRAL.0>
10.3255

>  <SCORE.INTRA.POLAR>
0

>  <SCORE.INTRA.POLAR.0>
0

>  <SCORE.INTRA.REPUL>
0

>  <SCORE.INTRA.REPUL.0>
0

>  <SCORE.INTRA.SOLV>
0.034951

>  <SCORE.INTRA.SOLV.lig_0>
-53.4755

>  <SCORE.INTRA.VDW>
-1.54676

>  <SCORE.INTRA.VDW.0>
2.32763

>  <SCORE.INTRA.norm>
-0.380405

>  <SCORE.RESTR>
0

>  <SCORE.RESTR.CAVITY>
0

>  <SCORE.RESTR.norm>
0

>  <SCORE.SYSTEM>
0

>  <SCORE.SYSTEM.CONST>
0

>  <SCORE.SYSTEM.DIHEDRAL>
0

>  <SCORE.SYSTEM.SOLV>
0

>  <SCORE.SYSTEM.norm>
0

>  <SCORE.heavy>
17

>  <SCORE.norm>
-1.07286

>  <RMSD>
5.825

$$$$
ligand
 OpenBabel11021811503D
libRbt.so/2013.1/901 2013/11/27
 17 18  0  0  0  0  0  0  0  0999 V2000
    4.4746    5.4045   19.9749 N   0  0  0  0  0  0  0  0  0  0  0  0
    5.4687    4.9736   20.8627 C   0  0  0  0  0  0  0  0  0  0  0  0
    6.8257    5.3958   20.6690 N   0  0  0  0  0  0  0  0  0  0  0  0
    5.1717    4.1548   21.9307 N   0  0  0  0  0  0  0  0  0  0  0  0
    3.8809    3.7251   22.1594 C   0  0  0  0  0  0  0  0  0  0  0  0
    2.8268    4.1288   21.2813 C   0  0  0  0  0  0  0  0  0  0  0  0
    3.6382    3.0015   23.1065 O   0  0  0  0  0  0  0  0  0  0  0  0
    1.4486    3.6906   21.4874 N   0  0  0  0  0  0  0  0  0  0  0  0
    0.4064    4.2657   20.7145 C   0  0  2  0  0  0  0  0  0  0  0  0
    0.8628    4.7338   19.3069 C   0  0  0  0  0  0  0  0  0  0  0  0
    3.1542    4.9817   20.1845 C   0  0  0  0  0  0  0  0  0  0  0  0
    2.0835    5.4137   19.2672 N   0  0  0  0  0  0  0  0  0  0  0  0
   -0.2383    5.3655   21.5382 C   0  0  1  0  0  0  0  0  0  0  0  0
   -1.2859    5.9400   20.8461 O   0  0  0  0  0  0  0  0  0  0  0  0
   -0.7137    4.8220   22.8524 C   0  0  1  0  0  0  0  0  0  0  0  0
    0.3257    4.4917   23.6319 O   0  0  0  0  0  0  0  0  0  0  0  0
   -1.5698    5.8609   23.6075 C   0  0  0  0  0  0  0  0  0  0  0  0
  1  2  2  0  0  0  0
  1 11  1  0  0  0  0
  2  3  1  0  0  0  0
  2  4  1  0  0  0  0
  4  5  1  0  0  0  0
  5  6  1  0  0  0  0
  5  7  2  0  0  0  0
  6  8  1  0  0  0  0
  6 11  2  0  0  0  0
  9  8  1  1  0  0  0
  9 10  1  0  0  0  0
  9 13  1  0  0  0  0
 10 12  1  0  0  0  0
 11 12  1  0  0  0  0
 13 14  1  6  0  0  0
 13 15  1  0  0  0  0
 15 16  1  1  0  0  0
 15 17  1  0  0  0  0
M  END
>  <CHROM.1>
-178.47401238,68.94852459,2.08617512,4.73326955,21.42130430,0.15070381,0.15168309
-1.22832182

>  <Name>
ligand

>  <RI>
0

>  <Rbt.Current_Directory>
/home/itssahil/PROJECTS/Mol_Feturizer/New_Systems/rnas/4LVX

>  <Rbt.Executable>
rbdock ($Id: //depot/dev/client3/rdock/2013.1/src/exe/rbdock.cxx#4 $)

>  <Rbt.Library>
libRbt.so (2013.1, Build901 2013/11/27)

>  <Rbt.Parameter_File>
/export/apps/rDock/src/rDock_2013.1_src/data/scripts/dock_solv.prm

>  <Rbt.Receptor>
prm/pocket_docking_6.prm

>  <SCORE>
-18.2333

>  <SCORE.INTER>
-11.754

>  <SCORE.INTER.CONST>
1

>  <SCORE.INTER.POLAR>
0

>  <SCORE.INTER.ROT>
2

>  <SCORE.INTER.SOLV>
10.9852

>  <SCORE.INTER.VDW>
-16.4311

>  <SCORE.INTER.norm>
-0.691414

>  <SCORE.INTRA>
-6.47929

>  <SCORE.INTRA.DIHEDRAL>
-9.89172

>  <SCORE.INTRA.DIHEDRAL.0>
10.3255

>  <SCORE.INTRA.POLAR>
0

>  <SCORE.INTRA.POLAR.0>
0

>  <SCORE.INTRA.REPUL>
0

>  <SCORE.INTRA.REPUL.0>
0

>  <SCORE.INTRA.SOLV>
0.0360177

>  <SCORE.INTRA.SOLV.lig_0>
-53.4755

>  <SCORE.INTRA.VDW>
-1.55144

>  <SCORE.INTRA.VDW.0>
2.32763

>  <SCORE.INTRA.norm>
-0.381135

>  <SCORE.RESTR>
0

>  <SCORE.RESTR.CAVITY>
0

>  <SCORE.RESTR.norm>
0

>  <SCORE.SYSTEM>
0

>  <SCORE.SYSTEM.CONST>
0

>  <SCORE.SYSTEM.DIHEDRAL>
0

>  <SCORE.SYSTEM.SOLV>
0

>  <SCORE.SYSTEM.norm>
0

>  <SCORE.heavy>
17

>  <SCORE.norm>
-1.07255

>  <RMSD>
5.825

$$$$
ligand
 OpenBabel11021811503D
libRbt.so/2013.1/901 2013/11/27
 17 18  0  0  0  0  0  0  0  0999 V2000
    4.4857    5.3932   19.9911 N   0  0  0  0  0  0  0  0  0  0  0  0
    5.4793    4.9699   20.8831 C   0  0  0  0  0  0  0  0  0  0  0  0
    6.8361    5.3918   20.6874 N   0  0  0  0  0  0  0  0  0  0  0  0
    5.1820    4.1588   21.9569 N   0  0  0  0  0  0  0  0  0  0  0  0
    3.8915    3.7297   22.1876 C   0  0  0  0  0  0  0  0  0  0  0  0
    2.8378    4.1259   21.3056 C   0  0  0  0  0  0  0  0  0  0  0  0
    3.6485    3.0129   23.1398 O   0  0  0  0  0  0  0  0  0  0  0  0
    1.4598    3.6881   21.5137 N   0  0  0  0  0  0  0  0  0  0  0  0
    0.4178    4.2565   20.7356 C   0  0  2  0  0  0  0  0  0  0  0  0
    0.8750    4.7145   19.3250 C   0  0  0  0  0  0  0  0  0  0  0  0
    3.1654    4.9708   20.2027 C   0  0  0  0  0  0  0  0  0  0  0  0
    2.0952    5.3951   19.2812 N   0  0  0  0  0  0  0  0  0  0  0  0
   -0.2286    5.3618   21.5505 C   0  0  1  0  0  0  0  0  0  0  0  0
   -1.2661    5.9406   20.8469 O   0  0  0  0  0  0  0  0  0  0  0  0
   -0.7198    4.8240   22.8612 C   0  0  1  0  0  0  0  0  0  0  0  0
    0.3101    4.5020   23.6566 O   0  0  0  0  0  0  0  0  0  0  0  0
   -1.5897    5.8642   23.5987 C   0  0  0  0  0  0  0  0  0  0  0  0
  1  2  2  0  0  0  0
  1 11  1  0  0  0  0
  2  3  1  0  0  0  0
  2  4  1  0  0  0  0
  4  5  1  0  0  0  0
  5  6  1  0  0  0  0
  5  7  2  0  0  0  0
  6  8  1  0  0  0  0
  6 11  2  0  0  0  0
  9  8  1  1  0  0  0
  9 10  1  0  0  0  0
  9 13  1  0  0  0  0
 10 12  1  0  0  0  0
 11 12  1  0  0  0  0
 13 14  1  6  0  0  0
 13 15  1  0  0  0  0
 15 16  1  1  0  0  0
 15 17  1  0  0  0  0
M  END
>  <CHROM.1>
-179.16940224,69.55547463,2.09294972,4.73064692,21.43890271,0.14948765,0.15069083
-1.23242866

>  <Name>
ligand

>  <RI>
0

>  <Rbt.Current_Directory>
/home/itssahil/PROJECTS/Mol_Feturizer/New_Systems/rnas/4LVX

>  <Rbt.Executable>
rbdock ($Id: //depot/dev/client3/rdock/2013.1/src/exe/rbdock.cxx#4 $)

>  <Rbt.Library>
libRbt.so (2013.1, Build901 2013/11/27)

>  <Rbt.Parameter_File>
/export/apps/rDock/src/rDock_2013.1_src/data/scripts/dock_solv.prm

>  <Rbt.Receptor>
prm/pocket_docking_8.prm

>  <SCORE>
-18.2197

>  <SCORE.INTER>
-11.737

>  <SCORE.INTER.CONST>
1

>  <SCORE.INTER.POLAR>
0

>  <SCORE.INTER.ROT>
2

>  <SCORE.INTER.SOLV>
10.9474

>  <SCORE.INTER.VDW>
-16.4072

>  <SCORE.INTER.norm>
-0.690414

>  <SCORE.INTRA>
-6.48269

>  <SCORE.INTRA.DIHEDRAL>
-9.85812

>  <SCORE.INTRA.DIHEDRAL.0>
10.3255

>  <SCORE.INTRA.POLAR>
0

>  <SCORE.INTRA.POLAR.0>
0

>  <SCORE.INTRA.REPUL>
0

>  <SCORE.INTRA.REPUL.0>
0

>  <SCORE.INTRA.SOLV>
0.0189525

>  <SCORE.INTRA.SOLV.lig_0>
-53.4755

>  <SCORE.INTRA.VDW>
-1.56311

>  <SCORE.INTRA.VDW.0>
2.32763

>  <SCORE.INTRA.norm>
-0.381335

>  <SCORE.RESTR>
0

>  <SCORE.RESTR.CAVITY>
0

>  <SCORE.RESTR.norm>
0

>  <SCORE.SYSTEM>
0

>  <SCORE.SYSTEM.CONST>
0

>  <SCORE.SYSTEM.DIHEDRAL>
0

>  <SCORE.SYSTEM.SOLV>
0

>  <SCORE.SYSTEM.norm>
0

>  <SCORE.heavy>
17

>  <SCORE.norm>
-1.07175

>  <RMSD>
5.826

$$$$
ligand
 OpenBabel11021811503D
libRbt.so/2013.1/901 2013/11/27
 17 18  0  0  0  0  0  0  0  0999 V2000
    4.4759    5.4008   19.9707 N   0  0  0  0  0  0  0  0  0  0  0  0
    5.4701    4.9725   20.8596 C   0  0  0  0  0  0  0  0  0  0  0  0
    6.8269    5.3949   20.6649 N   0  0  0  0  0  0  0  0  0  0  0  0
    5.1734    4.1560   21.9295 N   0  0  0  0  0  0  0  0  0  0  0  0
    3.8829    3.7262   22.1591 C   0  0  0  0  0  0  0  0  0  0  0  0
    2.8286    4.1273   21.2800 C   0  0  0  0  0  0  0  0  0  0  0  0
    3.6405    3.0047   23.1079 O   0  0  0  0  0  0  0  0  0  0  0  0
    1.4506    3.6890   21.4871 N   0  0  0  0  0  0  0  0  0  0  0  0
    0.4082    4.2617   20.7128 C   0  0  2  0  0  0  0  0  0  0  0  0
    0.8644    4.7268   19.3042 C   0  0  0  0  0  0  0  0  0  0  0  0
    3.1556    4.9778   20.1812 C   0  0  0  0  0  0  0  0  0  0  0  0
    2.0848    5.4072   19.2629 N   0  0  0  0  0  0  0  0  0  0  0  0
   -0.2371    5.3631   21.5339 C   0  0  1  0  0  0  0  0  0  0  0  0
   -1.2854    5.9350   20.8407 O   0  0  0  0  0  0  0  0  0  0  0  0
   -0.7115    4.8226   22.8497 C   0  0  1  0  0  0  0  0  0  0  0  0
    0.3283    4.4945   23.6293 O   0  0  0  0  0  0  0  0  0  0  0  0
   -1.5675    5.8632   23.6028 C   0  0  0  0  0  0  0  0  0  0  0  0
  1  2  2  0  0  0  0
  1 11  1  0  0  0  0
  2  3  1  0  0  0  0
  2  4  1  0  0  0  0
  4  5  1  0  0  0  0
  5  6  1  0  0  0  0
  5  7  2  0  0  0  0
  6  8  1  0  0  0  0
  6 11  2  0  0  0  0
  9  8  1  1  0  0  0
  9 10  1  0  0  0  0
  9 13  1  0  0  0  0
 10 12  1  0  0  0  0
 11 12  1  0  0  0  0
 13 14  1  6  0  0  0
 13 15  1  0  0  0  0
 15 16  1  1  0  0  0
 15 17  1  0  0  0  0
M  END
>  <CHROM.1>
-178.44184489,68.91278458,2.08786839,4.73178462,21.41865744,0.15085807,0.15119577
-1.23083434

>  <Name>
ligand

>  <RI>
0

>  <Rbt.Current_Directory>
/home/itssahil/PROJECTS/Mol_Feturizer/New_Systems/rnas/4LVX

>  <Rbt.Executable>
rbdock ($Id: //depot/dev/client3/rdock/2013.1/src/exe/rbdock.cxx#4 $)

>  <Rbt.Library>
libRbt.so (2013.1, Build901 2013/11/27)

>  <Rbt.Parameter_File>
/export/apps/rDock/src/rDock_2013.1_src/data/scripts/dock_solv.prm

>  <Rbt.Receptor>
prm/pocket_docking_8.prm

>  <SCORE>
-18.2345

>  <SCORE.INTER>
-11.7553

>  <SCORE.INTER.CONST>
1

>  <SCORE.INTER.POLAR>
0

>  <SCORE.INTER.ROT>
2

>  <SCORE.INTER.SOLV>
11.0073

>  <SCORE.INTER.VDW>
-16.4393

>  <SCORE.INTER.norm>
-0.691491

>  <SCORE.INTRA>
-6.47916

>  <SCORE.INTRA.DIHEDRAL>
-9.89361

>  <SCORE.INTRA.DIHEDRAL.0>
10.3255

>  <SCORE.INTRA.POLAR>
0

>  <SCORE.INTRA.POLAR.0>
0

>  <SCORE.INTRA.REPUL>
0

>  <SCORE.INTRA.REPUL.0>
0

>  <SCORE.INTRA.SOLV>
0.0368963

>  <SCORE.INTRA.SOLV.lig_0>
-53.4755

>  <SCORE.INTRA.VDW>
-1.55081

>  <SCORE.INTRA.VDW.0>
2.32763

>  <SCORE.INTRA.norm>
-0.381127

>  <SCORE.RESTR>
0

>  <SCORE.RESTR.CAVITY>
0

>  <SCORE.RESTR.norm>
0

>  <SCORE.SYSTEM>
0

>  <SCORE.SYSTEM.CONST>
0

>  <SCORE.SYSTEM.DIHEDRAL>
0

>  <SCORE.SYSTEM.SOLV>
0

>  <SCORE.SYSTEM.norm>
0

>  <SCORE.heavy>
17

>  <SCORE.norm>
-1.07262

>  <RMSD>
5.826

$$$$
ligand
 OpenBabel11021811503D
libRbt.so/2013.1/901 2013/11/27
 17 18  0  0  0  0  0  0  0  0999 V2000
    4.4452    5.3878   19.9470 N   0  0  0  0  0  0  0  0  0  0  0  0
    5.4444    4.9618   20.8314 C   0  0  0  0  0  0  0  0  0  0  0  0
    6.8004    5.3821   20.6270 N   0  0  0  0  0  0  0  0  0  0  0  0
    5.1534    4.1494   21.9060 N   0  0  0  0  0  0  0  0  0  0  0  0
    3.8639    3.7217   22.1450 C   0  0  0  0  0  0  0  0  0  0  0  0
    2.8047    4.1207   21.2709 C   0  0  0  0  0  0  0  0  0  0  0  0
    3.6265    3.0038   23.0977 O   0  0  0  0  0  0  0  0  0  0  0  0
    1.4276    3.6844   21.4878 N   0  0  0  0  0  0  0  0  0  0  0  0
    0.3810    4.2555   20.7178 C   0  0  2  0  0  0  0  0  0  0  0  0
    0.8291    4.7150   19.3048 C   0  0  0  0  0  0  0  0  0  0  0  0
    3.1258    4.9669   20.1670 C   0  0  0  0  0  0  0  0  0  0  0  0
    2.0499    5.3941   19.2537 N   0  0  0  0  0  0  0  0  0  0  0  0
   -0.2583    5.3604   21.5388 C   0  0  1  0  0  0  0  0  0  0  0  0
   -1.2881    5.9538   20.8362 O   0  0  0  0  0  0  0  0  0  0  0  0
   -0.7587    4.8173   22.8439 C   0  0  1  0  0  0  0  0  0  0  0  0
    0.2653    4.4624   23.6328 O   0  0  0  0  0  0  0  0  0  0  0  0
   -1.6038    5.8671   23.5962 C   0  0  0  0  0  0  0  0  0  0  0  0
  1  2  2  0  0  0  0
  1 11  1  0  0  0  0
  2  3  1  0  0  0  0
  2  4  1  0  0  0  0
  4  5  1  0  0  0  0
  5  6  1  0  0  0  0
  5  7  2  0  0  0  0
  6  8  1  0  0  0  0
  6 11  2  0  0  0  0
  9  8  1  1  0  0  0
  9 10  1  0  0  0  0
  9 13  1  0  0  0  0
 10 12  1  0  0  0  0
 11 12  1  0  0  0  0
 13 14  1  6  0  0  0
 13 15  1  0  0  0  0
 15 16  1  1  0  0  0
 15 17  1  0  0  0  0
M  END
>  <CHROM.1>
-179.97886650,68.68403751,2.05953103,4.72490777,21.40877581,0.15504635,0.15444539
-1.22694944

>  <Name>
ligand

>  <RI>
0

>  <Rbt.Current_Directory>
/home/itssahil/PROJECTS/Mol_Feturizer/New_Systems/rnas/4LVX

>  <Rbt.Executable>
rbdock ($Id: //depot/dev/client3/rdock/2013.1/src/exe/rbdock.cxx#4 $)

>  <Rbt.Library>
libRbt.so (2013.1, Build901 2013/11/27)

>  <Rbt.Parameter_File>
/export/apps/rDock/src/rDock_2013.1_src/data/scripts/dock_solv.prm

>  <Rbt.Receptor>
prm/pocket_docking_4.prm

>  <SCORE>
-18.2316

>  <SCORE.INTER>
-11.6935

>  <SCORE.INTER.CONST>
1

>  <SCORE.INTER.POLAR>
0

>  <SCORE.INTER.ROT>
2

>  <SCORE.INTER.SOLV>
11.2027

>  <SCORE.INTER.VDW>
-16.4632

>  <SCORE.INTER.norm>
-0.687852

>  <SCORE.INTRA>
-6.53807

>  <SCORE.INTRA.DIHEDRAL>
-9.91493

>  <SCORE.INTRA.DIHEDRAL.0>
10.3255

>  <SCORE.INTRA.POLAR>
0

>  <SCORE.INTRA.POLAR.0>
0

>  <SCORE.INTRA.REPUL>
0

>  <SCORE.INTRA.REPUL.0>
0

>  <SCORE.INTRA.SOLV>
0.01755

>  <SCORE.INTRA.SOLV.lig_0>
-53.4755

>  <SCORE.INTRA.VDW>
-1.58938

>  <SCORE.INTRA.VDW.0>
2.32763

>  <SCORE.INTRA.norm>
-0.384592

>  <SCORE.RESTR>
0

>  <SCORE.RESTR.CAVITY>
0

>  <SCORE.RESTR.norm>
0

>  <SCORE.SYSTEM>
0

>  <SCORE.SYSTEM.CONST>
0

>  <SCORE.SYSTEM.DIHEDRAL>
0

>  <SCORE.SYSTEM.SOLV>
0

>  <SCORE.SYSTEM.norm>
0

>  <SCORE.heavy>
17

>  <SCORE.norm>
-1.07244

>  <RMSD>
5.827

$$$$
ligand
 OpenBabel11021811503D
libRbt.so/2013.1/901 2013/11/27
 17 18  0  0  0  0  0  0  0  0999 V2000
    4.4905    5.3950   19.9853 N   0  0  0  0  0  0  0  0  0  0  0  0
    5.4816    4.9672   20.8779 C   0  0  0  0  0  0  0  0  0  0  0  0
    6.8393    5.3884   20.6869 N   0  0  0  0  0  0  0  0  0  0  0  0
    5.1810    4.1524   21.9480 N   0  0  0  0  0  0  0  0  0  0  0  0
    3.8895    3.7238   22.1742 C   0  0  0  0  0  0  0  0  0  0  0  0
    2.8382    4.1245   21.2913 C   0  0  0  0  0  0  0  0  0  0  0  0
    3.6436    3.0038   23.1231 O   0  0  0  0  0  0  0  0  0  0  0  0
    1.4593    3.6874   21.4946 N   0  0  0  0  0  0  0  0  0  0  0  0
    0.4197    4.2599   20.7164 C   0  0  2  0  0  0  0  0  0  0  0  0
    0.8806    4.7227   19.3085 C   0  0  0  0  0  0  0  0  0  0  0  0
    3.1693    4.9733   20.1923 C   0  0  0  0  0  0  0  0  0  0  0  0
    2.1016    5.4022   19.2701 N   0  0  0  0  0  0  0  0  0  0  0  0
   -0.2274    5.3628   21.5339 C   0  0  1  0  0  0  0  0  0  0  0  0
   -1.2736    5.9340   20.8370 O   0  0  0  0  0  0  0  0  0  0  0  0
   -0.7056    4.8246   22.8493 C   0  0  1  0  0  0  0  0  0  0  0  0
    0.3321    4.5052   23.6355 O   0  0  0  0  0  0  0  0  0  0  0  0
   -1.5711    5.8632   23.5940 C   0  0  0  0  0  0  0  0  0  0  0  0
  1  2  2  0  0  0  0
  1 11  1  0  0  0  0
  2  3  1  0  0  0  0
  2  4  1  0  0  0  0
  4  5  1  0  0  0  0
  5  6  1  0  0  0  0
  5  7  2  0  0  0  0
  6  8  1  0  0  0  0
  6 11  2  0  0  0  0
  9  8  1  1  0  0  0
  9 10  1  0  0  0  0
  9 13  1  0  0  0  0
 10 12  1  0  0  0  0
 11 12  1  0  0  0  0
 13 14  1  6  0  0  0
 13 15  1  0  0  0  0
 15 16  1  1  0  0  0
 15 17  1  0  0  0  0
M  END
>  <CHROM.1>
-178.40776935,69.30159103,2.09710509,4.73001271,21.42677538,0.14762851,0.15081722
-1.23214244

>  <Name>
ligand

>  <RI>
0

>  <Rbt.Current_Directory>
/home/itssahil/PROJECTS/Mol_Feturizer/New_Systems/rnas/4LVX

>  <Rbt.Executable>
rbdock ($Id: //depot/dev/client3/rdock/2013.1/src/exe/rbdock.cxx#4 $)

>  <Rbt.Library>
libRbt.so (2013.1, Build901 2013/11/27)

>  <Rbt.Parameter_File>
/export/apps/rDock/src/rDock_2013.1_src/data/scripts/dock_solv.prm

>  <Rbt.Receptor>
prm/pocket_docking_5.prm

>  <SCORE>
-18.2376

>  <SCORE.INTER>
-11.7721

>  <SCORE.INTER.CONST>
1

>  <SCORE.INTER.POLAR>
0

>  <SCORE.INTER.ROT>
2

>  <SCORE.INTER.SOLV>
10.9727

>  <SCORE.INTER.VDW>
-16.439

>  <SCORE.INTER.norm>
-0.692478

>  <SCORE.INTRA>
-6.46548

>  <SCORE.INTRA.DIHEDRAL>
-9.86875

>  <SCORE.INTRA.DIHEDRAL.0>
10.3255

>  <SCORE.INTRA.POLAR>
0

>  <SCORE.INTRA.POLAR.0>
0

>  <SCORE.INTRA.REPUL>
0

>  <SCORE.INTRA.REPUL.0>
0

>  <SCORE.INTRA.SOLV>
0.0327803

>  <SCORE.INTRA.SOLV.lig_0>
-53.4755

>  <SCORE.INTRA.VDW>
-1.5475

>  <SCORE.INTRA.VDW.0>
2.32763

>  <SCORE.INTRA.norm>
-0.380323

>  <SCORE.RESTR>
0

>  <SCORE.RESTR.CAVITY>
0

>  <SCORE.RESTR.norm>
0

>  <SCORE.SYSTEM>
0

>  <SCORE.SYSTEM.CONST>
0

>  <SCORE.SYSTEM.DIHEDRAL>
0

>  <SCORE.SYSTEM.SOLV>
0

>  <SCORE.SYSTEM.norm>
0

>  <SCORE.heavy>
17

>  <SCORE.norm>
-1.0728

>  <RMSD>
5.827

$$$$
ligand
 OpenBabel11021811503D
libRbt.so/2013.1/901 2013/11/27
 17 18  0  0  0  0  0  0  0  0999 V2000
    4.4488    5.3817   19.9359 N   0  0  0  0  0  0  0  0  0  0  0  0
    5.4482    4.9582   20.8212 C   0  0  0  0  0  0  0  0  0  0  0  0
    6.8052    5.3730   20.6117 N   0  0  0  0  0  0  0  0  0  0  0  0
    5.1567    4.1537   21.9016 N   0  0  0  0  0  0  0  0  0  0  0  0
    3.8663    3.7316   22.1456 C   0  0  0  0  0  0  0  0  0  0  0  0
    2.8067    4.1284   21.2709 C   0  0  0  0  0  0  0  0  0  0  0  0
    3.6284    3.0207   23.1034 O   0  0  0  0  0  0  0  0  0  0  0  0
    1.4287    3.6978   21.4932 N   0  0  0  0  0  0  0  0  0  0  0  0
    0.3825    4.2672   20.7214 C   0  0  2  0  0  0  0  0  0  0  0  0
    0.8294    4.7162   19.3046 C   0  0  0  0  0  0  0  0  0  0  0  0
    3.1285    4.9664   20.1611 C   0  0  0  0  0  0  0  0  0  0  0  0
    2.0522    5.3911   19.2469 N   0  0  0  0  0  0  0  0  0  0  0  0
   -0.2518    5.3794   21.5365 C   0  0  1  0  0  0  0  0  0  0  0  0
   -1.2908    5.9616   20.8379 O   0  0  0  0  0  0  0  0  0  0  0  0
   -0.7369    4.8496   22.8527 C   0  0  1  0  0  0  0  0  0  0  0  0
    0.2966    4.5333   23.6456 O   0  0  0  0  0  0  0  0  0  0  0  0
   -1.6045    5.8937   23.5873 C   0  0  0  0  0  0  0  0  0  0  0  0
  1  2  2  0  0  0  0
  1 11  1  0  0  0  0
  2  3  1  0  0  0  0
  2  4  1  0  0  0  0
  4  5  1  0  0  0  0
  5  6  1  0  0  0  0
  5  7  2  0  0  0  0
  6  8  1  0  0  0  0
  6 11  2  0  0  0  0
  9  8  1  1  0  0  0
  9 10  1  0  0  0  0
  9 13  1  0  0  0  0
 10 12  1  0  0  0  0
 11 12  1  0  0  0  0
 13 14  1  6  0  0  0
 13 15  1  0  0  0  0
 15 16  1  1  0  0  0
 15 17  1  0  0  0  0
M  END
>  <CHROM.1>
-179.30795361,69.98666686,2.06471094,4.73737479,21.40741250,0.15614279,0.15787162
-1.23793221

>  <Name>
ligand

>  <RI>
0

>  <Rbt.Current_Directory>
/home/itssahil/PROJECTS/Mol_Feturizer/New_Systems/rnas/4LVX

>  <Rbt.Executable>
rbdock ($Id: //depot/dev/client3/rdock/2013.1/src/exe/rbdock.cxx#4 $)

>  <Rbt.Library>
libRbt.so (2013.1, Build901 2013/11/27)

>  <Rbt.Parameter_File>
/export/apps/rDock/src/rDock_2013.1_src/data/scripts/dock_solv.prm

>  <Rbt.Receptor>
prm/pocket_docking_7.prm

>  <SCORE>
-18.215

>  <SCORE.INTER>
-11.7451

>  <SCORE.INTER.CONST>
1

>  <SCORE.INTER.POLAR>
0

>  <SCORE.INTER.ROT>
2

>  <SCORE.INTER.SOLV>
11.1182

>  <SCORE.INTER.VDW>
-16.4695

>  <SCORE.INTER.norm>
-0.690889

>  <SCORE.INTRA>
-6.46987

>  <SCORE.INTRA.DIHEDRAL>
-9.82972

>  <SCORE.INTRA.DIHEDRAL.0>
10.3255

>  <SCORE.INTRA.POLAR>
0

>  <SCORE.INTRA.POLAR.0>
0

>  <SCORE.INTRA.REPUL>
0

>  <SCORE.INTRA.REPUL.0>
0

>  <SCORE.INTRA.SOLV>
0.0118684

>  <SCORE.INTRA.SOLV.lig_0>
-53.4755

>  <SCORE.INTRA.VDW>
-1.56095

>  <SCORE.INTRA.VDW.0>
2.32763

>  <SCORE.INTRA.norm>
-0.380581

>  <SCORE.RESTR>
0

>  <SCORE.RESTR.CAVITY>
0

>  <SCORE.RESTR.norm>
0

>  <SCORE.SYSTEM>
0

>  <SCORE.SYSTEM.CONST>
0

>  <SCORE.SYSTEM.DIHEDRAL>
0

>  <SCORE.SYSTEM.SOLV>
0

>  <SCORE.SYSTEM.norm>
0

>  <SCORE.heavy>
17

>  <SCORE.norm>
-1.07147

>  <RMSD>
5.827

$$$$
ligand
 OpenBabel11021811503D
libRbt.so/2013.1/901 2013/11/27
 17 18  0  0  0  0  0  0  0  0999 V2000
    4.4944    5.3940   19.9859 N   0  0  0  0  0  0  0  0  0  0  0  0
    5.4859    4.9665   20.8782 C   0  0  0  0  0  0  0  0  0  0  0  0
    6.8435    5.3875   20.6865 N   0  0  0  0  0  0  0  0  0  0  0  0
    5.1857    4.1521   21.9487 N   0  0  0  0  0  0  0  0  0  0  0  0
    3.8943    3.7236   22.1756 C   0  0  0  0  0  0  0  0  0  0  0  0
    2.8426    4.1240   21.2930 C   0  0  0  0  0  0  0  0  0  0  0  0
    3.6487    3.0040   23.1249 O   0  0  0  0  0  0  0  0  0  0  0  0
    1.4638    3.6870   21.4970 N   0  0  0  0  0  0  0  0  0  0  0  0
    0.4238    4.2593   20.7190 C   0  0  2  0  0  0  0  0  0  0  0  0
    0.8842    4.7215   19.3108 C   0  0  0  0  0  0  0  0  0  0  0  0
    3.1733    4.9724   20.1936 C   0  0  0  0  0  0  0  0  0  0  0  0
    2.1052    5.4010   19.2716 N   0  0  0  0  0  0  0  0  0  0  0  0
   -0.2228    5.3626   21.5364 C   0  0  1  0  0  0  0  0  0  0  0  0
   -1.2682    5.9347   20.8390 O   0  0  0  0  0  0  0  0  0  0  0  0
   -0.7021    4.8244   22.8514 C   0  0  1  0  0  0  0  0  0  0  0  0
    0.3349    4.5027   23.6376 O   0  0  0  0  0  0  0  0  0  0  0  0
   -1.5659    5.8641   23.5967 C   0  0  0  0  0  0  0  0  0  0  0  0
  1  2  2  0  0  0  0
  1 11  1  0  0  0  0
  2  3  1  0  0  0  0
  2  4  1  0  0  0  0
  4  5  1  0  0  0  0
  5  6  1  0  0  0  0
  5  7  2  0  0  0  0
  6  8  1  0  0  0  0
  6 11  2  0  0  0  0
  9  8  1  1  0  0  0
  9 10  1  0  0  0  0
  9 13  1  0  0  0  0
 10 12  1  0  0  0  0
 11 12  1  0  0  0  0
 13 14  1  6  0  0  0
 13 15  1  0  0  0  0
 15 16  1  1  0  0  0
 15 17  1  0  0  0  0
M  END
>  <CHROM.1>
-178.48421357,69.23397155,2.10138979,4.72949497,21.42841895,0.14796310,0.15100965
-1.23212266

>  <Name>
ligand

>  <RI>
0

>  <Rbt.Current_Directory>
/home/itssahil/PROJECTS/Mol_Feturizer/New_Systems/rnas/4LVX

>  <Rbt.Executable>
rbdock ($Id: //depot/dev/client3/rdock/2013.1/src/exe/rbdock.cxx#4 $)

>  <Rbt.Library>
libRbt.so (2013.1, Build901 2013/11/27)

>  <Rbt.Parameter_File>
/export/apps/rDock/src/rDock_2013.1_src/data/scripts/dock_solv.prm

>  <Rbt.Receptor>
prm/pocket_docking_6.prm

>  <SCORE>
-18.2398

>  <SCORE.INTER>
-11.7692

>  <SCORE.INTER.CONST>
1

>  <SCORE.INTER.POLAR>
0

>  <SCORE.INTER.ROT>
2

>  <SCORE.INTER.SOLV>
10.9603

>  <SCORE.INTER.VDW>
-16.4329

>  <SCORE.INTER.norm>
-0.692308

>  <SCORE.INTRA>
-6.47056

>  <SCORE.INTRA.DIHEDRAL>
-9.87386

>  <SCORE.INTRA.DIHEDRAL.0>
10.3255

>  <SCORE.INTRA.POLAR>
0

>  <SCORE.INTRA.POLAR.0>
0

>  <SCORE.INTRA.REPUL>
0

>  <SCORE.INTRA.REPUL.0>
0

>  <SCORE.INTRA.SOLV>
0.0324985

>  <SCORE.INTRA.SOLV.lig_0>
-53.4755

>  <SCORE.INTRA.VDW>
-1.54988

>  <SCORE.INTRA.VDW.0>
2.32763

>  <SCORE.INTRA.norm>
-0.380621

>  <SCORE.RESTR>
0

>  <SCORE.RESTR.CAVITY>
0

>  <SCORE.RESTR.norm>
0

>  <SCORE.SYSTEM>
0

>  <SCORE.SYSTEM.CONST>
0

>  <SCORE.SYSTEM.DIHEDRAL>
0

>  <SCORE.SYSTEM.SOLV>
0

>  <SCORE.SYSTEM.norm>
0

>  <SCORE.heavy>
17

>  <SCORE.norm>
-1.07293

>  <RMSD>
5.828

$$$$
ligand
 OpenBabel11021811503D
libRbt.so/2013.1/901 2013/11/27
 17 18  0  0  0  0  0  0  0  0999 V2000
    4.4475    5.3869   19.9384 N   0  0  0  0  0  0  0  0  0  0  0  0
    5.4497    4.9616   20.8198 C   0  0  0  0  0  0  0  0  0  0  0  0
    6.8049    5.3820   20.6106 N   0  0  0  0  0  0  0  0  0  0  0  0
    5.1624    4.1501   21.8960 N   0  0  0  0  0  0  0  0  0  0  0  0
    3.8737    3.7224   22.1396 C   0  0  0  0  0  0  0  0  0  0  0  0
    2.8115    4.1206   21.2687 C   0  0  0  0  0  0  0  0  0  0  0  0
    3.6396    3.0053   23.0937 O   0  0  0  0  0  0  0  0  0  0  0  0
    1.4352    3.6843   21.4905 N   0  0  0  0  0  0  0  0  0  0  0  0
    0.3860    4.2546   20.7236 C   0  0  2  0  0  0  0  0  0  0  0  0
    0.8294    4.7130   19.3087 C   0  0  0  0  0  0  0  0  0  0  0  0
    3.1289    4.9659   20.1631 C   0  0  0  0  0  0  0  0  0  0  0  0
    2.0499    5.3922   19.2530 N   0  0  0  0  0  0  0  0  0  0  0  0
   -0.2507    5.3601   21.5458 C   0  0  1  0  0  0  0  0  0  0  0  0
   -1.2990    5.9361   20.8561 O   0  0  0  0  0  0  0  0  0  0  0  0
   -0.7223    4.8236   22.8642 C   0  0  1  0  0  0  0  0  0  0  0  0
    0.3192    4.4996   23.6434 O   0  0  0  0  0  0  0  0  0  0  0  0
   -1.5786    5.8655   23.6150 C   0  0  0  0  0  0  0  0  0  0  0  0
  1  2  2  0  0  0  0
  1 11  1  0  0  0  0
  2  3  1  0  0  0  0
  2  4  1  0  0  0  0
  4  5  1  0  0  0  0
  5  6  1  0  0  0  0
  5  7  2  0  0  0  0
  6  8  1  0  0  0  0
  6 11  2  0  0  0  0
  9  8  1  1  0  0  0
  9 10  1  0  0  0  0
  9 13  1  0  0  0  0
 10 12  1  0  0  0  0
 11 12  1  0  0  0  0
 13 14  1  6  0  0  0
 13 15  1  0  0  0  0
 15 16  1  1  0  0  0
 15 17  1  0  0  0  0
M  END
>  <CHROM.1>
-178.86000191,69.31737692,2.07041589,4.72622646,21.41070458,0.15913531,0.15517640
-1.23460556

>  <Name>
ligand

>  <RI>
0

>  <Rbt.Current_Directory>
/home/itssahil/PROJECTS/Mol_Feturizer/New_Systems/rnas/4LVX

>  <Rbt.Executable>
rbdock ($Id: //depot/dev/client3/rdock/2013.1/src/exe/rbdock.cxx#4 $)

>  <Rbt.Library>
libRbt.so (2013.1, Build901 2013/11/27)

>  <Rbt.Parameter_File>
/export/apps/rDock/src/rDock_2013.1_src/data/scripts/dock_solv.prm

>  <Rbt.Receptor>
prm/pocket_docking_7.prm

>  <SCORE>
-18.239

>  <SCORE.INTER>
-11.7579

>  <SCORE.INTER.CONST>
1

>  <SCORE.INTER.POLAR>
0

>  <SCORE.INTER.ROT>
2

>  <SCORE.INTER.SOLV>
11.1553

>  <SCORE.INTER.VDW>
-16.4904

>  <SCORE.INTER.norm>
-0.691641

>  <SCORE.INTRA>
-6.48109

>  <SCORE.INTRA.DIHEDRAL>
-9.87173

>  <SCORE.INTRA.DIHEDRAL.0>
10.3255

>  <SCORE.INTRA.POLAR>
0

>  <SCORE.INTRA.POLAR.0>
0

>  <SCORE.INTRA.REPUL>
0

>  <SCORE.INTRA.REPUL.0>
0

>  <SCORE.INTRA.SOLV>
0.026174

>  <SCORE.INTRA.SOLV.lig_0>
-53.4755

>  <SCORE.INTRA.VDW>
-1.55831

>  <SCORE.INTRA.VDW.0>
2.32763

>  <SCORE.INTRA.norm>
-0.381241

>  <SCORE.RESTR>
0

>  <SCORE.RESTR.CAVITY>
0

>  <SCORE.RESTR.norm>
0

>  <SCORE.SYSTEM>
0

>  <SCORE.SYSTEM.CONST>
0

>  <SCORE.SYSTEM.DIHEDRAL>
0

>  <SCORE.SYSTEM.SOLV>
0

>  <SCORE.SYSTEM.norm>
0

>  <SCORE.heavy>
17

>  <SCORE.norm>
-1.07288

>  <RMSD>
5.828

$$$$
ligand
 OpenBabel11021811503D
libRbt.so/2013.1/901 2013/11/27
 17 18  0  0  0  0  0  0  0  0999 V2000
    4.4935    5.3943   19.9810 N   0  0  0  0  0  0  0  0  0  0  0  0
    5.4862    4.9686   20.8728 C   0  0  0  0  0  0  0  0  0  0  0  0
    6.8433    5.3904   20.6793 N   0  0  0  0  0  0  0  0  0  0  0  0
    5.1877    4.1554   21.9447 N   0  0  0  0  0  0  0  0  0  0  0  0
    3.8967    3.7263   22.1733 C   0  0  0  0  0  0  0  0  0  0  0  0
    2.8439    4.1249   21.2913 C   0  0  0  0  0  0  0  0  0  0  0  0
    3.6526    3.0076   23.1238 O   0  0  0  0  0  0  0  0  0  0  0  0
    1.4656    3.6872   21.4973 N   0  0  0  0  0  0  0  0  0  0  0  0
    0.4245    4.2577   20.7195 C   0  0  2  0  0  0  0  0  0  0  0  0
    0.8831    4.7186   19.3103 C   0  0  0  0  0  0  0  0  0  0  0  0
    3.1729    4.9721   20.1905 C   0  0  0  0  0  0  0  0  0  0  0  0
    2.1036    5.3988   19.2691 N   0  0  0  0  0  0  0  0  0  0  0  0
   -0.2222    5.3616   21.5362 C   0  0  1  0  0  0  0  0  0  0  0  0
   -1.2661    5.9347   20.8376 O   0  0  0  0  0  0  0  0  0  0  0  0
   -0.7037    4.8238   22.8506 C   0  0  1  0  0  0  0  0  0  0  0  0
    0.3320    4.5049   23.6396 O   0  0  0  0  0  0  0  0  0  0  0  0
   -1.5714    5.8625   23.5926 C   0  0  0  0  0  0  0  0  0  0  0  0
  1  2  2  0  0  0  0
  1 11  1  0  0  0  0
  2  3  1  0  0  0  0
  2  4  1  0  0  0  0
  4  5  1  0  0  0  0
  5  6  1  0  0  0  0
  5  7  2  0  0  0  0
  6  8  1  0  0  0  0
  6 11  2  0  0  0  0
  9  8  1  1  0  0  0
  9 10  1  0  0  0  0
  9 13  1  0  0  0  0
 10 12  1  0  0  0  0
 11 12  1  0  0  0  0
 13 14  1  6  0  0  0
 13 15  1  0  0  0  0
 15 16  1  1  0  0  0
 15 17  1  0  0  0  0
M  END
>  <CHROM.1>
-178.66215851,69.42969436,2.10142331,4.72997266,21.42632393,0.14897274,0.15071328
-1.23272374

>  <Name>
ligand

>  <RI>
0

>  <Rbt.Current_Directory>
/home/itssahil/PROJECTS/Mol_Feturizer/New_Systems/rnas/4LVX

>  <Rbt.Executable>
rbdock ($Id: //depot/dev/client3/rdock/2013.1/src/exe/rbdock.cxx#4 $)

>  <Rbt.Library>
libRbt.so (2013.1, Build901 2013/11/27)

>  <Rbt.Parameter_File>
/export/apps/rDock/src/rDock_2013.1_src/data/scripts/dock_solv.prm

>  <Rbt.Receptor>
prm/pocket_docking_5.prm

>  <SCORE>
-18.2383

>  <SCORE.INTER>
-11.768

>  <SCORE.INTER.CONST>
1

>  <SCORE.INTER.POLAR>
0

>  <SCORE.INTER.ROT>
2

>  <SCORE.INTER.SOLV>
10.9674

>  <SCORE.INTER.VDW>
-16.4345

>  <SCORE.INTER.norm>
-0.692236

>  <SCORE.INTRA>
-6.47027

>  <SCORE.INTRA.DIHEDRAL>
-9.86289

>  <SCORE.INTRA.DIHEDRAL.0>
10.3255

>  <SCORE.INTRA.POLAR>
0

>  <SCORE.INTRA.POLAR.0>
0

>  <SCORE.INTRA.REPUL>
0

>  <SCORE.INTRA.REPUL.0>
0

>  <SCORE.INTRA.SOLV>
0.0276556

>  <SCORE.INTRA.SOLV.lig_0>
-53.4755

>  <SCORE.INTRA.VDW>
-1.55265

>  <SCORE.INTRA.VDW.0>
2.32763

>  <SCORE.INTRA.norm>
-0.380604

>  <SCORE.RESTR>
0

>  <SCORE.RESTR.CAVITY>
0

>  <SCORE.RESTR.norm>
0

>  <SCORE.SYSTEM>
0

>  <SCORE.SYSTEM.CONST>
0

>  <SCORE.SYSTEM.DIHEDRAL>
0

>  <SCORE.SYSTEM.SOLV>
0

>  <SCORE.SYSTEM.norm>
0

>  <SCORE.heavy>
17

>  <SCORE.norm>
-1.07284

>  <RMSD>
5.830

$$$$
ligand
 OpenBabel11021811503D
libRbt.so/2013.1/901 2013/11/27
 17 18  0  0  0  0  0  0  0  0999 V2000
    1.3446    6.6847   18.1433 N   0  0  0  0  0  0  0  0  0  0  0  0
    1.8214    5.4222   17.7681 C   0  0  0  0  0  0  0  0  0  0  0  0
    2.6129    5.2861   16.5797 N   0  0  0  0  0  0  0  0  0  0  0  0
    1.5541    4.3003   18.5226 N   0  0  0  0  0  0  0  0  0  0  0  0
    0.7997    4.3818   19.6747 C   0  0  0  0  0  0  0  0  0  0  0  0
    0.2818    5.6444   20.1024 C   0  0  0  0  0  0  0  0  0  0  0  0
    0.5729    3.3805   20.3269 O   0  0  0  0  0  0  0  0  0  0  0  0
   -0.5251    5.7704   21.3135 N   0  0  0  0  0  0  0  0  0  0  0  0
   -0.8543    7.0599   21.8064 C   0  0  2  0  0  0  0  0  0  0  0  0
   -0.9565    8.1411   20.6977 C   0  0  0  0  0  0  0  0  0  0  0  0
    0.5749    6.7951   19.3102 C   0  0  0  0  0  0  0  0  0  0  0  0
    0.0543    8.1085   19.7327 N   0  0  0  0  0  0  0  0  0  0  0  0
    0.1336    7.4105   22.9040 C   0  0  1  0  0  0  0  0  0  0  0  0
    0.0236    8.7429   23.2491 O   0  0  0  0  0  0  0  0  0  0  0  0
   -0.0885    6.5382   24.1033 C   0  0  1  0  0  0  0  0  0  0  0  0
    0.8514    6.7626   25.0325 O   0  0  0  0  0  0  0  0  0  0  0  0
   -1.4682    6.8085   24.7402 C   0  0  0  0  0  0  0  0  0  0  0  0
  1  2  2  0  0  0  0
  1 11  1  0  0  0  0
  2  3  1  0  0  0  0
  2  4  1  0  0  0  0
  4  5  1  0  0  0  0
  5  6  1  0  0  0  0
  5  7  2  0  0  0  0
  6  8  1  0  0  0  0
  6 11  2  0  0  0  0
  9  8  1  6  0  0  0
  9 10  1  0  0  0  0
  9 13  1  0  0  0  0
 10 12  1  0  0  0  0
 11 12  1  0  0  0  0
 13 14  1  1  0  0  0
 13 15  1  0  0  0  0
 15 16  1  1  0  0  0
 15 17  1  0  0  0  0
M  END
>  <CHROM.1>
168.80068928,174.72298836,0.38223890,6.32681149,20.92150672,0.34846576,1.25652806
-0.70025038

>  <Name>
ligand

>  <RI>
0

>  <Rbt.Current_Directory>
/home/itssahil/PROJECTS/Mol_Feturizer/New_Systems/rnas/4LVX

>  <Rbt.Executable>
rbdock ($Id: //depot/dev/client3/rdock/2013.1/src/exe/rbdock.cxx#4 $)

>  <Rbt.Library>
libRbt.so (2013.1, Build901 2013/11/27)

>  <Rbt.Parameter_File>
/export/apps/rDock/src/rDock_2013.1_src/data/scripts/dock_solv.prm

>  <Rbt.Receptor>
prm/pocket_docking_7.prm

>  <SCORE>
-15.0732

>  <SCORE.INTER>
-8.78811

>  <SCORE.INTER.CONST>
1

>  <SCORE.INTER.POLAR>
0

>  <SCORE.INTER.ROT>
2

>  <SCORE.INTER.SOLV>
13.1367

>  <SCORE.INTER.VDW>
-15.171

>  <SCORE.INTER.norm>
-0.516947

>  <SCORE.INTRA>
-6.30036

>  <SCORE.INTRA.DIHEDRAL>
-9.62689

>  <SCORE.INTRA.DIHEDRAL.0>
10.3255

>  <SCORE.INTRA.POLAR>
0

>  <SCORE.INTRA.POLAR.0>
0

>  <SCORE.INTRA.REPUL>
0

>  <SCORE.INTRA.REPUL.0>
0

>  <SCORE.INTRA.SOLV>
-0.579136

>  <SCORE.INTRA.SOLV.lig_0>
-53.4755

>  <SCORE.INTRA.VDW>
-1.19735

>  <SCORE.INTRA.VDW.0>
2.32763

>  <SCORE.INTRA.norm>
-0.37061

>  <SCORE.RESTR>
0.0152984

>  <SCORE.RESTR.CAVITY>
0.0152984

>  <SCORE.RESTR.norm>
0.000899907

>  <SCORE.SYSTEM>
0

>  <SCORE.SYSTEM.CONST>
0

>  <SCORE.SYSTEM.DIHEDRAL>
0

>  <SCORE.SYSTEM.SOLV>
0

>  <SCORE.SYSTEM.norm>
0

>  <SCORE.heavy>
17

>  <SCORE.norm>
-0.886657

>  <RMSD>
5.830

$$$$
ligand
 OpenBabel11021811503D
libRbt.so/2013.1/901 2013/11/27
 17 18  0  0  0  0  0  0  0  0999 V2000
    0.6139    4.9592   17.7091 N   0  0  0  0  0  0  0  0  0  0  0  0
    0.5485    5.9037   16.6768 C   0  0  0  0  0  0  0  0  0  0  0  0
    0.4892    5.4629   15.3132 N   0  0  0  0  0  0  0  0  0  0  0  0
    0.5310    7.2562   16.9411 N   0  0  0  0  0  0  0  0  0  0  0  0
    0.5835    7.7280   18.2364 C   0  0  0  0  0  0  0  0  0  0  0  0
    0.6575    6.8089   19.3296 C   0  0  0  0  0  0  0  0  0  0  0  0
    0.5685    8.9253   18.4501 O   0  0  0  0  0  0  0  0  0  0  0  0
    0.7197    7.2698   20.7144 N   0  0  0  0  0  0  0  0  0  0  0  0
    0.5963    6.3318   21.7723 C   0  0  2  0  0  0  0  0  0  0  0  0
    1.1135    4.9143   21.4091 C   0  0  0  0  0  0  0  0  0  0  0  0
    0.6686    5.4122   19.0350 C   0  0  0  0  0  0  0  0  0  0  0  0
    0.7414    4.4453   20.1459 N   0  0  0  0  0  0  0  0  0  0  0  0
   -0.8448    6.3463   22.2484 C   0  0  1  0  0  0  0  0  0  0  0  0
   -1.6608    5.6927   21.3465 O   0  0  0  0  0  0  0  0  0  0  0  0
   -0.9520    5.7161   23.6048 C   0  0  1  0  0  0  0  0  0  0  0  0
    0.0340    6.1449   24.4053 O   0  0  0  0  0  0  0  0  0  0  0  0
   -2.2992    6.0617   24.2742 C   0  0  0  0  0  0  0  0  0  0  0  0
  1  2  2  0  0  0  0
  1 11  1  0  0  0  0
  2  3  1  0  0  0  0
  2  4  1  0  0  0  0
  4  5  1  0  0  0  0
  5  6  1  0  0  0  0
  5  7  2  0  0  0  0
  6  8  1  0  0  0  0
  6 11  2  0  0  0  0
  9  8  1  6  0  0  0
  9 10  1  0  0  0  0
  9 13  1  0  0  0  0
 10 12  1  0  0  0  0
 11 12  1  0  0  0  0
 13 14  1  6  0  0  0
 13 15  1  0  0  0  0
 15 16  1  1  0  0  0
 15 17  1  0  0  0  0
M  END
>  <CHROM.1>
74.90737427,44.02070328,0.09124366,6.20835359,20.17619004,-0.13587488,-1.34541275
3.07350558

>  <Name>
ligand

>  <RI>
0

>  <Rbt.Current_Directory>
/home/itssahil/PROJECTS/Mol_Feturizer/New_Systems/rnas/4LVX

>  <Rbt.Executable>
rbdock ($Id: //depot/dev/client3/rdock/2013.1/src/exe/rbdock.cxx#4 $)

>  <Rbt.Library>
libRbt.so (2013.1, Build901 2013/11/27)

>  <Rbt.Parameter_File>
/export/apps/rDock/src/rDock_2013.1_src/data/scripts/dock_solv.prm

>  <Rbt.Receptor>
prm/pocket_docking_6.prm

>  <SCORE>
-15.796

>  <SCORE.INTER>
-9.23029

>  <SCORE.INTER.CONST>
1

>  <SCORE.INTER.POLAR>
0

>  <SCORE.INTER.ROT>
2

>  <SCORE.INTER.SOLV>
10.1345

>  <SCORE.INTER.VDW>
-14.465

>  <SCORE.INTER.norm>
-0.542958

>  <SCORE.INTRA>
-6.56574

>  <SCORE.INTRA.DIHEDRAL>
-8.53182

>  <SCORE.INTRA.DIHEDRAL.0>
10.3255

>  <SCORE.INTRA.POLAR>
0

>  <SCORE.INTRA.POLAR.0>
0

>  <SCORE.INTRA.REPUL>
0

>  <SCORE.INTRA.REPUL.0>
0

>  <SCORE.INTRA.SOLV>
-0.126539

>  <SCORE.INTRA.SOLV.lig_0>
-53.4755

>  <SCORE.INTRA.VDW>
-2.23656

>  <SCORE.INTRA.VDW.0>
2.32763

>  <SCORE.INTRA.norm>
-0.38622

>  <SCORE.RESTR>
0

>  <SCORE.RESTR.CAVITY>
0

>  <SCORE.RESTR.norm>
0

>  <SCORE.SYSTEM>
0

>  <SCORE.SYSTEM.CONST>
0

>  <SCORE.SYSTEM.DIHEDRAL>
0

>  <SCORE.SYSTEM.SOLV>
0

>  <SCORE.SYSTEM.norm>
0

>  <SCORE.heavy>
17

>  <SCORE.norm>
-0.929178

>  <RMSD>
5.839

$$$$
ligand
 OpenBabel11021811503D
libRbt.so/2013.1/901 2013/11/27
 17 18  0  0  0  0  0  0  0  0999 V2000
    1.2563    6.7328   18.0653 N   0  0  0  0  0  0  0  0  0  0  0  0
    1.7684    5.4826   17.6954 C   0  0  0  0  0  0  0  0  0  0  0  0
    2.5439    5.3594   16.4952 N   0  0  0  0  0  0  0  0  0  0  0  0
    1.5512    4.3610   18.4664 N   0  0  0  0  0  0  0  0  0  0  0  0
    0.8141    4.4306   19.6303 C   0  0  0  0  0  0  0  0  0  0  0  0
    0.2617    5.6801   20.0533 C   0  0  0  0  0  0  0  0  0  0  0  0
    0.6317    3.4297   20.2970 O   0  0  0  0  0  0  0  0  0  0  0  0
   -0.5285    5.7929   21.2767 N   0  0  0  0  0  0  0  0  0  0  0  0
   -0.8920    7.0763   21.7614 C   0  0  2  0  0  0  0  0  0  0  0  0
   -1.0487    8.1410   20.6431 C   0  0  0  0  0  0  0  0  0  0  0  0
    0.5030    6.8309   19.2440 C   0  0  0  0  0  0  0  0  0  0  0  0
   -0.0538    8.1310   19.6613 N   0  0  0  0  0  0  0  0  0  0  0  0
    0.1020    7.4717   22.8380 C   0  0  1  0  0  0  0  0  0  0  0  0
   -0.0366    8.8071   23.1603 O   0  0  0  0  0  0  0  0  0  0  0  0
   -0.0814    6.6167   24.0562 C   0  0  1  0  0  0  0  0  0  0  0  0
    0.8711    6.8747   24.9635 O   0  0  0  0  0  0  0  0  0  0  0  0
   -1.4540    6.8724   24.7141 C   0  0  0  0  0  0  0  0  0  0  0  0
  1  2  2  0  0  0  0
  1 11  1  0  0  0  0
  2  3  1  0  0  0  0
  2  4  1  0  0  0  0
  4  5  1  0  0  0  0
  5  6  1  0  0  0  0
  5  7  2  0  0  0  0
  6  8  1  0  0  0  0
  6 11  2  0  0  0  0
  9  8  1  6  0  0  0
  9 10  1  0  0  0  0
  9 13  1  0  0  0  0
 10 12  1  0  0  0  0
 11 12  1  0  0  0  0
 13 14  1  1  0  0  0
 13 15  1  0  0  0  0
 15 16  1  1  0  0  0
 15 17  1  0  0  0  0
M  END
>  <CHROM.1>
168.14430981,174.28056592,0.35246579,6.37784045,20.86346157,0.45971431,1.24614411
-0.81818265

>  <Name>
ligand

>  <RI>
0

>  <Rbt.Current_Directory>
/home/itssahil/PROJECTS/Mol_Feturizer/New_Systems/rnas/4LVX

>  <Rbt.Executable>
rbdock ($Id: //depot/dev/client3/rdock/2013.1/src/exe/rbdock.cxx#4 $)

>  <Rbt.Library>
libRbt.so (2013.1, Build901 2013/11/27)

>  <Rbt.Parameter_File>
/export/apps/rDock/src/rDock_2013.1_src/data/scripts/dock_solv.prm

>  <Rbt.Receptor>
prm/pocket_docking_8.prm

>  <SCORE>
-14.9567

>  <SCORE.INTER>
-8.69013

>  <SCORE.INTER.CONST>
1

>  <SCORE.INTER.POLAR>
0

>  <SCORE.INTER.ROT>
2

>  <SCORE.INTER.SOLV>
12.9059

>  <SCORE.INTER.VDW>
-15.0287

>  <SCORE.INTER.norm>
-0.511184

>  <SCORE.INTRA>
-6.26662

>  <SCORE.INTRA.DIHEDRAL>
-9.55811

>  <SCORE.INTRA.DIHEDRAL.0>
10.3255

>  <SCORE.INTRA.POLAR>
0

>  <SCORE.INTRA.POLAR.0>
0

>  <SCORE.INTRA.REPUL>
0

>  <SCORE.INTRA.REPUL.0>
0

>  <SCORE.INTRA.SOLV>
-0.58413

>  <SCORE.INTRA.SOLV.lig_0>
-53.4755

>  <SCORE.INTRA.VDW>
-1.19549

>  <SCORE.INTRA.VDW.0>
2.32763

>  <SCORE.INTRA.norm>
-0.368624

>  <SCORE.RESTR>
0

>  <SCORE.RESTR.CAVITY>
0

>  <SCORE.RESTR.norm>
0

>  <SCORE.SYSTEM>
0

>  <SCORE.SYSTEM.CONST>
0

>  <SCORE.SYSTEM.DIHEDRAL>
0

>  <SCORE.SYSTEM.SOLV>
0

>  <SCORE.SYSTEM.norm>
0

>  <SCORE.heavy>
17

>  <SCORE.norm>
-0.879809

>  <RMSD>
5.843

$$$$
ligand
 OpenBabel11021811503D
libRbt.so/2013.1/901 2013/11/27
 17 18  0  0  0  0  0  0  0  0999 V2000
    0.7446    4.9098   17.9832 N   0  0  0  0  0  0  0  0  0  0  0  0
    1.9124    5.1884   17.2617 C   0  0  0  0  0  0  0  0  0  0  0  0
    1.8396    5.3939   15.8440 N   0  0  0  0  0  0  0  0  0  0  0  0
    3.1377    5.2791   17.8859 N   0  0  0  0  0  0  0  0  0  0  0  0
    3.2572    5.0920   19.2474 C   0  0  0  0  0  0  0  0  0  0  0  0
    2.0989    4.7987   20.0333 C   0  0  0  0  0  0  0  0  0  0  0  0
    4.3473    5.1745   19.7806 O   0  0  0  0  0  0  0  0  0  0  0  0
    2.1857    4.5891   21.4763 N   0  0  0  0  0  0  0  0  0  0  0  0
    0.9961    4.4940   22.2444 C   0  0  2  0  0  0  0  0  0  0  0  0
   -0.2090    3.9178   21.4542 C   0  0  0  0  0  0  0  0  0  0  0  0
    0.8384    4.7148   19.3686 C   0  0  0  0  0  0  0  0  0  0  0  0
   -0.3706    4.4165   20.1584 N   0  0  0  0  0  0  0  0  0  0  0  0
    0.7221    5.8550   22.8579 C   0  0  1  0  0  0  0  0  0  0  0  0
    0.2627    6.7362   21.8994 O   0  0  0  0  0  0  0  0  0  0  0  0
   -0.2697    5.7326   23.9760 C   0  0  1  0  0  0  0  0  0  0  0  0
   -0.1768    6.7795   24.8079 O   0  0  0  0  0  0  0  0  0  0  0  0
   -1.7141    5.6753   23.4348 C   0  0  0  0  0  0  0  0  0  0  0  0
  1  2  2  0  0  0  0
  1 11  1  0  0  0  0
  2  3  1  0  0  0  0
  2  4  1  0  0  0  0
  4  5  1  0  0  0  0
  5  6  1  0  0  0  0
  5  7  2  0  0  0  0
  6  8  1  0  0  0  0
  6 11  2  0  0  0  0
  9  8  1  6  0  0  0
  9 10  1  0  0  0  0
  9 13  1  0  0  0  0
 10 12  1  0  0  0  0
 11 12  1  0  0  0  0
 13 14  1  6  0  0  0
 13 15  1  0  0  0  0
 15 16  1  1  0  0  0
 15 17  1  0  0  0  0
M  END
>  <CHROM.1>
73.77541142,158.45416307,1.12736444,5.25558382,20.64794664,1.13180927,-0.05386862
-1.72636056

>  <Name>
ligand

>  <RI>
0

>  <Rbt.Current_Directory>
/home/itssahil/PROJECTS/Mol_Feturizer/New_Systems/rnas/4LVX

>  <Rbt.Executable>
rbdock ($Id: //depot/dev/client3/rdock/2013.1/src/exe/rbdock.cxx#4 $)

>  <Rbt.Library>
libRbt.so (2013.1, Build901 2013/11/27)

>  <Rbt.Parameter_File>
/export/apps/rDock/src/rDock_2013.1_src/data/scripts/dock_solv.prm

>  <Rbt.Receptor>
prm/pocket_docking_7.prm

>  <SCORE>
-15.5352

>  <SCORE.INTER>
-11.4899

>  <SCORE.INTER.CONST>
1

>  <SCORE.INTER.POLAR>
0

>  <SCORE.INTER.ROT>
2

>  <SCORE.INTER.SOLV>
10.2928

>  <SCORE.INTER.VDW>
-16.0242

>  <SCORE.INTER.norm>
-0.675876

>  <SCORE.INTRA>
-4.04535

>  <SCORE.INTRA.DIHEDRAL>
-7.98115

>  <SCORE.INTRA.DIHEDRAL.0>
10.3255

>  <SCORE.INTRA.POLAR>
0

>  <SCORE.INTRA.POLAR.0>
0

>  <SCORE.INTRA.REPUL>
0

>  <SCORE.INTRA.REPUL.0>
0

>  <SCORE.INTRA.SOLV>
0.150753

>  <SCORE.INTRA.SOLV.lig_0>
-53.4755

>  <SCORE.INTRA.VDW>
-0.130157

>  <SCORE.INTRA.VDW.0>
2.32763

>  <SCORE.INTRA.norm>
-0.237962

>  <SCORE.RESTR>
0

>  <SCORE.RESTR.CAVITY>
0

>  <SCORE.RESTR.norm>
0

>  <SCORE.SYSTEM>
0

>  <SCORE.SYSTEM.CONST>
0

>  <SCORE.SYSTEM.DIHEDRAL>
0

>  <SCORE.SYSTEM.SOLV>
0

>  <SCORE.SYSTEM.norm>
0

>  <SCORE.heavy>
17

>  <SCORE.norm>
-0.913838

>  <RMSD>
5.857

$$$$
ligand
 OpenBabel11021811503D
libRbt.so/2013.1/901 2013/11/27
 17 18  0  0  0  0  0  0  0  0999 V2000
    0.8972    4.8693   17.8490 N   0  0  0  0  0  0  0  0  0  0  0  0
    0.8803    5.7572   16.7658 C   0  0  0  0  0  0  0  0  0  0  0  0
    1.0596    5.2563   15.4338 N   0  0  0  0  0  0  0  0  0  0  0  0
    0.6859    7.1093   16.9486 N   0  0  0  0  0  0  0  0  0  0  0  0
    0.5063    7.6373   18.2103 C   0  0  0  0  0  0  0  0  0  0  0  0
    0.5204    6.7782   19.3536 C   0  0  0  0  0  0  0  0  0  0  0  0
    0.3375    8.8334   18.3522 O   0  0  0  0  0  0  0  0  0  0  0  0
    0.3390    7.3001   20.7058 N   0  0  0  0  0  0  0  0  0  0  0  0
    0.1656    6.3990   21.7884 C   0  0  2  0  0  0  0  0  0  0  0  0
    0.8727    5.0334   21.5791 C   0  0  0  0  0  0  0  0  0  0  0  0
    0.7174    5.3802   19.1424 C   0  0  0  0  0  0  0  0  0  0  0  0
    0.7328    4.4741   20.3057 N   0  0  0  0  0  0  0  0  0  0  0  0
   -1.3219    6.2742   22.0632 C   0  0  1  0  0  0  0  0  0  0  0  0
   -1.9096    5.4026   21.1681 O   0  0  0  0  0  0  0  0  0  0  0  0
   -1.5550    5.8154   23.4717 C   0  0  1  0  0  0  0  0  0  0  0  0
   -0.8920    4.6759   23.7143 O   0  0  0  0  0  0  0  0  0  0  0  0
   -1.0784    6.8747   24.4881 C   0  0  0  0  0  0  0  0  0  0  0  0
  1  2  2  0  0  0  0
  1 11  1  0  0  0  0
  2  3  1  0  0  0  0
  2  4  1  0  0  0  0
  4  5  1  0  0  0  0
  5  6  1  0  0  0  0
  5  7  2  0  0  0  0
  6  8  1  0  0  0  0
  6 11  2  0  0  0  0
  9  8  1  6  0  0  0
  9 10  1  0  0  0  0
  9 13  1  0  0  0  0
 10 12  1  0  0  0  0
 11 12  1  0  0  0  0
 13 14  1  6  0  0  0
 13 15  1  0  0  0  0
 15 16  1  1  0  0  0
 15 17  1  0  0  0  0
M  END
>  <CHROM.1>
80.24271947,-54.87031144,0.02072726,6.10810618,20.15225761,-0.38195609,-1.26340751
2.82405170

>  <Name>
ligand

>  <RI>
0

>  <Rbt.Current_Directory>
/home/itssahil/PROJECTS/Mol_Feturizer/New_Systems/rnas/4LVX

>  <Rbt.Executable>
rbdock ($Id: //depot/dev/client3/rdock/2013.1/src/exe/rbdock.cxx#4 $)

>  <Rbt.Library>
libRbt.so (2013.1, Build901 2013/11/27)

>  <Rbt.Parameter_File>
/export/apps/rDock/src/rDock_2013.1_src/data/scripts/dock_solv.prm

>  <Rbt.Receptor>
prm/pocket_docking_8.prm

>  <SCORE>
-15.2296

>  <SCORE.INTER>
-9.74064

>  <SCORE.INTER.CONST>
1

>  <SCORE.INTER.POLAR>
0

>  <SCORE.INTER.ROT>
2

>  <SCORE.INTER.SOLV>
9.43054

>  <SCORE.INTER.VDW>
-14.5706

>  <SCORE.INTER.norm>
-0.572979

>  <SCORE.INTRA>
-5.48899

>  <SCORE.INTRA.DIHEDRAL>
-8.78825

>  <SCORE.INTRA.DIHEDRAL.0>
10.3255

>  <SCORE.INTRA.POLAR>
0

>  <SCORE.INTRA.POLAR.0>
0

>  <SCORE.INTRA.REPUL>
0

>  <SCORE.INTRA.REPUL.0>
0

>  <SCORE.INTRA.SOLV>
0.432818

>  <SCORE.INTRA.SOLV.lig_0>
-53.4755

>  <SCORE.INTRA.VDW>
-1.31128

>  <SCORE.INTRA.VDW.0>
2.32763

>  <SCORE.INTRA.norm>
-0.322882

>  <SCORE.RESTR>
0

>  <SCORE.RESTR.CAVITY>
0

>  <SCORE.RESTR.norm>
0

>  <SCORE.SYSTEM>
0

>  <SCORE.SYSTEM.CONST>
0

>  <SCORE.SYSTEM.DIHEDRAL>
0

>  <SCORE.SYSTEM.SOLV>
0

>  <SCORE.SYSTEM.norm>
0

>  <SCORE.heavy>
17

>  <SCORE.norm>
-0.895861

>  <RMSD>
5.869

$$$$
ligand
 OpenBabel11021811503D
libRbt.so/2013.1/901 2013/11/27
 17 18  0  0  0  0  0  0  0  0999 V2000
    2.2661    5.5333   18.6247 N   0  0  0  0  0  0  0  0  0  0  0  0
    3.6646    5.5303   18.5468 C   0  0  0  0  0  0  0  0  0  0  0  0
    4.3117    6.0327   17.3695 N   0  0  0  0  0  0  0  0  0  0  0  0
    4.4406    5.0609   19.5846 N   0  0  0  0  0  0  0  0  0  0  0  0
    3.8638    4.5705   20.7378 C   0  0  0  0  0  0  0  0  0  0  0  0
    2.4401    4.5437   20.8697 C   0  0  0  0  0  0  0  0  0  0  0  0
    4.5649    4.1591   21.6426 O   0  0  0  0  0  0  0  0  0  0  0  0
    1.7922    4.0275   22.0728 N   0  0  0  0  0  0  0  0  0  0  0  0
    0.3935    4.1967   22.2443 C   0  0  2  0  0  0  0  0  0  0  0  0
   -0.3942    4.2484   20.9080 C   0  0  0  0  0  0  0  0  0  0  0  0
    1.6545    5.0398   19.7860 C   0  0  0  0  0  0  0  0  0  0  0  0
    0.1843    5.0252   19.9001 N   0  0  0  0  0  0  0  0  0  0  0  0
    0.1710    5.4125   23.1251 C   0  0  1  0  0  0  0  0  0  0  0  0
    0.7404    6.5347   22.5568 O   0  0  0  0  0  0  0  0  0  0  0  0
   -1.2950    5.6280   23.3555 C   0  0  1  0  0  0  0  0  0  0  0  0
   -1.8839    4.4911   23.7525 O   0  0  0  0  0  0  0  0  0  0  0  0
   -1.5363    6.6988   24.4406 C   0  0  0  0  0  0  0  0  0  0  0  0
  1  2  2  0  0  0  0
  1 11  1  0  0  0  0
  2  3  1  0  0  0  0
  2  4  1  0  0  0  0
  4  5  1  0  0  0  0
  5  6  1  0  0  0  0
  5  7  2  0  0  0  0
  6  8  1  0  0  0  0
  6 11  2  0  0  0  0
  9  8  1  6  0  0  0
  9 10  1  0  0  0  0
  9 13  1  0  0  0  0
 10 12  1  0  0  0  0
 11 12  1  0  0  0  0
 13 14  1  6  0  0  0
 13 15  1  0  0  0  0
 15 16  1  1  0  0  0
 15 17  1  0  0  0  0
M  END
>  <CHROM.1>
58.24777708,49.83079026,1.44419824,5.11432516,21.21823508,0.69843594,0.21287598
-1.37724262

>  <Name>
ligand

>  <RI>
0

>  <Rbt.Current_Directory>
/home/itssahil/PROJECTS/Mol_Feturizer/New_Systems/rnas/4LVX

>  <Rbt.Executable>
rbdock ($Id: //depot/dev/client3/rdock/2013.1/src/exe/rbdock.cxx#4 $)

>  <Rbt.Library>
libRbt.so (2013.1, Build901 2013/11/27)

>  <Rbt.Parameter_File>
/export/apps/rDock/src/rDock_2013.1_src/data/scripts/dock_solv.prm

>  <Rbt.Receptor>
prm/pocket_docking_5.prm

>  <SCORE>
-17.3082

>  <SCORE.INTER>
-10.4142

>  <SCORE.INTER.CONST>
1

>  <SCORE.INTER.POLAR>
0

>  <SCORE.INTER.ROT>
2

>  <SCORE.INTER.SOLV>
13.8402

>  <SCORE.INTER.VDW>
-16.4895

>  <SCORE.INTER.norm>
-0.6126

>  <SCORE.INTRA>
-6.894

>  <SCORE.INTRA.DIHEDRAL>
-9.77367

>  <SCORE.INTRA.DIHEDRAL.0>
10.3255

>  <SCORE.INTRA.POLAR>
0

>  <SCORE.INTRA.POLAR.0>
0

>  <SCORE.INTRA.REPUL>
0

>  <SCORE.INTRA.REPUL.0>
0

>  <SCORE.INTRA.SOLV>
-0.0649618

>  <SCORE.INTRA.SOLV.lig_0>
-53.4755

>  <SCORE.INTRA.VDW>
-1.97468

>  <SCORE.INTRA.VDW.0>
2.32763

>  <SCORE.INTRA.norm>
-0.405529

>  <SCORE.RESTR>
0

>  <SCORE.RESTR.CAVITY>
0

>  <SCORE.RESTR.norm>
0

>  <SCORE.SYSTEM>
0

>  <SCORE.SYSTEM.CONST>
0

>  <SCORE.SYSTEM.DIHEDRAL>
0

>  <SCORE.SYSTEM.SOLV>
0

>  <SCORE.SYSTEM.norm>
0

>  <SCORE.heavy>
17

>  <SCORE.norm>
-1.01813

>  <RMSD>
5.884

$$$$
ligand
 OpenBabel11021811503D
libRbt.so/2013.1/901 2013/11/27
 17 18  0  0  0  0  0  0  0  0999 V2000
    2.1144    5.5678   18.5099 N   0  0  0  0  0  0  0  0  0  0  0  0
    3.5094    5.5716   18.3832 C   0  0  0  0  0  0  0  0  0  0  0  0
    4.1124    6.0752   17.1832 N   0  0  0  0  0  0  0  0  0  0  0  0
    4.3235    5.1077   19.3939 N   0  0  0  0  0  0  0  0  0  0  0  0
    3.7899    4.6164   20.5672 C   0  0  0  0  0  0  0  0  0  0  0  0
    2.3717    4.5828   20.7489 C   0  0  0  0  0  0  0  0  0  0  0  0
    4.5242    4.2100   21.4476 O   0  0  0  0  0  0  0  0  0  0  0  0
    1.7689    4.0654   21.9747 N   0  0  0  0  0  0  0  0  0  0  0  0
    0.3763    4.2279   22.1947 C   0  0  2  0  0  0  0  0  0  0  0  0
   -0.4579    4.2736   20.8867 C   0  0  0  0  0  0  0  0  0  0  0  0
    1.5463    5.0732   19.6926 C   0  0  0  0  0  0  0  0  0  0  0  0
    0.0811    5.0516   19.8581 N   0  0  0  0  0  0  0  0  0  0  0  0
    0.1786    5.4441   23.0810 C   0  0  1  0  0  0  0  0  0  0  0  0
    0.7368    6.5650   22.4991 O   0  0  0  0  0  0  0  0  0  0  0  0
   -1.2807    5.6633   23.3474 C   0  0  1  0  0  0  0  0  0  0  0  0
   -1.8576    4.5336   23.7809 O   0  0  0  0  0  0  0  0  0  0  0  0
   -1.4931    6.7535   24.4192 C   0  0  0  0  0  0  0  0  0  0  0  0
  1  2  2  0  0  0  0
  1 11  1  0  0  0  0
  2  3  1  0  0  0  0
  2  4  1  0  0  0  0
  4  5  1  0  0  0  0
  5  6  1  0  0  0  0
  5  7  2  0  0  0  0
  6  8  1  0  0  0  0
  6 11  2  0  0  0  0
  9  8  1  6  0  0  0
  9 10  1  0  0  0  0
  9 13  1  0  0  0  0
 10 12  1  0  0  0  0
 11 12  1  0  0  0  0
 13 14  1  6  0  0  0
 13 15  1  0  0  0  0
 15 16  1  1  0  0  0
 15 17  1  0  0  0  0
M  END
>  <CHROM.1>
57.50684055,50.90805504,1.38581162,5.15266955,21.12869763,0.73190130,0.21744080
-1.38537431

>  <Name>
ligand

>  <RI>
0

>  <Rbt.Current_Directory>
/home/itssahil/PROJECTS/Mol_Feturizer/New_Systems/rnas/4LVX

>  <Rbt.Executable>
rbdock ($Id: //depot/dev/client3/rdock/2013.1/src/exe/rbdock.cxx#4 $)

>  <Rbt.Library>
libRbt.so (2013.1, Build901 2013/11/27)

>  <Rbt.Parameter_File>
/export/apps/rDock/src/rDock_2013.1_src/data/scripts/dock_solv.prm

>  <Rbt.Receptor>
prm/pocket_docking_5.prm

>  <SCORE>
-17.3055

>  <SCORE.INTER>
-10.4072

>  <SCORE.INTER.CONST>
1

>  <SCORE.INTER.POLAR>
0

>  <SCORE.INTER.ROT>
2

>  <SCORE.INTER.SOLV>
13.7535

>  <SCORE.INTER.VDW>
-16.4559

>  <SCORE.INTER.norm>
-0.612187

>  <SCORE.INTRA>
-6.89834

>  <SCORE.INTRA.DIHEDRAL>
-9.83681

>  <SCORE.INTRA.DIHEDRAL.0>
10.3255

>  <SCORE.INTRA.POLAR>
0

>  <SCORE.INTRA.POLAR.0>
0

>  <SCORE.INTRA.REPUL>
0

>  <SCORE.INTRA.REPUL.0>
0

>  <SCORE.INTRA.SOLV>
-0.0669036

>  <SCORE.INTRA.SOLV.lig_0>
-53.4755

>  <SCORE.INTRA.VDW>
-1.94648

>  <SCORE.INTRA.VDW.0>
2.32763

>  <SCORE.INTRA.norm>
-0.405785

>  <SCORE.RESTR>
0

>  <SCORE.RESTR.CAVITY>
0

>  <SCORE.RESTR.norm>
0

>  <SCORE.SYSTEM>
0

>  <SCORE.SYSTEM.CONST>
0

>  <SCORE.SYSTEM.DIHEDRAL>
0

>  <SCORE.SYSTEM.SOLV>
0

>  <SCORE.SYSTEM.norm>
0

>  <SCORE.heavy>
17

>  <SCORE.norm>
-1.01797

>  <RMSD>
5.884

$$$$
ligand
 OpenBabel11021811503D
libRbt.so/2013.1/901 2013/11/27
 17 18  0  0  0  0  0  0  0  0999 V2000
    2.0926    5.5602   18.4894 N   0  0  0  0  0  0  0  0  0  0  0  0
    3.4868    5.5608   18.3549 C   0  0  0  0  0  0  0  0  0  0  0  0
    4.0841    6.0633   17.1516 N   0  0  0  0  0  0  0  0  0  0  0  0
    4.3055    5.0949   19.3608 N   0  0  0  0  0  0  0  0  0  0  0  0
    3.7774    4.6046   20.5371 C   0  0  0  0  0  0  0  0  0  0  0  0
    2.3602    4.5742   20.7268 C   0  0  0  0  0  0  0  0  0  0  0  0
    4.5158    4.1963   21.4133 O   0  0  0  0  0  0  0  0  0  0  0  0
    1.7632    4.0580   21.9559 N   0  0  0  0  0  0  0  0  0  0  0  0
    0.3722    4.2237   22.1838 C   0  0  2  0  0  0  0  0  0  0  0  0
   -0.4693    4.2715   20.8806 C   0  0  0  0  0  0  0  0  0  0  0  0
    1.5299    5.0667   19.6753 C   0  0  0  0  0  0  0  0  0  0  0  0
    0.0657    5.0485   19.8490 N   0  0  0  0  0  0  0  0  0  0  0  0
    0.1823    5.4402   23.0714 C   0  0  1  0  0  0  0  0  0  0  0  0
    0.7231    6.5635   22.4780 O   0  0  0  0  0  0  0  0  0  0  0  0
   -1.2734    5.6506   23.3629 C   0  0  1  0  0  0  0  0  0  0  0  0
   -1.8395    4.5138   23.7918 O   0  0  0  0  0  0  0  0  0  0  0  0
   -1.4732    6.7273   24.4507 C   0  0  0  0  0  0  0  0  0  0  0  0
  1  2  2  0  0  0  0
  1 11  1  0  0  0  0
  2  3  1  0  0  0  0
  2  4  1  0  0  0  0
  4  5  1  0  0  0  0
  5  6  1  0  0  0  0
  5  7  2  0  0  0  0
  6  8  1  0  0  0  0
  6 11  2  0  0  0  0
  9  8  1  6  0  0  0
  9 10  1  0  0  0  0
  9 13  1  0  0  0  0
 10 12  1  0  0  0  0
 11 12  1  0  0  0  0
 13 14  1  6  0  0  0
 13 15  1  0  0  0  0
 15 16  1  1  0  0  0
 15 17  1  0  0  0  0
M  END
>  <CHROM.1>
58.35100494,50.10866357,1.37795392,5.14284035,21.11525338,0.73987301,0.21898312
-1.38636507

>  <Name>
ligand

>  <RI>
0

>  <Rbt.Current_Directory>
/home/itssahil/PROJECTS/Mol_Feturizer/New_Systems/rnas/4LVX

>  <Rbt.Executable>
rbdock ($Id: //depot/dev/client3/rdock/2013.1/src/exe/rbdock.cxx#4 $)

>  <Rbt.Library>
libRbt.so (2013.1, Build901 2013/11/27)

>  <Rbt.Parameter_File>
/export/apps/rDock/src/rDock_2013.1_src/data/scripts/dock_solv.prm

>  <Rbt.Receptor>
prm/pocket_docking_6.prm

>  <SCORE>
-17.3199

>  <SCORE.INTER>
-10.4072

>  <SCORE.INTER.CONST>
1

>  <SCORE.INTER.POLAR>
0

>  <SCORE.INTER.ROT>
2

>  <SCORE.INTER.SOLV>
13.9097

>  <SCORE.INTER.VDW>
-16.5081

>  <SCORE.INTER.norm>
-0.61219

>  <SCORE.INTRA>
-6.91263

>  <SCORE.INTRA.DIHEDRAL>
-9.79496

>  <SCORE.INTRA.DIHEDRAL.0>
10.3255

>  <SCORE.INTRA.POLAR>
0

>  <SCORE.INTRA.POLAR.0>
0

>  <SCORE.INTRA.REPUL>
0

>  <SCORE.INTRA.REPUL.0>
0

>  <SCORE.INTRA.SOLV>
-0.0670675

>  <SCORE.INTRA.SOLV.lig_0>
-53.4755

>  <SCORE.INTRA.VDW>
-1.98161

>  <SCORE.INTRA.VDW.0>
2.32763

>  <SCORE.INTRA.norm>
-0.406625

>  <SCORE.RESTR>
0

>  <SCORE.RESTR.CAVITY>
0

>  <SCORE.RESTR.norm>
0

>  <SCORE.SYSTEM>
0

>  <SCORE.SYSTEM.CONST>
0

>  <SCORE.SYSTEM.DIHEDRAL>
0

>  <SCORE.SYSTEM.SOLV>
0

>  <SCORE.SYSTEM.norm>
0

>  <SCORE.heavy>
17

>  <SCORE.norm>
-1.01882

>  <RMSD>
5.889

$$$$
ligand
 OpenBabel11021811503D
libRbt.so/2013.1/901 2013/11/27
 17 18  0  0  0  0  0  0  0  0999 V2000
    2.1005    5.5453   18.4755 N   0  0  0  0  0  0  0  0  0  0  0  0
    3.4948    5.5619   18.3431 C   0  0  0  0  0  0  0  0  0  0  0  0
    4.0878    6.0538   17.1332 N   0  0  0  0  0  0  0  0  0  0  0  0
    4.3177    5.1221   19.3574 N   0  0  0  0  0  0  0  0  0  0  0  0
    3.7939    4.6429   20.5402 C   0  0  0  0  0  0  0  0  0  0  0  0
    2.3769    4.5970   20.7280 C   0  0  0  0  0  0  0  0  0  0  0  0
    4.5360    4.2577   21.4236 O   0  0  0  0  0  0  0  0  0  0  0  0
    1.7844    4.0919   21.9639 N   0  0  0  0  0  0  0  0  0  0  0  0
    0.3910    4.2429   22.1870 C   0  0  2  0  0  0  0  0  0  0  0  0
   -0.4487    4.2599   20.8819 C   0  0  0  0  0  0  0  0  0  0  0  0
    1.5422    5.0626   19.6678 C   0  0  0  0  0  0  0  0  0  0  0  0
    0.0780    5.0279   19.8394 N   0  0  0  0  0  0  0  0  0  0  0  0
    0.1837    5.4702   23.0556 C   0  0  1  0  0  0  0  0  0  0  0  0
    0.7129    6.5909   22.4470 O   0  0  0  0  0  0  0  0  0  0  0  0
   -1.2754    5.6674   23.3396 C   0  0  1  0  0  0  0  0  0  0  0  0
   -1.8372    4.5213   23.7490 O   0  0  0  0  0  0  0  0  0  0  0  0
   -1.4897    6.7280   24.4404 C   0  0  0  0  0  0  0  0  0  0  0  0
  1  2  2  0  0  0  0
  1 11  1  0  0  0  0
  2  3  1  0  0  0  0
  2  4  1  0  0  0  0
  4  5  1  0  0  0  0
  5  6  1  0  0  0  0
  5  7  2  0  0  0  0
  6  8  1  0  0  0  0
  6 11  2  0  0  0  0
  9  8  1  6  0  0  0
  9 10  1  0  0  0  0
  9 13  1  0  0  0  0
 10 12  1  0  0  0  0
 11 12  1  0  0  0  0
 13 14  1  6  0  0  0
 13 15  1  0  0  0  0
 15 16  1  1  0  0  0
 15 17  1  0  0  0  0
M  END
>  <CHROM.1>
58.25248230,48.42373689,1.38616633,5.15636995,21.10534803,0.74132987,0.19984742
-1.40667451

>  <Name>
ligand

>  <RI>
0

>  <Rbt.Current_Directory>
/home/itssahil/PROJECTS/Mol_Feturizer/New_Systems/rnas/4LVX

>  <Rbt.Executable>
rbdock ($Id: //depot/dev/client3/rdock/2013.1/src/exe/rbdock.cxx#4 $)

>  <Rbt.Library>
libRbt.so (2013.1, Build901 2013/11/27)

>  <Rbt.Parameter_File>
/export/apps/rDock/src/rDock_2013.1_src/data/scripts/dock_solv.prm

>  <Rbt.Receptor>
prm/pocket_docking_4.prm

>  <SCORE>
-17.3936

>  <SCORE.INTER>
-10.5717

>  <SCORE.INTER.CONST>
1

>  <SCORE.INTER.POLAR>
0

>  <SCORE.INTER.ROT>
2

>  <SCORE.INTER.SOLV>
13.7463

>  <SCORE.INTER.VDW>
-16.5633

>  <SCORE.INTER.norm>
-0.621865

>  <SCORE.INTRA>
-6.82193

>  <SCORE.INTRA.DIHEDRAL>
-9.66516

>  <SCORE.INTRA.DIHEDRAL.0>
10.3255

>  <SCORE.INTRA.POLAR>
0

>  <SCORE.INTRA.POLAR.0>
0

>  <SCORE.INTRA.REPUL>
0

>  <SCORE.INTRA.REPUL.0>
0

>  <SCORE.INTRA.SOLV>
-0.0572161

>  <SCORE.INTRA.SOLV.lig_0>
-53.4755

>  <SCORE.INTRA.VDW>
-1.96074

>  <SCORE.INTRA.VDW.0>
2.32763

>  <SCORE.INTRA.norm>
-0.40129

>  <SCORE.RESTR>
0

>  <SCORE.RESTR.CAVITY>
0

>  <SCORE.RESTR.norm>
0

>  <SCORE.SYSTEM>
0

>  <SCORE.SYSTEM.CONST>
0

>  <SCORE.SYSTEM.DIHEDRAL>
0

>  <SCORE.SYSTEM.SOLV>
0

>  <SCORE.SYSTEM.norm>
0

>  <SCORE.heavy>
17

>  <SCORE.norm>
-1.02315

>  <RMSD>
5.890

$$$$
ligand
 OpenBabel11021811503D
libRbt.so/2013.1/901 2013/11/27
 17 18  0  0  0  0  0  0  0  0999 V2000
    2.0993    5.5360   18.4687 N   0  0  0  0  0  0  0  0  0  0  0  0
    3.4937    5.5552   18.3375 C   0  0  0  0  0  0  0  0  0  0  0  0
    4.0867    6.0459   17.1272 N   0  0  0  0  0  0  0  0  0  0  0  0
    4.3166    5.1189   19.3533 N   0  0  0  0  0  0  0  0  0  0  0  0
    3.7928    4.6410   20.5366 C   0  0  0  0  0  0  0  0  0  0  0  0
    2.3757    4.5926   20.7233 C   0  0  0  0  0  0  0  0  0  0  0  0
    4.5349    4.2589   21.4214 O   0  0  0  0  0  0  0  0  0  0  0  0
    1.7832    4.0886   21.9597 N   0  0  0  0  0  0  0  0  0  0  0  0
    0.3892    4.2373   22.1814 C   0  0  2  0  0  0  0  0  0  0  0  0
   -0.4493    4.2502   20.8755 C   0  0  0  0  0  0  0  0  0  0  0  0
    1.5410    5.0545   19.6615 C   0  0  0  0  0  0  0  0  0  0  0  0
    0.0767    5.0173   19.8320 N   0  0  0  0  0  0  0  0  0  0  0  0
    0.1789    5.4659   23.0474 C   0  0  1  0  0  0  0  0  0  0  0  0
    0.6999    6.5877   22.4338 O   0  0  0  0  0  0  0  0  0  0  0  0
   -1.2802    5.6562   23.3364 C   0  0  1  0  0  0  0  0  0  0  0  0
   -1.8338    4.5089   23.7537 O   0  0  0  0  0  0  0  0  0  0  0  0
   -1.4961    6.7209   24.4329 C   0  0  0  0  0  0  0  0  0  0  0  0
  1  2  2  0  0  0  0
  1 11  1  0  0  0  0
  2  3  1  0  0  0  0
  2  4  1  0  0  0  0
  4  5  1  0  0  0  0
  5  6  1  0  0  0  0
  5  7  2  0  0  0  0
  6  8  1  0  0  0  0
  6 11  2  0  0  0  0
  9  8  1  6  0  0  0
  9 10  1  0  0  0  0
  9 13  1  0  0  0  0
 10 12  1  0  0  0  0
 11 12  1  0  0  0  0
 13 14  1  6  0  0  0
 13 15  1  0  0  0  0
 15 16  1  1  0  0  0
 15 17  1  0  0  0  0
M  END
>  <CHROM.1>
58.58007464,48.55420118,1.38375720,5.15005779,21.10006412,0.74158941,0.19860989
-1.40725726

>  <Name>
ligand

>  <RI>
0

>  <Rbt.Current_Directory>
/home/itssahil/PROJECTS/Mol_Feturizer/New_Systems/rnas/4LVX

>  <Rbt.Executable>
rbdock ($Id: //depot/dev/client3/rdock/2013.1/src/exe/rbdock.cxx#4 $)

>  <Rbt.Library>
libRbt.so (2013.1, Build901 2013/11/27)

>  <Rbt.Parameter_File>
/export/apps/rDock/src/rDock_2013.1_src/data/scripts/dock_solv.prm

>  <Rbt.Receptor>
prm/pocket_docking_4.prm

>  <SCORE>
-17.3854

>  <SCORE.INTER>
-10.538

>  <SCORE.INTER.CONST>
1

>  <SCORE.INTER.POLAR>
0

>  <SCORE.INTER.ROT>
2

>  <SCORE.INTER.SOLV>
13.8281

>  <SCORE.INTER.VDW>
-16.5681

>  <SCORE.INTER.norm>
-0.619883

>  <SCORE.INTRA>
-6.84743

>  <SCORE.INTRA.DIHEDRAL>
-9.67962

>  <SCORE.INTRA.DIHEDRAL.0>
10.3255

>  <SCORE.INTRA.POLAR>
0

>  <SCORE.INTRA.POLAR.0>
0

>  <SCORE.INTRA.REPUL>
0

>  <SCORE.INTRA.REPUL.0>
0

>  <SCORE.INTRA.SOLV>
-0.0597533

>  <SCORE.INTRA.SOLV.lig_0>
-53.4755

>  <SCORE.INTRA.VDW>
-1.97774

>  <SCORE.INTRA.VDW.0>
2.32763

>  <SCORE.INTRA.norm>
-0.40279

>  <SCORE.RESTR>
0

>  <SCORE.RESTR.CAVITY>
0

>  <SCORE.RESTR.norm>
0

>  <SCORE.SYSTEM>
0

>  <SCORE.SYSTEM.CONST>
0

>  <SCORE.SYSTEM.DIHEDRAL>
0

>  <SCORE.SYSTEM.SOLV>
0

>  <SCORE.SYSTEM.norm>
0

>  <SCORE.heavy>
17

>  <SCORE.norm>
-1.02267

>  <RMSD>
5.892

$$$$
ligand
 OpenBabel11021811503D
libRbt.so/2013.1/901 2013/11/27
 17 18  0  0  0  0  0  0  0  0999 V2000
    3.4919    5.2115   20.0341 N   0  0  0  0  0  0  0  0  0  0  0  0
    4.7892    4.8170   20.3852 C   0  0  0  0  0  0  0  0  0  0  0  0
    5.8868    5.1319   19.5172 N   0  0  0  0  0  0  0  0  0  0  0  0
    5.0404    4.1361   21.5568 N   0  0  0  0  0  0  0  0  0  0  0  0
    4.0177    3.8134   22.4244 C   0  0  0  0  0  0  0  0  0  0  0  0
    2.6722    4.1856   22.1138 C   0  0  0  0  0  0  0  0  0  0  0  0
    4.2585    3.2108   23.4532 O   0  0  0  0  0  0  0  0  0  0  0  0
    1.5620    3.8574   23.0046 N   0  0  0  0  0  0  0  0  0  0  0  0
    0.2781    4.4102   22.7588 C   0  0  2  0  0  0  0  0  0  0  0  0
    0.0023    4.6972   21.2587 C   0  0  0  0  0  0  0  0  0  0  0  0
    2.4339    4.8954   20.8985 C   0  0  0  0  0  0  0  0  0  0  0  0
    1.0552    5.2926   20.5582 N   0  0  0  0  0  0  0  0  0  0  0  0
    0.1124    5.6289   23.6482 C   0  0  1  0  0  0  0  0  0  0  0  0
    0.8615    6.6852   23.1693 O   0  0  0  0  0  0  0  0  0  0  0  0
   -1.3342    6.0124   23.7428 C   0  0  1  0  0  0  0  0  0  0  0  0
   -2.0854    4.9502   24.0658 O   0  0  0  0  0  0  0  0  0  0  0  0
   -1.5527    7.0999   24.8160 C   0  0  0  0  0  0  0  0  0  0  0  0
  1  2  2  0  0  0  0
  1 11  1  0  0  0  0
  2  3  1  0  0  0  0
  2  4  1  0  0  0  0
  4  5  1  0  0  0  0
  5  6  1  0  0  0  0
  5  7  2  0  0  0  0
  6  8  1  0  0  0  0
  6 11  2  0  0  0  0
  9  8  1  6  0  0  0
  9 10  1  0  0  0  0
  9 13  1  0  0  0  0
 10 12  1  0  0  0  0
 11 12  1  0  0  0  0
 13 14  1  6  0  0  0
 13 15  1  0  0  0  0
 15 16  1  1  0  0  0
 15 17  1  0  0  0  0
M  END
>  <CHROM.1>
74.23278268,50.61779776,1.78777761,4.96527827,22.25693786,0.32562514,0.40008405
-1.14538393

>  <Name>
ligand

>  <RI>
0

>  <Rbt.Current_Directory>
/home/itssahil/PROJECTS/Mol_Feturizer/New_Systems/rnas/4LVX

>  <Rbt.Executable>
rbdock ($Id: //depot/dev/client3/rdock/2013.1/src/exe/rbdock.cxx#4 $)

>  <Rbt.Library>
libRbt.so (2013.1, Build901 2013/11/27)

>  <Rbt.Parameter_File>
/export/apps/rDock/src/rDock_2013.1_src/data/scripts/dock_solv.prm

>  <Rbt.Receptor>
prm/pocket_docking_3.prm

>  <SCORE>
-16.1529

>  <SCORE.INTER>
-9.17753

>  <SCORE.INTER.CONST>
1

>  <SCORE.INTER.POLAR>
0

>  <SCORE.INTER.ROT>
2

>  <SCORE.INTER.SOLV>
13.3046

>  <SCORE.INTER.VDW>
-15.4866

>  <SCORE.INTER.norm>
-0.539855

>  <SCORE.INTRA>
-6.97541

>  <SCORE.INTRA.DIHEDRAL>
-9.17128

>  <SCORE.INTRA.DIHEDRAL.0>
10.3255

>  <SCORE.INTRA.POLAR>
0

>  <SCORE.INTRA.POLAR.0>
0

>  <SCORE.INTRA.REPUL>
0

>  <SCORE.INTRA.REPUL.0>
0

>  <SCORE.INTRA.SOLV>
-0.154021

>  <SCORE.INTRA.SOLV.lig_0>
-53.4755

>  <SCORE.INTRA.VDW>
-2.31276

>  <SCORE.INTRA.VDW.0>
2.32763

>  <SCORE.INTRA.norm>
-0.410318

>  <SCORE.RESTR>
0

>  <SCORE.RESTR.CAVITY>
0

>  <SCORE.RESTR.norm>
0

>  <SCORE.SYSTEM>
0

>  <SCORE.SYSTEM.CONST>
0

>  <SCORE.SYSTEM.DIHEDRAL>
0

>  <SCORE.SYSTEM.SOLV>
0

>  <SCORE.SYSTEM.norm>
0

>  <SCORE.heavy>
17

>  <SCORE.norm>
-0.950173

>  <RMSD>
5.896

$$$$
ligand
 OpenBabel11021811503D
libRbt.so/2013.1/901 2013/11/27
 17 18  0  0  0  0  0  0  0  0999 V2000
    2.4334    5.6577   18.6828 N   0  0  0  0  0  0  0  0  0  0  0  0
    3.8327    5.6016   18.6502 C   0  0  0  0  0  0  0  0  0  0  0  0
    4.5385    6.1273   17.5176 N   0  0  0  0  0  0  0  0  0  0  0  0
    4.5539    5.0575   19.6909 N   0  0  0  0  0  0  0  0  0  0  0  0
    3.9196    4.5421   20.8022 C   0  0  0  0  0  0  0  0  0  0  0  0
    2.4922    4.5671   20.8866 C   0  0  0  0  0  0  0  0  0  0  0  0
    4.5730    4.0646   21.7102 O   0  0  0  0  0  0  0  0  0  0  0  0
    1.7842    4.0266   22.0443 N   0  0  0  0  0  0  0  0  0  0  0  0
    0.3881    4.2446   22.1777 C   0  0  2  0  0  0  0  0  0  0  0  0
   -0.3510    4.3850   20.8202 C   0  0  0  0  0  0  0  0  0  0  0  0
    1.7639    5.1402   19.8009 C   0  0  0  0  0  0  0  0  0  0  0  0
    0.2913    5.1801   19.8666 N   0  0  0  0  0  0  0  0  0  0  0  0
    0.1831    5.4297   23.1034 C   0  0  1  0  0  0  0  0  0  0  0  0
    0.7585    6.5666   22.5716 O   0  0  0  0  0  0  0  0  0  0  0  0
   -1.2791    5.6496   23.3527 C   0  0  1  0  0  0  0  0  0  0  0  0
   -1.8643    4.5170   23.7667 O   0  0  0  0  0  0  0  0  0  0  0  0
   -1.5033    6.7293   24.4328 C   0  0  0  0  0  0  0  0  0  0  0  0
  1  2  2  0  0  0  0
  1 11  1  0  0  0  0
  2  3  1  0  0  0  0
  2  4  1  0  0  0  0
  4  5  1  0  0  0  0
  5  6  1  0  0  0  0
  5  7  2  0  0  0  0
  6  8  1  0  0  0  0
  6 11  2  0  0  0  0
  9  8  1  6  0  0  0
  9 10  1  0  0  0  0
  9 13  1  0  0  0  0
 10 12  1  0  0  0  0
 11 12  1  0  0  0  0
 13 14  1  6  0  0  0
 13 15  1  0  0  0  0
 15 16  1  1  0  0  0
 15 17  1  0  0  0  0
M  END
>  <CHROM.1>
61.20104231,52.40040283,1.50931281,5.15741701,21.23925183,0.66120855,0.25622481
-1.30799288

>  <Name>
ligand

>  <RI>
0

>  <Rbt.Current_Directory>
/home/itssahil/PROJECTS/Mol_Feturizer/New_Systems/rnas/4LVX

>  <Rbt.Executable>
rbdock ($Id: //depot/dev/client3/rdock/2013.1/src/exe/rbdock.cxx#4 $)

>  <Rbt.Library>
libRbt.so (2013.1, Build901 2013/11/27)

>  <Rbt.Parameter_File>
/export/apps/rDock/src/rDock_2013.1_src/data/scripts/dock_solv.prm

>  <Rbt.Receptor>
prm/pocket_docking_8.prm

>  <SCORE>
-17.2243

>  <SCORE.INTER>
-10.0974

>  <SCORE.INTER.CONST>
1

>  <SCORE.INTER.POLAR>
0

>  <SCORE.INTER.ROT>
2

>  <SCORE.INTER.SOLV>
13.1324

>  <SCORE.INTER.VDW>
-16.0424

>  <SCORE.INTER.norm>
-0.593966

>  <SCORE.INTRA>
-7.12687

>  <SCORE.INTRA.DIHEDRAL>
-9.94734

>  <SCORE.INTRA.DIHEDRAL.0>
10.3255

>  <SCORE.INTRA.POLAR>
0

>  <SCORE.INTRA.POLAR.0>
0

>  <SCORE.INTRA.REPUL>
0

>  <SCORE.INTRA.REPUL.0>
0

>  <SCORE.INTRA.SOLV>
-0.09507

>  <SCORE.INTRA.SOLV.lig_0>
-53.4755

>  <SCORE.INTRA.VDW>
-2.10567

>  <SCORE.INTRA.VDW.0>
2.32763

>  <SCORE.INTRA.norm>
-0.419228

>  <SCORE.RESTR>
0

>  <SCORE.RESTR.CAVITY>
0

>  <SCORE.RESTR.norm>
0

>  <SCORE.SYSTEM>
0

>  <SCORE.SYSTEM.CONST>
0

>  <SCORE.SYSTEM.DIHEDRAL>
0

>  <SCORE.SYSTEM.SOLV>
0

>  <SCORE.SYSTEM.norm>
0

>  <SCORE.heavy>
17

>  <SCORE.norm>
-1.01319

>  <RMSD>
5.897

$$$$
ligand
 OpenBabel11021811503D
libRbt.so/2013.1/901 2013/11/27
 17 18  0  0  0  0  0  0  0  0999 V2000
    2.1888    5.5540   18.5152 N   0  0  0  0  0  0  0  0  0  0  0  0
    3.5858    5.5437   18.4144 C   0  0  0  0  0  0  0  0  0  0  0  0
    4.2159    6.0380   17.2245 N   0  0  0  0  0  0  0  0  0  0  0  0
    4.3763    5.0745   19.4412 N   0  0  0  0  0  0  0  0  0  0  0  0
    3.8162    4.5918   20.6058 C   0  0  0  0  0  0  0  0  0  0  0  0
    2.3947    4.5727   20.7611 C   0  0  0  0  0  0  0  0  0  0  0  0
    4.5300    4.1805   21.5006 O   0  0  0  0  0  0  0  0  0  0  0  0
    1.7641    4.0647   21.9769 N   0  0  0  0  0  0  0  0  0  0  0  0
    0.3693    4.2416   22.1705 C   0  0  2  0  0  0  0  0  0  0  0  0
   -0.4400    4.2919   20.8472 C   0  0  0  0  0  0  0  0  0  0  0  0
    1.5939    5.0683   19.6884 C   0  0  0  0  0  0  0  0  0  0  0  0
    0.1258    5.0616   19.8267 N   0  0  0  0  0  0  0  0  0  0  0  0
    0.1673    5.4621   23.0498 C   0  0  1  0  0  0  0  0  0  0  0  0
    0.6968    6.5867   22.4487 O   0  0  0  0  0  0  0  0  0  0  0  0
   -1.2904    5.6599   23.3402 C   0  0  1  0  0  0  0  0  0  0  0  0
   -1.8495    4.5153   23.7577 O   0  0  0  0  0  0  0  0  0  0  0  0
   -1.4999    6.7254   24.4371 C   0  0  0  0  0  0  0  0  0  0  0  0
  1  2  2  0  0  0  0
  1 11  1  0  0  0  0
  2  3  1  0  0  0  0
  2  4  1  0  0  0  0
  4  5  1  0  0  0  0
  5  6  1  0  0  0  0
  5  7  2  0  0  0  0
  6  8  1  0  0  0  0
  6 11  2  0  0  0  0
  9  8  1  6  0  0  0
  9 10  1  0  0  0  0
  9 13  1  0  0  0  0
 10 12  1  0  0  0  0
 11 12  1  0  0  0  0
 13 14  1  6  0  0  0
 13 15  1  0  0  0  0
 15 16  1  1  0  0  0
 15 17  1  0  0  0  0
M  END
>  <CHROM.1>
60.08971390,49.18094514,1.40817966,5.14381825,21.13045057,0.71917508,0.22091627
-1.38161496

>  <Name>
ligand

>  <RI>
0

>  <Rbt.Current_Directory>
/home/itssahil/PROJECTS/Mol_Feturizer/New_Systems/rnas/4LVX

>  <Rbt.Executable>
rbdock ($Id: //depot/dev/client3/rdock/2013.1/src/exe/rbdock.cxx#4 $)

>  <Rbt.Library>
libRbt.so (2013.1, Build901 2013/11/27)

>  <Rbt.Parameter_File>
/export/apps/rDock/src/rDock_2013.1_src/data/scripts/dock_solv.prm

>  <Rbt.Receptor>
prm/pocket_docking_8.prm

>  <SCORE>
-17.2988

>  <SCORE.INTER>
-10.3444

>  <SCORE.INTER.CONST>
1

>  <SCORE.INTER.POLAR>
0

>  <SCORE.INTER.ROT>
2

>  <SCORE.INTER.SOLV>
13.8923

>  <SCORE.INTER.VDW>
-16.4604

>  <SCORE.INTER.norm>
-0.608493

>  <SCORE.INTRA>
-6.95438

>  <SCORE.INTRA.DIHEDRAL>
-9.73717

>  <SCORE.INTRA.DIHEDRAL.0>
10.3255

>  <SCORE.INTRA.POLAR>
0

>  <SCORE.INTRA.POLAR.0>
0

>  <SCORE.INTRA.REPUL>
0

>  <SCORE.INTRA.REPUL.0>
0

>  <SCORE.INTRA.SOLV>
-0.0715146

>  <SCORE.INTRA.SOLV.lig_0>
-53.4755

>  <SCORE.INTRA.VDW>
-2.05004

>  <SCORE.INTRA.VDW.0>
2.32763

>  <SCORE.INTRA.norm>
-0.409081

>  <SCORE.RESTR>
0

>  <SCORE.RESTR.CAVITY>
0

>  <SCORE.RESTR.norm>
0

>  <SCORE.SYSTEM>
0

>  <SCORE.SYSTEM.CONST>
0

>  <SCORE.SYSTEM.DIHEDRAL>
0

>  <SCORE.SYSTEM.SOLV>
0

>  <SCORE.SYSTEM.norm>
0

>  <SCORE.heavy>
17

>  <SCORE.norm>
-1.01757

>  <RMSD>
5.898

$$$$
ligand
 OpenBabel11021811503D
libRbt.so/2013.1/901 2013/11/27
 17 18  0  0  0  0  0  0  0  0999 V2000
    2.1274    5.4837   18.4629 N   0  0  0  0  0  0  0  0  0  0  0  0
    3.5220    5.5202   18.3368 C   0  0  0  0  0  0  0  0  0  0  0  0
    4.1130    6.0038   17.1227 N   0  0  0  0  0  0  0  0  0  0  0  0
    4.3467    5.1079   19.3611 N   0  0  0  0  0  0  0  0  0  0  0  0
    3.8247    4.6376   20.5482 C   0  0  0  0  0  0  0  0  0  0  0  0
    2.4077    4.5723   20.7302 C   0  0  0  0  0  0  0  0  0  0  0  0
    4.5684    4.2767   21.4405 O   0  0  0  0  0  0  0  0  0  0  0  0
    1.8171    4.0757   21.9705 N   0  0  0  0  0  0  0  0  0  0  0  0
    0.4204    4.2082   22.1850 C   0  0  2  0  0  0  0  0  0  0  0  0
   -0.4131    4.1934   20.8759 C   0  0  0  0  0  0  0  0  0  0  0  0
    1.5710    5.0095   19.6595 C   0  0  0  0  0  0  0  0  0  0  0  0
    0.1067    4.9545   19.8249 N   0  0  0  0  0  0  0  0  0  0  0  0
    0.1900    5.4444   23.0348 C   0  0  1  0  0  0  0  0  0  0  0  0
    0.7029    6.5647   22.4116 O   0  0  0  0  0  0  0  0  0  0  0  0
   -1.2731    5.6218   23.3110 C   0  0  1  0  0  0  0  0  0  0  0  0
   -1.8217    4.4677   23.7161 O   0  0  0  0  0  0  0  0  0  0  0  0
   -1.5077    6.6779   24.4119 C   0  0  0  0  0  0  0  0  0  0  0  0
  1  2  2  0  0  0  0
  1 11  1  0  0  0  0
  2  3  1  0  0  0  0
  2  4  1  0  0  0  0
  4  5  1  0  0  0  0
  5  6  1  0  0  0  0
  5  7  2  0  0  0  0
  6  8  1  0  0  0  0
  6 11  2  0  0  0  0
  9  8  1  6  0  0  0
  9 10  1  0  0  0  0
  9 13  1  0  0  0  0
 10 12  1  0  0  0  0
 11 12  1  0  0  0  0
 13 14  1  6  0  0  0
 13 15  1  0  0  0  0
 15 16  1  1  0  0  0
 15 17  1  0  0  0  0
M  END
>  <CHROM.1>
58.34261649,47.49489488,1.40638115,5.11984929,21.09492058,0.73982628,0.18064549
-1.42288763

>  <Name>
ligand

>  <RI>
0

>  <Rbt.Current_Directory>
/home/itssahil/PROJECTS/Mol_Feturizer/New_Systems/rnas/4LVX

>  <Rbt.Executable>
rbdock ($Id: //depot/dev/client3/rdock/2013.1/src/exe/rbdock.cxx#4 $)

>  <Rbt.Library>
libRbt.so (2013.1, Build901 2013/11/27)

>  <Rbt.Parameter_File>
/export/apps/rDock/src/rDock_2013.1_src/data/scripts/dock_solv.prm

>  <Rbt.Receptor>
prm/pocket_docking_8.prm

>  <SCORE>
-17.3309

>  <SCORE.INTER>
-10.5579

>  <SCORE.INTER.CONST>
1

>  <SCORE.INTER.POLAR>
0

>  <SCORE.INTER.ROT>
2

>  <SCORE.INTER.SOLV>
14.0495

>  <SCORE.INTER.VDW>
-16.6551

>  <SCORE.INTER.norm>
-0.621056

>  <SCORE.INTRA>
-6.77297

>  <SCORE.INTRA.DIHEDRAL>
-9.58809

>  <SCORE.INTRA.DIHEDRAL.0>
10.3255

>  <SCORE.INTRA.POLAR>
0

>  <SCORE.INTRA.POLAR.0>
0

>  <SCORE.INTRA.REPUL>
0

>  <SCORE.INTRA.REPUL.0>
0

>  <SCORE.INTRA.SOLV>
-0.0526166

>  <SCORE.INTRA.SOLV.lig_0>
-53.4755

>  <SCORE.INTRA.VDW>
-1.95262

>  <SCORE.INTRA.VDW.0>
2.32763

>  <SCORE.INTRA.norm>
-0.39841

>  <SCORE.RESTR>
0

>  <SCORE.RESTR.CAVITY>
0

>  <SCORE.RESTR.norm>
0

>  <SCORE.SYSTEM>
0

>  <SCORE.SYSTEM.CONST>
0

>  <SCORE.SYSTEM.DIHEDRAL>
0

>  <SCORE.SYSTEM.SOLV>
0

>  <SCORE.SYSTEM.norm>
0

>  <SCORE.heavy>
17

>  <SCORE.norm>
-1.01947

>  <RMSD>
5.901

$$$$
ligand
 OpenBabel11021811503D
libRbt.so/2013.1/901 2013/11/27
 17 18  0  0  0  0  0  0  0  0999 V2000
    1.8957    5.5084   18.2832 N   0  0  0  0  0  0  0  0  0  0  0  0
    3.2790    5.5917   18.0792 C   0  0  0  0  0  0  0  0  0  0  0  0
    3.7846    6.0880   16.8321 N   0  0  0  0  0  0  0  0  0  0  0  0
    4.1731    5.2138   19.0575 N   0  0  0  0  0  0  0  0  0  0  0  0
    3.7345    4.7330   20.2738 C   0  0  0  0  0  0  0  0  0  0  0  0
    2.3329    4.6205   20.5348 C   0  0  0  0  0  0  0  0  0  0  0  0
    4.5386    4.4029   21.1246 O   0  0  0  0  0  0  0  0  0  0  0  0
    1.8297    4.1114   21.8082 N   0  0  0  0  0  0  0  0  0  0  0  0
    0.4434    4.1974   22.0998 C   0  0  2  0  0  0  0  0  0  0  0  0
   -0.4607    4.1465   20.8393 C   0  0  0  0  0  0  0  0  0  0  0  0
    1.4233    5.0226   19.5108 C   0  0  0  0  0  0  0  0  0  0  0  0
   -0.0267    4.9186   19.7579 N   0  0  0  0  0  0  0  0  0  0  0  0
    0.2182    5.4301   22.9562 C   0  0  1  0  0  0  0  0  0  0  0  0
    0.7121    6.5555   22.3270 O   0  0  0  0  0  0  0  0  0  0  0  0
   -1.2413    5.5959   23.2576 C   0  0  1  0  0  0  0  0  0  0  0  0
   -1.7683    4.4434   23.6948 O   0  0  0  0  0  0  0  0  0  0  0  0
   -1.4669    6.6699   24.3430 C   0  0  0  0  0  0  0  0  0  0  0  0
  1  2  2  0  0  0  0
  1 11  1  0  0  0  0
  2  3  1  0  0  0  0
  2  4  1  0  0  0  0
  4  5  1  0  0  0  0
  5  6  1  0  0  0  0
  5  7  2  0  0  0  0
  6  8  1  0  0  0  0
  6 11  2  0  0  0  0
  9  8  1  6  0  0  0
  9 10  1  0  0  0  0
  9 13  1  0  0  0  0
 10 12  1  0  0  0  0
 11 12  1  0  0  0  0
 13 14  1  6  0  0  0
 13 15  1  0  0  0  0
 15 16  1  1  0  0  0
 15 17  1  0  0  0  0
M  END
>  <CHROM.1>
55.60913750,48.72858870,1.33340798,5.14455462,20.94246767,0.79275515,0.15540375
-1.44190444

>  <Name>
ligand

>  <RI>
0

>  <Rbt.Current_Directory>
/home/itssahil/PROJECTS/Mol_Feturizer/New_Systems/rnas/4LVX

>  <Rbt.Executable>
rbdock ($Id: //depot/dev/client3/rdock/2013.1/src/exe/rbdock.cxx#4 $)

>  <Rbt.Library>
libRbt.so (2013.1, Build901 2013/11/27)

>  <Rbt.Parameter_File>
/export/apps/rDock/src/rDock_2013.1_src/data/scripts/dock_solv.prm

>  <Rbt.Receptor>
prm/pocket_docking_4.prm

>  <SCORE>
-17.4333

>  <SCORE.INTER>
-10.7505

>  <SCORE.INTER.CONST>
1

>  <SCORE.INTER.POLAR>
0

>  <SCORE.INTER.ROT>
2

>  <SCORE.INTER.SOLV>
13.8486

>  <SCORE.INTER.VDW>
-16.7166

>  <SCORE.INTER.norm>
-0.632384

>  <SCORE.INTRA>
-6.68277

>  <SCORE.INTRA.DIHEDRAL>
-9.63103

>  <SCORE.INTRA.DIHEDRAL.0>
10.3255

>  <SCORE.INTRA.POLAR>
0

>  <SCORE.INTRA.POLAR.0>
0

>  <SCORE.INTRA.REPUL>
0

>  <SCORE.INTRA.REPUL.0>
0

>  <SCORE.INTRA.SOLV>
-0.044188

>  <SCORE.INTRA.SOLV.lig_0>
-53.4755

>  <SCORE.INTRA.VDW>
-1.84516

>  <SCORE.INTRA.VDW.0>
2.32763

>  <SCORE.INTRA.norm>
-0.393104

>  <SCORE.RESTR>
0

>  <SCORE.RESTR.CAVITY>
0

>  <SCORE.RESTR.norm>
0

>  <SCORE.SYSTEM>
0

>  <SCORE.SYSTEM.CONST>
0

>  <SCORE.SYSTEM.DIHEDRAL>
0

>  <SCORE.SYSTEM.SOLV>
0

>  <SCORE.SYSTEM.norm>
0

>  <SCORE.heavy>
17

>  <SCORE.norm>
-1.02549

>  <RMSD>
5.907

$$$$
ligand
 OpenBabel11021811503D
libRbt.so/2013.1/901 2013/11/27
 17 18  0  0  0  0  0  0  0  0999 V2000
    2.0804    5.4517   18.3646 N   0  0  0  0  0  0  0  0  0  0  0  0
    3.4717    5.5351   18.2251 C   0  0  0  0  0  0  0  0  0  0  0  0
    4.0346    6.0283   17.0016 N   0  0  0  0  0  0  0  0  0  0  0  0
    4.3194    5.1601   19.2450 N   0  0  0  0  0  0  0  0  0  0  0  0
    3.8248    4.6824   20.4408 C   0  0  0  0  0  0  0  0  0  0  0  0
    2.4126    4.5699   20.6366 C   0  0  0  0  0  0  0  0  0  0  0  0
    4.5885    4.3549   21.3290 O   0  0  0  0  0  0  0  0  0  0  0  0
    1.8508    4.0640   21.8865 N   0  0  0  0  0  0  0  0  0  0  0  0
    0.4524    4.1501   22.1130 C   0  0  2  0  0  0  0  0  0  0  0  0
   -0.3920    4.0954   20.8119 C   0  0  0  0  0  0  0  0  0  0  0  0
    1.5515    4.9689   19.5703 C   0  0  0  0  0  0  0  0  0  0  0  0
    0.0916    4.8649   19.7498 N   0  0  0  0  0  0  0  0  0  0  0  0
    0.1872    5.3849   22.9547 C   0  0  1  0  0  0  0  0  0  0  0  0
    0.6889    6.5121   22.3350 O   0  0  0  0  0  0  0  0  0  0  0  0
   -1.2828    5.5367   23.2087 C   0  0  1  0  0  0  0  0  0  0  0  0
   -1.8072    4.3871   23.6563 O   0  0  0  0  0  0  0  0  0  0  0  0
   -1.5555    6.6316   24.2620 C   0  0  0  0  0  0  0  0  0  0  0  0
  1  2  2  0  0  0  0
  1 11  1  0  0  0  0
  2  3  1  0  0  0  0
  2  4  1  0  0  0  0
  4  5  1  0  0  0  0
  5  6  1  0  0  0  0
  5  7  2  0  0  0  0
  6  8  1  0  0  0  0
  6 11  2  0  0  0  0
  9  8  1  6  0  0  0
  9 10  1  0  0  0  0
  9 13  1  0  0  0  0
 10 12  1  0  0  0  0
 11 12  1  0  0  0  0
 13 14  1  6  0  0  0
 13 15  1  0  0  0  0
 15 16  1  1  0  0  0
 15 17  1  0  0  0  0
M  END
>  <CHROM.1>
56.65531784,49.72963284,1.39572076,5.09344697,21.00018609,0.74842113,0.15359956
-1.43208139

>  <Name>
ligand

>  <RI>
0

>  <Rbt.Current_Directory>
/home/itssahil/PROJECTS/Mol_Feturizer/New_Systems/rnas/4LVX

>  <Rbt.Executable>
rbdock ($Id: //depot/dev/client3/rdock/2013.1/src/exe/rbdock.cxx#4 $)

>  <Rbt.Library>
libRbt.so (2013.1, Build901 2013/11/27)

>  <Rbt.Parameter_File>
/export/apps/rDock/src/rDock_2013.1_src/data/scripts/dock_solv.prm

>  <Rbt.Receptor>
prm/pocket_docking_4.prm

>  <SCORE>
-17.5067

>  <SCORE.INTER>
-10.716

>  <SCORE.INTER.CONST>
1

>  <SCORE.INTER.POLAR>
0

>  <SCORE.INTER.ROT>
2

>  <SCORE.INTER.SOLV>
14.2334

>  <SCORE.INTER.VDW>
-16.8218

>  <SCORE.INTER.norm>
-0.630354

>  <SCORE.INTRA>
-6.79067

>  <SCORE.INTRA.DIHEDRAL>
-9.73666

>  <SCORE.INTRA.DIHEDRAL.0>
10.3255

>  <SCORE.INTRA.POLAR>
0

>  <SCORE.INTRA.POLAR.0>
0

>  <SCORE.INTRA.REPUL>
0

>  <SCORE.INTRA.REPUL.0>
0

>  <SCORE.INTRA.SOLV>
-0.0556276

>  <SCORE.INTRA.SOLV.lig_0>
-53.4755

>  <SCORE.INTRA.VDW>
-1.89453

>  <SCORE.INTRA.VDW.0>
2.32763

>  <SCORE.INTRA.norm>
-0.399451

>  <SCORE.RESTR>
0

>  <SCORE.RESTR.CAVITY>
0

>  <SCORE.RESTR.norm>
0

>  <SCORE.SYSTEM>
0

>  <SCORE.SYSTEM.CONST>
0

>  <SCORE.SYSTEM.DIHEDRAL>
0

>  <SCORE.SYSTEM.SOLV>
0

>  <SCORE.SYSTEM.norm>
0

>  <SCORE.heavy>
17

>  <SCORE.norm>
-1.02981

>  <RMSD>
5.916

$$$$
ligand
 OpenBabel11021811503D
libRbt.so/2013.1/901 2013/11/27
 17 18  0  0  0  0  0  0  0  0999 V2000
    3.5986    5.2387   20.0861 N   0  0  0  0  0  0  0  0  0  0  0  0
    4.8804    4.8025   20.4448 C   0  0  0  0  0  0  0  0  0  0  0  0
    6.0008    5.1279   19.6106 N   0  0  0  0  0  0  0  0  0  0  0  0
    5.0947    4.0703   21.5925 N   0  0  0  0  0  0  0  0  0  0  0  0
    4.0490    3.7355   22.4276 C   0  0  0  0  0  0  0  0  0  0  0  0
    2.7178    4.1489   22.1076 C   0  0  0  0  0  0  0  0  0  0  0  0
    4.2573    3.0873   23.4356 O   0  0  0  0  0  0  0  0  0  0  0  0
    1.5841    3.8096   22.9639 N   0  0  0  0  0  0  0  0  0  0  0  0
    0.3170    4.3995   22.7170 C   0  0  2  0  0  0  0  0  0  0  0  0
    0.0761    4.7518   21.2249 C   0  0  0  0  0  0  0  0  0  0  0  0
    2.5179    4.9114   20.9176 C   0  0  0  0  0  0  0  0  0  0  0  0
    1.1545    5.3517   20.5682 N   0  0  0  0  0  0  0  0  0  0  0  0
    0.1598    5.5851   23.6515 C   0  0  1  0  0  0  0  0  0  0  0  0
    0.9454    6.6406   23.2333 O   0  0  0  0  0  0  0  0  0  0  0  0
   -1.2789    6.0007   23.7287 C   0  0  1  0  0  0  0  0  0  0  0  0
   -2.0583    4.9540   24.0352 O   0  0  0  0  0  0  0  0  0  0  0  0
   -1.4875    7.0869   24.8054 C   0  0  0  0  0  0  0  0  0  0  0  0
  1  2  2  0  0  0  0
  1 11  1  0  0  0  0
  2  3  1  0  0  0  0
  2  4  1  0  0  0  0
  4  5  1  0  0  0  0
  5  6  1  0  0  0  0
  5  7  2  0  0  0  0
  6  8  1  0  0  0  0
  6 11  2  0  0  0  0
  9  8  1  6  0  0  0
  9 10  1  0  0  0  0
  9 13  1  0  0  0  0
 10 12  1  0  0  0  0
 11 12  1  0  0  0  0
 13 14  1  6  0  0  0
 13 15  1  0  0  0  0
 15 16  1  1  0  0  0
 15 17  1  0  0  0  0
M  END
>  <CHROM.1>
73.90884754,52.69055140,1.84839216,4.94513310,22.26525997,0.29234609,0.41497311
-1.08640050

>  <Name>
ligand

>  <RI>
0

>  <Rbt.Current_Directory>
/home/itssahil/PROJECTS/Mol_Feturizer/New_Systems/rnas/4LVX

>  <Rbt.Executable>
rbdock ($Id: //depot/dev/client3/rdock/2013.1/src/exe/rbdock.cxx#4 $)

>  <Rbt.Library>
libRbt.so (2013.1, Build901 2013/11/27)

>  <Rbt.Parameter_File>
/export/apps/rDock/src/rDock_2013.1_src/data/scripts/dock_solv.prm

>  <Rbt.Receptor>
prm/pocket_docking_3.prm

>  <SCORE>
-16.0767

>  <SCORE.INTER>
-9.02188

>  <SCORE.INTER.CONST>
1

>  <SCORE.INTER.POLAR>
0

>  <SCORE.INTER.ROT>
2

>  <SCORE.INTER.SOLV>
12.9856

>  <SCORE.INTER.VDW>
-15.2765

>  <SCORE.INTER.norm>
-0.530699

>  <SCORE.INTRA>
-7.05516

>  <SCORE.INTRA.DIHEDRAL>
-9.3267

>  <SCORE.INTRA.DIHEDRAL.0>
10.3255

>  <SCORE.INTRA.POLAR>
0

>  <SCORE.INTRA.POLAR.0>
0

>  <SCORE.INTRA.REPUL>
0

>  <SCORE.INTRA.REPUL.0>
0

>  <SCORE.INTRA.SOLV>
-0.162514

>  <SCORE.INTRA.SOLV.lig_0>
-53.4755

>  <SCORE.INTRA.VDW>
-2.31056

>  <SCORE.INTRA.VDW.0>
2.32763

>  <SCORE.INTRA.norm>
-0.41501

>  <SCORE.RESTR>
0.000318842

>  <SCORE.RESTR.CAVITY>
0.000318842

>  <SCORE.RESTR.norm>
1.87554e-05

>  <SCORE.SYSTEM>
0

>  <SCORE.SYSTEM.CONST>
0

>  <SCORE.SYSTEM.DIHEDRAL>
0

>  <SCORE.SYSTEM.SOLV>
0

>  <SCORE.SYSTEM.norm>
0

>  <SCORE.heavy>
17

>  <SCORE.norm>
-0.94569

>  <RMSD>
5.920

$$$$
ligand
 OpenBabel11021811503D
libRbt.so/2013.1/901 2013/11/27
 17 18  0  0  0  0  0  0  0  0999 V2000
    4.9943    4.9973   19.9273 N   0  0  0  0  0  0  0  0  0  0  0  0
    5.7167    4.5356   21.0350 C   0  0  0  0  0  0  0  0  0  0  0  0
    7.1482    4.6253   21.0371 N   0  0  0  0  0  0  0  0  0  0  0  0
    5.0811    4.0011   22.1348 N   0  0  0  0  0  0  0  0  0  0  0  0
    3.7063    3.8966   22.1800 C   0  0  0  0  0  0  0  0  0  0  0  0
    2.9183    4.3464   21.0746 C   0  0  0  0  0  0  0  0  0  0  0  0
    3.1631    3.4207   23.1587 O   0  0  0  0  0  0  0  0  0  0  0  0
    1.4609    4.2479   21.0829 N   0  0  0  0  0  0  0  0  0  0  0  0
    0.7090    4.8789   20.0578 C   0  0  2  0  0  0  0  0  0  0  0  0
    1.4657    4.9823   18.7067 C   0  0  0  0  0  0  0  0  0  0  0  0
    3.5954    4.9022   19.9476 C   0  0  0  0  0  0  0  0  0  0  0  0
    2.8040    5.3757   18.7969 N   0  0  0  0  0  0  0  0  0  0  0  0
    0.2261    6.2179   20.5847 C   0  0  1  0  0  0  0  0  0  0  0  0
   -0.1770    7.0321   19.5450 O   0  0  0  0  0  0  0  0  0  0  0  0
   -0.8949    6.0203   21.5609 C   0  0  1  0  0  0  0  0  0  0  0  0
   -1.7884    5.1420   21.0842 O   0  0  0  0  0  0  0  0  0  0  0  0
   -0.3698    5.4872   22.9109 C   0  0  0  0  0  0  0  0  0  0  0  0
  1  2  2  0  0  0  0
  1 11  1  0  0  0  0
  2  3  1  0  0  0  0
  2  4  1  0  0  0  0
  4  5  1  0  0  0  0
  5  6  1  0  0  0  0
  5  7  2  0  0  0  0
  6  8  1  0  0  0  0
  6 11  2  0  0  0  0
  9  8  1  1  0  0  0
  9 10  1  0  0  0  0
  9 13  1  0  0  0  0
 10 12  1  0  0  0  0
 11 12  1  0  0  0  0
 13 14  1  6  0  0  0
 13 15  1  0  0  0  0
 15 16  1  6  0  0  0
 15 17  1  0  0  0  0
M  END
>  <CHROM.1>
163.12747486,-45.75076156,2.25062330,4.96478092,20.88617379,-0.13331018,0.19145240
-1.19230455

>  <Name>
ligand

>  <RI>
0

>  <Rbt.Current_Directory>
/home/itssahil/PROJECTS/Mol_Feturizer/New_Systems/rnas/4LVX

>  <Rbt.Executable>
rbdock ($Id: //depot/dev/client3/rdock/2013.1/src/exe/rbdock.cxx#4 $)

>  <Rbt.Library>
libRbt.so (2013.1, Build901 2013/11/27)

>  <Rbt.Parameter_File>
/export/apps/rDock/src/rDock_2013.1_src/data/scripts/dock_solv.prm

>  <Rbt.Receptor>
prm/pocket_docking_6.prm

>  <SCORE>
-13.8872

>  <SCORE.INTER>
-8.4954

>  <SCORE.INTER.CONST>
1

>  <SCORE.INTER.POLAR>
0

>  <SCORE.INTER.ROT>
2

>  <SCORE.INTER.SOLV>
11.439

>  <SCORE.INTER.VDW>
-14.4099

>  <SCORE.INTER.norm>
-0.499729

>  <SCORE.INTRA>
-5.39179

>  <SCORE.INTRA.DIHEDRAL>
-8.53411

>  <SCORE.INTRA.DIHEDRAL.0>
10.3255

>  <SCORE.INTRA.POLAR>
0

>  <SCORE.INTRA.POLAR.0>
0

>  <SCORE.INTRA.REPUL>
0

>  <SCORE.INTRA.REPUL.0>
0

>  <SCORE.INTRA.SOLV>
0.307393

>  <SCORE.INTRA.SOLV.lig_0>
-53.4755

>  <SCORE.INTRA.VDW>
-1.27843

>  <SCORE.INTRA.VDW.0>
2.32763

>  <SCORE.INTRA.norm>
-0.317164

>  <SCORE.RESTR>
0

>  <SCORE.RESTR.CAVITY>
0

>  <SCORE.RESTR.norm>
0

>  <SCORE.SYSTEM>
0

>  <SCORE.SYSTEM.CONST>
0

>  <SCORE.SYSTEM.DIHEDRAL>
0

>  <SCORE.SYSTEM.SOLV>
0

>  <SCORE.SYSTEM.norm>
0

>  <SCORE.heavy>
17

>  <SCORE.norm>
-0.816893

>  <RMSD>
5.921

$$$$
ligand
 OpenBabel11021811503D
libRbt.so/2013.1/901 2013/11/27
 17 18  0  0  0  0  0  0  0  0999 V2000
    2.1809    5.5385   18.4045 N   0  0  0  0  0  0  0  0  0  0  0  0
    3.5770    5.5827   18.2999 C   0  0  0  0  0  0  0  0  0  0  0  0
    4.1841    6.0947   17.1055 N   0  0  0  0  0  0  0  0  0  0  0  0
    4.3880    5.1512   19.3272 N   0  0  0  0  0  0  0  0  0  0  0  0
    3.8503    4.6534   20.4960 C   0  0  0  0  0  0  0  0  0  0  0  0
    2.4310    4.5791   20.6554 C   0  0  0  0  0  0  0  0  0  0  0  0
    4.5820    4.2759   21.3913 O   0  0  0  0  0  0  0  0  0  0  0  0
    1.8241    4.0536   21.8757 N   0  0  0  0  0  0  0  0  0  0  0  0
    0.4238    4.1764   22.0721 C   0  0  2  0  0  0  0  0  0  0  0  0
   -0.3901    4.1870   20.7507 C   0  0  0  0  0  0  0  0  0  0  0  0
    1.6086    5.0365   19.5821 C   0  0  0  0  0  0  0  0  0  0  0  0
    0.1422    4.9726   19.7243 N   0  0  0  0  0  0  0  0  0  0  0  0
    0.1760    5.3930   22.9450 C   0  0  1  0  0  0  0  0  0  0  0  0
    0.6865    6.5297   22.3501 O   0  0  0  0  0  0  0  0  0  0  0  0
   -1.2910    5.5540   23.2105 C   0  0  1  0  0  0  0  0  0  0  0  0
   -1.8246    4.4000   23.6355 O   0  0  0  0  0  0  0  0  0  0  0  0
   -1.5469    6.6279   24.2892 C   0  0  0  0  0  0  0  0  0  0  0  0
  1  2  2  0  0  0  0
  1 11  1  0  0  0  0
  2  3  1  0  0  0  0
  2  4  1  0  0  0  0
  4  5  1  0  0  0  0
  5  6  1  0  0  0  0
  5  7  2  0  0  0  0
  6  8  1  0  0  0  0
  6 11  2  0  0  0  0
  9  8  1  6  0  0  0
  9 10  1  0  0  0  0
  9 13  1  0  0  0  0
 10 12  1  0  0  0  0
 11 12  1  0  0  0  0
 13 14  1  6  0  0  0
 13 15  1  0  0  0  0
 15 16  1  1  0  0  0
 15 17  1  0  0  0  0
M  END
>  <CHROM.1>
58.70946854,49.86029176,1.42300072,5.11758328,21.01902296,0.72512403,0.18317455
-1.39111323

>  <Name>
ligand

>  <RI>
0

>  <Rbt.Current_Directory>
/home/itssahil/PROJECTS/Mol_Feturizer/New_Systems/rnas/4LVX

>  <Rbt.Executable>
rbdock ($Id: //depot/dev/client3/rdock/2013.1/src/exe/rbdock.cxx#4 $)

>  <Rbt.Library>
libRbt.so (2013.1, Build901 2013/11/27)

>  <Rbt.Parameter_File>
/export/apps/rDock/src/rDock_2013.1_src/data/scripts/dock_solv.prm

>  <Rbt.Receptor>
prm/pocket_docking_7.prm

>  <SCORE>
-17.4594

>  <SCORE.INTER>
-10.5388

>  <SCORE.INTER.CONST>
1

>  <SCORE.INTER.POLAR>
0

>  <SCORE.INTER.ROT>
2

>  <SCORE.INTER.SOLV>
13.955

>  <SCORE.INTER.VDW>
-16.6109

>  <SCORE.INTER.norm>
-0.61993

>  <SCORE.INTRA>
-6.92056

>  <SCORE.INTRA.DIHEDRAL>
-9.78109

>  <SCORE.INTRA.DIHEDRAL.0>
10.3255

>  <SCORE.INTRA.POLAR>
0

>  <SCORE.INTRA.POLAR.0>
0

>  <SCORE.INTRA.REPUL>
0

>  <SCORE.INTRA.REPUL.0>
0

>  <SCORE.INTRA.SOLV>
-0.0676593

>  <SCORE.INTRA.SOLV.lig_0>
-53.4755

>  <SCORE.INTRA.VDW>
-1.99618

>  <SCORE.INTRA.VDW.0>
2.32763

>  <SCORE.INTRA.norm>
-0.407092

>  <SCORE.RESTR>
0

>  <SCORE.RESTR.CAVITY>
0

>  <SCORE.RESTR.norm>
0

>  <SCORE.SYSTEM>
0

>  <SCORE.SYSTEM.CONST>
0

>  <SCORE.SYSTEM.DIHEDRAL>
0

>  <SCORE.SYSTEM.SOLV>
0

>  <SCORE.SYSTEM.norm>
0

>  <SCORE.heavy>
17

>  <SCORE.norm>
-1.02702

>  <RMSD>
5.921

$$$$
ligand
 OpenBabel11021811503D
libRbt.so/2013.1/901 2013/11/27
 17 18  0  0  0  0  0  0  0  0999 V2000
    2.0376    5.4332   18.3150 N   0  0  0  0  0  0  0  0  0  0  0  0
    3.4258    5.5328   18.1569 C   0  0  0  0  0  0  0  0  0  0  0  0
    3.9671    6.0127   16.9185 N   0  0  0  0  0  0  0  0  0  0  0  0
    4.2908    5.1864   19.1724 N   0  0  0  0  0  0  0  0  0  0  0  0
    3.8172    4.7224   20.3820 C   0  0  0  0  0  0  0  0  0  0  0  0
    2.4091    4.5944   20.5971 C   0  0  0  0  0  0  0  0  0  0  0  0
    4.5960    4.4201   21.2661 O   0  0  0  0  0  0  0  0  0  0  0  0
    1.8694    4.1022   21.8621 N   0  0  0  0  0  0  0  0  0  0  0  0
    0.4728    4.1735   22.1043 C   0  0  2  0  0  0  0  0  0  0  0  0
   -0.3865    4.0856   20.8149 C   0  0  0  0  0  0  0  0  0  0  0  0
    1.5299    4.9638   19.5349 C   0  0  0  0  0  0  0  0  0  0  0  0
    0.0738    4.8435   19.7342 N   0  0  0  0  0  0  0  0  0  0  0  0
    0.2011    5.4187   22.9285 C   0  0  1  0  0  0  0  0  0  0  0  0
    0.6720    6.5429   22.2797 O   0  0  0  0  0  0  0  0  0  0  0  0
   -1.2666    5.5500   23.2063 C   0  0  1  0  0  0  0  0  0  0  0  0
   -1.7706    4.3889   23.6477 O   0  0  0  0  0  0  0  0  0  0  0  0
   -1.5361    6.6288   24.2768 C   0  0  0  0  0  0  0  0  0  0  0  0
  1  2  2  0  0  0  0
  1 11  1  0  0  0  0
  2  3  1  0  0  0  0
  2  4  1  0  0  0  0
  4  5  1  0  0  0  0
  5  6  1  0  0  0  0
  5  7  2  0  0  0  0
  6  8  1  0  0  0  0
  6 11  2  0  0  0  0
  9  8  1  6  0  0  0
  9 10  1  0  0  0  0
  9 13  1  0  0  0  0
 10 12  1  0  0  0  0
 11 12  1  0  0  0  0
 13 14  1  6  0  0  0
 13 15  1  0  0  0  0
 15 16  1  1  0  0  0
 15 17  1  0  0  0  0
M  END
>  <CHROM.1>
57.05628316,47.97175855,1.38966322,5.10674163,20.96555583,0.76427547,0.13617069
-1.45449464

>  <Name>
ligand

>  <RI>
0

>  <Rbt.Current_Directory>
/home/itssahil/PROJECTS/Mol_Feturizer/New_Systems/rnas/4LVX

>  <Rbt.Executable>
rbdock ($Id: //depot/dev/client3/rdock/2013.1/src/exe/rbdock.cxx#4 $)

>  <Rbt.Library>
libRbt.so (2013.1, Build901 2013/11/27)

>  <Rbt.Parameter_File>
/export/apps/rDock/src/rDock_2013.1_src/data/scripts/dock_solv.prm

>  <Rbt.Receptor>
prm/pocket_docking_6.prm

>  <SCORE>
-17.4932

>  <SCORE.INTER>
-10.7709

>  <SCORE.INTER.CONST>
1

>  <SCORE.INTER.POLAR>
0

>  <SCORE.INTER.ROT>
2

>  <SCORE.INTER.SOLV>
14.1369

>  <SCORE.INTER.VDW>
-16.8263

>  <SCORE.INTER.norm>
-0.633585

>  <SCORE.INTRA>
-6.72228

>  <SCORE.INTRA.DIHEDRAL>
-9.60718

>  <SCORE.INTRA.DIHEDRAL.0>
10.3255

>  <SCORE.INTRA.POLAR>
0

>  <SCORE.INTRA.POLAR.0>
0

>  <SCORE.INTRA.REPUL>
0

>  <SCORE.INTRA.REPUL.0>
0

>  <SCORE.INTRA.SOLV>
-0.0480421

>  <SCORE.INTRA.SOLV.lig_0>
-53.4755

>  <SCORE.INTRA.VDW>
-1.89467

>  <SCORE.INTRA.VDW.0>
2.32763

>  <SCORE.INTRA.norm>
-0.395428

>  <SCORE.RESTR>
0

>  <SCORE.RESTR.CAVITY>
0

>  <SCORE.RESTR.norm>
0

>  <SCORE.SYSTEM>
0

>  <SCORE.SYSTEM.CONST>
0

>  <SCORE.SYSTEM.DIHEDRAL>
0

>  <SCORE.SYSTEM.SOLV>
0

>  <SCORE.SYSTEM.norm>
0

>  <SCORE.heavy>
17

>  <SCORE.norm>
-1.02901

>  <RMSD>
5.922

$$$$
ligand
 OpenBabel11021811503D
libRbt.so/2013.1/901 2013/11/27
 17 18  0  0  0  0  0  0  0  0999 V2000
    2.1036    5.4244   18.3480 N   0  0  0  0  0  0  0  0  0  0  0  0
    3.4930    5.5250   18.2012 C   0  0  0  0  0  0  0  0  0  0  0  0
    4.0440    6.0071   16.9678 N   0  0  0  0  0  0  0  0  0  0  0  0
    4.3500    5.1776   19.2230 N   0  0  0  0  0  0  0  0  0  0  0  0
    3.8670    4.7115   20.4282 C   0  0  0  0  0  0  0  0  0  0  0  0
    2.4573    4.5824   20.6317 C   0  0  0  0  0  0  0  0  0  0  0  0
    4.6388    4.4083   21.3180 O   0  0  0  0  0  0  0  0  0  0  0  0
    1.9078    4.0880   21.8916 N   0  0  0  0  0  0  0  0  0  0  0  0
    0.5092    4.1583   22.1228 C   0  0  2  0  0  0  0  0  0  0  0  0
   -0.3396    4.0718   20.8264 C   0  0  0  0  0  0  0  0  0  0  0  0
    1.5865    4.9530   19.5631 C   0  0  0  0  0  0  0  0  0  0  0  0
    0.1289    4.8315   19.7505 N   0  0  0  0  0  0  0  0  0  0  0  0
    0.2303    5.4021   22.9466 C   0  0  1  0  0  0  0  0  0  0  0  0
    0.7259    6.5249   22.3141 O   0  0  0  0  0  0  0  0  0  0  0  0
   -1.2421    5.5455   23.1919 C   0  0  1  0  0  0  0  0  0  0  0  0
   -1.7667    4.3866   23.6146 O   0  0  0  0  0  0  0  0  0  0  0  0
   -1.5258    6.6205   24.2625 C   0  0  0  0  0  0  0  0  0  0  0  0
  1  2  2  0  0  0  0
  1 11  1  0  0  0  0
  2  3  1  0  0  0  0
  2  4  1  0  0  0  0
  4  5  1  0  0  0  0
  5  6  1  0  0  0  0
  5  7  2  0  0  0  0
  6  8  1  0  0  0  0
  6 11  2  0  0  0  0
  9  8  1  6  0  0  0
  9 10  1  0  0  0  0
  9 13  1  0  0  0  0
 10 12  1  0  0  0  0
 11 12  1  0  0  0  0
 13 14  1  6  0  0  0
 13 15  1  0  0  0  0
 15 16  1  1  0  0  0
 15 17  1  0  0  0  0
M  END
>  <CHROM.1>
56.03687169,47.89615239,1.43407836,5.09608864,20.98874773,0.75354070,0.13326071
-1.45474930

>  <Name>
ligand

>  <RI>
0

>  <Rbt.Current_Directory>
/home/itssahil/PROJECTS/Mol_Feturizer/New_Systems/rnas/4LVX

>  <Rbt.Executable>
rbdock ($Id: //depot/dev/client3/rdock/2013.1/src/exe/rbdock.cxx#4 $)

>  <Rbt.Library>
libRbt.so (2013.1, Build901 2013/11/27)

>  <Rbt.Parameter_File>
/export/apps/rDock/src/rDock_2013.1_src/data/scripts/dock_solv.prm

>  <Rbt.Receptor>
prm/pocket_docking_4.prm

>  <SCORE>
-17.4327

>  <SCORE.INTER>
-10.7666

>  <SCORE.INTER.CONST>
1

>  <SCORE.INTER.POLAR>
0

>  <SCORE.INTER.ROT>
2

>  <SCORE.INTER.SOLV>
14.0858

>  <SCORE.INTER.VDW>
-16.8064

>  <SCORE.INTER.norm>
-0.633332

>  <SCORE.INTRA>
-6.66602

>  <SCORE.INTRA.DIHEDRAL>
-9.57544

>  <SCORE.INTRA.DIHEDRAL.0>
10.3255

>  <SCORE.INTRA.POLAR>
0

>  <SCORE.INTRA.POLAR.0>
0

>  <SCORE.INTRA.REPUL>
0

>  <SCORE.INTRA.REPUL.0>
0

>  <SCORE.INTRA.SOLV>
-0.0419035

>  <SCORE.INTRA.SOLV.lig_0>
-53.4755

>  <SCORE.INTRA.VDW>
-1.85735

>  <SCORE.INTRA.VDW.0>
2.32763

>  <SCORE.INTRA.norm>
-0.392119

>  <SCORE.RESTR>
0

>  <SCORE.RESTR.CAVITY>
0

>  <SCORE.RESTR.norm>
0

>  <SCORE.SYSTEM>
0

>  <SCORE.SYSTEM.CONST>
0

>  <SCORE.SYSTEM.DIHEDRAL>
0

>  <SCORE.SYSTEM.SOLV>
0

>  <SCORE.SYSTEM.norm>
0

>  <SCORE.heavy>
17

>  <SCORE.norm>
-1.02545

>  <RMSD>
5.925

$$$$
ligand
 OpenBabel11021811503D
libRbt.so/2013.1/901 2013/11/27
 17 18  0  0  0  0  0  0  0  0999 V2000
    2.2003    5.5202   18.4029 N   0  0  0  0  0  0  0  0  0  0  0  0
    3.5969    5.5680   18.3059 C   0  0  0  0  0  0  0  0  0  0  0  0
    4.2091    6.0787   17.1136 N   0  0  0  0  0  0  0  0  0  0  0  0
    4.4034    5.1413   19.3388 N   0  0  0  0  0  0  0  0  0  0  0  0
    3.8606    4.6450   20.5058 C   0  0  0  0  0  0  0  0  0  0  0  0
    2.4407    4.5671   20.6575 C   0  0  0  0  0  0  0  0  0  0  0  0
    4.5885    4.2717   21.4060 O   0  0  0  0  0  0  0  0  0  0  0  0
    1.8285    4.0430   21.8759 N   0  0  0  0  0  0  0  0  0  0  0  0
    0.4269    4.1625   22.0643 C   0  0  2  0  0  0  0  0  0  0  0  0
   -0.3798    4.1675   20.7384 C   0  0  0  0  0  0  0  0  0  0  0  0
    1.6229    5.0196   19.5786 C   0  0  0  0  0  0  0  0  0  0  0  0
    0.1560    4.9520   19.7130 N   0  0  0  0  0  0  0  0  0  0  0  0
    0.1709    5.3806   22.9327 C   0  0  1  0  0  0  0  0  0  0  0  0
    0.6729    6.5186   22.3332 O   0  0  0  0  0  0  0  0  0  0  0  0
   -1.2970    5.5320   23.1986 C   0  0  1  0  0  0  0  0  0  0  0  0
   -1.8168    4.3831   23.6534 O   0  0  0  0  0  0  0  0  0  0  0  0
   -1.5617    6.6294   24.2514 C   0  0  0  0  0  0  0  0  0  0  0  0
  1  2  2  0  0  0  0
  1 11  1  0  0  0  0
  2  3  1  0  0  0  0
  2  4  1  0  0  0  0
  4  5  1  0  0  0  0
  5  6  1  0  0  0  0
  5  7  2  0  0  0  0
  6  8  1  0  0  0  0
  6 11  2  0  0  0  0
  9  8  1  6  0  0  0
  9 10  1  0  0  0  0
  9 13  1  0  0  0  0
 10 12  1  0  0  0  0
 11 12  1  0  0  0  0
 13 14  1  6  0  0  0
 13 15  1  0  0  0  0
 15 16  1  1  0  0  0
 15 17  1  0  0  0  0
M  END
>  <CHROM.1>
59.14913391,51.07649930,1.42970209,5.10446600,21.01630878,0.72052557,0.18431213
-1.38801942

>  <Name>
ligand

>  <RI>
0

>  <Rbt.Current_Directory>
/home/itssahil/PROJECTS/Mol_Feturizer/New_Systems/rnas/4LVX

>  <Rbt.Executable>
rbdock ($Id: //depot/dev/client3/rdock/2013.1/src/exe/rbdock.cxx#4 $)

>  <Rbt.Library>
libRbt.so (2013.1, Build901 2013/11/27)

>  <Rbt.Parameter_File>
/export/apps/rDock/src/rDock_2013.1_src/data/scripts/dock_solv.prm

>  <Rbt.Receptor>
prm/pocket_docking_4.prm

>  <SCORE>
-17.4192

>  <SCORE.INTER>
-10.424

>  <SCORE.INTER.CONST>
1

>  <SCORE.INTER.POLAR>
0

>  <SCORE.INTER.ROT>
2

>  <SCORE.INTER.SOLV>
14.1049

>  <SCORE.INTER.VDW>
-16.5843

>  <SCORE.INTER.norm>
-0.613175

>  <SCORE.INTRA>
-6.99523

>  <SCORE.INTRA.DIHEDRAL>
-9.86832

>  <SCORE.INTRA.DIHEDRAL.0>
10.3255

>  <SCORE.INTRA.POLAR>
0

>  <SCORE.INTRA.POLAR.0>
0

>  <SCORE.INTRA.REPUL>
0

>  <SCORE.INTRA.REPUL.0>
0

>  <SCORE.INTRA.SOLV>
-0.0767716

>  <SCORE.INTRA.SOLV.lig_0>
-53.4755

>  <SCORE.INTRA.VDW>
-2.02268

>  <SCORE.INTRA.VDW.0>
2.32763

>  <SCORE.INTRA.norm>
-0.411484

>  <SCORE.RESTR>
0

>  <SCORE.RESTR.CAVITY>
0

>  <SCORE.RESTR.norm>
0

>  <SCORE.SYSTEM>
0

>  <SCORE.SYSTEM.CONST>
0

>  <SCORE.SYSTEM.DIHEDRAL>
0

>  <SCORE.SYSTEM.SOLV>
0

>  <SCORE.SYSTEM.norm>
0

>  <SCORE.heavy>
17

>  <SCORE.norm>
-1.02466

>  <RMSD>
5.925

$$$$
ligand
 OpenBabel11021811503D
libRbt.so/2013.1/901 2013/11/27
 17 18  0  0  0  0  0  0  0  0999 V2000
    2.1970    5.5229   18.4075 N   0  0  0  0  0  0  0  0  0  0  0  0
    3.5931    5.5716   18.3054 C   0  0  0  0  0  0  0  0  0  0  0  0
    4.2007    6.0837   17.1113 N   0  0  0  0  0  0  0  0  0  0  0  0
    4.4037    5.1443   19.3348 N   0  0  0  0  0  0  0  0  0  0  0  0
    3.8656    4.6467   20.5034 C   0  0  0  0  0  0  0  0  0  0  0  0
    2.4463    4.5679   20.6604 C   0  0  0  0  0  0  0  0  0  0  0  0
    4.5970    4.2730   21.4006 O   0  0  0  0  0  0  0  0  0  0  0  0
    1.8389    4.0423   21.8805 N   0  0  0  0  0  0  0  0  0  0  0  0
    0.4379    4.1608   22.0742 C   0  0  2  0  0  0  0  0  0  0  0  0
   -0.3737    4.1666   20.7513 C   0  0  0  0  0  0  0  0  0  0  0  0
    1.6242    5.0208   19.5849 C   0  0  0  0  0  0  0  0  0  0  0  0
    0.1579    4.9523   19.7246 N   0  0  0  0  0  0  0  0  0  0  0  0
    0.1845    5.3780   22.9447 C   0  0  1  0  0  0  0  0  0  0  0  0
    0.6947    6.5150   22.3502 O   0  0  0  0  0  0  0  0  0  0  0  0
   -1.2838    5.5362   23.2047 C   0  0  1  0  0  0  0  0  0  0  0  0
   -1.8151    4.3837   23.6363 O   0  0  0  0  0  0  0  0  0  0  0  0
   -1.5462    6.6170   24.2751 C   0  0  0  0  0  0  0  0  0  0  0  0
  1  2  2  0  0  0  0
  1 11  1  0  0  0  0
  2  3  1  0  0  0  0
  2  4  1  0  0  0  0
  4  5  1  0  0  0  0
  5  6  1  0  0  0  0
  5  7  2  0  0  0  0
  6  8  1  0  0  0  0
  6 11  2  0  0  0  0
  9  8  1  6  0  0  0
  9 10  1  0  0  0  0
  9 13  1  0  0  0  0
 10 12  1  0  0  0  0
 11 12  1  0  0  0  0
 13 14  1  6  0  0  0
 13 15  1  0  0  0  0
 15 16  1  1  0  0  0
 15 17  1  0  0  0  0
M  END
>  <CHROM.1>
58.58177154,50.20089293,1.43582494,5.10447713,21.02095831,0.72338028,0.18062564
-1.39185248

>  <Name>
ligand

>  <RI>
0

>  <Rbt.Current_Directory>
/home/itssahil/PROJECTS/Mol_Feturizer/New_Systems/rnas/4LVX

>  <Rbt.Executable>
rbdock ($Id: //depot/dev/client3/rdock/2013.1/src/exe/rbdock.cxx#4 $)

>  <Rbt.Library>
libRbt.so (2013.1, Build901 2013/11/27)

>  <Rbt.Parameter_File>
/export/apps/rDock/src/rDock_2013.1_src/data/scripts/dock_solv.prm

>  <Rbt.Receptor>
prm/pocket_docking_6.prm

>  <SCORE>
-17.4555

>  <SCORE.INTER>
-10.5261

>  <SCORE.INTER.CONST>
1

>  <SCORE.INTER.POLAR>
0

>  <SCORE.INTER.ROT>
2

>  <SCORE.INTER.SOLV>
14.0441

>  <SCORE.INTER.VDW>
-16.6321

>  <SCORE.INTER.norm>
-0.619184

>  <SCORE.INTRA>
-6.92934

>  <SCORE.INTRA.DIHEDRAL>
-9.80414

>  <SCORE.INTRA.DIHEDRAL.0>
10.3255

>  <SCORE.INTRA.POLAR>
0

>  <SCORE.INTRA.POLAR.0>
0

>  <SCORE.INTRA.REPUL>
0

>  <SCORE.INTRA.REPUL.0>
0

>  <SCORE.INTRA.SOLV>
-0.0688415

>  <SCORE.INTRA.SOLV.lig_0>
-53.4755

>  <SCORE.INTRA.VDW>
-1.99285

>  <SCORE.INTRA.VDW.0>
2.32763

>  <SCORE.INTRA.norm>
-0.407609

>  <SCORE.RESTR>
0

>  <SCORE.RESTR.CAVITY>
0

>  <SCORE.RESTR.norm>
0

>  <SCORE.SYSTEM>
0

>  <SCORE.SYSTEM.CONST>
0

>  <SCORE.SYSTEM.DIHEDRAL>
0

>  <SCORE.SYSTEM.SOLV>
0

>  <SCORE.SYSTEM.norm>
0

>  <SCORE.heavy>
17

>  <SCORE.norm>
-1.02679

>  <RMSD>
5.925

$$$$
ligand
 OpenBabel11021811503D
libRbt.so/2013.1/901 2013/11/27
 17 18  0  0  0  0  0  0  0  0999 V2000
    2.0054    5.4295   18.2845 N   0  0  0  0  0  0  0  0  0  0  0  0
    3.3914    5.5358   18.1116 C   0  0  0  0  0  0  0  0  0  0  0  0
    3.9172    6.0145   16.8659 N   0  0  0  0  0  0  0  0  0  0  0  0
    4.2688    5.1974   19.1190 N   0  0  0  0  0  0  0  0  0  0  0  0
    3.8103    4.7349   20.3351 C   0  0  0  0  0  0  0  0  0  0  0  0
    2.4053    4.6002   20.5653 C   0  0  0  0  0  0  0  0  0  0  0  0
    4.5999    4.4397   21.2120 O   0  0  0  0  0  0  0  0  0  0  0  0
    1.8814    4.1094   21.8375 N   0  0  0  0  0  0  0  0  0  0  0  0
    0.4871    4.1742   22.0942 C   0  0  2  0  0  0  0  0  0  0  0  0
   -0.3851    4.0775   20.8141 C   0  0  0  0  0  0  0  0  0  0  0  0
    1.5131    4.9615   19.5113 C   0  0  0  0  0  0  0  0  0  0  0  0
    0.0598    4.8342   19.7262 N   0  0  0  0  0  0  0  0  0  0  0  0
    0.2175    5.4207   22.9171 C   0  0  1  0  0  0  0  0  0  0  0  0
    0.6948    6.5429   22.2695 O   0  0  0  0  0  0  0  0  0  0  0  0
   -1.2506    5.5576   23.1901 C   0  0  1  0  0  0  0  0  0  0  0  0
   -1.7655    4.3920   23.6063 O   0  0  0  0  0  0  0  0  0  0  0  0
   -1.5176    6.6175   24.2800 C   0  0  0  0  0  0  0  0  0  0  0  0
  1  2  2  0  0  0  0
  1 11  1  0  0  0  0
  2  3  1  0  0  0  0
  2  4  1  0  0  0  0
  4  5  1  0  0  0  0
  5  6  1  0  0  0  0
  5  7  2  0  0  0  0
  6  8  1  0  0  0  0
  6 11  2  0  0  0  0
  9  8  1  6  0  0  0
  9 10  1  0  0  0  0
  9 13  1  0  0  0  0
 10 12  1  0  0  0  0
 11 12  1  0  0  0  0
 13 14  1  6  0  0  0
 13 15  1  0  0  0  0
 15 16  1  1  0  0  0
 15 17  1  0  0  0  0
M  END
>  <CHROM.1>
56.09801452,46.81495346,1.38618961,5.10905918,20.93871189,0.77316101,0.12698844
-1.46459625

>  <Name>
ligand

>  <RI>
0

>  <Rbt.Current_Directory>
/home/itssahil/PROJECTS/Mol_Feturizer/New_Systems/rnas/4LVX

>  <Rbt.Executable>
rbdock ($Id: //depot/dev/client3/rdock/2013.1/src/exe/rbdock.cxx#4 $)

>  <Rbt.Library>
libRbt.so (2013.1, Build901 2013/11/27)

>  <Rbt.Parameter_File>
/export/apps/rDock/src/rDock_2013.1_src/data/scripts/dock_solv.prm

>  <Rbt.Receptor>
prm/pocket_docking_8.prm

>  <SCORE>
-17.5011

>  <SCORE.INTER>
-10.902

>  <SCORE.INTER.CONST>
1

>  <SCORE.INTER.POLAR>
0

>  <SCORE.INTER.ROT>
2

>  <SCORE.INTER.SOLV>
14.0907

>  <SCORE.INTER.VDW>
-16.8982

>  <SCORE.INTER.norm>
-0.641295

>  <SCORE.INTRA>
-6.59909

>  <SCORE.INTRA.DIHEDRAL>
-9.48232

>  <SCORE.INTRA.DIHEDRAL.0>
10.3255

>  <SCORE.INTRA.POLAR>
0

>  <SCORE.INTRA.POLAR.0>
0

>  <SCORE.INTRA.REPUL>
0

>  <SCORE.INTRA.REPUL.0>
0

>  <SCORE.INTRA.SOLV>
-0.0314521

>  <SCORE.INTRA.SOLV.lig_0>
-53.4755

>  <SCORE.INTRA.VDW>
-1.8422

>  <SCORE.INTRA.VDW.0>
2.32763

>  <SCORE.INTRA.norm>
-0.388182

>  <SCORE.RESTR>
0

>  <SCORE.RESTR.CAVITY>
0

>  <SCORE.RESTR.norm>
0

>  <SCORE.SYSTEM>
0

>  <SCORE.SYSTEM.CONST>
0

>  <SCORE.SYSTEM.DIHEDRAL>
0

>  <SCORE.SYSTEM.SOLV>
0

>  <SCORE.SYSTEM.norm>
0

>  <SCORE.heavy>
17

>  <SCORE.norm>
-1.02948

>  <RMSD>
5.926

$$$$
ligand
 OpenBabel11021811503D
libRbt.so/2013.1/901 2013/11/27
 17 18  0  0  0  0  0  0  0  0999 V2000
    2.1980    5.5091   18.3914 N   0  0  0  0  0  0  0  0  0  0  0  0
    3.5928    5.5757   18.2824 C   0  0  0  0  0  0  0  0  0  0  0  0
    4.1880    6.0802   17.0788 N   0  0  0  0  0  0  0  0  0  0  0  0
    4.4138    5.1734   19.3137 N   0  0  0  0  0  0  0  0  0  0  0  0
    3.8877    4.6840   20.4912 C   0  0  0  0  0  0  0  0  0  0  0  0
    2.4703    4.5877   20.6556 C   0  0  0  0  0  0  0  0  0  0  0  0
    4.6280    4.3324   21.3899 O   0  0  0  0  0  0  0  0  0  0  0  0
    1.8755    4.0701   21.8853 N   0  0  0  0  0  0  0  0  0  0  0  0
    0.4739    4.1717   22.0838 C   0  0  2  0  0  0  0  0  0  0  0  0
   -0.3434    4.1488   20.7646 C   0  0  0  0  0  0  0  0  0  0  0  0
    1.6373    5.0149   19.5779 C   0  0  0  0  0  0  0  0  0  0  0  0
    0.1727    4.9281   19.7253 N   0  0  0  0  0  0  0  0  0  0  0  0
    0.2074    5.3968   22.9392 C   0  0  1  0  0  0  0  0  0  0  0  0
    0.7025    6.5322   22.3292 O   0  0  0  0  0  0  0  0  0  0  0  0
   -1.2621    5.5404   23.2006 C   0  0  1  0  0  0  0  0  0  0  0  0
   -1.7807    4.3837   23.6365 O   0  0  0  0  0  0  0  0  0  0  0  0
   -1.5346    6.6218   24.2677 C   0  0  0  0  0  0  0  0  0  0  0  0
  1  2  2  0  0  0  0
  1 11  1  0  0  0  0
  2  3  1  0  0  0  0
  2  4  1  0  0  0  0
  4  5  1  0  0  0  0
  5  6  1  0  0  0  0
  5  7  2  0  0  0  0
  6  8  1  0  0  0  0
  6 11  2  0  0  0  0
  9  8  1  6  0  0  0
  9 10  1  0  0  0  0
  9 13  1  0  0  0  0
 10 12  1  0  0  0  0
 11 12  1  0  0  0  0
 13 14  1  6  0  0  0
 13 15  1  0  0  0  0
 15 16  1  1  0  0  0
 15 17  1  0  0  0  0
M  END
>  <CHROM.1>
58.42127265,49.64337522,1.45386349,5.11460372,21.01288831,0.73011466,0.16560346
-1.40830438

>  <Name>
ligand

>  <RI>
0

>  <Rbt.Current_Directory>
/home/itssahil/PROJECTS/Mol_Feturizer/New_Systems/rnas/4LVX

>  <Rbt.Executable>
rbdock ($Id: //depot/dev/client3/rdock/2013.1/src/exe/rbdock.cxx#4 $)

>  <Rbt.Library>
libRbt.so (2013.1, Build901 2013/11/27)

>  <Rbt.Parameter_File>
/export/apps/rDock/src/rDock_2013.1_src/data/scripts/dock_solv.prm

>  <Rbt.Receptor>
prm/pocket_docking_6.prm

>  <SCORE>
-17.4796

>  <SCORE.INTER>
-10.5849

>  <SCORE.INTER.CONST>
1

>  <SCORE.INTER.POLAR>
0

>  <SCORE.INTER.ROT>
2

>  <SCORE.INTER.SOLV>
13.8647

>  <SCORE.INTER.VDW>
-16.6115

>  <SCORE.INTER.norm>
-0.622643

>  <SCORE.INTRA>
-6.8947

>  <SCORE.INTRA.DIHEDRAL>
-9.76207

>  <SCORE.INTRA.DIHEDRAL.0>
10.3255

>  <SCORE.INTRA.POLAR>
0

>  <SCORE.INTRA.POLAR.0>
0

>  <SCORE.INTRA.REPUL>
0

>  <SCORE.INTRA.REPUL.0>
0

>  <SCORE.INTRA.SOLV>
-0.0648785

>  <SCORE.INTRA.SOLV.lig_0>
-53.4755

>  <SCORE.INTRA.VDW>
-1.98123

>  <SCORE.INTRA.VDW.0>
2.32763

>  <SCORE.INTRA.norm>
-0.405571

>  <SCORE.RESTR>
0

>  <SCORE.RESTR.CAVITY>
0

>  <SCORE.RESTR.norm>
0

>  <SCORE.SYSTEM>
0

>  <SCORE.SYSTEM.CONST>
0

>  <SCORE.SYSTEM.DIHEDRAL>
0

>  <SCORE.SYSTEM.SOLV>
0

>  <SCORE.SYSTEM.norm>
0

>  <SCORE.heavy>
17

>  <SCORE.norm>
-1.02821

>  <RMSD>
5.927

$$$$
ligand
 OpenBabel11021811503D
libRbt.so/2013.1/901 2013/11/27
 17 18  0  0  0  0  0  0  0  0999 V2000
    2.0973    5.4368   18.3424 N   0  0  0  0  0  0  0  0  0  0  0  0
    3.4888    5.5150   18.2021 C   0  0  0  0  0  0  0  0  0  0  0  0
    4.0531    5.9966   16.9746 N   0  0  0  0  0  0  0  0  0  0  0  0
    4.3354    5.1458   19.2250 N   0  0  0  0  0  0  0  0  0  0  0  0
    3.8394    4.6792   20.4247 C   0  0  0  0  0  0  0  0  0  0  0  0
    2.4269    4.5725   20.6214 C   0  0  0  0  0  0  0  0  0  0  0  0
    4.6023    4.3567   21.3155 O   0  0  0  0  0  0  0  0  0  0  0  0
    1.8637    4.0784   21.8753 N   0  0  0  0  0  0  0  0  0  0  0  0
    0.4656    4.1705   22.1011 C   0  0  2  0  0  0  0  0  0  0  0  0
   -0.3790    4.1077   20.8006 C   0  0  0  0  0  0  0  0  0  0  0  0
    1.5670    4.9654   19.5519 C   0  0  0  0  0  0  0  0  0  0  0  0
    0.1068    4.8672   19.7323 N   0  0  0  0  0  0  0  0  0  0  0  0
    0.2041    5.4128   22.9329 C   0  0  1  0  0  0  0  0  0  0  0  0
    0.6926    6.5359   22.2952 O   0  0  0  0  0  0  0  0  0  0  0  0
   -1.2636    5.5599   23.2028 C   0  0  1  0  0  0  0  0  0  0  0  0
   -1.7827    4.4040   23.6401 O   0  0  0  0  0  0  0  0  0  0  0  0
   -1.5270    6.6405   24.2731 C   0  0  0  0  0  0  0  0  0  0  0  0
  1  2  2  0  0  0  0
  1 11  1  0  0  0  0
  2  3  1  0  0  0  0
  2  4  1  0  0  0  0
  4  5  1  0  0  0  0
  5  6  1  0  0  0  0
  5  7  2  0  0  0  0
  6  8  1  0  0  0  0
  6 11  2  0  0  0  0
  9  8  1  6  0  0  0
  9 10  1  0  0  0  0
  9 13  1  0  0  0  0
 10 12  1  0  0  0  0
 11 12  1  0  0  0  0
 13 14  1  6  0  0  0
 13 15  1  0  0  0  0
 15 16  1  1  0  0  0
 15 17  1  0  0  0  0
M  END
>  <CHROM.1>
57.49134656,48.33539236,1.41183863,5.09774295,20.98369020,0.75099045,0.15265208
-1.44168906

>  <Name>
ligand

>  <RI>
0

>  <Rbt.Current_Directory>
/home/itssahil/PROJECTS/Mol_Feturizer/New_Systems/rnas/4LVX

>  <Rbt.Executable>
rbdock ($Id: //depot/dev/client3/rdock/2013.1/src/exe/rbdock.cxx#4 $)

>  <Rbt.Library>
libRbt.so (2013.1, Build901 2013/11/27)

>  <Rbt.Parameter_File>
/export/apps/rDock/src/rDock_2013.1_src/data/scripts/dock_solv.prm

>  <Rbt.Receptor>
prm/pocket_docking_6.prm

>  <SCORE>
-17.4981

>  <SCORE.INTER>
-10.7267

>  <SCORE.INTER.CONST>
1

>  <SCORE.INTER.POLAR>
0

>  <SCORE.INTER.ROT>
2

>  <SCORE.INTER.SOLV>
14.2629

>  <SCORE.INTER.VDW>
-16.8388

>  <SCORE.INTER.norm>
-0.630985

>  <SCORE.INTRA>
-6.77138

>  <SCORE.INTRA.DIHEDRAL>
-9.64601

>  <SCORE.INTRA.DIHEDRAL.0>
10.3255

>  <SCORE.INTRA.POLAR>
0

>  <SCORE.INTRA.POLAR.0>
0

>  <SCORE.INTRA.REPUL>
0

>  <SCORE.INTRA.REPUL.0>
0

>  <SCORE.INTRA.SOLV>
-0.0524903

>  <SCORE.INTRA.SOLV.lig_0>
-53.4755

>  <SCORE.INTRA.VDW>
-1.92213

>  <SCORE.INTRA.VDW.0>
2.32763

>  <SCORE.INTRA.norm>
-0.398316

>  <SCORE.RESTR>
0

>  <SCORE.RESTR.CAVITY>
0

>  <SCORE.RESTR.norm>
0

>  <SCORE.SYSTEM>
0

>  <SCORE.SYSTEM.CONST>
0

>  <SCORE.SYSTEM.DIHEDRAL>
0

>  <SCORE.SYSTEM.SOLV>
0

>  <SCORE.SYSTEM.norm>
0

>  <SCORE.heavy>
17

>  <SCORE.norm>
-1.0293

>  <RMSD>
5.927

$$$$
ligand
 OpenBabel11021811503D
libRbt.so/2013.1/901 2013/11/27
 17 18  0  0  0  0  0  0  0  0999 V2000
    2.1879    5.5388   18.3904 N   0  0  0  0  0  0  0  0  0  0  0  0
    3.5836    5.5842   18.2816 C   0  0  0  0  0  0  0  0  0  0  0  0
    4.1867    6.0973   17.0857 N   0  0  0  0  0  0  0  0  0  0  0  0
    4.3981    5.1527   19.3062 N   0  0  0  0  0  0  0  0  0  0  0  0
    3.8643    4.6539   20.4764 C   0  0  0  0  0  0  0  0  0  0  0  0
    2.4456    4.5784   20.6400 C   0  0  0  0  0  0  0  0  0  0  0  0
    4.5991    4.2764   21.3692 O   0  0  0  0  0  0  0  0  0  0  0  0
    1.8427    4.0518   21.8619 N   0  0  0  0  0  0  0  0  0  0  0  0
    0.4430    4.1734   22.0626 C   0  0  2  0  0  0  0  0  0  0  0  0
   -0.3749    4.1842   20.7437 C   0  0  0  0  0  0  0  0  0  0  0  0
    1.6195    5.0358   19.5694 C   0  0  0  0  0  0  0  0  0  0  0  0
    0.1537    4.9707   19.7161 N   0  0  0  0  0  0  0  0  0  0  0  0
    0.1969    5.3894   22.9369 C   0  0  1  0  0  0  0  0  0  0  0  0
    0.7028    6.5271   22.3401 O   0  0  0  0  0  0  0  0  0  0  0  0
   -1.2692    5.5478   23.2089 C   0  0  1  0  0  0  0  0  0  0  0  0
   -1.7975    4.3946   23.6424 O   0  0  0  0  0  0  0  0  0  0  0  0
   -1.5226    6.6266   24.2833 C   0  0  0  0  0  0  0  0  0  0  0  0
  1  2  2  0  0  0  0
  1 11  1  0  0  0  0
  2  3  1  0  0  0  0
  2  4  1  0  0  0  0
  4  5  1  0  0  0  0
  5  6  1  0  0  0  0
  5  7  2  0  0  0  0
  6  8  1  0  0  0  0
  6 11  2  0  0  0  0
  9  8  1  6  0  0  0
  9 10  1  0  0  0  0
  9 13  1  0  0  0  0
 10 12  1  0  0  0  0
 11 12  1  0  0  0  0
 13 14  1  6  0  0  0
 13 15  1  0  0  0  0
 15 16  1  1  0  0  0
 15 17  1  0  0  0  0
M  END
>  <CHROM.1>
58.80445078,50.17656552,1.43838572,5.11619462,21.00744300,0.72835715,0.18420089
-1.38999874

>  <Name>
ligand

>  <RI>
0

>  <Rbt.Current_Directory>
/home/itssahil/PROJECTS/Mol_Feturizer/New_Systems/rnas/4LVX

>  <Rbt.Executable>
rbdock ($Id: //depot/dev/client3/rdock/2013.1/src/exe/rbdock.cxx#4 $)

>  <Rbt.Library>
libRbt.so (2013.1, Build901 2013/11/27)

>  <Rbt.Parameter_File>
/export/apps/rDock/src/rDock_2013.1_src/data/scripts/dock_solv.prm

>  <Rbt.Receptor>
prm/pocket_docking_4.prm

>  <SCORE>
-17.4719

>  <SCORE.INTER>
-10.5319

>  <SCORE.INTER.CONST>
1

>  <SCORE.INTER.POLAR>
0

>  <SCORE.INTER.ROT>
2

>  <SCORE.INTER.SOLV>
13.9428

>  <SCORE.INTER.VDW>
-16.6022

>  <SCORE.INTER.norm>
-0.619524

>  <SCORE.INTRA>
-6.94001

>  <SCORE.INTRA.DIHEDRAL>
-9.80464

>  <SCORE.INTRA.DIHEDRAL.0>
10.3255

>  <SCORE.INTRA.POLAR>
0

>  <SCORE.INTRA.POLAR.0>
0

>  <SCORE.INTRA.REPUL>
0

>  <SCORE.INTRA.REPUL.0>
0

>  <SCORE.INTRA.SOLV>
-0.0699251

>  <SCORE.INTRA.SOLV.lig_0>
-53.4755

>  <SCORE.INTRA.VDW>
-2.00273

>  <SCORE.INTRA.VDW.0>
2.32763

>  <SCORE.INTRA.norm>
-0.408236

>  <SCORE.RESTR>
0

>  <SCORE.RESTR.CAVITY>
0

>  <SCORE.RESTR.norm>
0

>  <SCORE.SYSTEM>
0

>  <SCORE.SYSTEM.CONST>
0

>  <SCORE.SYSTEM.DIHEDRAL>
0

>  <SCORE.SYSTEM.SOLV>
0

>  <SCORE.SYSTEM.norm>
0

>  <SCORE.heavy>
17

>  <SCORE.norm>
-1.02776

>  <RMSD>
5.928

$$$$
ligand
 OpenBabel11021811503D
libRbt.so/2013.1/901 2013/11/27
 17 18  0  0  0  0  0  0  0  0999 V2000
    2.2035    5.5206   18.3870 N   0  0  0  0  0  0  0  0  0  0  0  0
    3.5998    5.5692   18.2871 C   0  0  0  0  0  0  0  0  0  0  0  0
    4.2093    6.0782   17.0927 N   0  0  0  0  0  0  0  0  0  0  0  0
    4.4087    5.1448   19.3191 N   0  0  0  0  0  0  0  0  0  0  0  0
    3.8687    4.6501   20.4881 C   0  0  0  0  0  0  0  0  0  0  0  0
    2.4491    4.5715   20.6428 C   0  0  0  0  0  0  0  0  0  0  0  0
    4.5986    4.2789   21.3875 O   0  0  0  0  0  0  0  0  0  0  0  0
    1.8397    4.0491   21.8632 N   0  0  0  0  0  0  0  0  0  0  0  0
    0.4384    4.1679   22.0543 C   0  0  2  0  0  0  0  0  0  0  0  0
   -0.3710    4.1701   20.7300 C   0  0  0  0  0  0  0  0  0  0  0  0
    1.6288    5.0215   19.5647 C   0  0  0  0  0  0  0  0  0  0  0  0
    0.1622    4.9532   19.7021 N   0  0  0  0  0  0  0  0  0  0  0  0
    0.1833    5.3874   22.9211 C   0  0  1  0  0  0  0  0  0  0  0  0
    0.6837    6.5246   22.3188 O   0  0  0  0  0  0  0  0  0  0  0  0
   -1.2843    5.5385   23.1892 C   0  0  1  0  0  0  0  0  0  0  0  0
   -1.8068    4.3845   23.6276 O   0  0  0  0  0  0  0  0  0  0  0  0
   -1.5462    6.6214   24.2576 C   0  0  0  0  0  0  0  0  0  0  0  0
  1  2  2  0  0  0  0
  1 11  1  0  0  0  0
  2  3  1  0  0  0  0
  2  4  1  0  0  0  0
  4  5  1  0  0  0  0
  5  6  1  0  0  0  0
  5  7  2  0  0  0  0
  6  8  1  0  0  0  0
  6 11  2  0  0  0  0
  9  8  1  6  0  0  0
  9 10  1  0  0  0  0
  9 13  1  0  0  0  0
 10 12  1  0  0  0  0
 11 12  1  0  0  0  0
 13 14  1  6  0  0  0
 13 15  1  0  0  0  0
 15 16  1  1  0  0  0
 15 17  1  0  0  0  0
M  END
>  <CHROM.1>
59.12753336,50.14393918,1.43822773,5.10742985,21.00231380,0.72319513,0.18067189
-1.39290331

>  <Name>
ligand

>  <RI>
0

>  <Rbt.Current_Directory>
/home/itssahil/PROJECTS/Mol_Feturizer/New_Systems/rnas/4LVX

>  <Rbt.Executable>
rbdock ($Id: //depot/dev/client3/rdock/2013.1/src/exe/rbdock.cxx#4 $)

>  <Rbt.Library>
libRbt.so (2013.1, Build901 2013/11/27)

>  <Rbt.Parameter_File>
/export/apps/rDock/src/rDock_2013.1_src/data/scripts/dock_solv.prm

>  <Rbt.Receptor>
prm/pocket_docking_4.prm

>  <SCORE>
-17.4194

>  <SCORE.INTER>
-10.4644

>  <SCORE.INTER.CONST>
1

>  <SCORE.INTER.POLAR>
0

>  <SCORE.INTER.ROT>
2

>  <SCORE.INTER.SOLV>
14.067

>  <SCORE.INTER.VDW>
-16.5986

>  <SCORE.INTER.norm>
-0.615555

>  <SCORE.INTRA>
-6.95501

>  <SCORE.INTRA.DIHEDRAL>
-9.80492

>  <SCORE.INTRA.DIHEDRAL.0>
10.3255

>  <SCORE.INTRA.POLAR>
0

>  <SCORE.INTRA.POLAR.0>
0

>  <SCORE.INTRA.REPUL>
0

>  <SCORE.INTRA.REPUL.0>
0

>  <SCORE.INTRA.SOLV>
-0.0715115

>  <SCORE.INTRA.SOLV.lig_0>
-53.4755

>  <SCORE.INTRA.VDW>
-2.01679

>  <SCORE.INTRA.VDW.0>
2.32763

>  <SCORE.INTRA.norm>
-0.409118

>  <SCORE.RESTR>
0

>  <SCORE.RESTR.CAVITY>
0

>  <SCORE.RESTR.norm>
0

>  <SCORE.SYSTEM>
0

>  <SCORE.SYSTEM.CONST>
0

>  <SCORE.SYSTEM.DIHEDRAL>
0

>  <SCORE.SYSTEM.SOLV>
0

>  <SCORE.SYSTEM.norm>
0

>  <SCORE.heavy>
17

>  <SCORE.norm>
-1.02467

>  <RMSD>
5.931

$$$$
ligand
 OpenBabel11021811503D
libRbt.so/2013.1/901 2013/11/27
 17 18  0  0  0  0  0  0  0  0999 V2000
    2.1440    5.4580   18.3465 N   0  0  0  0  0  0  0  0  0  0  0  0
    3.5364    5.5413   18.2188 C   0  0  0  0  0  0  0  0  0  0  0  0
    4.1100    6.0278   16.9975 N   0  0  0  0  0  0  0  0  0  0  0  0
    4.3752    5.1725   19.2482 N   0  0  0  0  0  0  0  0  0  0  0  0
    3.8702    4.7013   20.4424 C   0  0  0  0  0  0  0  0  0  0  0  0
    2.4564    4.5893   20.6263 C   0  0  0  0  0  0  0  0  0  0  0  0
    4.6262    4.3793   21.3392 O   0  0  0  0  0  0  0  0  0  0  0  0
    1.8838    4.0902   21.8740 N   0  0  0  0  0  0  0  0  0  0  0  0
    0.4834    4.1771   22.0876 C   0  0  2  0  0  0  0  0  0  0  0  0
   -0.3494    4.1146   20.7795 C   0  0  0  0  0  0  0  0  0  0  0  0
    1.6047    4.9819   19.5501 C   0  0  0  0  0  0  0  0  0  0  0  0
    0.1432    4.8783   19.7174 N   0  0  0  0  0  0  0  0  0  0  0  0
    0.2102    5.4165   22.9199 C   0  0  1  0  0  0  0  0  0  0  0  0
    0.6827    6.5451   22.2800 O   0  0  0  0  0  0  0  0  0  0  0  0
   -1.2580    5.5461   23.1957 C   0  0  1  0  0  0  0  0  0  0  0  0
   -1.7639    4.3808   23.6236 O   0  0  0  0  0  0  0  0  0  0  0  0
   -1.5291    6.6138   24.2769 C   0  0  0  0  0  0  0  0  0  0  0  0
  1  2  2  0  0  0  0
  1 11  1  0  0  0  0
  2  3  1  0  0  0  0
  2  4  1  0  0  0  0
  4  5  1  0  0  0  0
  5  6  1  0  0  0  0
  5  7  2  0  0  0  0
  6  8  1  0  0  0  0
  6 11  2  0  0  0  0
  9  8  1  6  0  0  0
  9 10  1  0  0  0  0
  9 13  1  0  0  0  0
 10 12  1  0  0  0  0
 11 12  1  0  0  0  0
 13 14  1  6  0  0  0
 13 15  1  0  0  0  0
 15 16  1  1  0  0  0
 15 17  1  0  0  0  0
M  END
>  <CHROM.1>
58.39245204,47.76036915,1.43678676,5.10712693,20.98420800,0.74527609,0.14722282
-1.43719007

>  <Name>
ligand

>  <RI>
0

>  <Rbt.Current_Directory>
/home/itssahil/PROJECTS/Mol_Feturizer/New_Systems/rnas/4LVX

>  <Rbt.Executable>
rbdock ($Id: //depot/dev/client3/rdock/2013.1/src/exe/rbdock.cxx#4 $)

>  <Rbt.Library>
libRbt.so (2013.1, Build901 2013/11/27)

>  <Rbt.Parameter_File>
/export/apps/rDock/src/rDock_2013.1_src/data/scripts/dock_solv.prm

>  <Rbt.Receptor>
prm/pocket_docking_6.prm

>  <SCORE>
-17.5111

>  <SCORE.INTER>
-10.7194

>  <SCORE.INTER.CONST>
1

>  <SCORE.INTER.POLAR>
0

>  <SCORE.INTER.ROT>
2

>  <SCORE.INTER.SOLV>
14.0445

>  <SCORE.INTER.VDW>
-16.7611

>  <SCORE.INTER.norm>
-0.630552

>  <SCORE.INTRA>
-6.79177

>  <SCORE.INTRA.DIHEDRAL>
-9.61157

>  <SCORE.INTRA.DIHEDRAL.0>
10.3255

>  <SCORE.INTRA.POLAR>
0

>  <SCORE.INTRA.POLAR.0>
0

>  <SCORE.INTRA.REPUL>
0

>  <SCORE.INTRA.REPUL.0>
0

>  <SCORE.INTRA.SOLV>
-0.0543508

>  <SCORE.INTRA.SOLV.lig_0>
-53.4755

>  <SCORE.INTRA.VDW>
-1.95881

>  <SCORE.INTRA.VDW.0>
2.32763

>  <SCORE.INTRA.norm>
-0.399516

>  <SCORE.RESTR>
0

>  <SCORE.RESTR.CAVITY>
0

>  <SCORE.RESTR.norm>
0

>  <SCORE.SYSTEM>
0

>  <SCORE.SYSTEM.CONST>
0

>  <SCORE.SYSTEM.DIHEDRAL>
0

>  <SCORE.SYSTEM.SOLV>
0

>  <SCORE.SYSTEM.norm>
0

>  <SCORE.heavy>
17

>  <SCORE.norm>
-1.03007

>  <RMSD>
5.931

$$$$
ligand
 OpenBabel11021811503D
libRbt.so/2013.1/901 2013/11/27
 17 18  0  0  0  0  0  0  0  0999 V2000
    2.3582    5.6543   18.4674 N   0  0  0  0  0  0  0  0  0  0  0  0
    3.7576    5.6606   18.4054 C   0  0  0  0  0  0  0  0  0  0  0  0
    4.4150    6.1924   17.2469 N   0  0  0  0  0  0  0  0  0  0  0  0
    4.5244    5.1725   19.4414 N   0  0  0  0  0  0  0  0  0  0  0  0
    3.9375    4.6536   20.5768 C   0  0  0  0  0  0  0  0  0  0  0  0
    2.5125    4.6162   20.6918 C   0  0  0  0  0  0  0  0  0  0  0  0
    4.6306    4.2261   21.4803 O   0  0  0  0  0  0  0  0  0  0  0  0
    1.8540    4.0700   21.8758 N   0  0  0  0  0  0  0  0  0  0  0  0
    0.4526    4.2278   22.0350 C   0  0  2  0  0  0  0  0  0  0  0  0
   -0.3203    4.3048   20.6913 C   0  0  0  0  0  0  0  0  0  0  0  0
    1.7363    5.1319   19.6105 C   0  0  0  0  0  0  0  0  0  0  0  0
    0.2651    5.1068   19.7074 N   0  0  0  0  0  0  0  0  0  0  0  0
    0.2132    5.4226   22.9398 C   0  0  1  0  0  0  0  0  0  0  0  0
    0.7358    6.5702   22.3773 O   0  0  0  0  0  0  0  0  0  0  0  0
   -1.2531    5.5898   23.2056 C   0  0  1  0  0  0  0  0  0  0  0  0
   -1.7903    4.4395   23.6359 O   0  0  0  0  0  0  0  0  0  0  0  0
   -1.5045    6.6693   24.2797 C   0  0  0  0  0  0  0  0  0  0  0  0
  1  2  2  0  0  0  0
  1 11  1  0  0  0  0
  2  3  1  0  0  0  0
  2  4  1  0  0  0  0
  4  5  1  0  0  0  0
  5  6  1  0  0  0  0
  5  7  2  0  0  0  0
  6  8  1  0  0  0  0
  6 11  2  0  0  0  0
  9  8  1  6  0  0  0
  9 10  1  0  0  0  0
  9 13  1  0  0  0  0
 10 12  1  0  0  0  0
 11 12  1  0  0  0  0
 13 14  1  6  0  0  0
 13 15  1  0  0  0  0
 15 16  1  1  0  0  0
 15 17  1  0  0  0  0
M  END
>  <CHROM.1>
60.65758756,51.70045674,1.51088097,5.16972595,21.05110805,0.69307760,0.21444063
-1.34082647

>  <Name>
ligand

>  <RI>
0

>  <Rbt.Current_Directory>
/home/itssahil/PROJECTS/Mol_Feturizer/New_Systems/rnas/4LVX

>  <Rbt.Executable>
rbdock ($Id: //depot/dev/client3/rdock/2013.1/src/exe/rbdock.cxx#4 $)

>  <Rbt.Library>
libRbt.so (2013.1, Build901 2013/11/27)

>  <Rbt.Parameter_File>
/export/apps/rDock/src/rDock_2013.1_src/data/scripts/dock_solv.prm

>  <Rbt.Receptor>
prm/pocket_docking_4.prm

>  <SCORE>
-17.3221

>  <SCORE.INTER>
-10.2378

>  <SCORE.INTER.CONST>
1

>  <SCORE.INTER.POLAR>
0

>  <SCORE.INTER.ROT>
2

>  <SCORE.INTER.SOLV>
13.0972

>  <SCORE.INTER.VDW>
-16.1243

>  <SCORE.INTER.norm>
-0.602224

>  <SCORE.INTRA>
-7.08431

>  <SCORE.INTRA.DIHEDRAL>
-9.90963

>  <SCORE.INTRA.DIHEDRAL.0>
10.3255

>  <SCORE.INTRA.POLAR>
0

>  <SCORE.INTRA.POLAR.0>
0

>  <SCORE.INTRA.REPUL>
0

>  <SCORE.INTRA.REPUL.0>
0

>  <SCORE.INTRA.SOLV>
-0.0883395

>  <SCORE.INTRA.SOLV.lig_0>
-53.4755

>  <SCORE.INTRA.VDW>
-2.08533

>  <SCORE.INTRA.VDW.0>
2.32763

>  <SCORE.INTRA.norm>
-0.416724

>  <SCORE.RESTR>
0

>  <SCORE.RESTR.CAVITY>
0

>  <SCORE.RESTR.norm>
0

>  <SCORE.SYSTEM>
0

>  <SCORE.SYSTEM.CONST>
0

>  <SCORE.SYSTEM.DIHEDRAL>
0

>  <SCORE.SYSTEM.SOLV>
0

>  <SCORE.SYSTEM.norm>
0

>  <SCORE.heavy>
17

>  <SCORE.norm>
-1.01895

>  <RMSD>
5.932

$$$$
ligand
 OpenBabel11021811503D
libRbt.so/2013.1/901 2013/11/27
 17 18  0  0  0  0  0  0  0  0999 V2000
    2.1900    5.4957   18.3695 N   0  0  0  0  0  0  0  0  0  0  0  0
    3.5845    5.5629   18.2561 C   0  0  0  0  0  0  0  0  0  0  0  0
    4.1758    6.0618   17.0484 N   0  0  0  0  0  0  0  0  0  0  0  0
    4.4087    5.1664   19.2871 N   0  0  0  0  0  0  0  0  0  0  0  0
    3.8863    4.6824   20.4686 C   0  0  0  0  0  0  0  0  0  0  0  0
    2.4695    4.5858   20.6375 C   0  0  0  0  0  0  0  0  0  0  0  0
    4.6295    4.3359   21.3669 O   0  0  0  0  0  0  0  0  0  0  0  0
    1.8787    4.0738   21.8714 N   0  0  0  0  0  0  0  0  0  0  0  0
    0.4775    4.1753   22.0734 C   0  0  2  0  0  0  0  0  0  0  0  0
   -0.3435    4.1451   20.7567 C   0  0  0  0  0  0  0  0  0  0  0  0
    1.6331    5.0069   19.5601 C   0  0  0  0  0  0  0  0  0  0  0  0
    0.1690    4.9196   19.7120 N   0  0  0  0  0  0  0  0  0  0  0  0
    0.2125    5.4045   22.9235 C   0  0  1  0  0  0  0  0  0  0  0  0
    0.6964    6.5384   22.3019 O   0  0  0  0  0  0  0  0  0  0  0  0
   -1.2554    5.5424   23.1970 C   0  0  1  0  0  0  0  0  0  0  0  0
   -1.7676    4.3814   23.6290 O   0  0  0  0  0  0  0  0  0  0  0  0
   -1.5225    6.6158   24.2735 C   0  0  0  0  0  0  0  0  0  0  0  0
  1  2  2  0  0  0  0
  1 11  1  0  0  0  0
  2  3  1  0  0  0  0
  2  4  1  0  0  0  0
  4  5  1  0  0  0  0
  5  6  1  0  0  0  0
  5  7  2  0  0  0  0
  6  8  1  0  0  0  0
  6 11  2  0  0  0  0
  9  8  1  6  0  0  0
  9 10  1  0  0  0  0
  9 13  1  0  0  0  0
 10 12  1  0  0  0  0
 11 12  1  0  0  0  0
 13 14  1  6  0  0  0
 13 15  1  0  0  0  0
 15 16  1  1  0  0  0
 15 17  1  0  0  0  0
M  END
>  <CHROM.1>
58.84888769,48.87686344,1.45376361,5.11137807,20.99648903,0.73467397,0.16310342
-1.41479153

>  <Name>
ligand

>  <RI>
0

>  <Rbt.Current_Directory>
/home/itssahil/PROJECTS/Mol_Feturizer/New_Systems/rnas/4LVX

>  <Rbt.Executable>
rbdock ($Id: //depot/dev/client3/rdock/2013.1/src/exe/rbdock.cxx#4 $)

>  <Rbt.Library>
libRbt.so (2013.1, Build901 2013/11/27)

>  <Rbt.Parameter_File>
/export/apps/rDock/src/rDock_2013.1_src/data/scripts/dock_solv.prm

>  <Rbt.Receptor>
prm/pocket_docking_6.prm

>  <SCORE>
-17.4715

>  <SCORE.INTER>
-10.5923

>  <SCORE.INTER.CONST>
1

>  <SCORE.INTER.POLAR>
0

>  <SCORE.INTER.ROT>
2

>  <SCORE.INTER.SOLV>
13.9533

>  <SCORE.INTER.VDW>
-16.646

>  <SCORE.INTER.norm>
-0.623079

>  <SCORE.INTRA>
-6.87912

>  <SCORE.INTRA.DIHEDRAL>
-9.70796

>  <SCORE.INTRA.DIHEDRAL.0>
10.3255

>  <SCORE.INTRA.POLAR>
0

>  <SCORE.INTRA.POLAR.0>
0

>  <SCORE.INTRA.REPUL>
0

>  <SCORE.INTRA.REPUL.0>
0

>  <SCORE.INTRA.SOLV>
-0.0630142

>  <SCORE.INTRA.SOLV.lig_0>
-53.4755

>  <SCORE.INTRA.VDW>
-1.99363

>  <SCORE.INTRA.VDW.0>
2.32763

>  <SCORE.INTRA.norm>
-0.404654

>  <SCORE.RESTR>
0

>  <SCORE.RESTR.CAVITY>
0

>  <SCORE.RESTR.norm>
0

>  <SCORE.SYSTEM>
0

>  <SCORE.SYSTEM.CONST>
0

>  <SCORE.SYSTEM.DIHEDRAL>
0

>  <SCORE.SYSTEM.SOLV>
0

>  <SCORE.SYSTEM.norm>
0

>  <SCORE.heavy>
17

>  <SCORE.norm>
-1.02773

>  <RMSD>
5.933

$$$$
ligand
 OpenBabel11021811503D
libRbt.so/2013.1/901 2013/11/27
 17 18  0  0  0  0  0  0  0  0999 V2000
    2.2876    5.6262   18.4218 N   0  0  0  0  0  0  0  0  0  0  0  0
    3.6857    5.6405   18.3377 C   0  0  0  0  0  0  0  0  0  0  0  0
    4.3214    6.1626   17.1627 N   0  0  0  0  0  0  0  0  0  0  0  0
    4.4719    5.1696   19.3670 N   0  0  0  0  0  0  0  0  0  0  0  0
    3.9063    4.6606   20.5177 C   0  0  0  0  0  0  0  0  0  0  0  0
    2.4836    4.6157   20.6557 C   0  0  0  0  0  0  0  0  0  0  0  0
    4.6163    4.2482   21.4150 O   0  0  0  0  0  0  0  0  0  0  0  0
    1.8474    4.0796   21.8564 N   0  0  0  0  0  0  0  0  0  0  0  0
    0.4476    4.2306   22.0358 C   0  0  2  0  0  0  0  0  0  0  0  0
   -0.3468    4.2868   20.7037 C   0  0  0  0  0  0  0  0  0  0  0  0
    1.6872    5.1137   19.5807 C   0  0  0  0  0  0  0  0  0  0  0  0
    0.2179    5.0807   19.7013 N   0  0  0  0  0  0  0  0  0  0  0  0
    0.2149    5.4346   22.9301 C   0  0  1  0  0  0  0  0  0  0  0  0
    0.7354    6.5759   22.3532 O   0  0  0  0  0  0  0  0  0  0  0  0
   -1.2495    5.6060   23.2030 C   0  0  1  0  0  0  0  0  0  0  0  0
   -1.7910    4.4537   23.6224 O   0  0  0  0  0  0  0  0  0  0  0  0
   -1.4918    6.6748   24.2899 C   0  0  0  0  0  0  0  0  0  0  0  0
  1  2  2  0  0  0  0
  1 11  1  0  0  0  0
  2  3  1  0  0  0  0
  2  4  1  0  0  0  0
  4  5  1  0  0  0  0
  5  6  1  0  0  0  0
  5  7  2  0  0  0  0
  6  8  1  0  0  0  0
  6 11  2  0  0  0  0
  9  8  1  6  0  0  0
  9 10  1  0  0  0  0
  9 13  1  0  0  0  0
 10 12  1  0  0  0  0
 11 12  1  0  0  0  0
 13 14  1  6  0  0  0
 13 15  1  0  0  0  0
 15 16  1  1  0  0  0
 15 17  1  0  0  0  0
M  END
>  <CHROM.1>
59.94334292,50.46680553,1.48359199,5.16733735,21.02121142,0.70933851,0.20653948
-1.36192884

>  <Name>
ligand

>  <RI>
0

>  <Rbt.Current_Directory>
/home/itssahil/PROJECTS/Mol_Feturizer/New_Systems/rnas/4LVX

>  <Rbt.Executable>
rbdock ($Id: //depot/dev/client3/rdock/2013.1/src/exe/rbdock.cxx#4 $)

>  <Rbt.Library>
libRbt.so (2013.1, Build901 2013/11/27)

>  <Rbt.Parameter_File>
/export/apps/rDock/src/rDock_2013.1_src/data/scripts/dock_solv.prm

>  <Rbt.Receptor>
prm/pocket_docking_7.prm

>  <SCORE>
-17.3519

>  <SCORE.INTER>
-10.3446

>  <SCORE.INTER.CONST>
1

>  <SCORE.INTER.POLAR>
0

>  <SCORE.INTER.ROT>
2

>  <SCORE.INTER.SOLV>
13.3042

>  <SCORE.INTER.VDW>
-16.2644

>  <SCORE.INTER.norm>
-0.608503

>  <SCORE.INTRA>
-7.00733

>  <SCORE.INTRA.DIHEDRAL>
-9.83073

>  <SCORE.INTRA.DIHEDRAL.0>
10.3255

>  <SCORE.INTRA.POLAR>
0

>  <SCORE.INTRA.POLAR.0>
0

>  <SCORE.INTRA.REPUL>
0

>  <SCORE.INTRA.REPUL.0>
0

>  <SCORE.INTRA.SOLV>
-0.077731

>  <SCORE.INTRA.SOLV.lig_0>
-53.4755

>  <SCORE.INTRA.VDW>
-2.0531

>  <SCORE.INTRA.VDW.0>
2.32763

>  <SCORE.INTRA.norm>
-0.412196

>  <SCORE.RESTR>
0

>  <SCORE.RESTR.CAVITY>
0

>  <SCORE.RESTR.norm>
0

>  <SCORE.SYSTEM>
0

>  <SCORE.SYSTEM.CONST>
0

>  <SCORE.SYSTEM.DIHEDRAL>
0

>  <SCORE.SYSTEM.SOLV>
0

>  <SCORE.SYSTEM.norm>
0

>  <SCORE.heavy>
17

>  <SCORE.norm>
-1.0207

>  <RMSD>
5.933

$$$$
ligand
 OpenBabel11021811503D
libRbt.so/2013.1/901 2013/11/27
 17 18  0  0  0  0  0  0  0  0999 V2000
    2.3647    5.6079   18.4801 N   0  0  0  0  0  0  0  0  0  0  0  0
    3.7644    5.6201   18.4260 C   0  0  0  0  0  0  0  0  0  0  0  0
    4.4260    6.1494   17.2688 N   0  0  0  0  0  0  0  0  0  0  0  0
    4.5274    5.1403   19.4686 N   0  0  0  0  0  0  0  0  0  0  0  0
    3.9364    4.6241   20.6031 C   0  0  0  0  0  0  0  0  0  0  0  0
    2.5109    4.5809   20.7103 C   0  0  0  0  0  0  0  0  0  0  0  0
    4.6263    4.2039   21.5125 O   0  0  0  0  0  0  0  0  0  0  0  0
    1.8482    4.0374   21.8931 N   0  0  0  0  0  0  0  0  0  0  0  0
    0.4452    4.1897   22.0436 C   0  0  2  0  0  0  0  0  0  0  0  0
   -0.3204    4.2570   20.6952 C   0  0  0  0  0  0  0  0  0  0  0  0
    1.7387    5.0881   19.6221 C   0  0  0  0  0  0  0  0  0  0  0  0
    0.2671    5.0570   19.7109 N   0  0  0  0  0  0  0  0  0  0  0  0
    0.1955    5.3876   22.9414 C   0  0  1  0  0  0  0  0  0  0  0  0
    0.7079    6.5364   22.3721 O   0  0  0  0  0  0  0  0  0  0  0  0
   -1.2722    5.5435   23.2064 C   0  0  1  0  0  0  0  0  0  0  0  0
   -1.8099    4.3780   23.5928 O   0  0  0  0  0  0  0  0  0  0  0  0
   -1.5298    6.5835   24.3175 C   0  0  0  0  0  0  0  0  0  0  0  0
  1  2  2  0  0  0  0
  1 11  1  0  0  0  0
  2  3  1  0  0  0  0
  2  4  1  0  0  0  0
  4  5  1  0  0  0  0
  5  6  1  0  0  0  0
  5  7  2  0  0  0  0
  6  8  1  0  0  0  0
  6 11  2  0  0  0  0
  9  8  1  6  0  0  0
  9 10  1  0  0  0  0
  9 13  1  0  0  0  0
 10 12  1  0  0  0  0
 11 12  1  0  0  0  0
 13 14  1  6  0  0  0
 13 15  1  0  0  0  0
 15 16  1  1  0  0  0
 15 17  1  0  0  0  0
M  END
>  <CHROM.1>
61.07757764,49.25364303,1.50458245,5.12682083,21.06215824,0.69139356,0.20098323
-1.35084381

>  <Name>
ligand

>  <RI>
0

>  <Rbt.Current_Directory>
/home/itssahil/PROJECTS/Mol_Feturizer/New_Systems/rnas/4LVX

>  <Rbt.Executable>
rbdock ($Id: //depot/dev/client3/rdock/2013.1/src/exe/rbdock.cxx#4 $)

>  <Rbt.Library>
libRbt.so (2013.1, Build901 2013/11/27)

>  <Rbt.Parameter_File>
/export/apps/rDock/src/rDock_2013.1_src/data/scripts/dock_solv.prm

>  <Rbt.Receptor>
prm/pocket_docking_4.prm

>  <SCORE>
-17.4027

>  <SCORE.INTER>
-10.4049

>  <SCORE.INTER.CONST>
1

>  <SCORE.INTER.POLAR>
0

>  <SCORE.INTER.ROT>
2

>  <SCORE.INTER.SOLV>
13.5043

>  <SCORE.INTER.VDW>
-16.3714

>  <SCORE.INTER.norm>
-0.612056

>  <SCORE.INTRA>
-6.99773

>  <SCORE.INTRA.DIHEDRAL>
-9.73943

>  <SCORE.INTRA.DIHEDRAL.0>
10.3255

>  <SCORE.INTRA.POLAR>
0

>  <SCORE.INTRA.POLAR.0>
0

>  <SCORE.INTRA.REPUL>
0

>  <SCORE.INTRA.REPUL.0>
0

>  <SCORE.INTRA.SOLV>
-0.0773255

>  <SCORE.INTRA.SOLV.lig_0>
-53.4755

>  <SCORE.INTRA.VDW>
-2.08936

>  <SCORE.INTRA.VDW.0>
2.32763

>  <SCORE.INTRA.norm>
-0.411631

>  <SCORE.RESTR>
0

>  <SCORE.RESTR.CAVITY>
0

>  <SCORE.RESTR.norm>
0

>  <SCORE.SYSTEM>
0

>  <SCORE.SYSTEM.CONST>
0

>  <SCORE.SYSTEM.DIHEDRAL>
0

>  <SCORE.SYSTEM.SOLV>
0

>  <SCORE.SYSTEM.norm>
0

>  <SCORE.heavy>
17

>  <SCORE.norm>
-1.02369

>  <RMSD>
5.934

$$$$
ligand
 OpenBabel11021811503D
libRbt.so/2013.1/901 2013/11/27
 17 18  0  0  0  0  0  0  0  0999 V2000
    2.1355    5.4533   18.3390 N   0  0  0  0  0  0  0  0  0  0  0  0
    3.5279    5.5294   18.2059 C   0  0  0  0  0  0  0  0  0  0  0  0
    4.0992    6.0149   16.9832 N   0  0  0  0  0  0  0  0  0  0  0  0
    4.3687    5.1546   19.2315 N   0  0  0  0  0  0  0  0  0  0  0  0
    3.8659    4.6842   20.4269 C   0  0  0  0  0  0  0  0  0  0  0  0
    2.4523    4.5794   20.6161 C   0  0  0  0  0  0  0  0  0  0  0  0
    4.6237    4.3568   21.3202 O   0  0  0  0  0  0  0  0  0  0  0  0
    1.8819    4.0814   21.8653 N   0  0  0  0  0  0  0  0  0  0  0  0
    0.4828    4.1752   22.0846 C   0  0  2  0  0  0  0  0  0  0  0  0
   -0.3554    4.1193   20.7796 C   0  0  0  0  0  0  0  0  0  0  0  0
    1.5984    4.9782   19.5440 C   0  0  0  0  0  0  0  0  0  0  0  0
    0.1371    4.8820   19.7168 N   0  0  0  0  0  0  0  0  0  0  0  0
    0.2195    5.4148   22.9199 C   0  0  1  0  0  0  0  0  0  0  0  0
    0.6976    6.5416   22.2810 O   0  0  0  0  0  0  0  0  0  0  0  0
   -1.2472    5.5531   23.1994 C   0  0  1  0  0  0  0  0  0  0  0  0
   -1.7577    4.3925   23.6345 O   0  0  0  0  0  0  0  0  0  0  0  0
   -1.5097    6.6275   24.2761 C   0  0  0  0  0  0  0  0  0  0  0  0
  1  2  2  0  0  0  0
  1 11  1  0  0  0  0
  2  3  1  0  0  0  0
  2  4  1  0  0  0  0
  4  5  1  0  0  0  0
  5  6  1  0  0  0  0
  5  7  2  0  0  0  0
  6  8  1  0  0  0  0
  6 11  2  0  0  0  0
  9  8  1  6  0  0  0
  9 10  1  0  0  0  0
  9 13  1  0  0  0  0
 10 12  1  0  0  0  0
 11 12  1  0  0  0  0
 13 14  1  6  0  0  0
 13 15  1  0  0  0  0
 15 16  1  1  0  0  0
 15 17  1  0  0  0  0
M  END
>  <CHROM.1>
58.28232968,48.16133121,1.43682370,5.10289268,20.97855771,0.74799879,0.15423229
-1.43532416

>  <Name>
ligand

>  <RI>
0

>  <Rbt.Current_Directory>
/home/itssahil/PROJECTS/Mol_Feturizer/New_Systems/rnas/4LVX

>  <Rbt.Executable>
rbdock ($Id: //depot/dev/client3/rdock/2013.1/src/exe/rbdock.cxx#4 $)

>  <Rbt.Library>
libRbt.so (2013.1, Build901 2013/11/27)

>  <Rbt.Parameter_File>
/export/apps/rDock/src/rDock_2013.1_src/data/scripts/dock_solv.prm

>  <Rbt.Receptor>
prm/pocket_docking_8.prm

>  <SCORE>
-17.5083

>  <SCORE.INTER>
-10.6994

>  <SCORE.INTER.CONST>
1

>  <SCORE.INTER.POLAR>
0

>  <SCORE.INTER.ROT>
2

>  <SCORE.INTER.SOLV>
14.1446

>  <SCORE.INTER.VDW>
-16.7812

>  <SCORE.INTER.norm>
-0.629378

>  <SCORE.INTRA>
-6.80885

>  <SCORE.INTRA.DIHEDRAL>
-9.64396

>  <SCORE.INTRA.DIHEDRAL.0>
10.3255

>  <SCORE.INTRA.POLAR>
0

>  <SCORE.INTRA.POLAR.0>
0

>  <SCORE.INTRA.REPUL>
0

>  <SCORE.INTRA.REPUL.0>
0

>  <SCORE.INTRA.SOLV>
-0.0559382

>  <SCORE.INTRA.SOLV.lig_0>
-53.4755

>  <SCORE.INTRA.VDW>
-1.9589

>  <SCORE.INTRA.VDW.0>
2.32763

>  <SCORE.INTRA.norm>
-0.400521

>  <SCORE.RESTR>
0

>  <SCORE.RESTR.CAVITY>
0

>  <SCORE.RESTR.norm>
0

>  <SCORE.SYSTEM>
0

>  <SCORE.SYSTEM.CONST>
0

>  <SCORE.SYSTEM.DIHEDRAL>
0

>  <SCORE.SYSTEM.SOLV>
0

>  <SCORE.SYSTEM.norm>
0

>  <SCORE.heavy>
17

>  <SCORE.norm>
-1.0299

>  <RMSD>
5.934

$$$$
ligand
 OpenBabel11021811503D
libRbt.so/2013.1/901 2013/11/27
 17 18  0  0  0  0  0  0  0  0999 V2000
    4.9893    5.0215   19.8610 N   0  0  0  0  0  0  0  0  0  0  0  0
    5.7322    4.5710   20.9597 C   0  0  0  0  0  0  0  0  0  0  0  0
    7.1629    4.6702   20.9387 N   0  0  0  0  0  0  0  0  0  0  0  0
    5.1175    4.0385   22.0724 N   0  0  0  0  0  0  0  0  0  0  0  0
    3.7443    3.9252   22.1399 C   0  0  0  0  0  0  0  0  0  0  0  0
    2.9360    4.3634   21.0445 C   0  0  0  0  0  0  0  0  0  0  0  0
    3.2197    3.4513   23.1297 O   0  0  0  0  0  0  0  0  0  0  0  0
    1.4796    4.2553   21.0763 N   0  0  0  0  0  0  0  0  0  0  0  0
    0.7075    4.8754   20.0597 C   0  0  2  0  0  0  0  0  0  0  0  0
    1.4421    4.9761   18.6962 C   0  0  0  0  0  0  0  0  0  0  0  0
    3.5916    4.9173   19.9038 C   0  0  0  0  0  0  0  0  0  0  0  0
    2.7790    5.3789   18.7632 N   0  0  0  0  0  0  0  0  0  0  0  0
    0.2240    6.2141   20.5866 C   0  0  1  0  0  0  0  0  0  0  0  0
   -0.1888    7.0246   19.5477 O   0  0  0  0  0  0  0  0  0  0  0  0
   -0.8897    6.0154   21.5708 C   0  0  1  0  0  0  0  0  0  0  0  0
   -1.7850    5.1351   21.1013 O   0  0  0  0  0  0  0  0  0  0  0  0
   -0.3541    5.4845   22.9176 C   0  0  0  0  0  0  0  0  0  0  0  0
  1  2  2  0  0  0  0
  1 11  1  0  0  0  0
  2  3  1  0  0  0  0
  2  4  1  0  0  0  0
  4  5  1  0  0  0  0
  5  6  1  0  0  0  0
  5  7  2  0  0  0  0
  6  8  1  0  0  0  0
  6 11  2  0  0  0  0
  9  8  1  1  0  0  0
  9 10  1  0  0  0  0
  9 13  1  0  0  0  0
 10 12  1  0  0  0  0
 11 12  1  0  0  0  0
 13 14  1  6  0  0  0
 13 15  1  0  0  0  0
 15 16  1  6  0  0  0
 15 17  1  0  0  0  0
M  END
>  <CHROM.1>
162.54881093,-45.87147620,2.25943835,4.97659446,20.86039043,-0.11708933,0.19030708
-1.19939515

>  <Name>
ligand

>  <RI>
0

>  <Rbt.Current_Directory>
/home/itssahil/PROJECTS/Mol_Feturizer/New_Systems/rnas/4LVX

>  <Rbt.Executable>
rbdock ($Id: //depot/dev/client3/rdock/2013.1/src/exe/rbdock.cxx#4 $)

>  <Rbt.Library>
libRbt.so (2013.1, Build901 2013/11/27)

>  <Rbt.Parameter_File>
/export/apps/rDock/src/rDock_2013.1_src/data/scripts/dock_solv.prm

>  <Rbt.Receptor>
prm/pocket_docking_8.prm

>  <SCORE>
-13.897

>  <SCORE.INTER>
-8.5222

>  <SCORE.INTER.CONST>
1

>  <SCORE.INTER.POLAR>
0

>  <SCORE.INTER.ROT>
2

>  <SCORE.INTER.SOLV>
11.3195

>  <SCORE.INTER.VDW>
-14.388

>  <SCORE.INTER.norm>
-0.501306

>  <SCORE.INTRA>
-5.37478

>  <SCORE.INTRA.DIHEDRAL>
-8.4844

>  <SCORE.INTRA.DIHEDRAL.0>
10.3255

>  <SCORE.INTRA.POLAR>
0

>  <SCORE.INTRA.POLAR.0>
0

>  <SCORE.INTRA.REPUL>
0

>  <SCORE.INTRA.REPUL.0>
0

>  <SCORE.INTRA.SOLV>
0.301199

>  <SCORE.INTRA.SOLV.lig_0>
-53.4755

>  <SCORE.INTRA.VDW>
-1.28318

>  <SCORE.INTRA.VDW.0>
2.32763

>  <SCORE.INTRA.norm>
-0.316163

>  <SCORE.RESTR>
0

>  <SCORE.RESTR.CAVITY>
0

>  <SCORE.RESTR.norm>
0

>  <SCORE.SYSTEM>
0

>  <SCORE.SYSTEM.CONST>
0

>  <SCORE.SYSTEM.DIHEDRAL>
0

>  <SCORE.SYSTEM.SOLV>
0

>  <SCORE.SYSTEM.norm>
0

>  <SCORE.heavy>
17

>  <SCORE.norm>
-0.81747

>  <RMSD>
5.937

$$$$
ligand
 OpenBabel11021811503D
libRbt.so/2013.1/901 2013/11/27
 17 18  0  0  0  0  0  0  0  0999 V2000
    2.3234    5.5854   18.4294 N   0  0  0  0  0  0  0  0  0  0  0  0
    3.7222    5.5975   18.3572 C   0  0  0  0  0  0  0  0  0  0  0  0
    4.3686    6.1099   17.1838 N   0  0  0  0  0  0  0  0  0  0  0  0
    4.4989    5.1337   19.3968 N   0  0  0  0  0  0  0  0  0  0  0  0
    3.9229    4.6342   20.5464 C   0  0  0  0  0  0  0  0  0  0  0  0
    2.4989    4.5918   20.6725 C   0  0  0  0  0  0  0  0  0  0  0  0
    4.6246    4.2279   21.4530 O   0  0  0  0  0  0  0  0  0  0  0  0
    1.8517    4.0656   21.8717 N   0  0  0  0  0  0  0  0  0  0  0  0
    0.4507    4.2194   22.0379 C   0  0  2  0  0  0  0  0  0  0  0  0
   -0.3321    4.2663   20.6986 C   0  0  0  0  0  0  0  0  0  0  0  0
    1.7124    5.0824   19.5869 C   0  0  0  0  0  0  0  0  0  0  0  0
    0.2421    5.0519   19.6950 N   0  0  0  0  0  0  0  0  0  0  0  0
    0.2117    5.4305   22.9209 C   0  0  1  0  0  0  0  0  0  0  0  0
    0.7128    6.5715   22.3264 O   0  0  0  0  0  0  0  0  0  0  0  0
   -1.2522    5.5873   23.2056 C   0  0  1  0  0  0  0  0  0  0  0  0
   -1.7798    4.4284   23.6245 O   0  0  0  0  0  0  0  0  0  0  0  0
   -1.4960    6.6495   24.2986 C   0  0  0  0  0  0  0  0  0  0  0  0
  1  2  2  0  0  0  0
  1 11  1  0  0  0  0
  2  3  1  0  0  0  0
  2  4  1  0  0  0  0
  4  5  1  0  0  0  0
  5  6  1  0  0  0  0
  5  7  2  0  0  0  0
  6  8  1  0  0  0  0
  6 11  2  0  0  0  0
  9  8  1  6  0  0  0
  9 10  1  0  0  0  0
  9 13  1  0  0  0  0
 10 12  1  0  0  0  0
 11 12  1  0  0  0  0
 13 14  1  6  0  0  0
 13 15  1  0  0  0  0
 15 16  1  1  0  0  0
 15 17  1  0  0  0  0
M  END
>  <CHROM.1>
61.23900513,49.57892880,1.49693952,5.14249754,21.02981086,0.70451294,0.20442318
-1.36692141

>  <Name>
ligand

>  <RI>
0

>  <Rbt.Current_Directory>
/home/itssahil/PROJECTS/Mol_Feturizer/New_Systems/rnas/4LVX

>  <Rbt.Executable>
rbdock ($Id: //depot/dev/client3/rdock/2013.1/src/exe/rbdock.cxx#4 $)

>  <Rbt.Library>
libRbt.so (2013.1, Build901 2013/11/27)

>  <Rbt.Parameter_File>
/export/apps/rDock/src/rDock_2013.1_src/data/scripts/dock_solv.prm

>  <Rbt.Receptor>
prm/pocket_docking_4.prm

>  <SCORE>
-17.3981

>  <SCORE.INTER>
-10.3789

>  <SCORE.INTER.CONST>
1

>  <SCORE.INTER.POLAR>
0

>  <SCORE.INTER.ROT>
2

>  <SCORE.INTER.SOLV>
13.5908

>  <SCORE.INTER.VDW>
-16.3828

>  <SCORE.INTER.norm>
-0.610523

>  <SCORE.INTRA>
-7.01917

>  <SCORE.INTRA.DIHEDRAL>
-9.76276

>  <SCORE.INTRA.DIHEDRAL.0>
10.3255

>  <SCORE.INTRA.POLAR>
0

>  <SCORE.INTRA.POLAR.0>
0

>  <SCORE.INTRA.REPUL>
0

>  <SCORE.INTRA.REPUL.0>
0

>  <SCORE.INTRA.SOLV>
-0.0799621

>  <SCORE.INTRA.SOLV.lig_0>
-53.4755

>  <SCORE.INTRA.VDW>
-2.09781

>  <SCORE.INTRA.VDW.0>
2.32763

>  <SCORE.INTRA.norm>
-0.412892

>  <SCORE.RESTR>
0

>  <SCORE.RESTR.CAVITY>
0

>  <SCORE.RESTR.norm>
0

>  <SCORE.SYSTEM>
0

>  <SCORE.SYSTEM.CONST>
0

>  <SCORE.SYSTEM.DIHEDRAL>
0

>  <SCORE.SYSTEM.SOLV>
0

>  <SCORE.SYSTEM.norm>
0

>  <SCORE.heavy>
17

>  <SCORE.norm>
-1.02342

>  <RMSD>
5.941

$$$$
ligand
 OpenBabel11021811503D
libRbt.so/2013.1/901 2013/11/27
 17 18  0  0  0  0  0  0  0  0999 V2000
    2.4899    5.6096   18.5567 N   0  0  0  0  0  0  0  0  0  0  0  0
    3.8904    5.6100   18.5293 C   0  0  0  0  0  0  0  0  0  0  0  0
    4.5785    6.1530   17.3940 N   0  0  0  0  0  0  0  0  0  0  0  0
    4.6292    5.1056   19.5776 N   0  0  0  0  0  0  0  0  0  0  0  0
    4.0122    4.5756   20.6917 C   0  0  0  0  0  0  0  0  0  0  0  0
    2.5847    4.5435   20.7712 C   0  0  0  0  0  0  0  0  0  0  0  0
    4.6810    4.1337   21.6066 O   0  0  0  0  0  0  0  0  0  0  0  0
    1.8948    3.9859   21.9318 N   0  0  0  0  0  0  0  0  0  0  0  0
    0.4905    4.1483   22.0584 C   0  0  2  0  0  0  0  0  0  0  0  0
   -0.2486    4.2456   20.6971 C   0  0  0  0  0  0  0  0  0  0  0  0
    1.8377    5.0761   19.6776 C   0  0  0  0  0  0  0  0  0  0  0  0
    0.3645    5.0569   19.7380 N   0  0  0  0  0  0  0  0  0  0  0  0
    0.2343    5.3330   22.9718 C   0  0  1  0  0  0  0  0  0  0  0  0
    0.7935    6.4810   22.4467 O   0  0  0  0  0  0  0  0  0  0  0  0
   -1.2384    5.5175   23.1854 C   0  0  1  0  0  0  0  0  0  0  0  0
   -1.8062    4.3709   23.5850 O   0  0  0  0  0  0  0  0  0  0  0  0
   -1.5148    6.5908   24.2598 C   0  0  0  0  0  0  0  0  0  0  0  0
  1  2  2  0  0  0  0
  1 11  1  0  0  0  0
  2  3  1  0  0  0  0
  2  4  1  0  0  0  0
  4  5  1  0  0  0  0
  5  6  1  0  0  0  0
  5  7  2  0  0  0  0
  6  8  1  0  0  0  0
  6 11  2  0  0  0  0
  9  8  1  6  0  0  0
  9 10  1  0  0  0  0
  9 13  1  0  0  0  0
 10 12  1  0  0  0  0
 11 12  1  0  0  0  0
 13 14  1  6  0  0  0
 13 15  1  0  0  0  0
 15 16  1  1  0  0  0
 15 17  1  0  0  0  0
M  END
>  <CHROM.1>
59.73295829,52.04393782,1.57676245,5.10038031,21.10924342,0.66481109,0.21314914
-1.32444962

>  <Name>
ligand

>  <RI>
0

>  <Rbt.Current_Directory>
/home/itssahil/PROJECTS/Mol_Feturizer/New_Systems/rnas/4LVX

>  <Rbt.Executable>
rbdock ($Id: //depot/dev/client3/rdock/2013.1/src/exe/rbdock.cxx#4 $)

>  <Rbt.Library>
libRbt.so (2013.1, Build901 2013/11/27)

>  <Rbt.Parameter_File>
/export/apps/rDock/src/rDock_2013.1_src/data/scripts/dock_solv.prm

>  <Rbt.Receptor>
prm/pocket_docking_5.prm

>  <SCORE>
-17.3675

>  <SCORE.INTER>
-10.31

>  <SCORE.INTER.CONST>
1

>  <SCORE.INTER.POLAR>
0

>  <SCORE.INTER.ROT>
2

>  <SCORE.INTER.SOLV>
13.4025

>  <SCORE.INTER.VDW>
-16.2742

>  <SCORE.INTER.norm>
-0.60647

>  <SCORE.INTRA>
-7.0575

>  <SCORE.INTRA.DIHEDRAL>
-9.93066

>  <SCORE.INTRA.DIHEDRAL.0>
10.3255

>  <SCORE.INTRA.POLAR>
0

>  <SCORE.INTRA.POLAR.0>
0

>  <SCORE.INTRA.REPUL>
0

>  <SCORE.INTRA.REPUL.0>
0

>  <SCORE.INTRA.SOLV>
-0.0852615

>  <SCORE.INTRA.SOLV.lig_0>
-53.4755

>  <SCORE.INTRA.VDW>
-2.04954

>  <SCORE.INTRA.VDW.0>
2.32763

>  <SCORE.INTRA.norm>
-0.415147

>  <SCORE.RESTR>
0

>  <SCORE.RESTR.CAVITY>
0

>  <SCORE.RESTR.norm>
0

>  <SCORE.SYSTEM>
0

>  <SCORE.SYSTEM.CONST>
0

>  <SCORE.SYSTEM.DIHEDRAL>
0

>  <SCORE.SYSTEM.SOLV>
0

>  <SCORE.SYSTEM.norm>
0

>  <SCORE.heavy>
17

>  <SCORE.norm>
-1.02162

>  <RMSD>
5.941

$$$$
ligand
 OpenBabel11021811503D
libRbt.so/2013.1/901 2013/11/27
 17 18  0  0  0  0  0  0  0  0999 V2000
    2.3761    5.5453   18.4720 N   0  0  0  0  0  0  0  0  0  0  0  0
    3.7757    5.5598   18.4183 C   0  0  0  0  0  0  0  0  0  0  0  0
    4.4367    6.0735   17.2537 N   0  0  0  0  0  0  0  0  0  0  0  0
    4.5394    5.0971   19.4681 N   0  0  0  0  0  0  0  0  0  0  0  0
    3.9489    4.5963   20.6099 C   0  0  0  0  0  0  0  0  0  0  0  0
    2.5235    4.5515   20.7170 C   0  0  0  0  0  0  0  0  0  0  0  0
    4.6393    4.1910   21.5256 O   0  0  0  0  0  0  0  0  0  0  0  0
    1.8614    4.0239   21.9074 N   0  0  0  0  0  0  0  0  0  0  0  0
    0.4580    4.1753   22.0550 C   0  0  2  0  0  0  0  0  0  0  0  0
   -0.3071    4.2211   20.7054 C   0  0  0  0  0  0  0  0  0  0  0  0
    1.7507    5.0409   19.6212 C   0  0  0  0  0  0  0  0  0  0  0  0
    0.2791    5.0079   19.7097 N   0  0  0  0  0  0  0  0  0  0  0  0
    0.2052    5.3857   22.9350 C   0  0  1  0  0  0  0  0  0  0  0  0
    0.7121    6.5278   22.3475 O   0  0  0  0  0  0  0  0  0  0  0  0
   -1.2626    5.5399   23.2003 C   0  0  1  0  0  0  0  0  0  0  0  0
   -1.7888    4.3863   23.6354 O   0  0  0  0  0  0  0  0  0  0  0  0
   -1.5243    6.6214   24.2701 C   0  0  0  0  0  0  0  0  0  0  0  0
  1  2  2  0  0  0  0
  1 11  1  0  0  0  0
  2  3  1  0  0  0  0
  2  4  1  0  0  0  0
  4  5  1  0  0  0  0
  5  6  1  0  0  0  0
  5  7  2  0  0  0  0
  6  8  1  0  0  0  0
  6 11  2  0  0  0  0
  9  8  1  6  0  0  0
  9 10  1  0  0  0  0
  9 13  1  0  0  0  0
 10 12  1  0  0  0  0
 11 12  1  0  0  0  0
 13 14  1  6  0  0  0
 13 15  1  0  0  0  0
 15 16  1  1  0  0  0
 15 17  1  0  0  0  0
M  END
>  <CHROM.1>
61.23973409,50.70767272,1.51615254,5.10205232,21.06141849,0.69078033,0.20389761
-1.36071729

>  <Name>
ligand

>  <RI>
0

>  <Rbt.Current_Directory>
/home/itssahil/PROJECTS/Mol_Feturizer/New_Systems/rnas/4LVX

>  <Rbt.Executable>
rbdock ($Id: //depot/dev/client3/rdock/2013.1/src/exe/rbdock.cxx#4 $)

>  <Rbt.Library>
libRbt.so (2013.1, Build901 2013/11/27)

>  <Rbt.Parameter_File>
/export/apps/rDock/src/rDock_2013.1_src/data/scripts/dock_solv.prm

>  <Rbt.Receptor>
prm/pocket_docking_5.prm

>  <SCORE>
-17.387

>  <SCORE.INTER>
-10.3185

>  <SCORE.INTER.CONST>
1

>  <SCORE.INTER.POLAR>
0

>  <SCORE.INTER.ROT>
2

>  <SCORE.INTER.SOLV>
13.8994

>  <SCORE.INTER.VDW>
-16.4455

>  <SCORE.INTER.norm>
-0.606971

>  <SCORE.INTRA>
-7.06847

>  <SCORE.INTRA.DIHEDRAL>
-9.84268

>  <SCORE.INTRA.DIHEDRAL.0>
10.3255

>  <SCORE.INTRA.POLAR>
0

>  <SCORE.INTRA.POLAR.0>
0

>  <SCORE.INTRA.REPUL>
0

>  <SCORE.INTRA.REPUL.0>
0

>  <SCORE.INTRA.SOLV>
-0.0860697

>  <SCORE.INTRA.SOLV.lig_0>
-53.4755

>  <SCORE.INTRA.VDW>
-2.1041

>  <SCORE.INTRA.VDW.0>
2.32763

>  <SCORE.INTRA.norm>
-0.415793

>  <SCORE.RESTR>
0

>  <SCORE.RESTR.CAVITY>
0

>  <SCORE.RESTR.norm>
0

>  <SCORE.SYSTEM>
0

>  <SCORE.SYSTEM.CONST>
0

>  <SCORE.SYSTEM.DIHEDRAL>
0

>  <SCORE.SYSTEM.SOLV>
0

>  <SCORE.SYSTEM.norm>
0

>  <SCORE.heavy>
17

>  <SCORE.norm>
-1.02276

>  <RMSD>
5.942

$$$$
ligand
 OpenBabel11021811503D
libRbt.so/2013.1/901 2013/11/27
 17 18  0  0  0  0  0  0  0  0999 V2000
    2.4949    5.6037   18.5537 N   0  0  0  0  0  0  0  0  0  0  0  0
    3.8954    5.5963   18.5319 C   0  0  0  0  0  0  0  0  0  0  0  0
    4.5912    6.1367   17.4000 N   0  0  0  0  0  0  0  0  0  0  0  0
    4.6272    5.0864   19.5826 N   0  0  0  0  0  0  0  0  0  0  0  0
    4.0027    4.5585   20.6936 C   0  0  0  0  0  0  0  0  0  0  0  0
    2.5747    4.5344   20.7672 C   0  0  0  0  0  0  0  0  0  0  0  0
    4.6653    4.1118   21.6105 O   0  0  0  0  0  0  0  0  0  0  0  0
    1.8770    3.9793   21.9244 N   0  0  0  0  0  0  0  0  0  0  0  0
    0.4732    4.1495   22.0455 C   0  0  2  0  0  0  0  0  0  0  0  0
   -0.2598    4.2526   20.6814 C   0  0  0  0  0  0  0  0  0  0  0  0
    1.8352    5.0726   19.6713 C   0  0  0  0  0  0  0  0  0  0  0  0
    0.3616    5.0615   19.7257 N   0  0  0  0  0  0  0  0  0  0  0  0
    0.2200    5.3345   22.9593 C   0  0  1  0  0  0  0  0  0  0  0  0
    0.7650    6.4851   22.4250 O   0  0  0  0  0  0  0  0  0  0  0  0
   -1.2513    5.5096   23.1903 C   0  0  1  0  0  0  0  0  0  0  0  0
   -1.8044    4.3628   23.6097 O   0  0  0  0  0  0  0  0  0  0  0  0
   -1.5223    6.5922   24.2566 C   0  0  0  0  0  0  0  0  0  0  0  0
  1  2  2  0  0  0  0
  1 11  1  0  0  0  0
  2  3  1  0  0  0  0
  2  4  1  0  0  0  0
  4  5  1  0  0  0  0
  5  6  1  0  0  0  0
  5  7  2  0  0  0  0
  6  8  1  0  0  0  0
  6 11  2  0  0  0  0
  9  8  1  6  0  0  0
  9 10  1  0  0  0  0
  9 13  1  0  0  0  0
 10 12  1  0  0  0  0
 11 12  1  0  0  0  0
 13 14  1  6  0  0  0
 13 15  1  0  0  0  0
 15 16  1  1  0  0  0
 15 17  1  0  0  0  0
M  END
>  <CHROM.1>
60.91449231,52.54231907,1.56907466,5.09401142,21.10644048,0.66202109,0.22070544
-1.31725726

>  <Name>
ligand

>  <RI>
0

>  <Rbt.Current_Directory>
/home/itssahil/PROJECTS/Mol_Feturizer/New_Systems/rnas/4LVX

>  <Rbt.Executable>
rbdock ($Id: //depot/dev/client3/rdock/2013.1/src/exe/rbdock.cxx#4 $)

>  <Rbt.Library>
libRbt.so (2013.1, Build901 2013/11/27)

>  <Rbt.Parameter_File>
/export/apps/rDock/src/rDock_2013.1_src/data/scripts/dock_solv.prm

>  <Rbt.Receptor>
prm/pocket_docking_5.prm

>  <SCORE>
-17.3375

>  <SCORE.INTER>
-10.2165

>  <SCORE.INTER.CONST>
1

>  <SCORE.INTER.POLAR>
0

>  <SCORE.INTER.ROT>
2

>  <SCORE.INTER.SOLV>
13.5578

>  <SCORE.INTER.VDW>
-16.2636

>  <SCORE.INTER.norm>
-0.600972

>  <SCORE.INTRA>
-7.12094

>  <SCORE.INTRA.DIHEDRAL>
-9.95713

>  <SCORE.INTRA.DIHEDRAL.0>
10.3255

>  <SCORE.INTRA.POLAR>
0

>  <SCORE.INTRA.POLAR.0>
0

>  <SCORE.INTRA.REPUL>
0

>  <SCORE.INTRA.REPUL.0>
0

>  <SCORE.INTRA.SOLV>
-0.0943189

>  <SCORE.INTRA.SOLV.lig_0>
-53.4755

>  <SCORE.INTRA.VDW>
-2.09521

>  <SCORE.INTRA.VDW.0>
2.32763

>  <SCORE.INTRA.norm>
-0.418879

>  <SCORE.RESTR>
0

>  <SCORE.RESTR.CAVITY>
0

>  <SCORE.RESTR.norm>
0

>  <SCORE.SYSTEM>
0

>  <SCORE.SYSTEM.CONST>
0

>  <SCORE.SYSTEM.DIHEDRAL>
0

>  <SCORE.SYSTEM.SOLV>
0

>  <SCORE.SYSTEM.norm>
0

>  <SCORE.heavy>
17

>  <SCORE.norm>
-1.01985

>  <RMSD>
5.943

$$$$
ligand
 OpenBabel11021811503D
libRbt.so/2013.1/901 2013/11/27
 17 18  0  0  0  0  0  0  0  0999 V2000
    5.0036    5.0103   19.8665 N   0  0  0  0  0  0  0  0  0  0  0  0
    5.7442    4.5464   20.9612 C   0  0  0  0  0  0  0  0  0  0  0  0
    7.1753    4.6399   20.9415 N   0  0  0  0  0  0  0  0  0  0  0  0
    5.1270    4.0060   22.0686 N   0  0  0  0  0  0  0  0  0  0  0  0
    3.7534    3.8977   22.1346 C   0  0  0  0  0  0  0  0  0  0  0  0
    2.9472    4.3495   21.0431 C   0  0  0  0  0  0  0  0  0  0  0  0
    3.2265    3.4166   23.1197 O   0  0  0  0  0  0  0  0  0  0  0  0
    1.4904    4.2471   21.0735 N   0  0  0  0  0  0  0  0  0  0  0  0
    0.7212    4.8799   20.0626 C   0  0  2  0  0  0  0  0  0  0  0  0
    1.4566    4.9904   18.7003 C   0  0  0  0  0  0  0  0  0  0  0  0
    3.6054    4.9114   19.9079 C   0  0  0  0  0  0  0  0  0  0  0  0
    2.7951    5.3871   18.7714 N   0  0  0  0  0  0  0  0  0  0  0  0
    0.2429    6.2156   20.6019 C   0  0  1  0  0  0  0  0  0  0  0  0
   -0.1645    7.0381   19.5704 O   0  0  0  0  0  0  0  0  0  0  0  0
   -0.8732    6.0123   21.5824 C   0  0  1  0  0  0  0  0  0  0  0  0
   -1.7781    5.1503   21.0977 O   0  0  0  0  0  0  0  0  0  0  0  0
   -0.3440    5.4522   22.9198 C   0  0  0  0  0  0  0  0  0  0  0  0
  1  2  2  0  0  0  0
  1 11  1  0  0  0  0
  2  3  1  0  0  0  0
  2  4  1  0  0  0  0
  4  5  1  0  0  0  0
  5  6  1  0  0  0  0
  5  7  2  0  0  0  0
  6  8  1  0  0  0  0
  6 11  2  0  0  0  0
  9  8  1  1  0  0  0
  9 10  1  0  0  0  0
  9 13  1  0  0  0  0
 10 12  1  0  0  0  0
 11 12  1  0  0  0  0
 13 14  1  6  0  0  0
 13 15  1  0  0  0  0
 15 16  1  6  0  0  0
 15 17  1  0  0  0  0
M  END
>  <CHROM.1>
162.46766876,-46.44259057,2.27241069,4.96700242,20.86359842,-0.11960818,0.19361604
-1.18849888

>  <Name>
ligand

>  <RI>
0

>  <Rbt.Current_Directory>
/home/itssahil/PROJECTS/Mol_Feturizer/New_Systems/rnas/4LVX

>  <Rbt.Executable>
rbdock ($Id: //depot/dev/client3/rdock/2013.1/src/exe/rbdock.cxx#4 $)

>  <Rbt.Library>
libRbt.so (2013.1, Build901 2013/11/27)

>  <Rbt.Parameter_File>
/export/apps/rDock/src/rDock_2013.1_src/data/scripts/dock_solv.prm

>  <Rbt.Receptor>
prm/pocket_docking_6.prm

>  <SCORE>
-13.9052

>  <SCORE.INTER>
-8.53929

>  <SCORE.INTER.CONST>
1

>  <SCORE.INTER.POLAR>
0

>  <SCORE.INTER.ROT>
2

>  <SCORE.INTER.SOLV>
11.3657

>  <SCORE.INTER.VDW>
-14.4148

>  <SCORE.INTER.norm>
-0.502311

>  <SCORE.INTRA>
-5.36589

>  <SCORE.INTRA.DIHEDRAL>
-8.52823

>  <SCORE.INTRA.DIHEDRAL.0>
10.3255

>  <SCORE.INTRA.POLAR>
0

>  <SCORE.INTRA.POLAR.0>
0

>  <SCORE.INTRA.REPUL>
0

>  <SCORE.INTRA.REPUL.0>
0

>  <SCORE.INTRA.SOLV>
0.300646

>  <SCORE.INTRA.SOLV.lig_0>
-53.4755

>  <SCORE.INTRA.VDW>
-1.25209

>  <SCORE.INTRA.VDW.0>
2.32763

>  <SCORE.INTRA.norm>
-0.31564

>  <SCORE.RESTR>
0

>  <SCORE.RESTR.CAVITY>
0

>  <SCORE.RESTR.norm>
0

>  <SCORE.SYSTEM>
0

>  <SCORE.SYSTEM.CONST>
0

>  <SCORE.SYSTEM.DIHEDRAL>
0

>  <SCORE.SYSTEM.SOLV>
0

>  <SCORE.SYSTEM.norm>
0

>  <SCORE.heavy>
17

>  <SCORE.norm>
-0.817951

>  <RMSD>
5.946

$$$$
ligand
 OpenBabel11021811503D
libRbt.so/2013.1/901 2013/11/27
 17 18  0  0  0  0  0  0  0  0999 V2000
    0.7836    4.8115   17.8184 N   0  0  0  0  0  0  0  0  0  0  0  0
    1.7362    5.2278   16.8797 C   0  0  0  0  0  0  0  0  0  0  0  0
    1.3515    5.4096   15.5099 N   0  0  0  0  0  0  0  0  0  0  0  0
    3.0419    5.4770   17.2437 N   0  0  0  0  0  0  0  0  0  0  0  0
    3.4582    5.3187   18.5493 C   0  0  0  0  0  0  0  0  0  0  0  0
    2.5297    4.8897   19.5489 C   0  0  0  0  0  0  0  0  0  0  0  0
    4.6150    5.5420   18.8515 O   0  0  0  0  0  0  0  0  0  0  0  0
    2.9336    4.7057   20.9406 N   0  0  0  0  0  0  0  0  0  0  0  0
    1.9464    4.4693   21.9324 C   0  0  2  0  0  0  0  0  0  0  0  0
    0.6871    3.7395   21.3937 C   0  0  0  0  0  0  0  0  0  0  0  0
    1.1808    4.6425   19.1525 C   0  0  0  0  0  0  0  0  0  0  0  0
    0.2045    4.2022   20.1661 N   0  0  0  0  0  0  0  0  0  0  0  0
    1.6356    5.7907   22.6114 C   0  0  1  0  0  0  0  0  0  0  0  0
    0.8785    6.5958   21.7837 O   0  0  0  0  0  0  0  0  0  0  0  0
    0.9222    5.5548   23.9090 C   0  0  1  0  0  0  0  0  0  0  0  0
    1.6981    4.8654   24.7573 O   0  0  0  0  0  0  0  0  0  0  0  0
    0.5391    6.8890   24.5841 C   0  0  0  0  0  0  0  0  0  0  0  0
  1  2  2  0  0  0  0
  1 11  1  0  0  0  0
  2  3  1  0  0  0  0
  2  4  1  0  0  0  0
  4  5  1  0  0  0  0
  5  6  1  0  0  0  0
  5  7  2  0  0  0  0
  6  8  1  0  0  0  0
  6 11  2  0  0  0  0
  9  8  1  6  0  0  0
  9 10  1  0  0  0  0
  9 13  1  0  0  0  0
 10 12  1  0  0  0  0
 11 12  1  0  0  0  0
 13 14  1  6  0  0  0
 13 15  1  0  0  0  0
 15 16  1  1  0  0  0
 15 17  1  0  0  0  0
M  END
>  <CHROM.1>
74.10441623,62.43462003,1.77146489,5.20838793,20.41734315,1.40145972,-0.14044929
-1.65558699

>  <Name>
ligand

>  <RI>
0

>  <Rbt.Current_Directory>
/home/itssahil/PROJECTS/Mol_Feturizer/New_Systems/rnas/4LVX

>  <Rbt.Executable>
rbdock ($Id: //depot/dev/client3/rdock/2013.1/src/exe/rbdock.cxx#4 $)

>  <Rbt.Library>
libRbt.so (2013.1, Build901 2013/11/27)

>  <Rbt.Parameter_File>
/export/apps/rDock/src/rDock_2013.1_src/data/scripts/dock_solv.prm

>  <Rbt.Receptor>
prm/pocket_docking_6.prm

>  <SCORE>
-14.7913

>  <SCORE.INTER>
-7.77707

>  <SCORE.INTER.CONST>
1

>  <SCORE.INTER.POLAR>
0

>  <SCORE.INTER.ROT>
2

>  <SCORE.INTER.SOLV>
9.86313

>  <SCORE.INTER.VDW>
-13.4058

>  <SCORE.INTER.norm>
-0.457475

>  <SCORE.INTRA>
-7.01418

>  <SCORE.INTRA.DIHEDRAL>
-9.49768

>  <SCORE.INTRA.DIHEDRAL.0>
10.3255

>  <SCORE.INTRA.POLAR>
0

>  <SCORE.INTRA.POLAR.0>
0

>  <SCORE.INTRA.REPUL>
0

>  <SCORE.INTRA.REPUL.0>
0

>  <SCORE.INTRA.SOLV>
-0.212745

>  <SCORE.INTRA.SOLV.lig_0>
-53.4755

>  <SCORE.INTRA.VDW>
-2.15897

>  <SCORE.INTRA.VDW.0>
2.32763

>  <SCORE.INTRA.norm>
-0.412599

>  <SCORE.RESTR>
0

>  <SCORE.RESTR.CAVITY>
0

>  <SCORE.RESTR.norm>
0

>  <SCORE.SYSTEM>
0

>  <SCORE.SYSTEM.CONST>
0

>  <SCORE.SYSTEM.DIHEDRAL>
0

>  <SCORE.SYSTEM.SOLV>
0

>  <SCORE.SYSTEM.norm>
0

>  <SCORE.heavy>
17

>  <SCORE.norm>
-0.870074

>  <RMSD>
5.948

$$$$
ligand
 OpenBabel11021811503D
libRbt.so/2013.1/901 2013/11/27
 17 18  0  0  0  0  0  0  0  0999 V2000
    2.9039    5.6161   18.8841 N   0  0  0  0  0  0  0  0  0  0  0  0
    4.3010    5.5422   18.9541 C   0  0  0  0  0  0  0  0  0  0  0  0
    5.0953    6.0866   17.8911 N   0  0  0  0  0  0  0  0  0  0  0  0
    4.9363    4.9626   20.0310 N   0  0  0  0  0  0  0  0  0  0  0  0
    4.2150    4.4280   21.0783 C   0  0  0  0  0  0  0  0  0  0  0  0
    2.7856    4.4699   21.0571 C   0  0  0  0  0  0  0  0  0  0  0  0
    4.7933    3.9192   22.0197 O   0  0  0  0  0  0  0  0  0  0  0  0
    1.9870    3.9101   22.1446 N   0  0  0  0  0  0  0  0  0  0  0  0
    0.5875    4.1432   22.1794 C   0  0  2  0  0  0  0  0  0  0  0  0
   -0.0466    4.3274   20.7749 C   0  0  0  0  0  0  0  0  0  0  0  0
    2.1469    5.0797   19.9355 C   0  0  0  0  0  0  0  0  0  0  0  0
    0.6741    5.1375   19.8927 N   0  0  0  0  0  0  0  0  0  0  0  0
    0.3276    5.3075   23.1178 C   0  0  1  0  0  0  0  0  0  0  0  0
    0.9605    6.4476   22.6641 O   0  0  0  0  0  0  0  0  0  0  0  0
   -1.1463    5.5460   23.2567 C   0  0  1  0  0  0  0  0  0  0  0  0
   -1.7780    4.4161   23.6047 O   0  0  0  0  0  0  0  0  0  0  0  0
   -1.4385    6.6116   24.3345 C   0  0  0  0  0  0  0  0  0  0  0  0
  1  2  2  0  0  0  0
  1 11  1  0  0  0  0
  2  3  1  0  0  0  0
  2  4  1  0  0  0  0
  4  5  1  0  0  0  0
  5  6  1  0  0  0  0
  5  7  2  0  0  0  0
  6  8  1  0  0  0  0
  6 11  2  0  0  0  0
  9  8  1  6  0  0  0
  9 10  1  0  0  0  0
  9 13  1  0  0  0  0
 10 12  1  0  0  0  0
 11 12  1  0  0  0  0
 13 14  1  6  0  0  0
 13 15  1  0  0  0  0
 15 16  1  1  0  0  0
 15 17  1  0  0  0  0
M  END
>  <CHROM.1>
60.84824687,52.97928935,1.78614576,5.06617661,21.34984789,0.58229247,0.24860754
-1.26211494

>  <Name>
ligand

>  <RI>
0

>  <Rbt.Current_Directory>
/home/itssahil/PROJECTS/Mol_Feturizer/New_Systems/rnas/4LVX

>  <Rbt.Executable>
rbdock ($Id: //depot/dev/client3/rdock/2013.1/src/exe/rbdock.cxx#4 $)

>  <Rbt.Library>
libRbt.so (2013.1, Build901 2013/11/27)

>  <Rbt.Parameter_File>
/export/apps/rDock/src/rDock_2013.1_src/data/scripts/dock_solv.prm

>  <Rbt.Receptor>
prm/pocket_docking_7.prm

>  <SCORE>
-17.0528

>  <SCORE.INTER>
-9.92199

>  <SCORE.INTER.CONST>
1

>  <SCORE.INTER.POLAR>
0

>  <SCORE.INTER.ROT>
2

>  <SCORE.INTER.SOLV>
12.5933

>  <SCORE.INTER.VDW>
-15.7458

>  <SCORE.INTER.norm>
-0.583647

>  <SCORE.INTRA>
-7.13081

>  <SCORE.INTRA.DIHEDRAL>
-9.9809

>  <SCORE.INTRA.DIHEDRAL.0>
10.3255

>  <SCORE.INTRA.POLAR>
0

>  <SCORE.INTRA.POLAR.0>
0

>  <SCORE.INTRA.REPUL>
0

>  <SCORE.INTRA.REPUL.0>
0

>  <SCORE.INTRA.SOLV>
-0.0963607

>  <SCORE.INTRA.SOLV.lig_0>
-53.4755

>  <SCORE.INTRA.VDW>
-2.09218

>  <SCORE.INTRA.VDW.0>
2.32763

>  <SCORE.INTRA.norm>
-0.41946

>  <SCORE.RESTR>
0

>  <SCORE.RESTR.CAVITY>
0

>  <SCORE.RESTR.norm>
0

>  <SCORE.SYSTEM>
0

>  <SCORE.SYSTEM.CONST>
0

>  <SCORE.SYSTEM.DIHEDRAL>
0

>  <SCORE.SYSTEM.SOLV>
0

>  <SCORE.SYSTEM.norm>
0

>  <SCORE.heavy>
17

>  <SCORE.norm>
-1.00311

>  <RMSD>
5.954

$$$$
ligand
 OpenBabel11021811503D
libRbt.so/2013.1/901 2013/11/27
 17 18  0  0  0  0  0  0  0  0999 V2000
    0.8949    4.7684   17.8249 N   0  0  0  0  0  0  0  0  0  0  0  0
    1.8927    5.1629   16.9244 C   0  0  0  0  0  0  0  0  0  0  0  0
    1.5760    5.3114   15.5334 N   0  0  0  0  0  0  0  0  0  0  0  0
    3.1789    5.4221   17.3461 N   0  0  0  0  0  0  0  0  0  0  0  0
    3.5305    5.2956   18.6741 C   0  0  0  0  0  0  0  0  0  0  0  0
    2.5538    4.8899   19.6368 C   0  0  0  0  0  0  0  0  0  0  0  0
    4.6710    5.5273   19.0274 O   0  0  0  0  0  0  0  0  0  0  0  0
    2.8887    4.7399   21.0507 N   0  0  0  0  0  0  0  0  0  0  0  0
    1.8538    4.5264   21.9982 C   0  0  2  0  0  0  0  0  0  0  0  0
    0.6224    3.7825   21.4158 C   0  0  0  0  0  0  0  0  0  0  0  0
    1.2260    4.6318   19.1806 C   0  0  0  0  0  0  0  0  0  0  0  0
    0.2009    4.2151   20.1552 N   0  0  0  0  0  0  0  0  0  0  0  0
    1.5102    5.8634   22.6290 C   0  0  1  0  0  0  0  0  0  0  0  0
    0.7296    6.6170   21.7751 O   0  0  0  0  0  0  0  0  0  0  0  0
    0.8073    5.6571   23.9374 C   0  0  1  0  0  0  0  0  0  0  0  0
    1.6094    5.0349   24.8128 O   0  0  0  0  0  0  0  0  0  0  0  0
    0.3744    7.0038   24.5550 C   0  0  0  0  0  0  0  0  0  0  0  0
  1  2  2  0  0  0  0
  1 11  1  0  0  0  0
  2  3  1  0  0  0  0
  2  4  1  0  0  0  0
  4  5  1  0  0  0  0
  5  6  1  0  0  0  0
  5  7  2  0  0  0  0
  6  8  1  0  0  0  0
  6 11  2  0  0  0  0
  9  8  1  6  0  0  0
  9 10  1  0  0  0  0
  9 13  1  0  0  0  0
 10 12  1  0  0  0  0
 11 12  1  0  0  0  0
 13 14  1  6  0  0  0
 13 15  1  0  0  0  0
 15 16  1  1  0  0  0
 15 17  1  0  0  0  0
M  END
>  <CHROM.1>
77.55549473,63.19059871,1.76678876,5.22929845,20.46672691,1.36286379,-0.13010670
-1.68570806

>  <Name>
ligand

>  <RI>
0

>  <Rbt.Current_Directory>
/home/itssahil/PROJECTS/Mol_Feturizer/New_Systems/rnas/4LVX

>  <Rbt.Executable>
rbdock ($Id: //depot/dev/client3/rdock/2013.1/src/exe/rbdock.cxx#4 $)

>  <Rbt.Library>
libRbt.so (2013.1, Build901 2013/11/27)

>  <Rbt.Parameter_File>
/export/apps/rDock/src/rDock_2013.1_src/data/scripts/dock_solv.prm

>  <Rbt.Receptor>
prm/pocket_docking_8.prm

>  <SCORE>
-14.8567

>  <SCORE.INTER>
-8.04364

>  <SCORE.INTER.CONST>
1

>  <SCORE.INTER.POLAR>
0

>  <SCORE.INTER.ROT>
2

>  <SCORE.INTER.SOLV>
9.74258

>  <SCORE.INTER.VDW>
-13.5433

>  <SCORE.INTER.norm>
-0.473155

>  <SCORE.INTRA>
-6.81309

>  <SCORE.INTRA.DIHEDRAL>
-9.14407

>  <SCORE.INTRA.DIHEDRAL.0>
10.3255

>  <SCORE.INTRA.POLAR>
0

>  <SCORE.INTRA.POLAR.0>
0

>  <SCORE.INTRA.REPUL>
0

>  <SCORE.INTRA.REPUL.0>
0

>  <SCORE.INTRA.SOLV>
-0.232626

>  <SCORE.INTRA.SOLV.lig_0>
-53.4755

>  <SCORE.INTRA.VDW>
-2.12474

>  <SCORE.INTRA.VDW.0>
2.32763

>  <SCORE.INTRA.norm>
-0.40077

>  <SCORE.RESTR>
0

>  <SCORE.RESTR.CAVITY>
0

>  <SCORE.RESTR.norm>
0

>  <SCORE.SYSTEM>
0

>  <SCORE.SYSTEM.CONST>
0

>  <SCORE.SYSTEM.DIHEDRAL>
0

>  <SCORE.SYSTEM.SOLV>
0

>  <SCORE.SYSTEM.norm>
0

>  <SCORE.heavy>
17

>  <SCORE.norm>
-0.873925

>  <RMSD>
5.959

$$$$
ligand
 OpenBabel11021811503D
libRbt.so/2013.1/901 2013/11/27
 17 18  0  0  0  0  0  0  0  0999 V2000
    2.7794    5.5792   18.7049 N   0  0  0  0  0  0  0  0  0  0  0  0
    4.1794    5.5687   18.7503 C   0  0  0  0  0  0  0  0  0  0  0  0
    4.9297    6.1211   17.6599 N   0  0  0  0  0  0  0  0  0  0  0  0
    4.8589    5.0445   19.8286 N   0  0  0  0  0  0  0  0  0  0  0  0
    4.1808    4.5047   20.9018 C   0  0  0  0  0  0  0  0  0  0  0  0
    2.7508    4.4831   20.9065 C   0  0  0  0  0  0  0  0  0  0  0  0
    4.7977    4.0453   21.8441 O   0  0  0  0  0  0  0  0  0  0  0  0
    1.9973    3.9157   22.0219 N   0  0  0  0  0  0  0  0  0  0  0  0
    0.5896    4.0877   22.0775 C   0  0  2  0  0  0  0  0  0  0  0  0
   -0.0768    4.2090   20.6811 C   0  0  0  0  0  0  0  0  0  0  0  0
    2.0658    5.0362   19.7829 C   0  0  0  0  0  0  0  0  0  0  0  0
    0.5913    5.0280   19.7664 N   0  0  0  0  0  0  0  0  0  0  0  0
    0.2948    5.2622   22.9925 C   0  0  1  0  0  0  0  0  0  0  0  0
    0.8724    6.4166   22.5024 O   0  0  0  0  0  0  0  0  0  0  0  0
   -1.1856    5.4423   23.1490 C   0  0  1  0  0  0  0  0  0  0  0  0
   -1.7666    4.2907   23.5138 O   0  0  0  0  0  0  0  0  0  0  0  0
   -1.5066    6.5039   24.2226 C   0  0  0  0  0  0  0  0  0  0  0  0
  1  2  2  0  0  0  0
  1 11  1  0  0  0  0
  2  3  1  0  0  0  0
  2  4  1  0  0  0  0
  4  5  1  0  0  0  0
  5  6  1  0  0  0  0
  5  7  2  0  0  0  0
  6  8  1  0  0  0  0
  6 11  2  0  0  0  0
  9  8  1  6  0  0  0
  9 10  1  0  0  0  0
  9 13  1  0  0  0  0
 10 12  1  0  0  0  0
 11 12  1  0  0  0  0
 13 14  1  6  0  0  0
 13 15  1  0  0  0  0
 15 16  1  1  0  0  0
 15 17  1  0  0  0  0
M  END
>  <CHROM.1>
60.62679308,52.05874060,1.73089753,5.04101851,21.20256816,0.61361278,0.20827151
-1.29724911

>  <Name>
ligand

>  <RI>
0

>  <Rbt.Current_Directory>
/home/itssahil/PROJECTS/Mol_Feturizer/New_Systems/rnas/4LVX

>  <Rbt.Executable>
rbdock ($Id: //depot/dev/client3/rdock/2013.1/src/exe/rbdock.cxx#4 $)

>  <Rbt.Library>
libRbt.so (2013.1, Build901 2013/11/27)

>  <Rbt.Parameter_File>
/export/apps/rDock/src/rDock_2013.1_src/data/scripts/dock_solv.prm

>  <Rbt.Receptor>
prm/pocket_docking_6.prm

>  <SCORE>
-17.1366

>  <SCORE.INTER>
-10.0414

>  <SCORE.INTER.CONST>
1

>  <SCORE.INTER.POLAR>
0

>  <SCORE.INTER.ROT>
2

>  <SCORE.INTER.SOLV>
13.151

>  <SCORE.INTER.VDW>
-16.0113

>  <SCORE.INTER.norm>
-0.590673

>  <SCORE.INTRA>
-7.09516

>  <SCORE.INTRA.DIHEDRAL>
-9.93107

>  <SCORE.INTRA.DIHEDRAL.0>
10.3255

>  <SCORE.INTRA.POLAR>
0

>  <SCORE.INTRA.POLAR.0>
0

>  <SCORE.INTRA.REPUL>
0

>  <SCORE.INTRA.REPUL.0>
0

>  <SCORE.INTRA.SOLV>
-0.090135

>  <SCORE.INTRA.SOLV.lig_0>
-53.4755

>  <SCORE.INTRA.VDW>
-2.08456

>  <SCORE.INTRA.VDW.0>
2.32763

>  <SCORE.INTRA.norm>
-0.417363

>  <SCORE.RESTR>
0

>  <SCORE.RESTR.CAVITY>
0

>  <SCORE.RESTR.norm>
0

>  <SCORE.SYSTEM>
0

>  <SCORE.SYSTEM.CONST>
0

>  <SCORE.SYSTEM.DIHEDRAL>
0

>  <SCORE.SYSTEM.SOLV>
0

>  <SCORE.SYSTEM.norm>
0

>  <SCORE.heavy>
17

>  <SCORE.norm>
-1.00804

>  <RMSD>
5.965

$$$$
ligand
 OpenBabel11021811503D
libRbt.so/2013.1/901 2013/11/27
 17 18  0  0  0  0  0  0  0  0999 V2000
    2.9505    5.6008   18.8364 N   0  0  0  0  0  0  0  0  0  0  0  0
    4.3474    5.5519   18.9262 C   0  0  0  0  0  0  0  0  0  0  0  0
    5.1469    6.1119   17.8752 N   0  0  0  0  0  0  0  0  0  0  0  0
    4.9778    4.9822   20.0113 N   0  0  0  0  0  0  0  0  0  0  0  0
    4.2514    4.4334   21.0477 C   0  0  0  0  0  0  0  0  0  0  0  0
    2.8219    4.4497   21.0062 C   0  0  0  0  0  0  0  0  0  0  0  0
    4.8253    3.9337   21.9966 O   0  0  0  0  0  0  0  0  0  0  0  0
    2.0182    3.8742   22.0816 N   0  0  0  0  0  0  0  0  0  0  0  0
    0.6143    4.0822   22.0969 C   0  0  2  0  0  0  0  0  0  0  0  0
   -0.0030    4.2570   20.6837 C   0  0  0  0  0  0  0  0  0  0  0  0
    2.1884    5.0495   19.8764 C   0  0  0  0  0  0  0  0  0  0  0  0
    0.7155    5.0811   19.8127 N   0  0  0  0  0  0  0  0  0  0  0  0
    0.3203    5.2403   23.0328 C   0  0  1  0  0  0  0  0  0  0  0  0
    0.9329    6.3940   22.5854 O   0  0  0  0  0  0  0  0  0  0  0  0
   -1.1596    5.4470   23.1575 C   0  0  1  0  0  0  0  0  0  0  0  0
   -1.7690    4.3060   23.5091 O   0  0  0  0  0  0  0  0  0  0  0  0
   -1.4846    6.5142   24.2242 C   0  0  0  0  0  0  0  0  0  0  0  0
  1  2  2  0  0  0  0
  1 11  1  0  0  0  0
  2  3  1  0  0  0  0
  2  4  1  0  0  0  0
  4  5  1  0  0  0  0
  5  6  1  0  0  0  0
  5  7  2  0  0  0  0
  6  8  1  0  0  0  0
  6 11  2  0  0  0  0
  9  8  1  6  0  0  0
  9 10  1  0  0  0  0
  9 13  1  0  0  0  0
 10 12  1  0  0  0  0
 11 12  1  0  0  0  0
 13 14  1  6  0  0  0
 13 15  1  0  0  0  0
 15 16  1  1  0  0  0
 15 17  1  0  0  0  0
M  END
>  <CHROM.1>
61.18443972,53.44989424,1.80798812,5.02732677,21.28682086,0.57443079,0.22902315
-1.25630863

>  <Name>
ligand

>  <RI>
0

>  <Rbt.Current_Directory>
/home/itssahil/PROJECTS/Mol_Feturizer/New_Systems/rnas/4LVX

>  <Rbt.Executable>
rbdock ($Id: //depot/dev/client3/rdock/2013.1/src/exe/rbdock.cxx#4 $)

>  <Rbt.Library>
libRbt.so (2013.1, Build901 2013/11/27)

>  <Rbt.Parameter_File>
/export/apps/rDock/src/rDock_2013.1_src/data/scripts/dock_solv.prm

>  <Rbt.Receptor>
prm/pocket_docking_7.prm

>  <SCORE>
-17.1381

>  <SCORE.INTER>
-9.9834

>  <SCORE.INTER.CONST>
1

>  <SCORE.INTER.POLAR>
0

>  <SCORE.INTER.ROT>
2

>  <SCORE.INTER.SOLV>
12.8675

>  <SCORE.INTER.VDW>
-15.8781

>  <SCORE.INTER.norm>
-0.587259

>  <SCORE.INTRA>
-7.15467

>  <SCORE.INTRA.DIHEDRAL>
-10.0025

>  <SCORE.INTRA.DIHEDRAL.0>
10.3255

>  <SCORE.INTRA.POLAR>
0

>  <SCORE.INTRA.POLAR.0>
0

>  <SCORE.INTRA.REPUL>
0

>  <SCORE.INTRA.REPUL.0>
0

>  <SCORE.INTRA.SOLV>
-0.100721

>  <SCORE.INTRA.SOLV.lig_0>
-53.4755

>  <SCORE.INTRA.VDW>
-2.10305

>  <SCORE.INTRA.VDW.0>
2.32763

>  <SCORE.INTRA.norm>
-0.420863

>  <SCORE.RESTR>
0

>  <SCORE.RESTR.CAVITY>
0

>  <SCORE.RESTR.norm>
0

>  <SCORE.SYSTEM>
0

>  <SCORE.SYSTEM.CONST>
0

>  <SCORE.SYSTEM.DIHEDRAL>
0

>  <SCORE.SYSTEM.SOLV>
0

>  <SCORE.SYSTEM.norm>
0

>  <SCORE.heavy>
17

>  <SCORE.norm>
-1.00812

>  <RMSD>
5.973

$$$$
ligand
 OpenBabel11021811503D
libRbt.so/2013.1/901 2013/11/27
 17 18  0  0  0  0  0  0  0  0999 V2000
    2.8890    5.5923   18.7294 N   0  0  0  0  0  0  0  0  0  0  0  0
    4.2880    5.5730   18.7962 C   0  0  0  0  0  0  0  0  0  0  0  0
    5.0582    6.1369   17.7257 N   0  0  0  0  0  0  0  0  0  0  0  0
    4.9478    5.0292   19.8771 N   0  0  0  0  0  0  0  0  0  0  0  0
    4.2501    4.4777   20.9316 C   0  0  0  0  0  0  0  0  0  0  0  0
    2.8202    4.4643   20.9140 C   0  0  0  0  0  0  0  0  0  0  0  0
    4.8498    4.0010   21.8765 O   0  0  0  0  0  0  0  0  0  0  0  0
    2.0463    3.8851   22.0092 N   0  0  0  0  0  0  0  0  0  0  0  0
    0.6389    4.0644   22.0456 C   0  0  2  0  0  0  0  0  0  0  0  0
   -0.0051    4.2100   20.6410 C   0  0  0  0  0  0  0  0  0  0  0  0
    2.1558    5.0377   19.7882 C   0  0  0  0  0  0  0  0  0  0  0  0
    0.6817    5.0383   19.7488 N   0  0  0  0  0  0  0  0  0  0  0  0
    0.3365    5.2272   22.9731 C   0  0  1  0  0  0  0  0  0  0  0  0
    0.9374    6.3828   22.5150 O   0  0  0  0  0  0  0  0  0  0  0  0
   -1.1449    5.4212   23.0997 C   0  0  1  0  0  0  0  0  0  0  0  0
   -1.7404    4.2833   23.4838 O   0  0  0  0  0  0  0  0  0  0  0  0
   -1.4764    6.5121   24.1402 C   0  0  0  0  0  0  0  0  0  0  0  0
  1  2  2  0  0  0  0
  1 11  1  0  0  0  0
  2  3  1  0  0  0  0
  2  4  1  0  0  0  0
  4  5  1  0  0  0  0
  5  6  1  0  0  0  0
  5  7  2  0  0  0  0
  6  8  1  0  0  0  0
  6 11  2  0  0  0  0
  9  8  1  6  0  0  0
  9 10  1  0  0  0  0
  9 13  1  0  0  0  0
 10 12  1  0  0  0  0
 11 12  1  0  0  0  0
 13 14  1  6  0  0  0
 13 15  1  0  0  0  0
 15 16  1  1  0  0  0
 15 17  1  0  0  0  0
M  END
>  <CHROM.1>
60.12290037,54.49012945,1.79942802,5.02888610,21.20133077,0.59337289,0.21663500
-1.27217136

>  <Name>
ligand

>  <RI>
0

>  <Rbt.Current_Directory>
/home/itssahil/PROJECTS/Mol_Feturizer/New_Systems/rnas/4LVX

>  <Rbt.Executable>
rbdock ($Id: //depot/dev/client3/rdock/2013.1/src/exe/rbdock.cxx#4 $)

>  <Rbt.Library>
libRbt.so (2013.1, Build901 2013/11/27)

>  <Rbt.Parameter_File>
/export/apps/rDock/src/rDock_2013.1_src/data/scripts/dock_solv.prm

>  <Rbt.Receptor>
prm/pocket_docking_4.prm

>  <SCORE>
-17.1822

>  <SCORE.INTER>
-10.0458

>  <SCORE.INTER.CONST>
1

>  <SCORE.INTER.POLAR>
0

>  <SCORE.INTER.ROT>
2

>  <SCORE.INTER.SOLV>
13.0481

>  <SCORE.INTER.VDW>
-15.9799

>  <SCORE.INTER.norm>
-0.590931

>  <SCORE.INTRA>
-7.13634

>  <SCORE.INTRA.DIHEDRAL>
-10.0536

>  <SCORE.INTRA.DIHEDRAL.0>
10.3255

>  <SCORE.INTRA.POLAR>
0

>  <SCORE.INTRA.POLAR.0>
0

>  <SCORE.INTRA.REPUL>
0

>  <SCORE.INTRA.REPUL.0>
0

>  <SCORE.INTRA.SOLV>
-0.100857

>  <SCORE.INTRA.SOLV.lig_0>
-53.4755

>  <SCORE.INTRA.VDW>
-2.0591

>  <SCORE.INTRA.VDW.0>
2.32763

>  <SCORE.INTRA.norm>
-0.419785

>  <SCORE.RESTR>
0

>  <SCORE.RESTR.CAVITY>
0

>  <SCORE.RESTR.norm>
0

>  <SCORE.SYSTEM>
0

>  <SCORE.SYSTEM.CONST>
0

>  <SCORE.SYSTEM.DIHEDRAL>
0

>  <SCORE.SYSTEM.SOLV>
0

>  <SCORE.SYSTEM.norm>
0

>  <SCORE.heavy>
17

>  <SCORE.norm>
-1.01072

>  <RMSD>
5.985

$$$$
ligand
 OpenBabel11021811503D
libRbt.so/2013.1/901 2013/11/27
 17 18  0  0  0  0  0  0  0  0999 V2000
    3.5166    5.4680   19.4724 N   0  0  0  0  0  0  0  0  0  0  0  0
    4.8825    5.2834   19.7216 C   0  0  0  0  0  0  0  0  0  0  0  0
    5.8493    5.7913   18.7918 N   0  0  0  0  0  0  0  0  0  0  0  0
    5.3243    4.6283   20.8508 N   0  0  0  0  0  0  0  0  0  0  0  0
    4.4325    4.1249   21.7750 C   0  0  0  0  0  0  0  0  0  0  0  0
    3.0257    4.2789   21.5688 C   0  0  0  0  0  0  0  0  0  0  0  0
    4.8411    3.5484   22.7650 O   0  0  0  0  0  0  0  0  0  0  0  0
    2.0503    3.7554   22.5218 N   0  0  0  0  0  0  0  0  0  0  0  0
    0.6797    4.0962   22.3818 C   0  0  2  0  0  0  0  0  0  0  0  0
    0.2535    4.3656   20.9140 C   0  0  0  0  0  0  0  0  0  0  0  0
    2.5888    4.9655   20.3960 C   0  0  0  0  0  0  0  0  0  0  0  0
    1.1431    5.1394   20.1631 N   0  0  0  0  0  0  0  0  0  0  0  0
    0.3842    5.2526   23.3194 C   0  0  1  0  0  0  0  0  0  0  0  0
    1.1191    6.3662   22.9638 O   0  0  0  0  0  0  0  0  0  0  0  0
   -1.0818    5.5678   23.3124 C   0  0  1  0  0  0  0  0  0  0  0  0
   -1.8033    4.4697   23.5781 O   0  0  0  0  0  0  0  0  0  0  0  0
   -1.4262    6.6371   24.3710 C   0  0  0  0  0  0  0  0  0  0  0  0
  1  2  2  0  0  0  0
  1 11  1  0  0  0  0
  2  3  1  0  0  0  0
  2  4  1  0  0  0  0
  4  5  1  0  0  0  0
  5  6  1  0  0  0  0
  5  7  2  0  0  0  0
  6  8  1  0  0  0  0
  6 11  2  0  0  0  0
  9  8  1  6  0  0  0
  9 10  1  0  0  0  0
  9 13  1  0  0  0  0
 10 12  1  0  0  0  0
 11 12  1  0  0  0  0
 13 14  1  6  0  0  0
 13 15  1  0  0  0  0
 15 16  1  1  0  0  0
 15 17  1  0  0  0  0
M  END
>  <CHROM.1>
63.00446101,53.67309477,2.04187257,4.93828274,21.75741584,0.43083355,0.27896431
-1.18157093

>  <Name>
ligand

>  <RI>
0

>  <Rbt.Current_Directory>
/home/itssahil/PROJECTS/Mol_Feturizer/New_Systems/rnas/4LVX

>  <Rbt.Executable>
rbdock ($Id: //depot/dev/client3/rdock/2013.1/src/exe/rbdock.cxx#4 $)

>  <Rbt.Library>
libRbt.so (2013.1, Build901 2013/11/27)

>  <Rbt.Parameter_File>
/export/apps/rDock/src/rDock_2013.1_src/data/scripts/dock_solv.prm

>  <Rbt.Receptor>
prm/pocket_docking_5.prm

>  <SCORE>
-17.0407

>  <SCORE.INTER>
-9.82956

>  <SCORE.INTER.CONST>
1

>  <SCORE.INTER.POLAR>
0

>  <SCORE.INTER.ROT>
2

>  <SCORE.INTER.SOLV>
11.7942

>  <SCORE.INTER.VDW>
-15.4178

>  <SCORE.INTER.norm>
-0.578209

>  <SCORE.INTRA>
-7.21116

>  <SCORE.INTRA.DIHEDRAL>
-9.98786

>  <SCORE.INTRA.DIHEDRAL.0>
10.3255

>  <SCORE.INTRA.POLAR>
0

>  <SCORE.INTRA.POLAR.0>
0

>  <SCORE.INTRA.REPUL>
0

>  <SCORE.INTRA.REPUL.0>
0

>  <SCORE.INTRA.SOLV>
-0.111512

>  <SCORE.INTRA.SOLV.lig_0>
-53.4755

>  <SCORE.INTRA.VDW>
-2.16147

>  <SCORE.INTRA.VDW.0>
2.32763

>  <SCORE.INTRA.norm>
-0.424186

>  <SCORE.RESTR>
0

>  <SCORE.RESTR.CAVITY>
0

>  <SCORE.RESTR.norm>
0

>  <SCORE.SYSTEM>
0

>  <SCORE.SYSTEM.CONST>
0

>  <SCORE.SYSTEM.DIHEDRAL>
0

>  <SCORE.SYSTEM.SOLV>
0

>  <SCORE.SYSTEM.norm>
0

>  <SCORE.heavy>
17

>  <SCORE.norm>
-1.00239

>  <RMSD>
5.985

$$$$
ligand
 OpenBabel11021811503D
libRbt.so/2013.1/901 2013/11/27
 17 18  0  0  0  0  0  0  0  0999 V2000
    3.5064    5.4770   19.4637 N   0  0  0  0  0  0  0  0  0  0  0  0
    4.8717    5.2786   19.7060 C   0  0  0  0  0  0  0  0  0  0  0  0
    5.8392    5.7864   18.7768 N   0  0  0  0  0  0  0  0  0  0  0  0
    5.3122    4.6100   20.8277 N   0  0  0  0  0  0  0  0  0  0  0  0
    4.4197    4.1061   21.7510 C   0  0  0  0  0  0  0  0  0  0  0  0
    3.0135    4.2739   21.5516 C   0  0  0  0  0  0  0  0  0  0  0  0
    4.8271    3.5175   22.7343 O   0  0  0  0  0  0  0  0  0  0  0  0
    2.0373    3.7504   22.5038 N   0  0  0  0  0  0  0  0  0  0  0  0
    0.6691    4.1040   22.3722 C   0  0  2  0  0  0  0  0  0  0  0  0
    0.2396    4.3898   20.9084 C   0  0  0  0  0  0  0  0  0  0  0  0
    2.5779    4.9743   20.3865 C   0  0  0  0  0  0  0  0  0  0  0  0
    1.1329    5.1625   20.1609 N   0  0  0  0  0  0  0  0  0  0  0  0
    0.3871    5.2547   23.3209 C   0  0  1  0  0  0  0  0  0  0  0  0
    1.1243    6.3674   22.9675 O   0  0  0  0  0  0  0  0  0  0  0  0
   -1.0774    5.5768   23.3288 C   0  0  1  0  0  0  0  0  0  0  0  0
   -1.8014    4.4821   23.6013 O   0  0  0  0  0  0  0  0  0  0  0  0
   -1.4060    6.6474   24.3910 C   0  0  0  0  0  0  0  0  0  0  0  0
  1  2  2  0  0  0  0
  1 11  1  0  0  0  0
  2  3  1  0  0  0  0
  2  4  1  0  0  0  0
  4  5  1  0  0  0  0
  5  6  1  0  0  0  0
  5  7  2  0  0  0  0
  6  8  1  0  0  0  0
  6 11  2  0  0  0  0
  9  8  1  6  0  0  0
  9 10  1  0  0  0  0
  9 13  1  0  0  0  0
 10 12  1  0  0  0  0
 11 12  1  0  0  0  0
 13 14  1  6  0  0  0
 13 15  1  0  0  0  0
 15 16  1  1  0  0  0
 15 17  1  0  0  0  0
M  END
>  <CHROM.1>
63.34832515,54.09734876,2.03596227,4.93948445,21.75116885,0.43142783,0.28962306
-1.17028863

>  <Name>
ligand

>  <RI>
0

>  <Rbt.Current_Directory>
/home/itssahil/PROJECTS/Mol_Feturizer/New_Systems/rnas/4LVX

>  <Rbt.Executable>
rbdock ($Id: //depot/dev/client3/rdock/2013.1/src/exe/rbdock.cxx#4 $)

>  <Rbt.Library>
libRbt.so (2013.1, Build901 2013/11/27)

>  <Rbt.Parameter_File>
/export/apps/rDock/src/rDock_2013.1_src/data/scripts/dock_solv.prm

>  <Rbt.Receptor>
prm/pocket_docking_7.prm

>  <SCORE>
-17.0691

>  <SCORE.INTER>
-9.84195

>  <SCORE.INTER.CONST>
1

>  <SCORE.INTER.POLAR>
0

>  <SCORE.INTER.ROT>
2

>  <SCORE.INTER.SOLV>
11.8644

>  <SCORE.INTER.VDW>
-15.4494

>  <SCORE.INTER.norm>
-0.578938

>  <SCORE.INTRA>
-7.22712

>  <SCORE.INTRA.DIHEDRAL>
-9.99992

>  <SCORE.INTRA.DIHEDRAL.0>
10.3255

>  <SCORE.INTRA.POLAR>
0

>  <SCORE.INTRA.POLAR.0>
0

>  <SCORE.INTRA.REPUL>
0

>  <SCORE.INTRA.REPUL.0>
0

>  <SCORE.INTRA.SOLV>
-0.115602

>  <SCORE.INTRA.SOLV.lig_0>
-53.4755

>  <SCORE.INTRA.VDW>
-2.16936

>  <SCORE.INTRA.VDW.0>
2.32763

>  <SCORE.INTRA.norm>
-0.425125

>  <SCORE.RESTR>
0

>  <SCORE.RESTR.CAVITY>
0

>  <SCORE.RESTR.norm>
0

>  <SCORE.SYSTEM>
0

>  <SCORE.SYSTEM.CONST>
0

>  <SCORE.SYSTEM.DIHEDRAL>
0

>  <SCORE.SYSTEM.SOLV>
0

>  <SCORE.SYSTEM.norm>
0

>  <SCORE.heavy>
17

>  <SCORE.norm>
-1.00406

>  <RMSD>
5.988

$$$$
ligand
 OpenBabel11021811503D
libRbt.so/2013.1/901 2013/11/27
 17 18  0  0  0  0  0  0  0  0999 V2000
    3.3199    5.5923   19.1802 N   0  0  0  0  0  0  0  0  0  0  0  0
    4.7006    5.4406   19.3616 C   0  0  0  0  0  0  0  0  0  0  0  0
    5.6079    5.9747   18.3876 N   0  0  0  0  0  0  0  0  0  0  0  0
    5.2130    4.7933   20.4652 N   0  0  0  0  0  0  0  0  0  0  0  0
    4.3801    4.2655   21.4298 C   0  0  0  0  0  0  0  0  0  0  0  0
    2.9615    4.3855   21.2932 C   0  0  0  0  0  0  0  0  0  0  0  0
    4.8506    3.6964   22.3963 O   0  0  0  0  0  0  0  0  0  0  0  0
    2.0470    3.8354   22.2907 N   0  0  0  0  0  0  0  0  0  0  0  0
    0.6633    4.1429   22.2193 C   0  0  2  0  0  0  0  0  0  0  0  0
    0.1593    4.4058   20.7752 C   0  0  0  0  0  0  0  0  0  0  0  0
    2.4511    5.0645   20.1460 C   0  0  0  0  0  0  0  0  0  0  0  0
    0.9919    5.2034   19.9848 N   0  0  0  0  0  0  0  0  0  0  0  0
    0.3860    5.2890   23.1749 C   0  0  1  0  0  0  0  0  0  0  0  0
    1.0547    6.4284   22.7737 O   0  0  0  0  0  0  0  0  0  0  0  0
   -1.0881    5.5496   23.2624 C   0  0  1  0  0  0  0  0  0  0  0  0
   -1.7497    4.4264   23.5750 O   0  0  0  0  0  0  0  0  0  0  0  0
   -1.4030    6.6088   24.3400 C   0  0  0  0  0  0  0  0  0  0  0  0
  1  2  2  0  0  0  0
  1 11  1  0  0  0  0
  2  3  1  0  0  0  0
  2  4  1  0  0  0  0
  4  5  1  0  0  0  0
  5  6  1  0  0  0  0
  5  7  2  0  0  0  0
  6  8  1  0  0  0  0
  6 11  2  0  0  0  0
  9  8  1  6  0  0  0
  9 10  1  0  0  0  0
  9 13  1  0  0  0  0
 10 12  1  0  0  0  0
 11 12  1  0  0  0  0
 13 14  1  6  0  0  0
 13 15  1  0  0  0  0
 15 16  1  1  0  0  0
 15 17  1  0  0  0  0
M  END
>  <CHROM.1>
64.16014402,53.77008536,1.97200536,5.01658912,21.53656190,0.49029675,0.27572679
-1.19003387

>  <Name>
ligand

>  <RI>
0

>  <Rbt.Current_Directory>
/home/itssahil/PROJECTS/Mol_Feturizer/New_Systems/rnas/4LVX

>  <Rbt.Executable>
rbdock ($Id: //depot/dev/client3/rdock/2013.1/src/exe/rbdock.cxx#4 $)

>  <Rbt.Library>
libRbt.so (2013.1, Build901 2013/11/27)

>  <Rbt.Parameter_File>
/export/apps/rDock/src/rDock_2013.1_src/data/scripts/dock_solv.prm

>  <Rbt.Receptor>
prm/pocket_docking_6.prm

>  <SCORE>
-17.0813

>  <SCORE.INTER>
-9.84666

>  <SCORE.INTER.CONST>
1

>  <SCORE.INTER.POLAR>
0

>  <SCORE.INTER.ROT>
2

>  <SCORE.INTER.SOLV>
11.8031

>  <SCORE.INTER.VDW>
-15.4322

>  <SCORE.INTER.norm>
-0.579216

>  <SCORE.INTRA>
-7.23461

>  <SCORE.INTRA.DIHEDRAL>
-9.96434

>  <SCORE.INTRA.DIHEDRAL.0>
10.3255

>  <SCORE.INTRA.POLAR>
0

>  <SCORE.INTRA.POLAR.0>
0

>  <SCORE.INTRA.REPUL>
0

>  <SCORE.INTRA.REPUL.0>
0

>  <SCORE.INTRA.SOLV>
-0.118075

>  <SCORE.INTRA.SOLV.lig_0>
-53.4755

>  <SCORE.INTRA.VDW>
-2.1934

>  <SCORE.INTRA.VDW.0>
2.32763

>  <SCORE.INTRA.norm>
-0.425565

>  <SCORE.RESTR>
0

>  <SCORE.RESTR.CAVITY>
0

>  <SCORE.RESTR.norm>
0

>  <SCORE.SYSTEM>
0

>  <SCORE.SYSTEM.CONST>
0

>  <SCORE.SYSTEM.DIHEDRAL>
0

>  <SCORE.SYSTEM.SOLV>
0

>  <SCORE.SYSTEM.norm>
0

>  <SCORE.heavy>
17

>  <SCORE.norm>
-1.00478

>  <RMSD>
5.989

$$$$
ligand
 OpenBabel11021811503D
libRbt.so/2013.1/901 2013/11/27
 17 18  0  0  0  0  0  0  0  0999 V2000
    3.3786    5.5034   19.2364 N   0  0  0  0  0  0  0  0  0  0  0  0
    4.7562    5.3536   19.4405 C   0  0  0  0  0  0  0  0  0  0  0  0
    5.6784    5.8711   18.4714 N   0  0  0  0  0  0  0  0  0  0  0  0
    5.2517    4.7240   20.5618 N   0  0  0  0  0  0  0  0  0  0  0  0
    4.4042    4.2125   21.5226 C   0  0  0  0  0  0  0  0  0  0  0  0
    2.9880    4.3315   21.3632 C   0  0  0  0  0  0  0  0  0  0  0  0
    4.8600    3.6588   22.5050 O   0  0  0  0  0  0  0  0  0  0  0  0
    2.0584    3.7984   22.3560 N   0  0  0  0  0  0  0  0  0  0  0  0
    0.6762    4.1057   22.2593 C   0  0  2  0  0  0  0  0  0  0  0  0
    0.1936    4.3456   20.8038 C   0  0  0  0  0  0  0  0  0  0  0  0
    2.4951    4.9921   20.1978 C   0  0  0  0  0  0  0  0  0  0  0  0
    1.0386    5.1296   20.0130 N   0  0  0  0  0  0  0  0  0  0  0  0
    0.3860    5.2674   23.1919 C   0  0  1  0  0  0  0  0  0  0  0  0
    1.0687    6.3974   22.7873 O   0  0  0  0  0  0  0  0  0  0  0  0
   -1.0881    5.5367   23.2462 C   0  0  1  0  0  0  0  0  0  0  0  0
   -1.7632    4.4174   23.5429 O   0  0  0  0  0  0  0  0  0  0  0  0
   -1.4211    6.5972   24.3172 C   0  0  0  0  0  0  0  0  0  0  0  0
  1  2  2  0  0  0  0
  1 11  1  0  0  0  0
  2  3  1  0  0  0  0
  2  4  1  0  0  0  0
  4  5  1  0  0  0  0
  5  6  1  0  0  0  0
  5  7  2  0  0  0  0
  6  8  1  0  0  0  0
  6 11  2  0  0  0  0
  9  8  1  6  0  0  0
  9 10  1  0  0  0  0
  9 13  1  0  0  0  0
 10 12  1  0  0  0  0
 11 12  1  0  0  0  0
 13 14  1  6  0  0  0
 13 15  1  0  0  0  0
 15 16  1  1  0  0  0
 15 17  1  0  0  0  0
M  END
>  <CHROM.1>
63.76864282,52.86136636,1.99550519,4.96700787,21.58002713,0.47589075,0.26842624
-1.20690562

>  <Name>
ligand

>  <RI>
0

>  <Rbt.Current_Directory>
/home/itssahil/PROJECTS/Mol_Feturizer/New_Systems/rnas/4LVX

>  <Rbt.Executable>
rbdock ($Id: //depot/dev/client3/rdock/2013.1/src/exe/rbdock.cxx#4 $)

>  <Rbt.Library>
libRbt.so (2013.1, Build901 2013/11/27)

>  <Rbt.Parameter_File>
/export/apps/rDock/src/rDock_2013.1_src/data/scripts/dock_solv.prm

>  <Rbt.Receptor>
prm/pocket_docking_6.prm

>  <SCORE>
-17.1161

>  <SCORE.INTER>
-9.90944

>  <SCORE.INTER.CONST>
1

>  <SCORE.INTER.POLAR>
0

>  <SCORE.INTER.ROT>
2

>  <SCORE.INTER.SOLV>
12.2122

>  <SCORE.INTER.VDW>
-15.6104

>  <SCORE.INTER.norm>
-0.582908

>  <SCORE.INTRA>
-7.20667

>  <SCORE.INTRA.DIHEDRAL>
-9.92966

>  <SCORE.INTRA.DIHEDRAL.0>
10.3255

>  <SCORE.INTRA.POLAR>
0

>  <SCORE.INTRA.POLAR.0>
0

>  <SCORE.INTRA.REPUL>
0

>  <SCORE.INTRA.REPUL.0>
0

>  <SCORE.INTRA.SOLV>
-0.111157

>  <SCORE.INTRA.SOLV.lig_0>
-53.4755

>  <SCORE.INTRA.VDW>
-2.18626

>  <SCORE.INTRA.VDW.0>
2.32763

>  <SCORE.INTRA.norm>
-0.423922

>  <SCORE.RESTR>
0

>  <SCORE.RESTR.CAVITY>
0

>  <SCORE.RESTR.norm>
0

>  <SCORE.SYSTEM>
0

>  <SCORE.SYSTEM.CONST>
0

>  <SCORE.SYSTEM.DIHEDRAL>
0

>  <SCORE.SYSTEM.SOLV>
0

>  <SCORE.SYSTEM.norm>
0

>  <SCORE.heavy>
17

>  <SCORE.norm>
-1.00683

>  <RMSD>
5.995

$$$$
ligand
 OpenBabel11021811503D
libRbt.so/2013.1/901 2013/11/27
 17 18  0  0  0  0  0  0  0  0999 V2000
    3.3958    5.5013   19.1781 N   0  0  0  0  0  0  0  0  0  0  0  0
    4.7735    5.3836   19.4018 C   0  0  0  0  0  0  0  0  0  0  0  0
    5.6971    5.9188   18.4438 N   0  0  0  0  0  0  0  0  0  0  0  0
    5.2675    4.7692   20.5322 N   0  0  0  0  0  0  0  0  0  0  0  0
    4.4185    4.2417   21.4830 C   0  0  0  0  0  0  0  0  0  0  0  0
    3.0023    4.3278   21.3035 C   0  0  0  0  0  0  0  0  0  0  0  0
    4.8729    3.7018   22.4737 O   0  0  0  0  0  0  0  0  0  0  0  0
    2.0713    3.7770   22.2851 N   0  0  0  0  0  0  0  0  0  0  0  0
    0.6839    4.0524   22.1681 C   0  0  2  0  0  0  0  0  0  0  0  0
    0.2164    4.2764   20.7053 C   0  0  0  0  0  0  0  0  0  0  0  0
    2.5109    4.9731   20.1289 C   0  0  0  0  0  0  0  0  0  0  0  0
    1.0543    5.0767   19.9234 N   0  0  0  0  0  0  0  0  0  0  0  0
    0.3544    5.2102   23.0924 C   0  0  1  0  0  0  0  0  0  0  0  0
    1.0043    6.3579   22.6839 O   0  0  0  0  0  0  0  0  0  0  0  0
   -1.1275    5.4350   23.1385 C   0  0  1  0  0  0  0  0  0  0  0  0
   -1.7676    4.3047   23.4696 O   0  0  0  0  0  0  0  0  0  0  0  0
   -1.4943    6.5169   24.1765 C   0  0  0  0  0  0  0  0  0  0  0  0
  1  2  2  0  0  0  0
  1 11  1  0  0  0  0
  2  3  1  0  0  0  0
  2  4  1  0  0  0  0
  4  5  1  0  0  0  0
  5  6  1  0  0  0  0
  5  7  2  0  0  0  0
  6  8  1  0  0  0  0
  6 11  2  0  0  0  0
  9  8  1  6  0  0  0
  9 10  1  0  0  0  0
  9 13  1  0  0  0  0
 10 12  1  0  0  0  0
 11 12  1  0  0  0  0
 13 14  1  6  0  0  0
 13 15  1  0  0  0  0
 15 16  1  1  0  0  0
 15 17  1  0  0  0  0
M  END
>  <CHROM.1>
64.47709116,54.29853165,1.99281328,4.94131370,21.50719351,0.47097213,0.24661534
-1.20167619

>  <Name>
ligand

>  <RI>
0

>  <Rbt.Current_Directory>
/home/itssahil/PROJECTS/Mol_Feturizer/New_Systems/rnas/4LVX

>  <Rbt.Executable>
rbdock ($Id: //depot/dev/client3/rdock/2013.1/src/exe/rbdock.cxx#4 $)

>  <Rbt.Library>
libRbt.so (2013.1, Build901 2013/11/27)

>  <Rbt.Parameter_File>
/export/apps/rDock/src/rDock_2013.1_src/data/scripts/dock_solv.prm

>  <Rbt.Receptor>
prm/pocket_docking_4.prm

>  <SCORE>
-17.0846

>  <SCORE.INTER>
-9.83546

>  <SCORE.INTER.CONST>
1

>  <SCORE.INTER.POLAR>
0

>  <SCORE.INTER.ROT>
2

>  <SCORE.INTER.SOLV>
12.4625

>  <SCORE.INTER.VDW>
-15.6445

>  <SCORE.INTER.norm>
-0.578557

>  <SCORE.INTRA>
-7.24917

>  <SCORE.INTRA.DIHEDRAL>
-9.97871

>  <SCORE.INTRA.DIHEDRAL.0>
10.3255

>  <SCORE.INTRA.POLAR>
0

>  <SCORE.INTRA.POLAR.0>
0

>  <SCORE.INTRA.REPUL>
0

>  <SCORE.INTRA.REPUL.0>
0

>  <SCORE.INTRA.SOLV>
-0.122554

>  <SCORE.INTRA.SOLV.lig_0>
-53.4755

>  <SCORE.INTRA.VDW>
-2.19854

>  <SCORE.INTRA.VDW.0>
2.32763

>  <SCORE.INTRA.norm>
-0.426422

>  <SCORE.RESTR>
0

>  <SCORE.RESTR.CAVITY>
0

>  <SCORE.RESTR.norm>
0

>  <SCORE.SYSTEM>
0

>  <SCORE.SYSTEM.CONST>
0

>  <SCORE.SYSTEM.DIHEDRAL>
0

>  <SCORE.SYSTEM.SOLV>
0

>  <SCORE.SYSTEM.norm>
0

>  <SCORE.heavy>
17

>  <SCORE.norm>
-1.00498

>  <RMSD>
6.003

$$$$
ligand
 OpenBabel11021811503D
libRbt.so/2013.1/901 2013/11/27
 17 18  0  0  0  0  0  0  0  0999 V2000
    3.3792    5.4898   19.1499 N   0  0  0  0  0  0  0  0  0  0  0  0
    4.7583    5.3742   19.3661 C   0  0  0  0  0  0  0  0  0  0  0  0
    5.6758    5.9018   18.3982 N   0  0  0  0  0  0  0  0  0  0  0  0
    5.2594    4.7690   20.4984 N   0  0  0  0  0  0  0  0  0  0  0  0
    4.4163    4.2491   21.4586 C   0  0  0  0  0  0  0  0  0  0  0  0
    2.9990    4.3334   21.2871 C   0  0  0  0  0  0  0  0  0  0  0  0
    4.8770    3.7172   22.4508 O   0  0  0  0  0  0  0  0  0  0  0  0
    2.0742    3.7903   22.2789 N   0  0  0  0  0  0  0  0  0  0  0  0
    0.6861    4.0645   22.1682 C   0  0  2  0  0  0  0  0  0  0  0  0
    0.2096    4.2766   20.7064 C   0  0  0  0  0  0  0  0  0  0  0  0
    2.5002    4.9692   20.1104 C   0  0  0  0  0  0  0  0  0  0  0  0
    1.0424    5.0708   19.9130 N   0  0  0  0  0  0  0  0  0  0  0  0
    0.3620    5.2297   23.0851 C   0  0  1  0  0  0  0  0  0  0  0  0
    1.0140    6.3727   22.6670 O   0  0  0  0  0  0  0  0  0  0  0  0
   -1.1192    5.4589   23.1331 C   0  0  1  0  0  0  0  0  0  0  0  0
   -1.7619    4.3318   23.4699 O   0  0  0  0  0  0  0  0  0  0  0  0
   -1.4809    6.5460   24.1675 C   0  0  0  0  0  0  0  0  0  0  0  0
  1  2  2  0  0  0  0
  1 11  1  0  0  0  0
  2  3  1  0  0  0  0
  2  4  1  0  0  0  0
  4  5  1  0  0  0  0
  5  6  1  0  0  0  0
  5  7  2  0  0  0  0
  6  8  1  0  0  0  0
  6 11  2  0  0  0  0
  9  8  1  6  0  0  0
  9 10  1  0  0  0  0
  9 13  1  0  0  0  0
 10 12  1  0  0  0  0
 11 12  1  0  0  0  0
 13 14  1  6  0  0  0
 13 15  1  0  0  0  0
 15 16  1  1  0  0  0
 15 17  1  0  0  0  0
M  END
>  <CHROM.1>
64.19444523,54.12417748,1.99069652,4.94890967,21.49097039,0.47644849,0.24790756
-1.21263694

>  <Name>
ligand

>  <RI>
0

>  <Rbt.Current_Directory>
/home/itssahil/PROJECTS/Mol_Feturizer/New_Systems/rnas/4LVX

>  <Rbt.Executable>
rbdock ($Id: //depot/dev/client3/rdock/2013.1/src/exe/rbdock.cxx#4 $)

>  <Rbt.Library>
libRbt.so (2013.1, Build901 2013/11/27)

>  <Rbt.Parameter_File>
/export/apps/rDock/src/rDock_2013.1_src/data/scripts/dock_solv.prm

>  <Rbt.Receptor>
prm/pocket_docking_7.prm

>  <SCORE>
-17.0539

>  <SCORE.INTER>
-9.8117

>  <SCORE.INTER.CONST>
1

>  <SCORE.INTER.POLAR>
0

>  <SCORE.INTER.ROT>
2

>  <SCORE.INTER.SOLV>
12.5462

>  <SCORE.INTER.VDW>
-15.6565

>  <SCORE.INTER.norm>
-0.577159

>  <SCORE.INTRA>
-7.24216

>  <SCORE.INTRA.DIHEDRAL>
-9.97944

>  <SCORE.INTRA.DIHEDRAL.0>
10.3255

>  <SCORE.INTRA.POLAR>
0

>  <SCORE.INTRA.POLAR.0>
0

>  <SCORE.INTRA.REPUL>
0

>  <SCORE.INTRA.REPUL.0>
0

>  <SCORE.INTRA.SOLV>
-0.120152

>  <SCORE.INTRA.SOLV.lig_0>
-53.4755

>  <SCORE.INTRA.VDW>
-2.19236

>  <SCORE.INTRA.VDW.0>
2.32763

>  <SCORE.INTRA.norm>
-0.426009

>  <SCORE.RESTR>
0

>  <SCORE.RESTR.CAVITY>
0

>  <SCORE.RESTR.norm>
0

>  <SCORE.SYSTEM>
0

>  <SCORE.SYSTEM.CONST>
0

>  <SCORE.SYSTEM.DIHEDRAL>
0

>  <SCORE.SYSTEM.SOLV>
0

>  <SCORE.SYSTEM.norm>
0

>  <SCORE.heavy>
17

>  <SCORE.norm>
-1.00317

>  <RMSD>
6.005

$$$$
ligand
 OpenBabel11021811503D
libRbt.so/2013.1/901 2013/11/27
 17 18  0  0  0  0  0  0  0  0999 V2000
    3.5706    5.4428   19.4538 N   0  0  0  0  0  0  0  0  0  0  0  0
    4.9308    5.2368   19.7171 C   0  0  0  0  0  0  0  0  0  0  0  0
    5.9151    5.7315   18.7985 N   0  0  0  0  0  0  0  0  0  0  0  0
    5.3505    4.5731   20.8496 N   0  0  0  0  0  0  0  0  0  0  0  0
    4.4414    4.0818   21.7634 C   0  0  0  0  0  0  0  0  0  0  0  0
    3.0394    4.2577   21.5425 C   0  0  0  0  0  0  0  0  0  0  0  0
    4.8306    3.4973   22.7566 O   0  0  0  0  0  0  0  0  0  0  0  0
    2.0460    3.7475   22.4842 N   0  0  0  0  0  0  0  0  0  0  0  0
    0.6824    4.1095   22.3304 C   0  0  2  0  0  0  0  0  0  0  0  0
    0.2759    4.3879   20.8587 C   0  0  0  0  0  0  0  0  0  0  0  0
    2.6255    4.9529   20.3665 C   0  0  0  0  0  0  0  0  0  0  0  0
    1.1852    5.1493   20.1187 N   0  0  0  0  0  0  0  0  0  0  0  0
    0.3947    5.2686   23.2670 C   0  0  1  0  0  0  0  0  0  0  0  0
    1.1051    6.3893   22.8852 O   0  0  0  0  0  0  0  0  0  0  0  0
   -1.0752    5.5639   23.2947 C   0  0  1  0  0  0  0  0  0  0  0  0
   -1.7755    4.4557   23.5751 O   0  0  0  0  0  0  0  0  0  0  0  0
   -1.4093    6.6268   24.3630 C   0  0  0  0  0  0  0  0  0  0  0  0
  1  2  2  0  0  0  0
  1 11  1  0  0  0  0
  2  3  1  0  0  0  0
  2  4  1  0  0  0  0
  4  5  1  0  0  0  0
  5  6  1  0  0  0  0
  5  7  2  0  0  0  0
  6  8  1  0  0  0  0
  6 11  2  0  0  0  0
  9  8  1  6  0  0  0
  9 10  1  0  0  0  0
  9 13  1  0  0  0  0
 10 12  1  0  0  0  0
 11 12  1  0  0  0  0
 13 14  1  6  0  0  0
 13 15  1  0  0  0  0
 15 16  1  1  0  0  0
 15 17  1  0  0  0  0
M  END
>  <CHROM.1>
65.68540559,53.15410224,2.06215010,4.92290095,21.73130527,0.42174425,0.28938125
-1.16968100

>  <Name>
ligand

>  <RI>
0

>  <Rbt.Current_Directory>
/home/itssahil/PROJECTS/Mol_Feturizer/New_Systems/rnas/4LVX

>  <Rbt.Executable>
rbdock ($Id: //depot/dev/client3/rdock/2013.1/src/exe/rbdock.cxx#4 $)

>  <Rbt.Library>
libRbt.so (2013.1, Build901 2013/11/27)

>  <Rbt.Parameter_File>
/export/apps/rDock/src/rDock_2013.1_src/data/scripts/dock_solv.prm

>  <Rbt.Receptor>
prm/pocket_docking_7.prm

>  <SCORE>
-17.0433

>  <SCORE.INTER>
-9.80739

>  <SCORE.INTER.CONST>
1

>  <SCORE.INTER.POLAR>
0

>  <SCORE.INTER.ROT>
2

>  <SCORE.INTER.SOLV>
12.0162

>  <SCORE.INTER.VDW>
-15.477

>  <SCORE.INTER.norm>
-0.576905

>  <SCORE.INTRA>
-7.23591

>  <SCORE.INTRA.DIHEDRAL>
-9.88324

>  <SCORE.INTRA.DIHEDRAL.0>
10.3255

>  <SCORE.INTRA.POLAR>
0

>  <SCORE.INTRA.POLAR.0>
0

>  <SCORE.INTRA.REPUL>
0

>  <SCORE.INTRA.REPUL.0>
0

>  <SCORE.INTRA.SOLV>
-0.122747

>  <SCORE.INTRA.SOLV.lig_0>
-53.4755

>  <SCORE.INTRA.VDW>
-2.23291

>  <SCORE.INTRA.VDW.0>
2.32763

>  <SCORE.INTRA.norm>
-0.425642

>  <SCORE.RESTR>
0

>  <SCORE.RESTR.CAVITY>
0

>  <SCORE.RESTR.norm>
0

>  <SCORE.SYSTEM>
0

>  <SCORE.SYSTEM.CONST>
0

>  <SCORE.SYSTEM.DIHEDRAL>
0

>  <SCORE.SYSTEM.SOLV>
0

>  <SCORE.SYSTEM.norm>
0

>  <SCORE.heavy>
17

>  <SCORE.norm>
-1.00255

>  <RMSD>
6.005

$$$$
ligand
 OpenBabel11021811503D
libRbt.so/2013.1/901 2013/11/27
 17 18  0  0  0  0  0  0  0  0999 V2000
    3.3821    5.4409   19.1534 N   0  0  0  0  0  0  0  0  0  0  0  0
    4.7595    5.3253   19.3798 C   0  0  0  0  0  0  0  0  0  0  0  0
    5.6842    5.8394   18.4113 N   0  0  0  0  0  0  0  0  0  0  0  0
    5.2522    4.7330   20.5225 N   0  0  0  0  0  0  0  0  0  0  0  0
    4.4021    4.2264   21.4835 C   0  0  0  0  0  0  0  0  0  0  0  0
    2.9861    4.3113   21.3021 C   0  0  0  0  0  0  0  0  0  0  0  0
    4.8554    3.7058   22.4850 O   0  0  0  0  0  0  0  0  0  0  0  0
    2.0539    3.7821   22.2944 N   0  0  0  0  0  0  0  0  0  0  0  0
    0.6671    4.0575   22.1716 C   0  0  2  0  0  0  0  0  0  0  0  0
    0.2002    4.2527   20.7043 C   0  0  0  0  0  0  0  0  0  0  0  0
    2.4960    4.9336   20.1146 C   0  0  0  0  0  0  0  0  0  0  0  0
    1.0397    5.0356   19.9066 N   0  0  0  0  0  0  0  0  0  0  0  0
    0.3394    5.2345   23.0722 C   0  0  1  0  0  0  0  0  0  0  0  0
    0.9691    6.3787   22.6244 O   0  0  0  0  0  0  0  0  0  0  0  0
   -1.1440    5.4437   23.1375 C   0  0  1  0  0  0  0  0  0  0  0  0
   -1.7683    4.3059   23.4729 O   0  0  0  0  0  0  0  0  0  0  0  0
   -1.5089    6.5185   24.1835 C   0  0  0  0  0  0  0  0  0  0  0  0
  1  2  2  0  0  0  0
  1 11  1  0  0  0  0
  2  3  1  0  0  0  0
  2  4  1  0  0  0  0
  4  5  1  0  0  0  0
  5  6  1  0  0  0  0
  5  7  2  0  0  0  0
  6  8  1  0  0  0  0
  6 11  2  0  0  0  0
  9  8  1  6  0  0  0
  9 10  1  0  0  0  0
  9 13  1  0  0  0  0
 10 12  1  0  0  0  0
 11 12  1  0  0  0  0
 13 14  1  6  0  0  0
 13 15  1  0  0  0  0
 15 16  1  1  0  0  0
 15 17  1  0  0  0  0
M  END
>  <CHROM.1>
65.73120562,52.66621786,1.97700064,4.92456738,21.49717433,0.47521661,0.24473479
-1.22445775

>  <Name>
ligand

>  <RI>
0

>  <Rbt.Current_Directory>
/home/itssahil/PROJECTS/Mol_Feturizer/New_Systems/rnas/4LVX

>  <Rbt.Executable>
rbdock ($Id: //depot/dev/client3/rdock/2013.1/src/exe/rbdock.cxx#4 $)

>  <Rbt.Library>
libRbt.so (2013.1, Build901 2013/11/27)

>  <Rbt.Parameter_File>
/export/apps/rDock/src/rDock_2013.1_src/data/scripts/dock_solv.prm

>  <Rbt.Receptor>
prm/pocket_docking_8.prm

>  <SCORE>
-17.0534

>  <SCORE.INTER>
-9.82985

>  <SCORE.INTER.CONST>
1

>  <SCORE.INTER.POLAR>
0

>  <SCORE.INTER.ROT>
2

>  <SCORE.INTER.SOLV>
12.9304

>  <SCORE.INTER.VDW>
-15.7967

>  <SCORE.INTER.norm>
-0.578227

>  <SCORE.INTRA>
-7.22356

>  <SCORE.INTRA.DIHEDRAL>
-9.85583

>  <SCORE.INTRA.DIHEDRAL.0>
10.3255

>  <SCORE.INTRA.POLAR>
0

>  <SCORE.INTRA.POLAR.0>
0

>  <SCORE.INTRA.REPUL>
0

>  <SCORE.INTRA.REPUL.0>
0

>  <SCORE.INTRA.SOLV>
-0.120413

>  <SCORE.INTRA.SOLV.lig_0>
-53.4755

>  <SCORE.INTRA.VDW>
-2.23544

>  <SCORE.INTRA.VDW.0>
2.32763

>  <SCORE.INTRA.norm>
-0.424915

>  <SCORE.RESTR>
0

>  <SCORE.RESTR.CAVITY>
0

>  <SCORE.RESTR.norm>
0

>  <SCORE.SYSTEM>
0

>  <SCORE.SYSTEM.CONST>
0

>  <SCORE.SYSTEM.DIHEDRAL>
0

>  <SCORE.SYSTEM.SOLV>
0

>  <SCORE.SYSTEM.norm>
0

>  <SCORE.heavy>
17

>  <SCORE.norm>
-1.00314

>  <RMSD>
6.007

$$$$
ligand
 OpenBabel11021811503D
libRbt.so/2013.1/901 2013/11/27
 17 18  0  0  0  0  0  0  0  0999 V2000
    4.9108    4.9992   19.8767 N   0  0  0  0  0  0  0  0  0  0  0  0
    5.8893    4.6306   20.8087 C   0  0  0  0  0  0  0  0  0  0  0  0
    7.2766    4.8046   20.4885 N   0  0  0  0  0  0  0  0  0  0  0  0
    5.5497    4.1088   22.0382 N   0  0  0  0  0  0  0  0  0  0  0  0
    4.2291    3.9256   22.3922 C   0  0  0  0  0  0  0  0  0  0  0  0
    3.1880    4.2786   21.4774 C   0  0  0  0  0  0  0  0  0  0  0  0
    3.9486    3.4624   23.4813 O   0  0  0  0  0  0  0  0  0  0  0  0
    1.7784    4.0948   21.8137 N   0  0  0  0  0  0  0  0  0  0  0  0
    0.7780    4.6342   20.9637 C   0  0  2  0  0  0  0  0  0  0  0  0
    1.2089    4.7220   19.4753 C   0  0  0  0  0  0  0  0  0  0  0  0
    3.5605    4.8228   20.2115 C   0  0  0  0  0  0  0  0  0  0  0  0
    2.5045    5.1972   19.2527 N   0  0  0  0  0  0  0  0  0  0  0  0
    0.3342    5.9644   21.5444 C   0  0  1  0  0  0  0  0  0  0  0  0
   -0.7293    6.4765   20.8281 O   0  0  0  0  0  0  0  0  0  0  0  0
   -0.0347    5.8054   22.9891 C   0  0  1  0  0  0  0  0  0  0  0  0
   -0.2061    7.0020   23.5684 O   0  0  0  0  0  0  0  0  0  0  0  0
   -1.3450    5.0043   23.1439 C   0  0  0  0  0  0  0  0  0  0  0  0
  1  2  2  0  0  0  0
  1 11  1  0  0  0  0
  2  3  1  0  0  0  0
  2  4  1  0  0  0  0
  4  5  1  0  0  0  0
  5  6  1  0  0  0  0
  5  7  2  0  0  0  0
  6  8  1  0  0  0  0
  6 11  2  0  0  0  0
  9  8  1  1  0  0  0
  9 10  1  0  0  0  0
  9 13  1  0  0  0  0
 10 12  1  0  0  0  0
 11 12  1  0  0  0  0
 13 14  1  6  0  0  0
 13 15  1  0  0  0  0
 15 16  1  6  0  0  0
 15 17  1  0  0  0  0
M  END
>  <CHROM.1>
-174.29218338,169.43210413,2.43382224,4.96675661,21.47249198,0.15198495,0.26130035
-1.39608096

>  <Name>
ligand

>  <RI>
0

>  <Rbt.Current_Directory>
/home/itssahil/PROJECTS/Mol_Feturizer/New_Systems/rnas/4LVX

>  <Rbt.Executable>
rbdock ($Id: //depot/dev/client3/rdock/2013.1/src/exe/rbdock.cxx#4 $)

>  <Rbt.Library>
libRbt.so (2013.1, Build901 2013/11/27)

>  <Rbt.Parameter_File>
/export/apps/rDock/src/rDock_2013.1_src/data/scripts/dock_solv.prm

>  <Rbt.Receptor>
prm/pocket_docking_5.prm

>  <SCORE>
-15.0753

>  <SCORE.INTER>
-8.67799

>  <SCORE.INTER.CONST>
1

>  <SCORE.INTER.POLAR>
0

>  <SCORE.INTER.ROT>
2

>  <SCORE.INTER.SOLV>
8.56751

>  <SCORE.INTER.VDW>
-13.5745

>  <SCORE.INTER.norm>
-0.51047

>  <SCORE.INTRA>
-6.39736

>  <SCORE.INTRA.DIHEDRAL>
-9.64682

>  <SCORE.INTRA.DIHEDRAL.0>
10.3255

>  <SCORE.INTRA.POLAR>
0

>  <SCORE.INTRA.POLAR.0>
0

>  <SCORE.INTRA.REPUL>
0

>  <SCORE.INTRA.REPUL.0>
0

>  <SCORE.INTRA.SOLV>
-0.491096

>  <SCORE.INTRA.SOLV.lig_0>
-53.4755

>  <SCORE.INTRA.VDW>
-1.3284

>  <SCORE.INTRA.VDW.0>
2.32763

>  <SCORE.INTRA.norm>
-0.376315

>  <SCORE.RESTR>
0

>  <SCORE.RESTR.CAVITY>
0

>  <SCORE.RESTR.norm>
0

>  <SCORE.SYSTEM>
0

>  <SCORE.SYSTEM.CONST>
0

>  <SCORE.SYSTEM.DIHEDRAL>
0

>  <SCORE.SYSTEM.SOLV>
0

>  <SCORE.SYSTEM.norm>
0

>  <SCORE.heavy>
17

>  <SCORE.norm>
-0.886785

>  <RMSD>
6.012

$$$$
ligand
 OpenBabel11021811503D
libRbt.so/2013.1/901 2013/11/27
 17 18  0  0  0  0  0  0  0  0999 V2000
    4.6719    5.1436   19.5220 N   0  0  0  0  0  0  0  0  0  0  0  0
    5.7195    4.7738   20.3752 C   0  0  0  0  0  0  0  0  0  0  0  0
    7.0779    4.9643   19.9562 N   0  0  0  0  0  0  0  0  0  0  0  0
    5.4756    4.2351   21.6200 N   0  0  0  0  0  0  0  0  0  0  0  0
    4.1862    4.0354   22.0678 C   0  0  0  0  0  0  0  0  0  0  0  0
    3.0777    4.3889   21.2362 C   0  0  0  0  0  0  0  0  0  0  0  0
    3.9905    3.5574   23.1690 O   0  0  0  0  0  0  0  0  0  0  0  0
    1.6983    4.1880   21.6729 N   0  0  0  0  0  0  0  0  0  0  0  0
    0.6336    4.7275   20.9050 C   0  0  2  0  0  0  0  0  0  0  0  0
    0.9532    4.8360   19.3902 C   0  0  0  0  0  0  0  0  0  0  0  0
    3.3515    4.9507   19.9529 C   0  0  0  0  0  0  0  0  0  0  0  0
    2.2248    5.3259   19.0787 N   0  0  0  0  0  0  0  0  0  0  0  0
    0.2223    6.0469   21.5325 C   0  0  1  0  0  0  0  0  0  0  0  0
   -0.8749    6.5737   20.8804 O   0  0  0  0  0  0  0  0  0  0  0  0
   -0.0739    5.8608   22.9906 C   0  0  1  0  0  0  0  0  0  0  0  0
   -0.2438    7.0456   23.5942 O   0  0  0  0  0  0  0  0  0  0  0  0
   -1.3572    5.0281   23.1960 C   0  0  0  0  0  0  0  0  0  0  0  0
  1  2  2  0  0  0  0
  1 11  1  0  0  0  0
  2  3  1  0  0  0  0
  2  4  1  0  0  0  0
  4  5  1  0  0  0  0
  5  6  1  0  0  0  0
  5  7  2  0  0  0  0
  6  8  1  0  0  0  0
  6 11  2  0  0  0  0
  9  8  1  1  0  0  0
  9 10  1  0  0  0  0
  9 13  1  0  0  0  0
 10 12  1  0  0  0  0
 11 12  1  0  0  0  0
 13 14  1  6  0  0  0
 13 15  1  0  0  0  0
 15 16  1  6  0  0  0
 15 17  1  0  0  0  0
M  END
>  <CHROM.1>
-175.81395240,170.85029860,2.31223371,5.06829072,21.28951855,0.22400517,0.26513945
-1.39630646

>  <Name>
ligand

>  <RI>
0

>  <Rbt.Current_Directory>
/home/itssahil/PROJECTS/Mol_Feturizer/New_Systems/rnas/4LVX

>  <Rbt.Executable>
rbdock ($Id: //depot/dev/client3/rdock/2013.1/src/exe/rbdock.cxx#4 $)

>  <Rbt.Library>
libRbt.so (2013.1, Build901 2013/11/27)

>  <Rbt.Parameter_File>
/export/apps/rDock/src/rDock_2013.1_src/data/scripts/dock_solv.prm

>  <Rbt.Receptor>
prm/pocket_docking_7.prm

>  <SCORE>
-15.0017

>  <SCORE.INTER>
-8.53108

>  <SCORE.INTER.CONST>
1

>  <SCORE.INTER.POLAR>
0

>  <SCORE.INTER.ROT>
2

>  <SCORE.INTER.SOLV>
9.36507

>  <SCORE.INTER.VDW>
-13.7424

>  <SCORE.INTER.norm>
-0.501828

>  <SCORE.INTRA>
-6.47062

>  <SCORE.INTRA.DIHEDRAL>
-9.79846

>  <SCORE.INTRA.DIHEDRAL.0>
10.3255

>  <SCORE.INTRA.POLAR>
0

>  <SCORE.INTRA.POLAR.0>
0

>  <SCORE.INTRA.REPUL>
0

>  <SCORE.INTRA.REPUL.0>
0

>  <SCORE.INTRA.SOLV>
-0.498307

>  <SCORE.INTRA.SOLV.lig_0>
-53.4755

>  <SCORE.INTRA.VDW>
-1.32224

>  <SCORE.INTRA.VDW.0>
2.32763

>  <SCORE.INTRA.norm>
-0.380625

>  <SCORE.RESTR>
0

>  <SCORE.RESTR.CAVITY>
0

>  <SCORE.RESTR.norm>
0

>  <SCORE.SYSTEM>
0

>  <SCORE.SYSTEM.CONST>
0

>  <SCORE.SYSTEM.DIHEDRAL>
0

>  <SCORE.SYSTEM.SOLV>
0

>  <SCORE.SYSTEM.norm>
0

>  <SCORE.heavy>
17

>  <SCORE.norm>
-0.882453

>  <RMSD>
6.020

$$$$
ligand
 OpenBabel11021811503D
libRbt.so/2013.1/901 2013/11/27
 17 18  0  0  0  0  0  0  0  0999 V2000
    0.9531    4.3399   16.7291 N   0  0  0  0  0  0  0  0  0  0  0  0
    0.5902    5.0867   15.6009 C   0  0  0  0  0  0  0  0  0  0  0  0
    0.5077    4.4451   14.3208 N   0  0  0  0  0  0  0  0  0  0  0  0
    0.3001    6.4309   15.6925 N   0  0  0  0  0  0  0  0  0  0  0  0
    0.3631    7.0907   16.9022 C   0  0  0  0  0  0  0  0  0  0  0  0
    0.7342    6.3795   18.0862 C   0  0  0  0  0  0  0  0  0  0  0  0
    0.1049    8.2778   16.9632 O   0  0  0  0  0  0  0  0  0  0  0  0
    0.8171    7.0441   19.3843 N   0  0  0  0  0  0  0  0  0  0  0  0
    0.9973    6.2689   20.5594 C   0  0  2  0  0  0  0  0  0  0  0  0
    1.7783    4.9494   20.3192 C   0  0  0  0  0  0  0  0  0  0  0  0
    1.0251    4.9867   17.9711 C   0  0  0  0  0  0  0  0  0  0  0  0
    1.4071    4.2315   19.1787 N   0  0  0  0  0  0  0  0  0  0  0  0
   -0.3635    6.0587   21.1978 C   0  0  1  0  0  0  0  0  0  0  0  0
   -1.1066    5.1509   20.4697 O   0  0  0  0  0  0  0  0  0  0  0  0
   -0.2082    5.5926   22.6146 C   0  0  1  0  0  0  0  0  0  0  0  0
    0.5450    6.4517   23.3157 O   0  0  0  0  0  0  0  0  0  0  0  0
   -1.5787    5.4729   23.3145 C   0  0  0  0  0  0  0  0  0  0  0  0
  1  2  2  0  0  0  0
  1 11  1  0  0  0  0
  2  3  1  0  0  0  0
  2  4  1  0  0  0  0
  4  5  1  0  0  0  0
  5  6  1  0  0  0  0
  5  7  2  0  0  0  0
  6  8  1  0  0  0  0
  6 11  2  0  0  0  0
  9  8  1  6  0  0  0
  9 10  1  0  0  0  0
  9 13  1  0  0  0  0
 10 12  1  0  0  0  0
 11 12  1  0  0  0  0
 13 14  1  6  0  0  0
 13 15  1  0  0  0  0
 15 16  1  1  0  0  0
 15 17  1  0  0  0  0
M  END
>  <CHROM.1>
73.35705960,55.62146067,0.37509357,5.79403126,19.06050990,-1.02918987,-1.33478729
2.07779173

>  <Name>
ligand

>  <RI>
0

>  <Rbt.Current_Directory>
/home/itssahil/PROJECTS/Mol_Feturizer/New_Systems/rnas/4LVX

>  <Rbt.Executable>
rbdock ($Id: //depot/dev/client3/rdock/2013.1/src/exe/rbdock.cxx#4 $)

>  <Rbt.Library>
libRbt.so (2013.1, Build901 2013/11/27)

>  <Rbt.Parameter_File>
/export/apps/rDock/src/rDock_2013.1_src/data/scripts/dock_solv.prm

>  <Rbt.Receptor>
prm/pocket_docking_7.prm

>  <SCORE>
-15.5173

>  <SCORE.INTER>
-8.38923

>  <SCORE.INTER.CONST>
1

>  <SCORE.INTER.POLAR>
0

>  <SCORE.INTER.ROT>
2

>  <SCORE.INTER.SOLV>
10.0496

>  <SCORE.INTER.VDW>
-13.876

>  <SCORE.INTER.norm>
-0.493484

>  <SCORE.INTRA>
-7.12808

>  <SCORE.INTRA.DIHEDRAL>
-9.50353

>  <SCORE.INTRA.DIHEDRAL.0>
10.3255

>  <SCORE.INTRA.POLAR>
0

>  <SCORE.INTRA.POLAR.0>
0

>  <SCORE.INTRA.REPUL>
0

>  <SCORE.INTRA.REPUL.0>
0

>  <SCORE.INTRA.SOLV>
-0.174377

>  <SCORE.INTRA.SOLV.lig_0>
-53.4755

>  <SCORE.INTRA.VDW>
-2.28913

>  <SCORE.INTRA.VDW.0>
2.32763

>  <SCORE.INTRA.norm>
-0.419299

>  <SCORE.RESTR>
0

>  <SCORE.RESTR.CAVITY>
0

>  <SCORE.RESTR.norm>
0

>  <SCORE.SYSTEM>
0

>  <SCORE.SYSTEM.CONST>
0

>  <SCORE.SYSTEM.DIHEDRAL>
0

>  <SCORE.SYSTEM.SOLV>
0

>  <SCORE.SYSTEM.norm>
0

>  <SCORE.heavy>
17

>  <SCORE.norm>
-0.912783

>  <RMSD>
6.410

$$$$
ligand
 OpenBabel11021811503D
libRbt.so/2013.1/901 2013/11/27
 17 18  0  0  0  0  0  0  0  0999 V2000
    0.9669    4.3568   16.7412 N   0  0  0  0  0  0  0  0  0  0  0  0
    0.5814    5.0825   15.6069 C   0  0  0  0  0  0  0  0  0  0  0  0
    0.5122    4.4263   14.3334 N   0  0  0  0  0  0  0  0  0  0  0  0
    0.2563    6.4194   15.6860 N   0  0  0  0  0  0  0  0  0  0  0  0
    0.3053    7.0928   16.8890 C   0  0  0  0  0  0  0  0  0  0  0  0
    0.6983    6.4034   18.0788 C   0  0  0  0  0  0  0  0  0  0  0  0
    0.0162    8.2732   16.9390 O   0  0  0  0  0  0  0  0  0  0  0  0
    0.7673    7.0829   19.3700 N   0  0  0  0  0  0  0  0  0  0  0  0
    0.9711    6.3244   20.5521 C   0  0  2  0  0  0  0  0  0  0  0  0
    1.7859    5.0235   20.3226 C   0  0  0  0  0  0  0  0  0  0  0  0
    1.0254    5.0177   17.9766 C   0  0  0  0  0  0  0  0  0  0  0  0
    1.4305    4.2848   19.1904 N   0  0  0  0  0  0  0  0  0  0  0  0
   -0.3819    6.0848   21.1968 C   0  0  1  0  0  0  0  0  0  0  0  0
   -1.1000    5.1454   20.4839 O   0  0  0  0  0  0  0  0  0  0  0  0
   -0.2106    5.6445   22.6199 C   0  0  1  0  0  0  0  0  0  0  0  0
    0.5412    6.5218   23.2997 O   0  0  0  0  0  0  0  0  0  0  0  0
   -1.5740    5.5254   23.3336 C   0  0  0  0  0  0  0  0  0  0  0  0
  1  2  2  0  0  0  0
  1 11  1  0  0  0  0
  2  3  1  0  0  0  0
  2  4  1  0  0  0  0
  4  5  1  0  0  0  0
  5  6  1  0  0  0  0
  5  7  2  0  0  0  0
  6  8  1  0  0  0  0
  6 11  2  0  0  0  0
  9  8  1  6  0  0  0
  9 10  1  0  0  0  0
  9 13  1  0  0  0  0
 10 12  1  0  0  0  0
 11 12  1  0  0  0  0
 13 14  1  6  0  0  0
 13 15  1  0  0  0  0
 15 16  1  1  0  0  0
 15 17  1  0  0  0  0
M  END
>  <CHROM.1>
73.67029779,54.39940935,0.35900718,5.82075915,19.06046961,-1.09818934,-1.30932297
1.99885810

>  <Name>
ligand

>  <RI>
0

>  <Rbt.Current_Directory>
/home/itssahil/PROJECTS/Mol_Feturizer/New_Systems/rnas/4LVX

>  <Rbt.Executable>
rbdock ($Id: //depot/dev/client3/rdock/2013.1/src/exe/rbdock.cxx#4 $)

>  <Rbt.Library>
libRbt.so (2013.1, Build901 2013/11/27)

>  <Rbt.Parameter_File>
/export/apps/rDock/src/rDock_2013.1_src/data/scripts/dock_solv.prm

>  <Rbt.Receptor>
prm/pocket_docking_8.prm

>  <SCORE>
-15.5493

>  <SCORE.INTER>
-8.44858

>  <SCORE.INTER.CONST>
1

>  <SCORE.INTER.POLAR>
0

>  <SCORE.INTER.ROT>
2

>  <SCORE.INTER.SOLV>
9.94433

>  <SCORE.INTER.VDW>
-13.8805

>  <SCORE.INTER.norm>
-0.496975

>  <SCORE.INTRA>
-7.10075

>  <SCORE.INTRA.DIHEDRAL>
-9.43005

>  <SCORE.INTRA.DIHEDRAL.0>
10.3255

>  <SCORE.INTRA.POLAR>
0

>  <SCORE.INTRA.POLAR.0>
0

>  <SCORE.INTRA.REPUL>
0

>  <SCORE.INTRA.REPUL.0>
0

>  <SCORE.INTRA.SOLV>
-0.1698

>  <SCORE.INTRA.SOLV.lig_0>
-53.4755

>  <SCORE.INTRA.VDW>
-2.30083

>  <SCORE.INTRA.VDW.0>
2.32763

>  <SCORE.INTRA.norm>
-0.417691

>  <SCORE.RESTR>
0

>  <SCORE.RESTR.CAVITY>
0

>  <SCORE.RESTR.norm>
0

>  <SCORE.SYSTEM>
0

>  <SCORE.SYSTEM.CONST>
0

>  <SCORE.SYSTEM.DIHEDRAL>
0

>  <SCORE.SYSTEM.SOLV>
0

>  <SCORE.SYSTEM.norm>
0

>  <SCORE.heavy>
17

>  <SCORE.norm>
-0.914666

>  <RMSD>
6.413

$$$$
ligand
 OpenBabel11021811503D
libRbt.so/2013.1/901 2013/11/27
 17 18  0  0  0  0  0  0  0  0999 V2000
    1.0961    4.0444   16.4154 N   0  0  0  0  0  0  0  0  0  0  0  0
    0.5499    4.4910   15.2053 C   0  0  0  0  0  0  0  0  0  0  0  0
    0.5461    3.6221   14.0641 N   0  0  0  0  0  0  0  0  0  0  0  0
    0.0044    5.7509   15.0852 N   0  0  0  0  0  0  0  0  0  0  0  0
   -0.0172    6.6209   16.1555 C   0  0  0  0  0  0  0  0  0  0  0  0
    0.5322    6.2204   17.4138 C   0  0  0  0  0  0  0  0  0  0  0  0
   -0.5017    7.7295   16.0302 O   0  0  0  0  0  0  0  0  0  0  0  0
    0.5324    7.1149   18.5686 N   0  0  0  0  0  0  0  0  0  0  0  0
    0.9071    6.6153   19.8431 C   0  0  2  0  0  0  0  0  0  0  0  0
    1.9229    5.4438   19.7769 C   0  0  0  0  0  0  0  0  0  0  0  0
    1.0871    4.9095   17.5190 C   0  0  0  0  0  0  0  0  0  0  0  0
    1.6567    4.4728   18.8072 N   0  0  0  0  0  0  0  0  0  0  0  0
   -0.3600    6.2749   20.6062 C   0  0  1  0  0  0  0  0  0  0  0  0
   -0.8512    5.0472   20.2088 O   0  0  0  0  0  0  0  0  0  0  0  0
   -0.0971    6.2815   22.0824 C   0  0  1  0  0  0  0  0  0  0  0  0
    0.2796    7.5015   22.4907 O   0  0  0  0  0  0  0  0  0  0  0  0
   -1.3590    5.8779   22.8743 C   0  0  0  0  0  0  0  0  0  0  0  0
  1  2  2  0  0  0  0
  1 11  1  0  0  0  0
  2  3  1  0  0  0  0
  2  4  1  0  0  0  0
  4  5  1  0  0  0  0
  5  6  1  0  0  0  0
  5  7  2  0  0  0  0
  6  8  1  0  0  0  0
  6 11  2  0  0  0  0
  9  8  1  6  0  0  0
  9 10  1  0  0  0  0
  9 13  1  0  0  0  0
 10 12  1  0  0  0  0
 11 12  1  0  0  0  0
 13 14  1  6  0  0  0
 13 15  1  0  0  0  0
 15 16  1  1  0  0  0
 15 17  1  0  0  0  0
M  END
>  <CHROM.1>
80.39843080,62.25709382,0.31939933,5.79070955,18.50186132,-1.31017921,-1.18891370
1.61429070

>  <Name>
ligand

>  <RI>
0

>  <Rbt.Current_Directory>
/home/itssahil/PROJECTS/Mol_Feturizer/New_Systems/rnas/4LVX

>  <Rbt.Executable>
rbdock ($Id: //depot/dev/client3/rdock/2013.1/src/exe/rbdock.cxx#4 $)

>  <Rbt.Library>
libRbt.so (2013.1, Build901 2013/11/27)

>  <Rbt.Parameter_File>
/export/apps/rDock/src/rDock_2013.1_src/data/scripts/dock_solv.prm

>  <Rbt.Receptor>
prm/pocket_docking_8.prm

>  <SCORE>
-15.1566

>  <SCORE.INTER>
-8.49167

>  <SCORE.INTER.CONST>
1

>  <SCORE.INTER.POLAR>
0

>  <SCORE.INTER.ROT>
2

>  <SCORE.INTER.SOLV>
11.0243

>  <SCORE.INTER.VDW>
-14.2692

>  <SCORE.INTER.norm>
-0.49951

>  <SCORE.INTRA>
-6.66493

>  <SCORE.INTRA.DIHEDRAL>
-8.84284

>  <SCORE.INTRA.DIHEDRAL.0>
10.3255

>  <SCORE.INTRA.POLAR>
0

>  <SCORE.INTRA.POLAR.0>
0

>  <SCORE.INTRA.REPUL>
0

>  <SCORE.INTRA.REPUL.0>
0

>  <SCORE.INTRA.SOLV>
-0.240914

>  <SCORE.INTRA.SOLV.lig_0>
-53.4755

>  <SCORE.INTRA.VDW>
-2.12305

>  <SCORE.INTRA.VDW.0>
2.32763

>  <SCORE.INTRA.norm>
-0.392055

>  <SCORE.RESTR>
0

>  <SCORE.RESTR.CAVITY>
0

>  <SCORE.RESTR.norm>
0

>  <SCORE.SYSTEM>
0

>  <SCORE.SYSTEM.CONST>
0

>  <SCORE.SYSTEM.DIHEDRAL>
0

>  <SCORE.SYSTEM.SOLV>
0

>  <SCORE.SYSTEM.norm>
0

>  <SCORE.heavy>
17

>  <SCORE.norm>
-0.891565

>  <RMSD>
6.808

$$$$
ligand
 OpenBabel11021811503D
libRbt.so/2013.1/901 2013/11/27
 17 18  0  0  0  0  0  0  0  0999 V2000
    1.4213    3.8410   16.4823 N   0  0  0  0  0  0  0  0  0  0  0  0
    0.8386    4.1241   15.2404 C   0  0  0  0  0  0  0  0  0  0  0  0
    0.9879    3.1955   14.1575 N   0  0  0  0  0  0  0  0  0  0  0  0
    0.1129    5.2773   15.0339 N   0  0  0  0  0  0  0  0  0  0  0  0
   -0.0602    6.1988   16.0457 C   0  0  0  0  0  0  0  0  0  0  0  0
    0.5177    5.9647   17.3327 C   0  0  0  0  0  0  0  0  0  0  0  0
   -0.7028    7.2117   15.8442 O   0  0  0  0  0  0  0  0  0  0  0  0
    0.3609    6.9189   18.4275 N   0  0  0  0  0  0  0  0  0  0  0  0
    0.7807    6.5616   19.7353 C   0  0  2  0  0  0  0  0  0  0  0  0
    1.9618    5.5549   19.7552 C   0  0  0  0  0  0  0  0  0  0  0  0
    1.2607    4.7615   17.5278 C   0  0  0  0  0  0  0  0  0  0  0  0
    1.8635    4.4966   18.8473 N   0  0  0  0  0  0  0  0  0  0  0  0
   -0.4360    6.0819   20.5055 C   0  0  1  0  0  0  0  0  0  0  0  0
   -0.7316    4.7729   20.1804 O   0  0  0  0  0  0  0  0  0  0  0  0
   -0.2051    6.2163   21.9811 C   0  0  1  0  0  0  0  0  0  0  0  0
    0.0515    7.4912   22.3059 O   0  0  0  0  0  0  0  0  0  0  0  0
   -1.4416    5.7557   22.7820 C   0  0  0  0  0  0  0  0  0  0  0  0
  1  2  2  0  0  0  0
  1 11  1  0  0  0  0
  2  3  1  0  0  0  0
  2  4  1  0  0  0  0
  4  5  1  0  0  0  0
  5  6  1  0  0  0  0
  5  7  2  0  0  0  0
  6  8  1  0  0  0  0
  6 11  2  0  0  0  0
  9  8  1  6  0  0  0
  9 10  1  0  0  0  0
  9 13  1  0  0  0  0
 10 12  1  0  0  0  0
 11 12  1  0  0  0  0
 13 14  1  1  0  0  0
 13 15  1  0  0  0  0
 15 16  1  6  0  0  0
 15 17  1  0  0  0  0
M  END
>  <CHROM.1>
80.24707028,58.83939870,0.35324277,5.57990286,18.44309417,-1.29151668,-1.02813045
1.56408657

>  <Name>
ligand

>  <RI>
0

>  <Rbt.Current_Directory>
/home/itssahil/PROJECTS/Mol_Feturizer/New_Systems/rnas/4LVX

>  <Rbt.Executable>
rbdock ($Id: //depot/dev/client3/rdock/2013.1/src/exe/rbdock.cxx#4 $)

>  <Rbt.Library>
libRbt.so (2013.1, Build901 2013/11/27)

>  <Rbt.Parameter_File>
/export/apps/rDock/src/rDock_2013.1_src/data/scripts/dock_solv.prm

>  <Rbt.Receptor>
prm/pocket_docking_8.prm

>  <SCORE>
-15.5063

>  <SCORE.INTER>
-8.756

>  <SCORE.INTER.CONST>
1

>  <SCORE.INTER.POLAR>
0

>  <SCORE.INTER.ROT>
2

>  <SCORE.INTER.SOLV>
12.2035

>  <SCORE.INTER.VDW>
-14.8385

>  <SCORE.INTER.norm>
-0.515059

>  <SCORE.INTRA>
-6.75026

>  <SCORE.INTRA.DIHEDRAL>
-8.86861

>  <SCORE.INTRA.DIHEDRAL.0>
10.3255

>  <SCORE.INTRA.POLAR>
0

>  <SCORE.INTRA.POLAR.0>
0

>  <SCORE.INTRA.REPUL>
0

>  <SCORE.INTRA.REPUL.0>
0

>  <SCORE.INTRA.SOLV>
-0.223335

>  <SCORE.INTRA.SOLV.lig_0>
-53.4755

>  <SCORE.INTRA.VDW>
-2.20428

>  <SCORE.INTRA.VDW.0>
2.32763

>  <SCORE.INTRA.norm>
-0.397074

>  <SCORE.RESTR>
0

>  <SCORE.RESTR.CAVITY>
0

>  <SCORE.RESTR.norm>
0

>  <SCORE.SYSTEM>
0

>  <SCORE.SYSTEM.CONST>
0

>  <SCORE.SYSTEM.DIHEDRAL>
0

>  <SCORE.SYSTEM.SOLV>
0

>  <SCORE.SYSTEM.norm>
0

>  <SCORE.heavy>
17

>  <SCORE.norm>
-0.912132

>  <RMSD>
6.909

$$$$
ligand
 OpenBabel11021811503D
libRbt.so/2013.1/901 2013/11/27
 17 18  0  0  0  0  0  0  0  0999 V2000
    1.4583    3.8738   16.5286 N   0  0  0  0  0  0  0  0  0  0  0  0
    0.8968    4.1481   15.2750 C   0  0  0  0  0  0  0  0  0  0  0  0
    1.0651    3.2124   14.2011 N   0  0  0  0  0  0  0  0  0  0  0  0
    0.1741    5.2995   15.0483 N   0  0  0  0  0  0  0  0  0  0  0  0
   -0.0169    6.2277   16.0508 C   0  0  0  0  0  0  0  0  0  0  0  0
    0.5391    6.0025   17.3491 C   0  0  0  0  0  0  0  0  0  0  0  0
   -0.6566    7.2387   15.8316 O   0  0  0  0  0  0  0  0  0  0  0  0
    0.3629    6.9640   18.4346 N   0  0  0  0  0  0  0  0  0  0  0  0
    0.7605    6.6158   19.7518 C   0  0  2  0  0  0  0  0  0  0  0  0
    1.9416    5.6101   19.7986 C   0  0  0  0  0  0  0  0  0  0  0  0
    1.2793    4.8013   17.5650 C   0  0  0  0  0  0  0  0  0  0  0  0
    1.8596    4.5456   18.8963 N   0  0  0  0  0  0  0  0  0  0  0  0
   -0.4689    6.1404   20.5042 C   0  0  1  0  0  0  0  0  0  0  0  0
   -0.7351    4.8172   20.2130 O   0  0  0  0  0  0  0  0  0  0  0  0
   -0.2802    6.3247   21.9804 C   0  0  1  0  0  0  0  0  0  0  0  0
   -0.1432    7.6237   22.2816 O   0  0  0  0  0  0  0  0  0  0  0  0
   -1.4870    5.7730   22.7689 C   0  0  0  0  0  0  0  0  0  0  0  0
  1  2  2  0  0  0  0
  1 11  1  0  0  0  0
  2  3  1  0  0  0  0
  2  4  1  0  0  0  0
  4  5  1  0  0  0  0
  5  6  1  0  0  0  0
  5  7  2  0  0  0  0
  6  8  1  0  0  0  0
  6 11  2  0  0  0  0
  9  8  1  6  0  0  0
  9 10  1  0  0  0  0
  9 13  1  0  0  0  0
 10 12  1  0  0  0  0
 11 12  1  0  0  0  0
 13 14  1  1  0  0  0
 13 15  1  0  0  0  0
 15 16  1  6  0  0  0
 15 17  1  0  0  0  0
M  END
>  <CHROM.1>
82.01068708,63.04289491,0.34923112,5.62715180,18.45972845,-1.24269524,-1.03891028
1.59977050

>  <Name>
ligand

>  <RI>
0

>  <Rbt.Current_Directory>
/home/itssahil/PROJECTS/Mol_Feturizer/New_Systems/rnas/4LVX

>  <Rbt.Executable>
rbdock ($Id: //depot/dev/client3/rdock/2013.1/src/exe/rbdock.cxx#4 $)

>  <Rbt.Library>
libRbt.so (2013.1, Build901 2013/11/27)

>  <Rbt.Parameter_File>
/export/apps/rDock/src/rDock_2013.1_src/data/scripts/dock_solv.prm

>  <Rbt.Receptor>
prm/pocket_docking_7.prm

>  <SCORE>
-15.4556

>  <SCORE.INTER>
-8.93403

>  <SCORE.INTER.CONST>
1

>  <SCORE.INTER.POLAR>
0

>  <SCORE.INTER.ROT>
2

>  <SCORE.INTER.SOLV>
12.1865

>  <SCORE.INTER.VDW>
-14.9515

>  <SCORE.INTER.norm>
-0.525531

>  <SCORE.INTRA>
-6.52161

>  <SCORE.INTRA.DIHEDRAL>
-8.6356

>  <SCORE.INTRA.DIHEDRAL.0>
10.3255

>  <SCORE.INTRA.POLAR>
0

>  <SCORE.INTRA.POLAR.0>
0

>  <SCORE.INTRA.REPUL>
0

>  <SCORE.INTRA.REPUL.0>
0

>  <SCORE.INTRA.SOLV>
-0.252099

>  <SCORE.INTRA.SOLV.lig_0>
-53.4755

>  <SCORE.INTRA.VDW>
-2.07776

>  <SCORE.INTRA.VDW.0>
2.32763

>  <SCORE.INTRA.norm>
-0.383624

>  <SCORE.RESTR>
0

>  <SCORE.RESTR.CAVITY>
0

>  <SCORE.RESTR.norm>
0

>  <SCORE.SYSTEM>
0

>  <SCORE.SYSTEM.CONST>
0

>  <SCORE.SYSTEM.DIHEDRAL>
0

>  <SCORE.SYSTEM.SOLV>
0

>  <SCORE.SYSTEM.norm>
0

>  <SCORE.heavy>
17

>  <SCORE.norm>
-0.909155

>  <RMSD>
6.911

$$$$
ligand
 OpenBabel11021811503D
libRbt.so/2013.1/901 2013/11/27
 17 18  0  0  0  0  0  0  0  0999 V2000
    3.1745    4.7453   15.7435 N   0  0  0  0  0  0  0  0  0  0  0  0
    2.3935    4.5649   14.5948 C   0  0  0  0  0  0  0  0  0  0  0  0
    3.0293    4.2815   13.3407 N   0  0  0  0  0  0  0  0  0  0  0  0
    1.0184    4.6451   14.6414 N   0  0  0  0  0  0  0  0  0  0  0  0
    0.3619    4.9128   15.8248 C   0  0  0  0  0  0  0  0  0  0  0  0
    1.1091    5.1120   17.0278 C   0  0  0  0  0  0  0  0  0  0  0  0
   -0.8523    4.9812   15.8462 O   0  0  0  0  0  0  0  0  0  0  0  0
    0.4506    5.4024   18.2989 N   0  0  0  0  0  0  0  0  0  0  0  0
    1.2088    5.4005   19.4986 C   0  0  2  0  0  0  0  0  0  0  0  0
    2.6956    5.7960   19.2943 C   0  0  0  0  0  0  0  0  0  0  0  0
    2.5319    5.0190   16.9594 C   0  0  0  0  0  0  0  0  0  0  0  0
    3.3237    5.2177   18.1875 N   0  0  0  0  0  0  0  0  0  0  0  0
    1.0286    4.0498   20.1671 C   0  0  1  0  0  0  0  0  0  0  0  0
    1.9141    3.9053   21.2166 O   0  0  0  0  0  0  0  0  0  0  0  0
   -0.3832    3.8898   20.6466 C   0  0  1  0  0  0  0  0  0  0  0  0
   -0.5970    2.6395   21.0801 O   0  0  0  0  0  0  0  0  0  0  0  0
   -0.6902    4.8601   21.8071 C   0  0  0  0  0  0  0  0  0  0  0  0
  1  2  2  0  0  0  0
  1 11  1  0  0  0  0
  2  3  1  0  0  0  0
  2  4  1  0  0  0  0
  4  5  1  0  0  0  0
  5  6  1  0  0  0  0
  5  7  2  0  0  0  0
  6  8  1  0  0  0  0
  6 11  2  0  0  0  0
  9  8  1  6  0  0  0
  9 10  1  0  0  0  0
  9 13  1  0  0  0  0
 10 12  1  0  0  0  0
 11 12  1  0  0  0  0
 13 14  1  1  0  0  0
 13 15  1  0  0  0  0
 15 16  1  1  0  0  0
 15 17  1  0  0  0  0
M  END
>  <CHROM.1>
169.92088221,171.97976672,1.23770369,4.64665773,17.98103867,-1.29296695,0.16943781
1.62201529

>  <Name>
ligand

>  <RI>
0

>  <Rbt.Current_Directory>
/home/itssahil/PROJECTS/Mol_Feturizer/New_Systems/rnas/4LVX

>  <Rbt.Executable>
rbdock ($Id: //depot/dev/client3/rdock/2013.1/src/exe/rbdock.cxx#4 $)

>  <Rbt.Library>
libRbt.so (2013.1, Build901 2013/11/27)

>  <Rbt.Parameter_File>
/export/apps/rDock/src/rDock_2013.1_src/data/scripts/dock_solv.prm

>  <Rbt.Receptor>
prm/pocket_docking_8.prm

>  <SCORE>
-15.5478

>  <SCORE.INTER>
-9.21006

>  <SCORE.INTER.CONST>
1

>  <SCORE.INTER.POLAR>
0

>  <SCORE.INTER.ROT>
2

>  <SCORE.INTER.SOLV>
13.3237

>  <SCORE.INTER.VDW>
-15.5146

>  <SCORE.INTER.norm>
-0.541768

>  <SCORE.INTRA>
-6.33774

>  <SCORE.INTRA.DIHEDRAL>
-9.57135

>  <SCORE.INTRA.DIHEDRAL.0>
10.3255

>  <SCORE.INTRA.POLAR>
0

>  <SCORE.INTRA.POLAR.0>
0

>  <SCORE.INTRA.REPUL>
0

>  <SCORE.INTRA.REPUL.0>
0

>  <SCORE.INTRA.SOLV>
-0.583471

>  <SCORE.INTRA.SOLV.lig_0>
-53.4755

>  <SCORE.INTRA.VDW>
-1.26033

>  <SCORE.INTRA.VDW.0>
2.32763

>  <SCORE.INTRA.norm>
-0.372808

>  <SCORE.RESTR>
0

>  <SCORE.RESTR.CAVITY>
0

>  <SCORE.RESTR.norm>
0

>  <SCORE.SYSTEM>
0

>  <SCORE.SYSTEM.CONST>
0

>  <SCORE.SYSTEM.DIHEDRAL>
0

>  <SCORE.SYSTEM.SOLV>
0

>  <SCORE.SYSTEM.norm>
0

>  <SCORE.heavy>
17

>  <SCORE.norm>
-0.914576

>  <RMSD>
7.480

$$$$
ligand
 OpenBabel11021811503D
libRbt.so/2013.1/901 2013/11/27
 17 18  0  0  0  0  0  0  0  0999 V2000
   -5.5316   -4.5629   21.5641 N   0  0  0  0  0  0  0  0  0  0  0  0
   -5.7335   -5.5961   22.4881 C   0  0  0  0  0  0  0  0  0  0  0  0
   -6.9628   -5.6606   23.2242 N   0  0  0  0  0  0  0  0  0  0  0  0
   -4.7766   -6.5644   22.7031 N   0  0  0  0  0  0  0  0  0  0  0  0
   -3.5800   -6.5457   22.0171 C   0  0  0  0  0  0  0  0  0  0  0  0
   -3.3172   -5.5105   21.0659 C   0  0  0  0  0  0  0  0  0  0  0  0
   -2.7468   -7.4080   22.2212 O   0  0  0  0  0  0  0  0  0  0  0  0
   -2.0604   -5.4539   20.3237 N   0  0  0  0  0  0  0  0  0  0  0  0
   -1.9173   -4.5306   19.2553 C   0  0  2  0  0  0  0  0  0  0  0  0
   -2.7674   -3.2437   19.4286 C   0  0  0  0  0  0  0  0  0  0  0  0
   -4.3234   -4.5205   20.8536 C   0  0  0  0  0  0  0  0  0  0  0  0
   -4.0765   -3.4449   19.8756 N   0  0  0  0  0  0  0  0  0  0  0  0
   -2.1924   -5.2669   17.9570 C   0  0  1  0  0  0  0  0  0  0  0  0
   -3.5060   -5.6891   17.9070 O   0  0  0  0  0  0  0  0  0  0  0  0
   -1.8790   -4.3882   16.7830 C   0  0  1  0  0  0  0  0  0  0  0  0
   -0.6265   -3.9177   16.8648 O   0  0  0  0  0  0  0  0  0  0  0  0
   -2.0154   -5.1637   15.4553 C   0  0  0  0  0  0  0  0  0  0  0  0
  1  2  2  0  0  0  0
  1 11  1  0  0  0  0
  2  3  1  0  0  0  0
  2  4  1  0  0  0  0
  4  5  1  0  0  0  0
  5  6  1  0  0  0  0
  5  7  2  0  0  0  0
  6  8  1  0  0  0  0
  6 11  2  0  0  0  0
  9  8  1  1  0  0  0
  9 10  1  0  0  0  0
  9 13  1  0  0  0  0
 10 12  1  0  0  0  0
 11 12  1  0  0  0  0
 13 14  1  1  0  0  0
 13 15  1  0  0  0  0
 15 16  1  1  0  0  0
 15 17  1  0  0  0  0
M  END
>  <CHROM.1>
64.96264038,54.08098341,-3.36752910,-5.15019885,19.92424145,2.25035075,-0.61255818
2.24186850

>  <Name>
ligand

>  <RI>
0

>  <Rbt.Current_Directory>
/home/itssahil/PROJECTS/Mol_Feturizer/New_Systems/rnas/4LVX

>  <Rbt.Executable>
rbdock ($Id: //depot/dev/client3/rdock/2013.1/src/exe/rbdock.cxx#4 $)

>  <Rbt.Library>
libRbt.so (2013.1, Build901 2013/11/27)

>  <Rbt.Parameter_File>
/export/apps/rDock/src/rDock_2013.1_src/data/scripts/dock_solv.prm

>  <Rbt.Receptor>
prm/blind_docking_40.prm

>  <SCORE>
-13.0428

>  <SCORE.INTER>
-5.79226

>  <SCORE.INTER.CONST>
1

>  <SCORE.INTER.POLAR>
0

>  <SCORE.INTER.ROT>
2

>  <SCORE.INTER.SOLV>
11.0538

>  <SCORE.INTER.VDW>
-12.4795

>  <SCORE.INTER.norm>
-0.340721

>  <SCORE.INTRA>
-7.25058

>  <SCORE.INTRA.DIHEDRAL>
-9.95361

>  <SCORE.INTRA.DIHEDRAL.0>
10.3255

>  <SCORE.INTRA.POLAR>
0

>  <SCORE.INTRA.POLAR.0>
0

>  <SCORE.INTRA.REPUL>
0

>  <SCORE.INTRA.REPUL.0>
0

>  <SCORE.INTRA.SOLV>
-0.12391

>  <SCORE.INTRA.SOLV.lig_0>
-53.4755

>  <SCORE.INTRA.VDW>
-2.21183

>  <SCORE.INTRA.VDW.0>
2.32763

>  <SCORE.INTRA.norm>
-0.426505

>  <SCORE.RESTR>
0

>  <SCORE.RESTR.CAVITY>
0

>  <SCORE.RESTR.norm>
0

>  <SCORE.SYSTEM>
0

>  <SCORE.SYSTEM.CONST>
0

>  <SCORE.SYSTEM.DIHEDRAL>
0

>  <SCORE.SYSTEM.SOLV>
0

>  <SCORE.SYSTEM.norm>
0

>  <SCORE.heavy>
17

>  <SCORE.norm>
-0.767226

>  <RMSD>
12.166

$$$$
ligand
 OpenBabel11021811503D
libRbt.so/2013.1/901 2013/11/27
 17 18  0  0  0  0  0  0  0  0999 V2000
   -8.1213   -5.3599   22.6465 N   0  0  0  0  0  0  0  0  0  0  0  0
   -9.2887   -5.6279   21.9203 C   0  0  0  0  0  0  0  0  0  0  0  0
  -10.5671   -5.3103   22.4881 N   0  0  0  0  0  0  0  0  0  0  0  0
   -9.2390   -6.1855   20.6610 N   0  0  0  0  0  0  0  0  0  0  0  0
   -8.0331   -6.5055   20.0726 C   0  0  0  0  0  0  0  0  0  0  0  0
   -6.8093   -6.2595   20.7706 C   0  0  0  0  0  0  0  0  0  0  0  0
   -8.0091   -6.9983   18.9608 O   0  0  0  0  0  0  0  0  0  0  0  0
   -5.5132   -6.5892   20.1830 N   0  0  0  0  0  0  0  0  0  0  0  0
   -4.3224   -6.1539   20.8208 C   0  0  2  0  0  0  0  0  0  0  0  0
   -4.4570   -6.0177   22.3610 C   0  0  0  0  0  0  0  0  0  0  0  0
   -6.8821   -5.6761   22.0713 C   0  0  0  0  0  0  0  0  0  0  0  0
   -5.6334   -5.4103   22.8093 N   0  0  0  0  0  0  0  0  0  0  0  0
   -3.8625   -4.8784   20.1387 C   0  0  1  0  0  0  0  0  0  0  0  0
   -4.7961   -3.8748   20.3052 O   0  0  0  0  0  0  0  0  0  0  0  0
   -2.5305   -4.4500   20.6780 C   0  0  1  0  0  0  0  0  0  0  0  0
   -1.6285   -5.4330   20.5470 O   0  0  0  0  0  0  0  0  0  0  0  0
   -2.0004   -3.2083   19.9299 C   0  0  0  0  0  0  0  0  0  0  0  0
  1  2  2  0  0  0  0
  1 11  1  0  0  0  0
  2  3  1  0  0  0  0
  2  4  1  0  0  0  0
  4  5  1  0  0  0  0
  5  6  1  0  0  0  0
  5  7  2  0  0  0  0
  6  8  1  0  0  0  0
  6 11  2  0  0  0  0
  9  8  1  6  0  0  0
  9 10  1  0  0  0  0
  9 13  1  0  0  0  0
 10 12  1  0  0  0  0
 11 12  1  0  0  0  0
 13 14  1  1  0  0  0
 13 15  1  0  0  0  0
 15 16  1  6  0  0  0
 15 17  1  0  0  0  0
M  END
>  <CHROM.1>
63.34823493,55.95005170,-5.90461409,-5.50122944,20.98869982,-3.09236173,-0.24093892
-1.97126101

>  <Name>
ligand

>  <RI>
0

>  <Rbt.Current_Directory>
/home/itssahil/PROJECTS/Mol_Feturizer/New_Systems/rnas/4LVX

>  <Rbt.Executable>
rbdock ($Id: //depot/dev/client3/rdock/2013.1/src/exe/rbdock.cxx#4 $)

>  <Rbt.Library>
libRbt.so (2013.1, Build901 2013/11/27)

>  <Rbt.Parameter_File>
/export/apps/rDock/src/rDock_2013.1_src/data/scripts/dock_solv.prm

>  <Rbt.Receptor>
prm/blind_docking_40.prm

>  <SCORE>
-12.8782

>  <SCORE.INTER>
-5.62606

>  <SCORE.INTER.CONST>
1

>  <SCORE.INTER.POLAR>
0

>  <SCORE.INTER.ROT>
2

>  <SCORE.INTER.SOLV>
13.6833

>  <SCORE.INTER.VDW>
-13.2451

>  <SCORE.INTER.norm>
-0.330945

>  <SCORE.INTRA>
-7.25216

>  <SCORE.INTRA.DIHEDRAL>
-10.07

>  <SCORE.INTRA.DIHEDRAL.0>
10.3255

>  <SCORE.INTRA.POLAR>
0

>  <SCORE.INTRA.POLAR.0>
0

>  <SCORE.INTRA.REPUL>
0

>  <SCORE.INTRA.REPUL.0>
0

>  <SCORE.INTRA.SOLV>
-0.125633

>  <SCORE.INTRA.SOLV.lig_0>
-53.4755

>  <SCORE.INTRA.VDW>
-2.15436

>  <SCORE.INTRA.VDW.0>
2.32763

>  <SCORE.INTRA.norm>
-0.426598

>  <SCORE.RESTR>
0

>  <SCORE.RESTR.CAVITY>
0

>  <SCORE.RESTR.norm>
0

>  <SCORE.SYSTEM>
0

>  <SCORE.SYSTEM.CONST>
0

>  <SCORE.SYSTEM.DIHEDRAL>
0

>  <SCORE.SYSTEM.SOLV>
0

>  <SCORE.SYSTEM.norm>
0

>  <SCORE.heavy>
17

>  <SCORE.norm>
-0.757542

>  <RMSD>
13.479

$$$$
ligand
 OpenBabel11021811503D
libRbt.so/2013.1/901 2013/11/27
 17 18  0  0  0  0  0  0  0  0999 V2000
   -7.9924   -5.5323   22.5401 N   0  0  0  0  0  0  0  0  0  0  0  0
   -9.1602   -5.8053   21.8164 C   0  0  0  0  0  0  0  0  0  0  0  0
  -10.4403   -5.5454   22.4089 N   0  0  0  0  0  0  0  0  0  0  0  0
   -9.1094   -6.3134   20.5363 N   0  0  0  0  0  0  0  0  0  0  0  0
   -7.9018   -6.5771   19.9237 C   0  0  0  0  0  0  0  0  0  0  0  0
   -6.6775   -6.3234   20.6180 C   0  0  0  0  0  0  0  0  0  0  0  0
   -7.8768   -7.0268   18.7939 O   0  0  0  0  0  0  0  0  0  0  0  0
   -5.3795   -6.5942   20.0050 N   0  0  0  0  0  0  0  0  0  0  0  0
   -4.1941   -6.1500   20.6466 C   0  0  2  0  0  0  0  0  0  0  0  0
   -4.3148   -6.0758   22.1922 C   0  0  0  0  0  0  0  0  0  0  0  0
   -6.7516   -5.7917   21.9406 C   0  0  0  0  0  0  0  0  0  0  0  0
   -5.5025   -5.5190   22.6753 N   0  0  0  0  0  0  0  0  0  0  0  0
   -3.7774   -4.8373   20.0088 C   0  0  1  0  0  0  0  0  0  0  0  0
   -4.7287   -3.8629   20.2368 O   0  0  0  0  0  0  0  0  0  0  0  0
   -2.4434   -4.4014   20.5371 C   0  0  1  0  0  0  0  0  0  0  0  0
   -1.5204   -5.3522   20.3348 O   0  0  0  0  0  0  0  0  0  0  0  0
   -1.9640   -3.1100   19.8407 C   0  0  0  0  0  0  0  0  0  0  0  0
  1  2  2  0  0  0  0
  1 11  1  0  0  0  0
  2  3  1  0  0  0  0
  2  4  1  0  0  0  0
  4  5  1  0  0  0  0
  5  6  1  0  0  0  0
  5  7  2  0  0  0  0
  6  8  1  0  0  0  0
  6 11  2  0  0  0  0
  9  8  1  6  0  0  0
  9 10  1  0  0  0  0
  9 13  1  0  0  0  0
 10 12  1  0  0  0  0
 11 12  1  0  0  0  0
 13 14  1  1  0  0  0
 13 15  1  0  0  0  0
 15 16  1  6  0  0  0
 15 17  1  0  0  0  0
M  END
>  <CHROM.1>
64.07772840,56.53244144,-5.79036699,-5.54959731,20.85283548,-3.09177130,-0.27109766
-1.93819320

>  <Name>
ligand

>  <RI>
0

>  <Rbt.Current_Directory>
/home/itssahil/PROJECTS/Mol_Feturizer/New_Systems/rnas/4LVX

>  <Rbt.Executable>
rbdock ($Id: //depot/dev/client3/rdock/2013.1/src/exe/rbdock.cxx#4 $)

>  <Rbt.Library>
libRbt.so (2013.1, Build901 2013/11/27)

>  <Rbt.Parameter_File>
/export/apps/rDock/src/rDock_2013.1_src/data/scripts/dock_solv.prm

>  <Rbt.Receptor>
prm/blind_docking_40.prm

>  <SCORE>
-12.7783

>  <SCORE.INTER>
-5.52752

>  <SCORE.INTER.CONST>
1

>  <SCORE.INTER.POLAR>
0

>  <SCORE.INTER.ROT>
2

>  <SCORE.INTER.SOLV>
13.2926

>  <SCORE.INTER.VDW>
-13.0492

>  <SCORE.INTER.norm>
-0.325149

>  <SCORE.INTRA>
-7.2508

>  <SCORE.INTRA.DIHEDRAL>
-10.0686

>  <SCORE.INTRA.DIHEDRAL.0>
10.3255

>  <SCORE.INTRA.POLAR>
0

>  <SCORE.INTRA.POLAR.0>
0

>  <SCORE.INTRA.REPUL>
0

>  <SCORE.INTRA.REPUL.0>
0

>  <SCORE.INTRA.SOLV>
-0.132526

>  <SCORE.INTRA.SOLV.lig_0>
-53.4755

>  <SCORE.INTRA.VDW>
-2.15025

>  <SCORE.INTRA.VDW.0>
2.32763

>  <SCORE.INTRA.norm>
-0.426517

>  <SCORE.RESTR>
0

>  <SCORE.RESTR.CAVITY>
0

>  <SCORE.RESTR.norm>
0

>  <SCORE.SYSTEM>
0

>  <SCORE.SYSTEM.CONST>
0

>  <SCORE.SYSTEM.DIHEDRAL>
0

>  <SCORE.SYSTEM.SOLV>
0

>  <SCORE.SYSTEM.norm>
0

>  <SCORE.heavy>
17

>  <SCORE.norm>
-0.751666

>  <RMSD>
13.493

$$$$
ligand
 OpenBabel11021811503D
libRbt.so/2013.1/901 2013/11/27
 17 18  0  0  0  0  0  0  0  0999 V2000
   -8.0846   -5.2906   22.5035 N   0  0  0  0  0  0  0  0  0  0  0  0
   -9.2255   -5.5394   21.7298 C   0  0  0  0  0  0  0  0  0  0  0  0
  -10.5085   -5.0961   22.1931 N   0  0  0  0  0  0  0  0  0  0  0  0
   -9.1442   -6.1971   20.5215 N   0  0  0  0  0  0  0  0  0  0  0  0
   -7.9323   -6.6398   20.0334 C   0  0  0  0  0  0  0  0  0  0  0  0
   -6.7353   -6.4188   20.7841 C   0  0  0  0  0  0  0  0  0  0  0  0
   -7.8804   -7.2197   18.9655 O   0  0  0  0  0  0  0  0  0  0  0  0
   -5.4343   -6.8769   20.3032 N   0  0  0  0  0  0  0  0  0  0  0  0
   -4.2537   -6.4701   20.9778 C   0  0  2  0  0  0  0  0  0  0  0  0
   -4.4642   -6.2039   22.4922 C   0  0  0  0  0  0  0  0  0  0  0  0
   -6.8401   -5.7306   22.0304 C   0  0  0  0  0  0  0  0  0  0  0  0
   -5.6191   -5.4882   22.8209 N   0  0  0  0  0  0  0  0  0  0  0  0
   -3.6696   -5.2850   20.2308 C   0  0  1  0  0  0  0  0  0  0  0  0
   -2.5945   -4.7589   20.9193 O   0  0  0  0  0  0  0  0  0  0  0  0
   -3.2578   -5.6922   18.8476 C   0  0  1  0  0  0  0  0  0  0  0  0
   -4.3196   -6.1009   18.1387 O   0  0  0  0  0  0  0  0  0  0  0  0
   -2.6001   -4.5167   18.0940 C   0  0  0  0  0  0  0  0  0  0  0  0
  1  2  2  0  0  0  0
  1 11  1  0  0  0  0
  2  3  1  0  0  0  0
  2  4  1  0  0  0  0
  4  5  1  0  0  0  0
  5  6  1  0  0  0  0
  5  7  2  0  0  0  0
  6  8  1  0  0  0  0
  6 11  2  0  0  0  0
  9  8  1  6  0  0  0
  9 10  1  0  0  0  0
  9 13  1  0  0  0  0
 10 12  1  0  0  0  0
 11 12  1  0  0  0  0
 13 14  1  1  0  0  0
 13 15  1  0  0  0  0
 15 16  1  6  0  0  0
 15 17  1  0  0  0  0
M  END
>  <CHROM.1>
173.82505769,62.47846494,-5.96276258,-5.84568142,20.62870095,-2.83150539
-0.14665793,-1.78376802

>  <Name>
ligand

>  <RI>
0

>  <Rbt.Current_Directory>
/home/itssahil/PROJECTS/Mol_Feturizer/New_Systems/rnas/4LVX

>  <Rbt.Executable>
rbdock ($Id: //depot/dev/client3/rdock/2013.1/src/exe/rbdock.cxx#4 $)

>  <Rbt.Library>
libRbt.so (2013.1, Build901 2013/11/27)

>  <Rbt.Parameter_File>
/export/apps/rDock/src/rDock_2013.1_src/data/scripts/dock_solv.prm

>  <Rbt.Receptor>
prm/blind_docking_40.prm

>  <SCORE>
-10.2906

>  <SCORE.INTER>
-3.5449

>  <SCORE.INTER.CONST>
1

>  <SCORE.INTER.POLAR>
0

>  <SCORE.INTER.ROT>
2

>  <SCORE.INTER.SOLV>
12.685

>  <SCORE.INTER.VDW>
-11.5249

>  <SCORE.INTER.norm>
-0.208524

>  <SCORE.INTRA>
-6.74572

>  <SCORE.INTRA.DIHEDRAL>
-10.0178

>  <SCORE.INTRA.DIHEDRAL.0>
10.3255

>  <SCORE.INTRA.POLAR>
0

>  <SCORE.INTRA.POLAR.0>
0

>  <SCORE.INTRA.REPUL>
0

>  <SCORE.INTRA.REPUL.0>
0

>  <SCORE.INTRA.SOLV>
0.00325729

>  <SCORE.INTRA.SOLV.lig_0>
-53.4755

>  <SCORE.INTRA.VDW>
-1.73844

>  <SCORE.INTRA.VDW.0>
2.32763

>  <SCORE.INTRA.norm>
-0.396807

>  <SCORE.RESTR>
0

>  <SCORE.RESTR.CAVITY>
0

>  <SCORE.RESTR.norm>
0

>  <SCORE.SYSTEM>
0

>  <SCORE.SYSTEM.CONST>
0

>  <SCORE.SYSTEM.DIHEDRAL>
0

>  <SCORE.SYSTEM.SOLV>
0

>  <SCORE.SYSTEM.norm>
0

>  <SCORE.heavy>
17

>  <SCORE.norm>
-0.605331

>  <RMSD>
13.809

$$$$
ligand
 OpenBabel11021811503D
libRbt.so/2013.1/901 2013/11/27
 17 18  0  0  0  0  0  0  0  0999 V2000
   -5.7174   -5.9119   18.5445 N   0  0  0  0  0  0  0  0  0  0  0  0
   -4.7767   -5.1989   17.7904 C   0  0  0  0  0  0  0  0  0  0  0  0
   -5.0251   -4.9451   16.4008 N   0  0  0  0  0  0  0  0  0  0  0  0
   -3.6134   -4.7242   18.3568 N   0  0  0  0  0  0  0  0  0  0  0  0
   -3.3319   -4.9410   19.6897 C   0  0  0  0  0  0  0  0  0  0  0  0
   -4.2538   -5.6683   20.5061 C   0  0  0  0  0  0  0  0  0  0  0  0
   -2.2994   -4.5155   20.1717 O   0  0  0  0  0  0  0  0  0  0  0  0
   -3.9889   -5.9225   21.9200 N   0  0  0  0  0  0  0  0  0  0  0  0
   -5.0098   -6.4744   22.7370 C   0  0  2  0  0  0  0  0  0  0  0  0
   -5.9996   -7.3858   21.9635 C   0  0  0  0  0  0  0  0  0  0  0  0
   -5.4554   -6.1465   19.9019 C   0  0  0  0  0  0  0  0  0  0  0  0
   -6.4227   -6.8964   20.7243 N   0  0  0  0  0  0  0  0  0  0  0  0
   -5.6878   -5.3355   23.4764 C   0  0  1  0  0  0  0  0  0  0  0  0
   -6.4882   -4.6077   22.6184 O   0  0  0  0  0  0  0  0  0  0  0  0
   -6.4952   -5.8662   24.6232 C   0  0  1  0  0  0  0  0  0  0  0  0
   -5.7675   -6.7162   25.3613 O   0  0  0  0  0  0  0  0  0  0  0  0
   -6.9763   -4.7225   25.5415 C   0  0  0  0  0  0  0  0  0  0  0  0
  1  2  2  0  0  0  0
  1 11  1  0  0  0  0
  2  3  1  0  0  0  0
  2  4  1  0  0  0  0
  4  5  1  0  0  0  0
  5  6  1  0  0  0  0
  5  7  2  0  0  0  0
  6  8  1  0  0  0  0
  6 11  2  0  0  0  0
  9  8  1  6  0  0  0
  9 10  1  0  0  0  0
  9 13  1  0  0  0  0
 10 12  1  0  0  0  0
 11 12  1  0  0  0  0
 13 14  1  6  0  0  0
 13 15  1  0  0  0  0
 15 16  1  1  0  0  0
 15 17  1  0  0  0  0
M  END
>  <CHROM.1>
73.36286250,49.22878115,-5.15242444,-5.63478949,21.28189770,1.25240150,-0.40707870
-1.59707787

>  <Name>
ligand

>  <RI>
0

>  <Rbt.Current_Directory>
/home/itssahil/PROJECTS/Mol_Feturizer/New_Systems/rnas/4LVX

>  <Rbt.Executable>
rbdock ($Id: //depot/dev/client3/rdock/2013.1/src/exe/rbdock.cxx#4 $)

>  <Rbt.Library>
libRbt.so (2013.1, Build901 2013/11/27)

>  <Rbt.Parameter_File>
/export/apps/rDock/src/rDock_2013.1_src/data/scripts/dock_solv.prm

>  <Rbt.Receptor>
prm/blind_docking_40.prm

>  <SCORE>
-10.4795

>  <SCORE.INTER>
-3.5274

>  <SCORE.INTER.CONST>
1

>  <SCORE.INTER.POLAR>
0

>  <SCORE.INTER.ROT>
2

>  <SCORE.INTER.SOLV>
13.2777

>  <SCORE.INTER.VDW>
-11.7108

>  <SCORE.INTER.norm>
-0.207494

>  <SCORE.INTRA>
-6.9521

>  <SCORE.INTRA.DIHEDRAL>
-9.14771

>  <SCORE.INTRA.DIHEDRAL.0>
10.3255

>  <SCORE.INTRA.POLAR>
0

>  <SCORE.INTRA.POLAR.0>
0

>  <SCORE.INTRA.REPUL>
0

>  <SCORE.INTRA.REPUL.0>
0

>  <SCORE.INTRA.SOLV>
-0.142818

>  <SCORE.INTRA.SOLV.lig_0>
-53.4755

>  <SCORE.INTRA.VDW>
-2.30683

>  <SCORE.INTRA.VDW.0>
2.32763

>  <SCORE.INTRA.norm>
-0.408947

>  <SCORE.RESTR>
0

>  <SCORE.RESTR.CAVITY>
0

>  <SCORE.RESTR.norm>
0

>  <SCORE.SYSTEM>
0

>  <SCORE.SYSTEM.CONST>
0

>  <SCORE.SYSTEM.DIHEDRAL>
0

>  <SCORE.SYSTEM.SOLV>
0

>  <SCORE.SYSTEM.norm>
0

>  <SCORE.heavy>
17

>  <SCORE.norm>
-0.616441

>  <RMSD>
13.843

$$$$
ligand
 OpenBabel11021811503D
libRbt.so/2013.1/901 2013/11/27
 17 18  0  0  0  0  0  0  0  0999 V2000
   -7.0910   -4.3435   25.7534 N   0  0  0  0  0  0  0  0  0  0  0  0
   -6.3210   -4.2709   26.9212 C   0  0  0  0  0  0  0  0  0  0  0  0
   -6.8536   -3.6219   28.0841 N   0  0  0  0  0  0  0  0  0  0  0  0
   -5.0580   -4.8190   26.9839 N   0  0  0  0  0  0  0  0  0  0  0  0
   -4.5045   -5.4554   25.8923 C   0  0  0  0  0  0  0  0  0  0  0  0
   -5.2431   -5.5537   24.6715 C   0  0  0  0  0  0  0  0  0  0  0  0
   -3.3879   -5.9319   25.9660 O   0  0  0  0  0  0  0  0  0  0  0  0
   -4.6892   -6.2152   23.4928 N   0  0  0  0  0  0  0  0  0  0  0  0
   -5.5220   -6.4620   22.3704 C   0  0  2  0  0  0  0  0  0  0  0  0
   -6.6651   -5.4252   22.2052 C   0  0  0  0  0  0  0  0  0  0  0  0
   -6.5515   -4.9847   24.6290 C   0  0  0  0  0  0  0  0  0  0  0  0
   -7.3335   -5.0764   23.3822 N   0  0  0  0  0  0  0  0  0  0  0  0
   -6.0133   -7.8956   22.4551 C   0  0  1  0  0  0  0  0  0  0  0  0
   -6.9032   -8.0431   23.5004 O   0  0  0  0  0  0  0  0  0  0  0  0
   -6.6515   -8.3052   21.1615 C   0  0  1  0  0  0  0  0  0  0  0  0
   -5.8067   -8.1200   20.1373 O   0  0  0  0  0  0  0  0  0  0  0  0
   -7.0562   -9.7945   21.1875 C   0  0  0  0  0  0  0  0  0  0  0  0
  1  2  2  0  0  0  0
  1 11  1  0  0  0  0
  2  3  1  0  0  0  0
  2  4  1  0  0  0  0
  4  5  1  0  0  0  0
  5  6  1  0  0  0  0
  5  7  2  0  0  0  0
  6  8  1  0  0  0  0
  6 11  2  0  0  0  0
  9  8  1  1  0  0  0
  9 10  1  0  0  0  0
  9 13  1  0  0  0  0
 10 12  1  0  0  0  0
 11 12  1  0  0  0  0
 13 14  1  1  0  0  0
 13 15  1  0  0  0  0
 15 16  1  6  0  0  0
 15 17  1  0  0  0  0
M  END
>  <CHROM.1>
69.54340955,55.26141124,-5.97863803,-6.20227117,23.98783061,1.46695052,-0.37203132
0.92494455

>  <Name>
ligand

>  <RI>
0

>  <Rbt.Current_Directory>
/home/itssahil/PROJECTS/Mol_Feturizer/New_Systems/rnas/4LVX

>  <Rbt.Executable>
rbdock ($Id: //depot/dev/client3/rdock/2013.1/src/exe/rbdock.cxx#4 $)

>  <Rbt.Library>
libRbt.so (2013.1, Build901 2013/11/27)

>  <Rbt.Parameter_File>
/export/apps/rDock/src/rDock_2013.1_src/data/scripts/dock_solv.prm

>  <Rbt.Receptor>
prm/blind_docking_40.prm

>  <SCORE>
-14.0614

>  <SCORE.INTER>
-6.82929

>  <SCORE.INTER.CONST>
1

>  <SCORE.INTER.POLAR>
0

>  <SCORE.INTER.ROT>
2

>  <SCORE.INTER.SOLV>
11.0017

>  <SCORE.INTER.VDW>
-13.1534

>  <SCORE.INTER.norm>
-0.401723

>  <SCORE.INTRA>
-7.23209

>  <SCORE.INTRA.DIHEDRAL>
-9.77699

>  <SCORE.INTRA.DIHEDRAL.0>
10.3255

>  <SCORE.INTRA.POLAR>
0

>  <SCORE.INTRA.POLAR.0>
0

>  <SCORE.INTRA.REPUL>
0

>  <SCORE.INTRA.REPUL.0>
0

>  <SCORE.INTRA.SOLV>
-0.153525

>  <SCORE.INTRA.SOLV.lig_0>
-53.4755

>  <SCORE.INTRA.VDW>
-2.26683

>  <SCORE.INTRA.VDW.0>
2.32763

>  <SCORE.INTRA.norm>
-0.425417

>  <SCORE.RESTR>
0

>  <SCORE.RESTR.CAVITY>
0

>  <SCORE.RESTR.norm>
0

>  <SCORE.SYSTEM>
0

>  <SCORE.SYSTEM.CONST>
0

>  <SCORE.SYSTEM.DIHEDRAL>
0

>  <SCORE.SYSTEM.SOLV>
0

>  <SCORE.SYSTEM.norm>
0

>  <SCORE.heavy>
17

>  <SCORE.norm>
-0.82714

>  <RMSD>
13.876

$$$$
ligand
 OpenBabel11021811503D
libRbt.so/2013.1/901 2013/11/27
 17 18  0  0  0  0  0  0  0  0999 V2000
   -7.1028   -4.3707   25.7609 N   0  0  0  0  0  0  0  0  0  0  0  0
   -6.3323   -4.3048   26.9289 C   0  0  0  0  0  0  0  0  0  0  0  0
   -6.8679   -3.6702   28.0984 N   0  0  0  0  0  0  0  0  0  0  0  0
   -5.0662   -4.8461   26.9853 N   0  0  0  0  0  0  0  0  0  0  0  0
   -4.5098   -5.4687   25.8872 C   0  0  0  0  0  0  0  0  0  0  0  0
   -5.2487   -5.5596   24.6661 C   0  0  0  0  0  0  0  0  0  0  0  0
   -3.3903   -5.9394   25.9555 O   0  0  0  0  0  0  0  0  0  0  0  0
   -4.6919   -6.2065   23.4807 N   0  0  0  0  0  0  0  0  0  0  0  0
   -5.5241   -6.4473   22.3565 C   0  0  2  0  0  0  0  0  0  0  0  0
   -6.6733   -5.4157   22.2022 C   0  0  0  0  0  0  0  0  0  0  0  0
   -6.5605   -4.9979   24.6301 C   0  0  0  0  0  0  0  0  0  0  0  0
   -7.3429   -5.0821   23.3830 N   0  0  0  0  0  0  0  0  0  0  0  0
   -6.0070   -7.8845   22.4278 C   0  0  1  0  0  0  0  0  0  0  0  0
   -6.8678   -8.0553   23.4937 O   0  0  0  0  0  0  0  0  0  0  0  0
   -6.6781   -8.2731   21.1444 C   0  0  1  0  0  0  0  0  0  0  0  0
   -5.8788   -8.0231   20.0976 O   0  0  0  0  0  0  0  0  0  0  0  0
   -7.0292   -9.7761   21.1329 C   0  0  0  0  0  0  0  0  0  0  0  0
  1  2  2  0  0  0  0
  1 11  1  0  0  0  0
  2  3  1  0  0  0  0
  2  4  1  0  0  0  0
  4  5  1  0  0  0  0
  5  6  1  0  0  0  0
  5  7  2  0  0  0  0
  6  8  1  0  0  0  0
  6 11  2  0  0  0  0
  9  8  1  1  0  0  0
  9 10  1  0  0  0  0
  9 13  1  0  0  0  0
 10 12  1  0  0  0  0
 11 12  1  0  0  0  0
 13 14  1  1  0  0  0
 13 15  1  0  0  0  0
 15 16  1  6  0  0  0
 15 17  1  0  0  0  0
M  END
>  <CHROM.1>
67.96136699,53.18201674,-5.98567350,-6.20138150,23.97764990,1.46527886,-0.37977222
0.93534724

>  <Name>
ligand

>  <RI>
0

>  <Rbt.Current_Directory>
/home/itssahil/PROJECTS/Mol_Feturizer/New_Systems/rnas/4LVX

>  <Rbt.Executable>
rbdock ($Id: //depot/dev/client3/rdock/2013.1/src/exe/rbdock.cxx#4 $)

>  <Rbt.Library>
libRbt.so (2013.1, Build901 2013/11/27)

>  <Rbt.Parameter_File>
/export/apps/rDock/src/rDock_2013.1_src/data/scripts/dock_solv.prm

>  <Rbt.Receptor>
prm/blind_docking_40.prm

>  <SCORE>
-14.061

>  <SCORE.INTER>
-6.84499

>  <SCORE.INTER.CONST>
1

>  <SCORE.INTER.POLAR>
0

>  <SCORE.INTER.ROT>
2

>  <SCORE.INTER.SOLV>
10.9844

>  <SCORE.INTER.VDW>
-13.1581

>  <SCORE.INTER.norm>
-0.402647

>  <SCORE.INTRA>
-7.21596

>  <SCORE.INTRA.DIHEDRAL>
-9.77948

>  <SCORE.INTRA.DIHEDRAL.0>
10.3255

>  <SCORE.INTRA.POLAR>
0

>  <SCORE.INTRA.POLAR.0>
0

>  <SCORE.INTRA.REPUL>
0

>  <SCORE.INTRA.REPUL.0>
0

>  <SCORE.INTRA.SOLV>
-0.13469

>  <SCORE.INTRA.SOLV.lig_0>
-53.4755

>  <SCORE.INTRA.VDW>
-2.25887

>  <SCORE.INTRA.VDW.0>
2.32763

>  <SCORE.INTRA.norm>
-0.424468

>  <SCORE.RESTR>
0

>  <SCORE.RESTR.CAVITY>
0

>  <SCORE.RESTR.norm>
0

>  <SCORE.SYSTEM>
0

>  <SCORE.SYSTEM.CONST>
0

>  <SCORE.SYSTEM.DIHEDRAL>
0

>  <SCORE.SYSTEM.SOLV>
0

>  <SCORE.SYSTEM.norm>
0

>  <SCORE.heavy>
17

>  <SCORE.norm>
-0.827115

>  <RMSD>
13.877

$$$$
ligand
 OpenBabel11021811503D
libRbt.so/2013.1/901 2013/11/27
 17 18  0  0  0  0  0  0  0  0999 V2000
   -7.0843   -4.3353   25.7610 N   0  0  0  0  0  0  0  0  0  0  0  0
   -6.3149   -4.2687   26.9296 C   0  0  0  0  0  0  0  0  0  0  0  0
   -6.8442   -3.6168   28.0924 N   0  0  0  0  0  0  0  0  0  0  0  0
   -5.0559   -4.8256   26.9931 N   0  0  0  0  0  0  0  0  0  0  0  0
   -4.5058   -5.4652   25.9016 C   0  0  0  0  0  0  0  0  0  0  0  0
   -5.2439   -5.5577   24.6802 C   0  0  0  0  0  0  0  0  0  0  0  0
   -3.3926   -5.9495   25.9761 O   0  0  0  0  0  0  0  0  0  0  0  0
   -4.6936   -6.2223   23.5015 N   0  0  0  0  0  0  0  0  0  0  0  0
   -5.5270   -6.4626   22.3782 C   0  0  2  0  0  0  0  0  0  0  0  0
   -6.6627   -5.4178   22.2126 C   0  0  0  0  0  0  0  0  0  0  0  0
   -6.5483   -4.9795   24.6368 C   0  0  0  0  0  0  0  0  0  0  0  0
   -7.3298   -5.0650   23.3892 N   0  0  0  0  0  0  0  0  0  0  0  0
   -6.0283   -7.8928   22.4616 C   0  0  1  0  0  0  0  0  0  0  0  0
   -6.9237   -8.0336   23.5032 O   0  0  0  0  0  0  0  0  0  0  0  0
   -6.6638   -8.2988   21.1655 C   0  0  1  0  0  0  0  0  0  0  0  0
   -5.8164   -8.1119   20.1437 O   0  0  0  0  0  0  0  0  0  0  0  0
   -7.0698   -9.7878   21.1871 C   0  0  0  0  0  0  0  0  0  0  0  0
  1  2  2  0  0  0  0
  1 11  1  0  0  0  0
  2  3  1  0  0  0  0
  2  4  1  0  0  0  0
  4  5  1  0  0  0  0
  5  6  1  0  0  0  0
  5  7  2  0  0  0  0
  6  8  1  0  0  0  0
  6 11  2  0  0  0  0
  9  8  1  1  0  0  0
  9 10  1  0  0  0  0
  9 13  1  0  0  0  0
 10 12  1  0  0  0  0
 11 12  1  0  0  0  0
 13 14  1  1  0  0  0
 13 15  1  0  0  0  0
 15 16  1  6  0  0  0
 15 17  1  0  0  0  0
M  END
>  <CHROM.1>
69.74682386,54.86874595,-5.98210960,-6.20058204,23.99478577,1.46411587,-0.37937683
0.92443657

>  <Name>
ligand

>  <RI>
0

>  <Rbt.Current_Directory>
/home/itssahil/PROJECTS/Mol_Feturizer/New_Systems/rnas/4LVX

>  <Rbt.Executable>
rbdock ($Id: //depot/dev/client3/rdock/2013.1/src/exe/rbdock.cxx#4 $)

>  <Rbt.Library>
libRbt.so (2013.1, Build901 2013/11/27)

>  <Rbt.Parameter_File>
/export/apps/rDock/src/rDock_2013.1_src/data/scripts/dock_solv.prm

>  <Rbt.Receptor>
prm/blind_docking_40.prm

>  <SCORE>
-14.0804

>  <SCORE.INTER>
-6.85691

>  <SCORE.INTER.CONST>
1

>  <SCORE.INTER.POLAR>
0

>  <SCORE.INTER.ROT>
2

>  <SCORE.INTER.SOLV>
10.9554

>  <SCORE.INTER.VDW>
-13.1564

>  <SCORE.INTER.norm>
-0.403348

>  <SCORE.INTRA>
-7.22349

>  <SCORE.INTRA.DIHEDRAL>
-9.74917

>  <SCORE.INTRA.DIHEDRAL.0>
10.3255

>  <SCORE.INTRA.POLAR>
0

>  <SCORE.INTRA.POLAR.0>
0

>  <SCORE.INTRA.REPUL>
0

>  <SCORE.INTRA.REPUL.0>
0

>  <SCORE.INTRA.SOLV>
-0.152523

>  <SCORE.INTRA.SOLV.lig_0>
-53.4755

>  <SCORE.INTRA.VDW>
-2.27264

>  <SCORE.INTRA.VDW.0>
2.32763

>  <SCORE.INTRA.norm>
-0.424911

>  <SCORE.RESTR>
0

>  <SCORE.RESTR.CAVITY>
0

>  <SCORE.RESTR.norm>
0

>  <SCORE.SYSTEM>
0

>  <SCORE.SYSTEM.CONST>
0

>  <SCORE.SYSTEM.DIHEDRAL>
0

>  <SCORE.SYSTEM.SOLV>
0

>  <SCORE.SYSTEM.norm>
0

>  <SCORE.heavy>
17

>  <SCORE.norm>
-0.828259

>  <RMSD>
13.878

$$$$
ligand
 OpenBabel11021811503D
libRbt.so/2013.1/901 2013/11/27
 17 18  0  0  0  0  0  0  0  0999 V2000
   -7.0779   -4.3302   25.7379 N   0  0  0  0  0  0  0  0  0  0  0  0
   -6.3010   -4.2556   26.9010 C   0  0  0  0  0  0  0  0  0  0  0  0
   -6.8215   -3.5929   28.0617 N   0  0  0  0  0  0  0  0  0  0  0  0
   -5.0427   -4.8146   26.9612 N   0  0  0  0  0  0  0  0  0  0  0  0
   -4.5009   -5.4642   25.8715 C   0  0  0  0  0  0  0  0  0  0  0  0
   -5.2468   -5.5652   24.6556 C   0  0  0  0  0  0  0  0  0  0  0  0
   -3.3881   -5.9502   25.9430 O   0  0  0  0  0  0  0  0  0  0  0  0
   -4.7053   -6.2407   23.4790 N   0  0  0  0  0  0  0  0  0  0  0  0
   -5.5463   -6.4886   22.3630 C   0  0  2  0  0  0  0  0  0  0  0  0
   -6.6809   -5.4428   22.1959 C   0  0  0  0  0  0  0  0  0  0  0  0
   -6.5503   -4.9848   24.6156 C   0  0  0  0  0  0  0  0  0  0  0  0
   -7.3398   -5.0789   23.3737 N   0  0  0  0  0  0  0  0  0  0  0  0
   -6.0500   -7.9169   22.4613 C   0  0  1  0  0  0  0  0  0  0  0  0
   -6.9360   -8.0482   23.5121 O   0  0  0  0  0  0  0  0  0  0  0  0
   -6.6982   -8.3309   21.1741 C   0  0  1  0  0  0  0  0  0  0  0  0
   -5.8573   -8.1601   20.1442 O   0  0  0  0  0  0  0  0  0  0  0  0
   -7.1147   -9.8167   21.2133 C   0  0  0  0  0  0  0  0  0  0  0  0
  1  2  2  0  0  0  0
  1 11  1  0  0  0  0
  2  3  1  0  0  0  0
  2  4  1  0  0  0  0
  4  5  1  0  0  0  0
  5  6  1  0  0  0  0
  5  7  2  0  0  0  0
  6  8  1  0  0  0  0
  6 11  2  0  0  0  0
  9  8  1  1  0  0  0
  9 10  1  0  0  0  0
  9 13  1  0  0  0  0
 10 12  1  0  0  0  0
 11 12  1  0  0  0  0
 13 14  1  1  0  0  0
 13 15  1  0  0  0  0
 15 16  1  6  0  0  0
 15 17  1  0  0  0  0
M  END
>  <CHROM.1>
69.57379658,55.19928365,-5.99166696,-6.21231388,23.98070861,1.45664075,-0.37613326
0.91349105

>  <Name>
ligand

>  <RI>
0

>  <Rbt.Current_Directory>
/home/itssahil/PROJECTS/Mol_Feturizer/New_Systems/rnas/4LVX

>  <Rbt.Executable>
rbdock ($Id: //depot/dev/client3/rdock/2013.1/src/exe/rbdock.cxx#4 $)

>  <Rbt.Library>
libRbt.so (2013.1, Build901 2013/11/27)

>  <Rbt.Parameter_File>
/export/apps/rDock/src/rDock_2013.1_src/data/scripts/dock_solv.prm

>  <Rbt.Receptor>
prm/blind_docking_40.prm

>  <SCORE>
-14.0644

>  <SCORE.INTER>
-6.83357

>  <SCORE.INTER.CONST>
1

>  <SCORE.INTER.POLAR>
0

>  <SCORE.INTER.ROT>
2

>  <SCORE.INTER.SOLV>
10.8577

>  <SCORE.INTER.VDW>
-13.1083

>  <SCORE.INTER.norm>
-0.401975

>  <SCORE.INTRA>
-7.23084

>  <SCORE.INTRA.DIHEDRAL>
-9.77279

>  <SCORE.INTRA.DIHEDRAL.0>
10.3255

>  <SCORE.INTRA.POLAR>
0

>  <SCORE.INTRA.POLAR.0>
0

>  <SCORE.INTRA.REPUL>
0

>  <SCORE.INTRA.REPUL.0>
0

>  <SCORE.INTRA.SOLV>
-0.153357

>  <SCORE.INTRA.SOLV.lig_0>
-53.4755

>  <SCORE.INTRA.VDW>
-2.26776

>  <SCORE.INTRA.VDW.0>
2.32763

>  <SCORE.INTRA.norm>
-0.425343

>  <SCORE.RESTR>
0

>  <SCORE.RESTR.CAVITY>
0

>  <SCORE.RESTR.norm>
0

>  <SCORE.SYSTEM>
0

>  <SCORE.SYSTEM.CONST>
0

>  <SCORE.SYSTEM.DIHEDRAL>
0

>  <SCORE.SYSTEM.SOLV>
0

>  <SCORE.SYSTEM.norm>
0

>  <SCORE.heavy>
17

>  <SCORE.norm>
-0.827318

>  <RMSD>
13.894

$$$$
ligand
 OpenBabel11021811503D
libRbt.so/2013.1/901 2013/11/27
 17 18  0  0  0  0  0  0  0  0999 V2000
   -7.0908   -4.3421   25.7691 N   0  0  0  0  0  0  0  0  0  0  0  0
   -6.3023   -4.2630   26.9241 C   0  0  0  0  0  0  0  0  0  0  0  0
   -6.8138   -3.6017   28.0895 N   0  0  0  0  0  0  0  0  0  0  0  0
   -5.0409   -4.8162   26.9717 N   0  0  0  0  0  0  0  0  0  0  0  0
   -4.5074   -5.4643   25.8771 C   0  0  0  0  0  0  0  0  0  0  0  0
   -5.2654   -5.5698   24.6690 C   0  0  0  0  0  0  0  0  0  0  0  0
   -3.3918   -5.9452   25.9375 O   0  0  0  0  0  0  0  0  0  0  0  0
   -4.7329   -6.2438   23.4874 N   0  0  0  0  0  0  0  0  0  0  0  0
   -5.5843   -6.4965   22.3804 C   0  0  2  0  0  0  0  0  0  0  0  0
   -6.7252   -5.4561   22.2241 C   0  0  0  0  0  0  0  0  0  0  0  0
   -6.5718   -4.9953   24.6420 C   0  0  0  0  0  0  0  0  0  0  0  0
   -7.3737   -5.0941   23.4084 N   0  0  0  0  0  0  0  0  0  0  0  0
   -6.0804   -7.9271   22.4851 C   0  0  1  0  0  0  0  0  0  0  0  0
   -6.9614   -8.0596   23.5399 O   0  0  0  0  0  0  0  0  0  0  0  0
   -6.7319   -8.3481   21.2018 C   0  0  1  0  0  0  0  0  0  0  0  0
   -5.8940   -8.1820   20.1687 O   0  0  0  0  0  0  0  0  0  0  0  0
   -7.1471   -9.8339   21.2498 C   0  0  0  0  0  0  0  0  0  0  0  0
  1  2  2  0  0  0  0
  1 11  1  0  0  0  0
  2  3  1  0  0  0  0
  2  4  1  0  0  0  0
  4  5  1  0  0  0  0
  5  6  1  0  0  0  0
  5  7  2  0  0  0  0
  6  8  1  0  0  0  0
  6 11  2  0  0  0  0
  9  8  1  1  0  0  0
  9 10  1  0  0  0  0
  9 13  1  0  0  0  0
 10 12  1  0  0  0  0
 11 12  1  0  0  0  0
 13 14  1  1  0  0  0
 13 15  1  0  0  0  0
 15 16  1  6  0  0  0
 15 17  1  0  0  0  0
M  END
>  <CHROM.1>
69.94627195,55.48266580,-6.01288905,-6.22169466,24.00201899,1.45207499,-0.36418896
0.91069992

>  <Name>
ligand

>  <RI>
0

>  <Rbt.Current_Directory>
/home/itssahil/PROJECTS/Mol_Feturizer/New_Systems/rnas/4LVX

>  <Rbt.Executable>
rbdock ($Id: //depot/dev/client3/rdock/2013.1/src/exe/rbdock.cxx#4 $)

>  <Rbt.Library>
libRbt.so (2013.1, Build901 2013/11/27)

>  <Rbt.Parameter_File>
/export/apps/rDock/src/rDock_2013.1_src/data/scripts/dock_solv.prm

>  <Rbt.Receptor>
prm/blind_docking_40.prm

>  <SCORE>
-14.0804

>  <SCORE.INTER>
-6.85361

>  <SCORE.INTER.CONST>
1

>  <SCORE.INTER.POLAR>
0

>  <SCORE.INTER.ROT>
2

>  <SCORE.INTER.SOLV>
10.7614

>  <SCORE.INTER.VDW>
-13.0895

>  <SCORE.INTER.norm>
-0.403154

>  <SCORE.INTRA>
-7.22682

>  <SCORE.INTRA.DIHEDRAL>
-9.75867

>  <SCORE.INTRA.DIHEDRAL.0>
10.3255

>  <SCORE.INTRA.POLAR>
0

>  <SCORE.INTRA.POLAR.0>
0

>  <SCORE.INTRA.REPUL>
0

>  <SCORE.INTRA.REPUL.0>
0

>  <SCORE.INTRA.SOLV>
-0.156695

>  <SCORE.INTRA.SOLV.lig_0>
-53.4755

>  <SCORE.INTRA.VDW>
-2.26914

>  <SCORE.INTRA.VDW.0>
2.32763

>  <SCORE.INTRA.norm>
-0.425107

>  <SCORE.RESTR>
0

>  <SCORE.RESTR.CAVITY>
0

>  <SCORE.RESTR.norm>
0

>  <SCORE.SYSTEM>
0

>  <SCORE.SYSTEM.CONST>
0

>  <SCORE.SYSTEM.DIHEDRAL>
0

>  <SCORE.SYSTEM.SOLV>
0

>  <SCORE.SYSTEM.norm>
0

>  <SCORE.heavy>
17

>  <SCORE.norm>
-0.828261

>  <RMSD>
13.915

$$$$
ligand
 OpenBabel11021811503D
libRbt.so/2013.1/901 2013/11/27
 17 18  0  0  0  0  0  0  0  0999 V2000
   -7.2490   -4.3382   25.8703 N   0  0  0  0  0  0  0  0  0  0  0  0
   -6.4054   -4.1733   26.9763 C   0  0  0  0  0  0  0  0  0  0  0  0
   -6.8873   -3.4904   28.1418 N   0  0  0  0  0  0  0  0  0  0  0  0
   -5.1167   -4.6620   26.9755 N   0  0  0  0  0  0  0  0  0  0  0  0
   -4.6098   -5.3278   25.8789 C   0  0  0  0  0  0  0  0  0  0  0  0
   -5.4245   -5.5197   24.7193 C   0  0  0  0  0  0  0  0  0  0  0  0
   -3.4695   -5.7508   25.8961 O   0  0  0  0  0  0  0  0  0  0  0  0
   -4.9220   -6.2149   23.5370 N   0  0  0  0  0  0  0  0  0  0  0  0
   -5.8170   -6.5541   22.4890 C   0  0  2  0  0  0  0  0  0  0  0  0
   -7.0161   -5.5778   22.3560 C   0  0  0  0  0  0  0  0  0  0  0  0
   -6.7581   -5.0111   24.7423 C   0  0  0  0  0  0  0  0  0  0  0  0
   -7.6183   -5.1995   23.5595 N   0  0  0  0  0  0  0  0  0  0  0  0
   -6.2334   -8.0016   22.6758 C   0  0  1  0  0  0  0  0  0  0  0  0
   -7.0948   -8.1248   23.7478 O   0  0  0  0  0  0  0  0  0  0  0  0
   -6.8743   -8.5252   21.4254 C   0  0  1  0  0  0  0  0  0  0  0  0
   -6.0628   -8.3578   20.3716 O   0  0  0  0  0  0  0  0  0  0  0  0
   -7.1940  -10.0299   21.5518 C   0  0  0  0  0  0  0  0  0  0  0  0
  1  2  2  0  0  0  0
  1 11  1  0  0  0  0
  2  3  1  0  0  0  0
  2  4  1  0  0  0  0
  4  5  1  0  0  0  0
  5  6  1  0  0  0  0
  5  7  2  0  0  0  0
  6  8  1  0  0  0  0
  6 11  2  0  0  0  0
  9  8  1  1  0  0  0
  9 10  1  0  0  0  0
  9 13  1  0  0  0  0
 10 12  1  0  0  0  0
 11 12  1  0  0  0  0
 13 14  1  1  0  0  0
 13 15  1  0  0  0  0
 15 16  1  6  0  0  0
 15 17  1  0  0  0  0
M  END
>  <CHROM.1>
72.49831577,54.88110006,-6.16123170,-6.23705443,24.11552974,1.44987338,-0.28854645
0.86880387

>  <Name>
ligand

>  <RI>
0

>  <Rbt.Current_Directory>
/home/itssahil/PROJECTS/Mol_Feturizer/New_Systems/rnas/4LVX

>  <Rbt.Executable>
rbdock ($Id: //depot/dev/client3/rdock/2013.1/src/exe/rbdock.cxx#4 $)

>  <Rbt.Library>
libRbt.so (2013.1, Build901 2013/11/27)

>  <Rbt.Parameter_File>
/export/apps/rDock/src/rDock_2013.1_src/data/scripts/dock_solv.prm

>  <Rbt.Receptor>
prm/blind_docking_40.prm

>  <SCORE>
-14.0189

>  <SCORE.INTER>
-6.868

>  <SCORE.INTER.CONST>
1

>  <SCORE.INTER.POLAR>
0

>  <SCORE.INTER.ROT>
2

>  <SCORE.INTER.SOLV>
10.3146

>  <SCORE.INTER.VDW>
-12.9502

>  <SCORE.INTER.norm>
-0.404

>  <SCORE.INTRA>
-7.15093

>  <SCORE.INTRA.DIHEDRAL>
-9.54842

>  <SCORE.INTRA.DIHEDRAL.0>
10.3255

>  <SCORE.INTRA.POLAR>
0

>  <SCORE.INTRA.POLAR.0>
0

>  <SCORE.INTRA.REPUL>
0

>  <SCORE.INTRA.REPUL.0>
0

>  <SCORE.INTRA.SOLV>
-0.166386

>  <SCORE.INTRA.SOLV.lig_0>
-53.4755

>  <SCORE.INTRA.VDW>
-2.29353

>  <SCORE.INTRA.VDW.0>
2.32763

>  <SCORE.INTRA.norm>
-0.420643

>  <SCORE.RESTR>
0

>  <SCORE.RESTR.CAVITY>
0

>  <SCORE.RESTR.norm>
0

>  <SCORE.SYSTEM>
0

>  <SCORE.SYSTEM.CONST>
0

>  <SCORE.SYSTEM.DIHEDRAL>
0

>  <SCORE.SYSTEM.SOLV>
0

>  <SCORE.SYSTEM.norm>
0

>  <SCORE.heavy>
17

>  <SCORE.norm>
-0.824643

>  <RMSD>
14.007

$$$$
ligand
 OpenBabel11021811503D
libRbt.so/2013.1/901 2013/11/27
 17 18  0  0  0  0  0  0  0  0999 V2000
   -7.3299   -4.3493   25.9392 N   0  0  0  0  0  0  0  0  0  0  0  0
   -6.4759   -4.1744   27.0356 C   0  0  0  0  0  0  0  0  0  0  0  0
   -6.9471   -3.4815   28.1996 N   0  0  0  0  0  0  0  0  0  0  0  0
   -5.1870   -4.6624   27.0269 N   0  0  0  0  0  0  0  0  0  0  0  0
   -4.6901   -5.3376   25.9314 C   0  0  0  0  0  0  0  0  0  0  0  0
   -5.5157   -5.5400   24.7813 C   0  0  0  0  0  0  0  0  0  0  0  0
   -3.5495   -5.7599   25.9416 O   0  0  0  0  0  0  0  0  0  0  0  0
   -5.0240   -6.2454   23.6004 N   0  0  0  0  0  0  0  0  0  0  0  0
   -5.9286   -6.5941   22.5640 C   0  0  2  0  0  0  0  0  0  0  0  0
   -7.1295   -5.6196   22.4338 C   0  0  0  0  0  0  0  0  0  0  0  0
   -6.8493   -5.0319   24.8125 C   0  0  0  0  0  0  0  0  0  0  0  0
   -7.7205   -5.2310   23.6395 N   0  0  0  0  0  0  0  0  0  0  0  0
   -6.3425   -8.0401   22.7674 C   0  0  1  0  0  0  0  0  0  0  0  0
   -7.1936   -8.1543   23.8486 O   0  0  0  0  0  0  0  0  0  0  0  0
   -6.9950   -8.5749   21.5277 C   0  0  1  0  0  0  0  0  0  0  0  0
   -6.1849   -8.4359   20.4687 O   0  0  0  0  0  0  0  0  0  0  0  0
   -7.3349  -10.0728   21.6796 C   0  0  0  0  0  0  0  0  0  0  0  0
  1  2  2  0  0  0  0
  1 11  1  0  0  0  0
  2  3  1  0  0  0  0
  2  4  1  0  0  0  0
  4  5  1  0  0  0  0
  5  6  1  0  0  0  0
  5  7  2  0  0  0  0
  6  8  1  0  0  0  0
  6 11  2  0  0  0  0
  9  8  1  1  0  0  0
  9 10  1  0  0  0  0
  9 13  1  0  0  0  0
 10 12  1  0  0  0  0
 11 12  1  0  0  0  0
 13 14  1  1  0  0  0
 13 15  1  0  0  0  0
 15 16  1  6  0  0  0
 15 17  1  0  0  0  0
M  END
>  <CHROM.1>
72.49642178,55.87095782,-6.25852568,-6.26393318,24.19168887,1.44233337,-0.27791974
0.85780196

>  <Name>
ligand

>  <RI>
0

>  <Rbt.Current_Directory>
/home/itssahil/PROJECTS/Mol_Feturizer/New_Systems/rnas/4LVX

>  <Rbt.Executable>
rbdock ($Id: //depot/dev/client3/rdock/2013.1/src/exe/rbdock.cxx#4 $)

>  <Rbt.Library>
libRbt.so (2013.1, Build901 2013/11/27)

>  <Rbt.Parameter_File>
/export/apps/rDock/src/rDock_2013.1_src/data/scripts/dock_solv.prm

>  <Rbt.Receptor>
prm/blind_docking_60.prm

>  <SCORE>
-14.005

>  <SCORE.INTER>
-6.84389

>  <SCORE.INTER.CONST>
1

>  <SCORE.INTER.POLAR>
0

>  <SCORE.INTER.ROT>
2

>  <SCORE.INTER.SOLV>
9.99112

>  <SCORE.INTER.VDW>
-12.8263

>  <SCORE.INTER.norm>
-0.402582

>  <SCORE.INTRA>
-7.16114

>  <SCORE.INTRA.DIHEDRAL>
-9.58353

>  <SCORE.INTRA.DIHEDRAL.0>
10.3255

>  <SCORE.INTRA.POLAR>
0

>  <SCORE.INTRA.POLAR.0>
0

>  <SCORE.INTRA.REPUL>
0

>  <SCORE.INTRA.REPUL.0>
0

>  <SCORE.INTRA.SOLV>
-0.171389

>  <SCORE.INTRA.SOLV.lig_0>
-53.4755

>  <SCORE.INTRA.VDW>
-2.28368

>  <SCORE.INTRA.VDW.0>
2.32763

>  <SCORE.INTRA.norm>
-0.421244

>  <SCORE.RESTR>
0

>  <SCORE.RESTR.CAVITY>
0

>  <SCORE.RESTR.norm>
0

>  <SCORE.SYSTEM>
0

>  <SCORE.SYSTEM.CONST>
0

>  <SCORE.SYSTEM.DIHEDRAL>
0

>  <SCORE.SYSTEM.SOLV>
0

>  <SCORE.SYSTEM.norm>
0

>  <SCORE.heavy>
17

>  <SCORE.norm>
-0.823825

>  <RMSD>
14.086

$$$$
ligand
 OpenBabel11021811503D
libRbt.so/2013.1/901 2013/11/27
 17 18  0  0  0  0  0  0  0  0999 V2000
   -6.0447   -9.4283   20.0799 N   0  0  0  0  0  0  0  0  0  0  0  0
   -7.3312   -9.5351   20.6236 C   0  0  0  0  0  0  0  0  0  0  0  0
   -7.7178  -10.7378   21.3027 N   0  0  0  0  0  0  0  0  0  0  0  0
   -8.2388   -8.5023   20.5288 N   0  0  0  0  0  0  0  0  0  0  0  0
   -7.9119   -7.3255   19.8876 C   0  0  0  0  0  0  0  0  0  0  0  0
   -6.6144   -7.1634   19.3083 C   0  0  0  0  0  0  0  0  0  0  0  0
   -8.7267   -6.4255   19.8127 O   0  0  0  0  0  0  0  0  0  0  0  0
   -6.2327   -5.9345   18.6169 N   0  0  0  0  0  0  0  0  0  0  0  0
   -4.8818   -5.7383   18.2288 C   0  0  2  0  0  0  0  0  0  0  0  0
   -4.1246   -7.0588   17.9257 C   0  0  0  0  0  0  0  0  0  0  0  0
   -5.6870   -8.2425   19.4223 C   0  0  0  0  0  0  0  0  0  0  0  0
   -4.3420   -8.0976   18.8355 N   0  0  0  0  0  0  0  0  0  0  0  0
   -4.2077   -4.8837   19.2865 C   0  0  1  0  0  0  0  0  0  0  0  0
   -4.2153   -5.5271   20.5082 O   0  0  0  0  0  0  0  0  0  0  0  0
   -2.8033   -4.5564   18.8751 C   0  0  1  0  0  0  0  0  0  0  0  0
   -2.7762   -4.0769   17.6236 O   0  0  0  0  0  0  0  0  0  0  0  0
   -2.1822   -3.4966   19.8096 C   0  0  0  0  0  0  0  0  0  0  0  0
  1  2  2  0  0  0  0
  1 11  1  0  0  0  0
  2  3  1  0  0  0  0
  2  4  1  0  0  0  0
  4  5  1  0  0  0  0
  5  6  1  0  0  0  0
  5  7  2  0  0  0  0
  6  8  1  0  0  0  0
  6 11  2  0  0  0  0
  9  8  1  1  0  0  0
  9 10  1  0  0  0  0
  9 13  1  0  0  0  0
 10 12  1  0  0  0  0
 11 12  1  0  0  0  0
 13 14  1  1  0  0  0
 13 15  1  0  0  0  0
 15 16  1  6  0  0  0
 15 17  1  0  0  0  0
M  END
>  <CHROM.1>
61.79051397,50.07871500,-5.48304157,-6.79477588,19.44551144,-2.34397675,0.17572068
-0.17269317

>  <Name>
ligand

>  <RI>
0

>  <Rbt.Current_Directory>
/home/itssahil/PROJECTS/Mol_Feturizer/New_Systems/rnas/4LVX

>  <Rbt.Executable>
rbdock ($Id: //depot/dev/client3/rdock/2013.1/src/exe/rbdock.cxx#4 $)

>  <Rbt.Library>
libRbt.so (2013.1, Build901 2013/11/27)

>  <Rbt.Parameter_File>
/export/apps/rDock/src/rDock_2013.1_src/data/scripts/dock_solv.prm

>  <Rbt.Receptor>
prm/blind_docking_40.prm

>  <SCORE>
-10.6016

>  <SCORE.INTER>
-3.54144

>  <SCORE.INTER.CONST>
1

>  <SCORE.INTER.POLAR>
0

>  <SCORE.INTER.ROT>
2

>  <SCORE.INTER.SOLV>
10.6033

>  <SCORE.INTER.VDW>
-10.8287

>  <SCORE.INTER.norm>
-0.20832

>  <SCORE.INTRA>
-7.06035

>  <SCORE.INTRA.DIHEDRAL>
-9.7937

>  <SCORE.INTRA.DIHEDRAL.0>
10.3255

>  <SCORE.INTRA.POLAR>
0

>  <SCORE.INTRA.POLAR.0>
0

>  <SCORE.INTRA.REPUL>
0

>  <SCORE.INTRA.REPUL.0>
0

>  <SCORE.INTRA.SOLV>
-0.085654

>  <SCORE.INTRA.SOLV.lig_0>
-53.4755

>  <SCORE.INTRA.VDW>
-2.12068

>  <SCORE.INTRA.VDW.0>
2.32763

>  <SCORE.INTRA.norm>
-0.415315

>  <SCORE.RESTR>
0.000178603

>  <SCORE.RESTR.CAVITY>
0.000178603

>  <SCORE.RESTR.norm>
1.05061e-05

>  <SCORE.SYSTEM>
0

>  <SCORE.SYSTEM.CONST>
0

>  <SCORE.SYSTEM.DIHEDRAL>
0

>  <SCORE.SYSTEM.SOLV>
0

>  <SCORE.SYSTEM.norm>
0

>  <SCORE.heavy>
17

>  <SCORE.norm>
-0.623625

>  <RMSD>
14.782

$$$$
ligand
 OpenBabel11021811503D
libRbt.so/2013.1/901 2013/11/27
 17 18  0  0  0  0  0  0  0  0999 V2000
   -6.5107   -7.1433   25.4551 N   0  0  0  0  0  0  0  0  0  0  0  0
   -5.6201   -6.0696   25.5820 C   0  0  0  0  0  0  0  0  0  0  0  0
   -4.8185   -5.9477   26.7651 N   0  0  0  0  0  0  0  0  0  0  0  0
   -5.4878   -5.1250   24.5873 N   0  0  0  0  0  0  0  0  0  0  0  0
   -6.2352   -5.2017   23.4304 C   0  0  0  0  0  0  0  0  0  0  0  0
   -7.1649   -6.2732   23.2495 C   0  0  0  0  0  0  0  0  0  0  0  0
   -6.1057   -4.3578   22.5640 O   0  0  0  0  0  0  0  0  0  0  0  0
   -7.9777   -6.3858   22.0410 N   0  0  0  0  0  0  0  0  0  0  0  0
   -8.7406   -7.5611   21.8154 C   0  0  2  0  0  0  0  0  0  0  0  0
   -9.2015   -8.2625   23.1209 C   0  0  0  0  0  0  0  0  0  0  0  0
   -7.2828   -7.2444   24.2889 C   0  0  0  0  0  0  0  0  0  0  0  0
   -8.2327   -8.3602   24.1238 N   0  0  0  0  0  0  0  0  0  0  0  0
   -7.9482   -8.4661   20.8898 C   0  0  1  0  0  0  0  0  0  0  0  0
   -7.6789   -7.8249   19.6971 O   0  0  0  0  0  0  0  0  0  0  0  0
   -6.6743   -8.9007   21.5508 C   0  0  1  0  0  0  0  0  0  0  0  0
   -6.2766  -10.0897   21.0763 O   0  0  0  0  0  0  0  0  0  0  0  0
   -5.5425   -7.8810   21.3025 C   0  0  0  0  0  0  0  0  0  0  0  0
  1  2  2  0  0  0  0
  1 11  1  0  0  0  0
  2  3  1  0  0  0  0
  2  4  1  0  0  0  0
  4  5  1  0  0  0  0
  5  6  1  0  0  0  0
  5  7  2  0  0  0  0
  6  8  1  0  0  0  0
  6 11  2  0  0  0  0
  9  8  1  1  0  0  0
  9 10  1  0  0  0  0
  9 13  1  0  0  0  0
 10 12  1  0  0  0  0
 11 12  1  0  0  0  0
 13 14  1  6  0  0  0
 13 15  1  0  0  0  0
 15 16  1  6  0  0  0
 15 17  1  0  0  0  0
M  END
>  <CHROM.1>
-58.78907934,152.32531941,-6.90050654,-7.15087299,22.95788856,0.72857042
1.11408082,1.77745124

>  <Name>
ligand

>  <RI>
0

>  <Rbt.Current_Directory>
/home/itssahil/PROJECTS/Mol_Feturizer/New_Systems/rnas/4LVX

>  <Rbt.Executable>
rbdock ($Id: //depot/dev/client3/rdock/2013.1/src/exe/rbdock.cxx#4 $)

>  <Rbt.Library>
libRbt.so (2013.1, Build901 2013/11/27)

>  <Rbt.Parameter_File>
/export/apps/rDock/src/rDock_2013.1_src/data/scripts/dock_solv.prm

>  <Rbt.Receptor>
prm/blind_docking_100.prm

>  <SCORE>
-10.1347

>  <SCORE.INTER>
-6.32465

>  <SCORE.INTER.CONST>
1

>  <SCORE.INTER.POLAR>
0

>  <SCORE.INTER.ROT>
2

>  <SCORE.INTER.SOLV>
15.4544

>  <SCORE.INTER.VDW>
-14.3012

>  <SCORE.INTER.norm>
-0.372038

>  <SCORE.INTRA>
-3.81001

>  <SCORE.INTRA.DIHEDRAL>
-7.77918

>  <SCORE.INTRA.DIHEDRAL.0>
10.3255

>  <SCORE.INTRA.POLAR>
0

>  <SCORE.INTRA.POLAR.0>
0

>  <SCORE.INTRA.REPUL>
0

>  <SCORE.INTRA.REPUL.0>
0

>  <SCORE.INTRA.SOLV>
1.0866

>  <SCORE.INTRA.SOLV.lig_0>
-53.4755

>  <SCORE.INTRA.VDW>
-0.463719

>  <SCORE.INTRA.VDW.0>
2.32763

>  <SCORE.INTRA.norm>
-0.224118

>  <SCORE.RESTR>
0

>  <SCORE.RESTR.CAVITY>
0

>  <SCORE.RESTR.norm>
0

>  <SCORE.SYSTEM>
0

>  <SCORE.SYSTEM.CONST>
0

>  <SCORE.SYSTEM.DIHEDRAL>
0

>  <SCORE.SYSTEM.SOLV>
0

>  <SCORE.SYSTEM.norm>
0

>  <SCORE.heavy>
17

>  <SCORE.norm>
-0.596157

>  <RMSD>
15.158

$$$$
ligand
 OpenBabel11021811503D
libRbt.so/2013.1/901 2013/11/27
 17 18  0  0  0  0  0  0  0  0999 V2000
   -6.4816   -7.2350   25.5295 N   0  0  0  0  0  0  0  0  0  0  0  0
   -5.6337   -6.1342   25.7063 C   0  0  0  0  0  0  0  0  0  0  0  0
   -4.8414   -6.0319   26.8975 N   0  0  0  0  0  0  0  0  0  0  0  0
   -5.5348   -5.1436   24.7532 N   0  0  0  0  0  0  0  0  0  0  0  0
   -6.2749   -5.1998   23.5904 C   0  0  0  0  0  0  0  0  0  0  0  0
   -7.1618   -6.2977   23.3596 C   0  0  0  0  0  0  0  0  0  0  0  0
   -6.1754   -4.3154   22.7613 O   0  0  0  0  0  0  0  0  0  0  0  0
   -7.9656   -6.3900   22.1434 N   0  0  0  0  0  0  0  0  0  0  0  0
   -8.6816   -7.5832   21.8644 C   0  0  2  0  0  0  0  0  0  0  0  0
   -9.1193   -8.3568   23.1366 C   0  0  0  0  0  0  0  0  0  0  0  0
   -7.2454   -7.3161   24.3563 C   0  0  0  0  0  0  0  0  0  0  0  0
   -8.1507   -8.4597   24.1393 N   0  0  0  0  0  0  0  0  0  0  0  0
   -7.8516   -8.4167   20.9052 C   0  0  1  0  0  0  0  0  0  0  0  0
   -8.4222   -9.6609   20.7242 O   0  0  0  0  0  0  0  0  0  0  0  0
   -7.7075   -7.7097   19.5907 C   0  0  1  0  0  0  0  0  0  0  0  0
   -7.0529   -6.5503   19.7460 O   0  0  0  0  0  0  0  0  0  0  0  0
   -6.9245   -8.5720   18.5779 C   0  0  0  0  0  0  0  0  0  0  0  0
  1  2  2  0  0  0  0
  1 11  1  0  0  0  0
  2  3  1  0  0  0  0
  2  4  1  0  0  0  0
  4  5  1  0  0  0  0
  5  6  1  0  0  0  0
  5  7  2  0  0  0  0
  6  8  1  0  0  0  0
  6 11  2  0  0  0  0
  9  8  1  1  0  0  0
  9 10  1  0  0  0  0
  9 13  1  0  0  0  0
 10 12  1  0  0  0  0
 11 12  1  0  0  0  0
 13 14  1  6  0  0  0
 13 15  1  0  0  0  0
 15 16  1  1  0  0  0
 15 17  1  0  0  0  0
M  END
>  <CHROM.1>
172.72732571,62.58340032,-7.13913388,-7.03988065,22.72432485,0.94630270,0.98730299
1.70526089

>  <Name>
ligand

>  <RI>
0

>  <Rbt.Current_Directory>
/home/itssahil/PROJECTS/Mol_Feturizer/New_Systems/rnas/4LVX

>  <Rbt.Executable>
rbdock ($Id: //depot/dev/client3/rdock/2013.1/src/exe/rbdock.cxx#4 $)

>  <Rbt.Library>
libRbt.so (2013.1, Build901 2013/11/27)

>  <Rbt.Parameter_File>
/export/apps/rDock/src/rDock_2013.1_src/data/scripts/dock_solv.prm

>  <Rbt.Receptor>
prm/blind_docking_40.prm

>  <SCORE>
-13.3721

>  <SCORE.INTER>
-6.6244

>  <SCORE.INTER.CONST>
1

>  <SCORE.INTER.POLAR>
0

>  <SCORE.INTER.ROT>
2

>  <SCORE.INTER.SOLV>
15.6557

>  <SCORE.INTER.VDW>
-14.5682

>  <SCORE.INTER.norm>
-0.389671

>  <SCORE.INTRA>
-6.74769

>  <SCORE.INTRA.DIHEDRAL>
-9.96447

>  <SCORE.INTRA.DIHEDRAL.0>
10.3255

>  <SCORE.INTRA.POLAR>
0

>  <SCORE.INTRA.POLAR.0>
0

>  <SCORE.INTRA.REPUL>
0

>  <SCORE.INTRA.REPUL.0>
0

>  <SCORE.INTRA.SOLV>
-0.0129088

>  <SCORE.INTRA.SOLV.lig_0>
-53.4755

>  <SCORE.INTRA.VDW>
-1.759

>  <SCORE.INTRA.VDW.0>
2.32763

>  <SCORE.INTRA.norm>
-0.396923

>  <SCORE.RESTR>
0

>  <SCORE.RESTR.CAVITY>
0

>  <SCORE.RESTR.norm>
0

>  <SCORE.SYSTEM>
0

>  <SCORE.SYSTEM.CONST>
0

>  <SCORE.SYSTEM.DIHEDRAL>
0

>  <SCORE.SYSTEM.SOLV>
0

>  <SCORE.SYSTEM.norm>
0

>  <SCORE.heavy>
17

>  <SCORE.norm>
-0.786594

>  <RMSD>
15.208

$$$$
ligand
 OpenBabel11021811503D
libRbt.so/2013.1/901 2013/11/27
 17 18  0  0  0  0  0  0  0  0999 V2000
   -6.2280   -8.9181   20.7731 N   0  0  0  0  0  0  0  0  0  0  0  0
   -7.2691   -9.1509   19.8654 C   0  0  0  0  0  0  0  0  0  0  0  0
   -7.3523  -10.4125   19.1883 N   0  0  0  0  0  0  0  0  0  0  0  0
   -8.2275   -8.1938   19.6111 N   0  0  0  0  0  0  0  0  0  0  0  0
   -8.1908   -6.9666   20.2401 C   0  0  0  0  0  0  0  0  0  0  0  0
   -7.1468   -6.6717   21.1720 C   0  0  0  0  0  0  0  0  0  0  0  0
   -9.0447   -6.1337   20.0018 O   0  0  0  0  0  0  0  0  0  0  0  0
   -7.0711   -5.3821   21.8540 N   0  0  0  0  0  0  0  0  0  0  0  0
   -6.1396   -5.2000   22.9093 C   0  0  2  0  0  0  0  0  0  0  0  0
   -4.8638   -6.0725   22.7689 C   0  0  0  0  0  0  0  0  0  0  0  0
   -6.1672   -7.6785   21.4258 C   0  0  0  0  0  0  0  0  0  0  0  0
   -5.0828   -7.3987   22.3851 N   0  0  0  0  0  0  0  0  0  0  0  0
   -6.8711   -5.4051   24.2232 C   0  0  1  0  0  0  0  0  0  0  0  0
   -7.0362   -6.7513   24.4822 O   0  0  0  0  0  0  0  0  0  0  0  0
   -6.1259   -4.7432   25.3435 C   0  0  1  0  0  0  0  0  0  0  0  0
   -6.9387   -4.5195   26.3857 O   0  0  0  0  0  0  0  0  0  0  0  0
   -4.9536   -5.6226   25.8282 C   0  0  0  0  0  0  0  0  0  0  0  0
  1  2  2  0  0  0  0
  1 11  1  0  0  0  0
  2  3  1  0  0  0  0
  2  4  1  0  0  0  0
  4  5  1  0  0  0  0
  5  6  1  0  0  0  0
  5  7  2  0  0  0  0
  6  8  1  0  0  0  0
  6 11  2  0  0  0  0
  9  8  1  6  0  0  0
  9 10  1  0  0  0  0
  9 13  1  0  0  0  0
 10 12  1  0  0  0  0
 11 12  1  0  0  0  0
 13 14  1  1  0  0  0
 13 15  1  0  0  0  0
 15 16  1  1  0  0  0
 15 17  1  0  0  0  0
M  END
>  <CHROM.1>
78.78162689,159.19107296,-6.75265253,-6.74005343,22.34275893,-1.85847290
-0.67345974,0.83451928

>  <Name>
ligand

>  <RI>
0

>  <Rbt.Current_Directory>
/home/itssahil/PROJECTS/Mol_Feturizer/New_Systems/rnas/4LVX

>  <Rbt.Executable>
rbdock ($Id: //depot/dev/client3/rdock/2013.1/src/exe/rbdock.cxx#4 $)

>  <Rbt.Library>
libRbt.so (2013.1, Build901 2013/11/27)

>  <Rbt.Parameter_File>
/export/apps/rDock/src/rDock_2013.1_src/data/scripts/dock_solv.prm

>  <Rbt.Receptor>
prm/blind_docking_40.prm

>  <SCORE>
-10.5386

>  <SCORE.INTER>
-6.37983

>  <SCORE.INTER.CONST>
1

>  <SCORE.INTER.POLAR>
0

>  <SCORE.INTER.ROT>
2

>  <SCORE.INTER.SOLV>
14.3074

>  <SCORE.INTER.VDW>
-13.9557

>  <SCORE.INTER.norm>
-0.375284

>  <SCORE.INTRA>
-4.15872

>  <SCORE.INTRA.DIHEDRAL>
-7.57244

>  <SCORE.INTRA.DIHEDRAL.0>
10.3255

>  <SCORE.INTRA.POLAR>
0

>  <SCORE.INTRA.POLAR.0>
0

>  <SCORE.INTRA.REPUL>
0

>  <SCORE.INTRA.REPUL.0>
0

>  <SCORE.INTRA.SOLV>
0.0511431

>  <SCORE.INTRA.SOLV.lig_0>
-53.4755

>  <SCORE.INTRA.VDW>
-0.398073

>  <SCORE.INTRA.VDW.0>
2.32763

>  <SCORE.INTRA.norm>
-0.244631

>  <SCORE.RESTR>
0

>  <SCORE.RESTR.CAVITY>
0

>  <SCORE.RESTR.norm>
0

>  <SCORE.SYSTEM>
0

>  <SCORE.SYSTEM.CONST>
0

>  <SCORE.SYSTEM.DIHEDRAL>
0

>  <SCORE.SYSTEM.SOLV>
0

>  <SCORE.SYSTEM.norm>
0

>  <SCORE.heavy>
17

>  <SCORE.norm>
-0.619915

>  <RMSD>
15.351

$$$$
ligand
 OpenBabel11021811503D
libRbt.so/2013.1/901 2013/11/27
 17 18  0  0  0  0  0  0  0  0999 V2000
   -4.7264   -6.8281   20.3864 N   0  0  0  0  0  0  0  0  0  0  0  0
   -4.3495   -5.4801   20.4405 C   0  0  0  0  0  0  0  0  0  0  0  0
   -3.4368   -4.9580   19.4650 N   0  0  0  0  0  0  0  0  0  0  0  0
   -4.8441   -4.6346   21.4100 N   0  0  0  0  0  0  0  0  0  0  0  0
   -5.7263   -5.0903   22.3676 C   0  0  0  0  0  0  0  0  0  0  0  0
   -6.1409   -6.4590   22.3645 C   0  0  0  0  0  0  0  0  0  0  0  0
   -6.1510   -4.3295   23.2163 O   0  0  0  0  0  0  0  0  0  0  0  0
   -7.0694   -6.9800   23.3646 N   0  0  0  0  0  0  0  0  0  0  0  0
   -7.6044   -8.2857   23.2126 C   0  0  2  0  0  0  0  0  0  0  0  0
   -6.6610   -9.2594   22.4571 C   0  0  0  0  0  0  0  0  0  0  0  0
   -5.6218   -7.3169   21.3486 C   0  0  0  0  0  0  0  0  0  0  0  0
   -6.0372   -8.7316   21.3230 N   0  0  0  0  0  0  0  0  0  0  0  0
   -8.9779   -8.1607   22.5789 C   0  0  1  0  0  0  0  0  0  0  0  0
   -9.5351   -9.4078   22.3773 O   0  0  0  0  0  0  0  0  0  0  0  0
   -9.8735   -7.3189   23.4378 C   0  0  1  0  0  0  0  0  0  0  0  0
   -9.3936   -6.0717   23.5425 O   0  0  0  0  0  0  0  0  0  0  0  0
  -11.2969   -7.2383   22.8462 C   0  0  0  0  0  0  0  0  0  0  0  0
  1  2  2  0  0  0  0
  1 11  1  0  0  0  0
  2  3  1  0  0  0  0
  2  4  1  0  0  0  0
  4  5  1  0  0  0  0
  5  6  1  0  0  0  0
  5  7  2  0  0  0  0
  6  8  1  0  0  0  0
  6 11  2  0  0  0  0
  9  8  1  6  0  0  0
  9 10  1  0  0  0  0
  9 13  1  0  0  0  0
 10 12  1  0  0  0  0
 11 12  1  0  0  0  0
 13 14  1  1  0  0  0
 13 15  1  0  0  0  0
 15 16  1  6  0  0  0
 15 17  1  0  0  0  0
M  END
>  <CHROM.1>
178.57360300,62.67305324,-6.99008393,-6.86408909,22.15735125,-0.30900809
-0.48144798,-2.90137998

>  <Name>
ligand

>  <RI>
0

>  <Rbt.Current_Directory>
/home/itssahil/PROJECTS/Mol_Feturizer/New_Systems/rnas/4LVX

>  <Rbt.Executable>
rbdock ($Id: //depot/dev/client3/rdock/2013.1/src/exe/rbdock.cxx#4 $)

>  <Rbt.Library>
libRbt.so (2013.1, Build901 2013/11/27)

>  <Rbt.Parameter_File>
/export/apps/rDock/src/rDock_2013.1_src/data/scripts/dock_solv.prm

>  <Rbt.Receptor>
prm/blind_docking_40.prm

>  <SCORE>
-10.9307

>  <SCORE.INTER>
-4.28843

>  <SCORE.INTER.CONST>
1

>  <SCORE.INTER.POLAR>
0

>  <SCORE.INTER.ROT>
2

>  <SCORE.INTER.SOLV>
8.9338

>  <SCORE.INTER.VDW>
-10.7702

>  <SCORE.INTER.norm>
-0.25226

>  <SCORE.INTRA>
-6.64225

>  <SCORE.INTRA.DIHEDRAL>
-10.1436

>  <SCORE.INTRA.DIHEDRAL.0>
10.3255

>  <SCORE.INTRA.POLAR>
0

>  <SCORE.INTRA.POLAR.0>
0

>  <SCORE.INTRA.REPUL>
0

>  <SCORE.INTRA.REPUL.0>
0

>  <SCORE.INTRA.SOLV>
0.0638617

>  <SCORE.INTRA.SOLV.lig_0>
-53.4755

>  <SCORE.INTRA.VDW>
-1.60236

>  <SCORE.INTRA.VDW.0>
2.32763

>  <SCORE.INTRA.norm>
-0.39072

>  <SCORE.RESTR>
0

>  <SCORE.RESTR.CAVITY>
0

>  <SCORE.RESTR.norm>
0

>  <SCORE.SYSTEM>
0

>  <SCORE.SYSTEM.CONST>
0

>  <SCORE.SYSTEM.DIHEDRAL>
0

>  <SCORE.SYSTEM.SOLV>
0

>  <SCORE.SYSTEM.norm>
0

>  <SCORE.heavy>
17

>  <SCORE.norm>
-0.642981

>  <RMSD>
15.478

$$$$
ligand
 OpenBabel11021811503D
libRbt.so/2013.1/901 2013/11/27
 17 18  0  0  0  0  0  0  0  0999 V2000
   -7.7313  -10.2708   19.2787 N   0  0  0  0  0  0  0  0  0  0  0  0
   -7.3225  -11.5722   19.5966 C   0  0  0  0  0  0  0  0  0  0  0  0
   -7.7201  -12.6664   18.7588 N   0  0  0  0  0  0  0  0  0  0  0  0
   -6.5347  -11.8285   20.6980 N   0  0  0  0  0  0  0  0  0  0  0  0
   -6.1251  -10.8086   21.5317 C   0  0  0  0  0  0  0  0  0  0  0  0
   -6.5179   -9.4608   21.2589 C   0  0  0  0  0  0  0  0  0  0  0  0
   -5.4312  -11.0543   22.4999 O   0  0  0  0  0  0  0  0  0  0  0  0
   -6.1086   -8.3547   22.1207 N   0  0  0  0  0  0  0  0  0  0  0  0
   -6.3539   -7.0181   21.7113 C   0  0  2  0  0  0  0  0  0  0  0  0
   -7.6049   -6.8657   20.8055 C   0  0  0  0  0  0  0  0  0  0  0  0
   -7.3290   -9.2157   20.1101 C   0  0  0  0  0  0  0  0  0  0  0  0
   -7.7441   -7.8337   19.8066 N   0  0  0  0  0  0  0  0  0  0  0  0
   -5.0826   -6.4777   21.0826 C   0  0  1  0  0  0  0  0  0  0  0  0
   -4.7931   -7.1540   19.9141 O   0  0  0  0  0  0  0  0  0  0  0  0
   -5.2158   -5.0077   20.8183 C   0  0  1  0  0  0  0  0  0  0  0  0
   -5.5419   -4.3524   21.9414 O   0  0  0  0  0  0  0  0  0  0  0  0
   -3.8942   -4.4164   20.2833 C   0  0  0  0  0  0  0  0  0  0  0  0
  1  2  2  0  0  0  0
  1 11  1  0  0  0  0
  2  3  1  0  0  0  0
  2  4  1  0  0  0  0
  4  5  1  0  0  0  0
  5  6  1  0  0  0  0
  5  7  2  0  0  0  0
  6  8  1  0  0  0  0
  6 11  2  0  0  0  0
  9  8  1  6  0  0  0
  9 10  1  0  0  0  0
  9 13  1  0  0  0  0
 10 12  1  0  0  0  0
 11 12  1  0  0  0  0
 13 14  1  6  0  0  0
 13 15  1  0  0  0  0
 15 16  1  1  0  0  0
 15 17  1  0  0  0  0
M  END
>  <CHROM.1>
65.97194917,55.29067312,-6.25157373,-8.41777722,20.73250698,2.03774911,0.88646205
2.90386177

>  <Name>
ligand

>  <RI>
0

>  <Rbt.Current_Directory>
/home/itssahil/PROJECTS/Mol_Feturizer/New_Systems/rnas/4LVX

>  <Rbt.Executable>
rbdock ($Id: //depot/dev/client3/rdock/2013.1/src/exe/rbdock.cxx#4 $)

>  <Rbt.Library>
libRbt.so (2013.1, Build901 2013/11/27)

>  <Rbt.Parameter_File>
/export/apps/rDock/src/rDock_2013.1_src/data/scripts/dock_solv.prm

>  <Rbt.Receptor>
prm/blind_docking_80.prm

>  <SCORE>
-12.6664

>  <SCORE.INTER>
-5.40797

>  <SCORE.INTER.CONST>
1

>  <SCORE.INTER.POLAR>
0

>  <SCORE.INTER.ROT>
2

>  <SCORE.INTER.SOLV>
11.6378

>  <SCORE.INTER.VDW>
-12.4179

>  <SCORE.INTER.norm>
-0.318116

>  <SCORE.INTRA>
-7.2584

>  <SCORE.INTRA.DIHEDRAL>
-9.96473

>  <SCORE.INTRA.DIHEDRAL.0>
10.3255

>  <SCORE.INTRA.POLAR>
0

>  <SCORE.INTRA.POLAR.0>
0

>  <SCORE.INTRA.REPUL>
0

>  <SCORE.INTRA.REPUL.0>
0

>  <SCORE.INTRA.SOLV>
-0.135546

>  <SCORE.INTRA.SOLV.lig_0>
-53.4755

>  <SCORE.INTRA.VDW>
-2.20826

>  <SCORE.INTRA.VDW.0>
2.32763

>  <SCORE.INTRA.norm>
-0.426965

>  <SCORE.RESTR>
0

>  <SCORE.RESTR.CAVITY>
0

>  <SCORE.RESTR.norm>
0

>  <SCORE.SYSTEM>
0

>  <SCORE.SYSTEM.CONST>
0

>  <SCORE.SYSTEM.DIHEDRAL>
0

>  <SCORE.SYSTEM.SOLV>
0

>  <SCORE.SYSTEM.norm>
0

>  <SCORE.heavy>
17

>  <SCORE.norm>
-0.74508

>  <RMSD>
16.514

$$$$
ligand
 OpenBabel11021811503D
libRbt.so/2013.1/901 2013/11/27
 17 18  0  0  0  0  0  0  0  0999 V2000
   -7.5535   -9.6769   18.8912 N   0  0  0  0  0  0  0  0  0  0  0  0
   -7.2098  -11.0093   19.1531 C   0  0  0  0  0  0  0  0  0  0  0  0
   -7.0343  -11.9250   18.0632 N   0  0  0  0  0  0  0  0  0  0  0  0
   -7.0265  -11.4637   20.4412 N   0  0  0  0  0  0  0  0  0  0  0  0
   -7.1816  -10.6197   21.5213 C   0  0  0  0  0  0  0  0  0  0  0  0
   -7.5380   -9.2504   21.3135 C   0  0  0  0  0  0  0  0  0  0  0  0
   -7.0170  -11.0391   22.6511 O   0  0  0  0  0  0  0  0  0  0  0  0
   -7.7162   -8.3274   22.4316 N   0  0  0  0  0  0  0  0  0  0  0  0
   -7.8774   -6.9404   22.1777 C   0  0  2  0  0  0  0  0  0  0  0  0
   -8.5466   -6.6327   20.8116 C   0  0  0  0  0  0  0  0  0  0  0  0
   -7.7176   -8.7981   19.9715 C   0  0  0  0  0  0  0  0  0  0  0  0
   -8.0824   -7.3896   19.7320 N   0  0  0  0  0  0  0  0  0  0  0  0
   -6.5274   -6.2697   22.3546 C   0  0  1  0  0  0  0  0  0  0  0  0
   -6.6006   -4.9336   22.0142 O   0  0  0  0  0  0  0  0  0  0  0  0
   -6.0492   -6.4254   23.7673 C   0  0  1  0  0  0  0  0  0  0  0  0
   -4.7959   -5.9675   23.8960 O   0  0  0  0  0  0  0  0  0  0  0  0
   -6.9492   -5.6449   24.7488 C   0  0  0  0  0  0  0  0  0  0  0  0
  1  2  2  0  0  0  0
  1 11  1  0  0  0  0
  2  3  1  0  0  0  0
  2  4  1  0  0  0  0
  4  5  1  0  0  0  0
  5  6  1  0  0  0  0
  5  7  2  0  0  0  0
  6  8  1  0  0  0  0
  6 11  2  0  0  0  0
  9  8  1  6  0  0  0
  9 10  1  0  0  0  0
  9 13  1  0  0  0  0
 10 12  1  0  0  0  0
 11 12  1  0  0  0  0
 13 14  1  1  0  0  0
 13 15  1  0  0  0  0
 15 16  1  6  0  0  0
 15 17  1  0  0  0  0
M  END
>  <CHROM.1>
175.14484675,173.14667481,-7.11108901,-8.30258972,21.47386309,1.95365933
1.19726940,-2.86286853

>  <Name>
ligand

>  <RI>
0

>  <Rbt.Current_Directory>
/home/itssahil/PROJECTS/Mol_Feturizer/New_Systems/rnas/4LVX

>  <Rbt.Executable>
rbdock ($Id: //depot/dev/client3/rdock/2013.1/src/exe/rbdock.cxx#4 $)

>  <Rbt.Library>
libRbt.so (2013.1, Build901 2013/11/27)

>  <Rbt.Parameter_File>
/export/apps/rDock/src/rDock_2013.1_src/data/scripts/dock_solv.prm

>  <Rbt.Receptor>
prm/blind_docking_40.prm

>  <SCORE>
-11.1831

>  <SCORE.INTER>
-4.64853

>  <SCORE.INTER.CONST>
1

>  <SCORE.INTER.POLAR>
0

>  <SCORE.INTER.ROT>
2

>  <SCORE.INTER.SOLV>
10.338

>  <SCORE.INTER.VDW>
-11.4784

>  <SCORE.INTER.norm>
-0.273443

>  <SCORE.INTRA>
-6.53453

>  <SCORE.INTRA.DIHEDRAL>
-9.90542

>  <SCORE.INTRA.DIHEDRAL.0>
10.3255

>  <SCORE.INTRA.POLAR>
0

>  <SCORE.INTRA.POLAR.0>
0

>  <SCORE.INTRA.REPUL>
0

>  <SCORE.INTRA.REPUL.0>
0

>  <SCORE.INTRA.SOLV>
-0.55225

>  <SCORE.INTRA.SOLV.lig_0>
-53.4755

>  <SCORE.INTRA.VDW>
-1.3057

>  <SCORE.INTRA.VDW.0>
2.32763

>  <SCORE.INTRA.norm>
-0.384384

>  <SCORE.RESTR>
0

>  <SCORE.RESTR.CAVITY>
0

>  <SCORE.RESTR.norm>
0

>  <SCORE.SYSTEM>
0

>  <SCORE.SYSTEM.CONST>
0

>  <SCORE.SYSTEM.DIHEDRAL>
0

>  <SCORE.SYSTEM.SOLV>
0

>  <SCORE.SYSTEM.norm>
0

>  <SCORE.heavy>
17

>  <SCORE.norm>
-0.657827

>  <RMSD>
16.858

$$$$
ligand
 OpenBabel11021811503D
libRbt.so/2013.1/901 2013/11/27
 17 18  0  0  0  0  0  0  0  0999 V2000
   -8.0452   -9.0954   19.2907 N   0  0  0  0  0  0  0  0  0  0  0  0
   -8.4999  -10.4109   19.1336 C   0  0  0  0  0  0  0  0  0  0  0  0
   -8.2874  -11.0922   17.8895 N   0  0  0  0  0  0  0  0  0  0  0  0
   -9.1438  -11.0749   20.1554 N   0  0  0  0  0  0  0  0  0  0  0  0
   -9.3685  -10.4620   21.3706 C   0  0  0  0  0  0  0  0  0  0  0  0
   -8.9314   -9.1173   21.5850 C   0  0  0  0  0  0  0  0  0  0  0  0
   -9.9398  -11.0634   22.2602 O   0  0  0  0  0  0  0  0  0  0  0  0
   -9.1554   -8.4327   22.8558 N   0  0  0  0  0  0  0  0  0  0  0  0
   -8.5391   -7.1768   23.0945 C   0  0  2  0  0  0  0  0  0  0  0  0
   -8.3006   -6.3468   21.8050 C   0  0  0  0  0  0  0  0  0  0  0  0
   -8.2614   -8.4491   20.5162 C   0  0  0  0  0  0  0  0  0  0  0  0
   -7.7986   -7.0631   20.7146 N   0  0  0  0  0  0  0  0  0  0  0  0
   -7.2760   -7.4181   23.9007 C   0  0  1  0  0  0  0  0  0  0  0  0
   -6.2264   -7.7558   23.0695 O   0  0  0  0  0  0  0  0  0  0  0  0
   -6.9339   -6.2029   24.7099 C   0  0  1  0  0  0  0  0  0  0  0  0
   -6.0286   -6.5012   25.6524 O   0  0  0  0  0  0  0  0  0  0  0  0
   -6.3495   -5.0868   23.8181 C   0  0  0  0  0  0  0  0  0  0  0  0
  1  2  2  0  0  0  0
  1 11  1  0  0  0  0
  2  3  1  0  0  0  0
  2  4  1  0  0  0  0
  4  5  1  0  0  0  0
  5  6  1  0  0  0  0
  5  7  2  0  0  0  0
  6  8  1  0  0  0  0
  6 11  2  0  0  0  0
  9  8  1  6  0  0  0
  9 10  1  0  0  0  0
  9 13  1  0  0  0  0
 10 12  1  0  0  0  0
 11 12  1  0  0  0  0
 13 14  1  6  0  0  0
 13 15  1  0  0  0  0
 15 16  1  1  0  0  0
 15 17  1  0  0  0  0
M  END
>  <CHROM.1>
83.76465474,165.20402578,-8.02153123,-8.36061821,21.94198545,-2.23006390
1.01633979,1.40939692

>  <Name>
ligand

>  <RI>
0

>  <Rbt.Current_Directory>
/home/itssahil/PROJECTS/Mol_Feturizer/New_Systems/rnas/4LVX

>  <Rbt.Executable>
rbdock ($Id: //depot/dev/client3/rdock/2013.1/src/exe/rbdock.cxx#4 $)

>  <Rbt.Library>
libRbt.so (2013.1, Build901 2013/11/27)

>  <Rbt.Parameter_File>
/export/apps/rDock/src/rDock_2013.1_src/data/scripts/dock_solv.prm

>  <Rbt.Receptor>
prm/blind_docking_80.prm

>  <SCORE>
-9.48934

>  <SCORE.INTER>
-5.2629

>  <SCORE.INTER.CONST>
1

>  <SCORE.INTER.POLAR>
0

>  <SCORE.INTER.ROT>
2

>  <SCORE.INTER.SOLV>
9.23424

>  <SCORE.INTER.VDW>
-11.52

>  <SCORE.INTER.norm>
-0.309582

>  <SCORE.INTRA>
-4.22645

>  <SCORE.INTRA.DIHEDRAL>
-7.65731

>  <SCORE.INTRA.DIHEDRAL.0>
10.3255

>  <SCORE.INTRA.POLAR>
0

>  <SCORE.INTRA.POLAR.0>
0

>  <SCORE.INTRA.REPUL>
0

>  <SCORE.INTRA.REPUL.0>
0

>  <SCORE.INTRA.SOLV>
-0.00468127

>  <SCORE.INTRA.SOLV.lig_0>
-53.4755

>  <SCORE.INTRA.VDW>
-0.39545

>  <SCORE.INTRA.VDW.0>
2.32763

>  <SCORE.INTRA.norm>
-0.248614

>  <SCORE.RESTR>
0

>  <SCORE.RESTR.CAVITY>
0

>  <SCORE.RESTR.norm>
0

>  <SCORE.SYSTEM>
0

>  <SCORE.SYSTEM.CONST>
0

>  <SCORE.SYSTEM.DIHEDRAL>
0

>  <SCORE.SYSTEM.SOLV>
0

>  <SCORE.SYSTEM.norm>
0

>  <SCORE.heavy>
17

>  <SCORE.norm>
-0.558197

>  <RMSD>
17.270

$$$$
ligand
 OpenBabel11021811503D
libRbt.so/2013.1/901 2013/11/27
 17 18  0  0  0  0  0  0  0  0999 V2000
   -7.6263   -9.9957   19.5572 N   0  0  0  0  0  0  0  0  0  0  0  0
   -7.2854  -11.3543   19.5489 C   0  0  0  0  0  0  0  0  0  0  0  0
   -7.0249  -12.0138   18.3022 N   0  0  0  0  0  0  0  0  0  0  0  0
   -7.1851  -12.0766   20.7184 N   0  0  0  0  0  0  0  0  0  0  0  0
   -7.4237  -11.4852   21.9416 C   0  0  0  0  0  0  0  0  0  0  0  0
   -7.7815  -10.1022   22.0096 C   0  0  0  0  0  0  0  0  0  0  0  0
   -7.3317  -12.1391   22.9631 O   0  0  0  0  0  0  0  0  0  0  0  0
   -8.0467   -9.4418   23.2852 N   0  0  0  0  0  0  0  0  0  0  0  0
   -8.2066   -8.0321   23.3258 C   0  0  2  0  0  0  0  0  0  0  0  0
   -8.7846   -7.4347   22.0151 C   0  0  0  0  0  0  0  0  0  0  0  0
   -7.8743   -9.3703   20.7875 C   0  0  0  0  0  0  0  0  0  0  0  0
   -8.2387   -7.9422   20.8325 N   0  0  0  0  0  0  0  0  0  0  0  0
   -6.8800   -7.4196   23.7362 C   0  0  1  0  0  0  0  0  0  0  0  0
   -5.9215   -7.6432   22.7679 O   0  0  0  0  0  0  0  0  0  0  0  0
   -7.0397   -5.9497   23.9862 C   0  0  1  0  0  0  0  0  0  0  0  0
   -8.0729   -5.7189   24.8085 O   0  0  0  0  0  0  0  0  0  0  0  0
   -5.7700   -5.3536   24.6306 C   0  0  0  0  0  0  0  0  0  0  0  0
  1  2  2  0  0  0  0
  1 11  1  0  0  0  0
  2  3  1  0  0  0  0
  2  4  1  0  0  0  0
  4  5  1  0  0  0  0
  5  6  1  0  0  0  0
  5  7  2  0  0  0  0
  6  8  1  0  0  0  0
  6 11  2  0  0  0  0
  9  8  1  6  0  0  0
  9 10  1  0  0  0  0
  9 13  1  0  0  0  0
 10 12  1  0  0  0  0
 11 12  1  0  0  0  0
 13 14  1  6  0  0  0
 13 15  1  0  0  0  0
 15 16  1  1  0  0  0
 15 17  1  0  0  0  0
M  END
>  <CHROM.1>
65.55947928,50.23676677,-7.42079647,-8.96921352,22.13328085,1.91440922,1.45041129
-2.84346366

>  <Name>
ligand

>  <RI>
0

>  <Rbt.Current_Directory>
/home/itssahil/PROJECTS/Mol_Feturizer/New_Systems/rnas/4LVX

>  <Rbt.Executable>
rbdock ($Id: //depot/dev/client3/rdock/2013.1/src/exe/rbdock.cxx#4 $)

>  <Rbt.Library>
libRbt.so (2013.1, Build901 2013/11/27)

>  <Rbt.Parameter_File>
/export/apps/rDock/src/rDock_2013.1_src/data/scripts/dock_solv.prm

>  <Rbt.Receptor>
prm/blind_docking_40.prm

>  <SCORE>
-11.8497

>  <SCORE.INTER>
-4.71076

>  <SCORE.INTER.CONST>
1

>  <SCORE.INTER.POLAR>
0

>  <SCORE.INTER.ROT>
2

>  <SCORE.INTER.SOLV>
11.0346

>  <SCORE.INTER.VDW>
-11.752

>  <SCORE.INTER.norm>
-0.277104

>  <SCORE.INTRA>
-7.13898

>  <SCORE.INTRA.DIHEDRAL>
-9.71106

>  <SCORE.INTRA.DIHEDRAL.0>
10.3255

>  <SCORE.INTRA.POLAR>
0

>  <SCORE.INTRA.POLAR.0>
0

>  <SCORE.INTRA.REPUL>
0

>  <SCORE.INTRA.REPUL.0>
0

>  <SCORE.INTRA.SOLV>
-0.106772

>  <SCORE.INTRA.SOLV.lig_0>
-53.4755

>  <SCORE.INTRA.VDW>
-2.23007

>  <SCORE.INTRA.VDW.0>
2.32763

>  <SCORE.INTRA.norm>
-0.41994

>  <SCORE.RESTR>
0

>  <SCORE.RESTR.CAVITY>
0

>  <SCORE.RESTR.norm>
0

>  <SCORE.SYSTEM>
0

>  <SCORE.SYSTEM.CONST>
0

>  <SCORE.SYSTEM.DIHEDRAL>
0

>  <SCORE.SYSTEM.SOLV>
0

>  <SCORE.SYSTEM.norm>
0

>  <SCORE.heavy>
17

>  <SCORE.norm>
-0.697044

>  <RMSD>
17.558

$$$$
ligand
 OpenBabel11021811503D
libRbt.so/2013.1/901 2013/11/27
 17 18  0  0  0  0  0  0  0  0999 V2000
  -10.2189  -10.7784   21.0324 N   0  0  0  0  0  0  0  0  0  0  0  0
   -9.7890  -11.8030   20.1796 C   0  0  0  0  0  0  0  0  0  0  0  0
  -10.7462  -12.5077   19.3768 N   0  0  0  0  0  0  0  0  0  0  0  0
   -8.4580  -12.1479   20.0856 N   0  0  0  0  0  0  0  0  0  0  0  0
   -7.5005  -11.4971   20.8357 C   0  0  0  0  0  0  0  0  0  0  0  0
   -7.8832  -10.4470   21.7280 C   0  0  0  0  0  0  0  0  0  0  0  0
   -6.3307  -11.8163   20.7405 O   0  0  0  0  0  0  0  0  0  0  0  0
   -6.8995   -9.7378   22.5424 N   0  0  0  0  0  0  0  0  0  0  0  0
   -7.2899   -8.5801   23.2645 C   0  0  2  0  0  0  0  0  0  0  0  0
   -8.7813   -8.5894   23.6938 C   0  0  0  0  0  0  0  0  0  0  0  0
   -9.2658  -10.1010   21.8064 C   0  0  0  0  0  0  0  0  0  0  0  0
   -9.6842   -9.0193   22.7171 N   0  0  0  0  0  0  0  0  0  0  0  0
   -6.9039   -7.3621   22.4454 C   0  0  1  0  0  0  0  0  0  0  0  0
   -7.7178   -7.2449   21.3362 O   0  0  0  0  0  0  0  0  0  0  0  0
   -6.9813   -6.1227   23.2859 C   0  0  1  0  0  0  0  0  0  0  0  0
   -6.2813   -6.2746   24.4190 O   0  0  0  0  0  0  0  0  0  0  0  0
   -6.4144   -4.9017   22.5307 C   0  0  0  0  0  0  0  0  0  0  0  0
  1  2  2  0  0  0  0
  1 11  1  0  0  0  0
  2  3  1  0  0  0  0
  2  4  1  0  0  0  0
  4  5  1  0  0  0  0
  5  6  1  0  0  0  0
  5  7  2  0  0  0  0
  6  8  1  0  0  0  0
  6 11  2  0  0  0  0
  9  8  1  6  0  0  0
  9 10  1  0  0  0  0
  9 13  1  0  0  0  0
 10 12  1  0  0  0  0
 11 12  1  0  0  0  0
 13 14  1  6  0  0  0
 13 15  1  0  0  0  0
 15 16  1  1  0  0  0
 15 17  1  0  0  0  0
M  END
>  <CHROM.1>
71.22987277,52.24399905,-8.02154663,-9.27647607,21.90504083,1.93477347,0.03333594
-2.67141097

>  <Name>
ligand

>  <RI>
0

>  <Rbt.Current_Directory>
/home/itssahil/PROJECTS/Mol_Feturizer/New_Systems/rnas/4LVX

>  <Rbt.Executable>
rbdock ($Id: //depot/dev/client3/rdock/2013.1/src/exe/rbdock.cxx#4 $)

>  <Rbt.Library>
libRbt.so (2013.1, Build901 2013/11/27)

>  <Rbt.Parameter_File>
/export/apps/rDock/src/rDock_2013.1_src/data/scripts/dock_solv.prm

>  <Rbt.Receptor>
prm/blind_docking_80.prm

>  <SCORE>
-10.048

>  <SCORE.INTER>
-2.91443

>  <SCORE.INTER.CONST>
1

>  <SCORE.INTER.POLAR>
0

>  <SCORE.INTER.ROT>
2

>  <SCORE.INTER.SOLV>
7.60863

>  <SCORE.INTER.VDW>
-9.4125

>  <SCORE.INTER.norm>
-0.171437

>  <SCORE.INTRA>
-7.13359

>  <SCORE.INTRA.DIHEDRAL>
-9.52006

>  <SCORE.INTRA.DIHEDRAL.0>
10.3255

>  <SCORE.INTRA.POLAR>
0

>  <SCORE.INTRA.POLAR.0>
0

>  <SCORE.INTRA.REPUL>
0

>  <SCORE.INTRA.REPUL.0>
0

>  <SCORE.INTRA.SOLV>
-0.146695

>  <SCORE.INTRA.SOLV.lig_0>
-53.4755

>  <SCORE.INTRA.VDW>
-2.30021

>  <SCORE.INTRA.VDW.0>
2.32763

>  <SCORE.INTRA.norm>
-0.419623

>  <SCORE.RESTR>
0

>  <SCORE.RESTR.CAVITY>
0

>  <SCORE.RESTR.norm>
0

>  <SCORE.SYSTEM>
0

>  <SCORE.SYSTEM.CONST>
0

>  <SCORE.SYSTEM.DIHEDRAL>
0

>  <SCORE.SYSTEM.SOLV>
0

>  <SCORE.SYSTEM.norm>
0

>  <SCORE.heavy>
17

>  <SCORE.norm>
-0.59106

>  <RMSD>
17.980

$$$$
ligand
 OpenBabel11021811503D
libRbt.so/2013.1/901 2013/11/27
 17 18  0  0  0  0  0  0  0  0999 V2000
   -8.2532  -12.7118   20.8776 N   0  0  0  0  0  0  0  0  0  0  0  0
   -8.9701  -12.9424   19.6966 C   0  0  0  0  0  0  0  0  0  0  0  0
   -9.6274  -14.2019   19.4990 N   0  0  0  0  0  0  0  0  0  0  0  0
   -9.0675  -11.9790   18.7160 N   0  0  0  0  0  0  0  0  0  0  0  0
   -8.4548  -10.7517   18.8621 C   0  0  0  0  0  0  0  0  0  0  0  0
   -7.7043  -10.4635   20.0449 C   0  0  0  0  0  0  0  0  0  0  0  0
   -8.5507   -9.9143   17.9852 O   0  0  0  0  0  0  0  0  0  0  0  0
   -7.0373   -9.1778   20.2341 N   0  0  0  0  0  0  0  0  0  0  0  0
   -6.4698   -8.8606   21.4957 C   0  0  2  0  0  0  0  0  0  0  0  0
   -5.9846  -10.1034   22.2887 C   0  0  0  0  0  0  0  0  0  0  0  0
   -7.6204  -11.4726   21.0511 C   0  0  0  0  0  0  0  0  0  0  0  0
   -6.8546  -11.1975   22.2809 N   0  0  0  0  0  0  0  0  0  0  0  0
   -7.4666   -8.0075   22.2589 C   0  0  1  0  0  0  0  0  0  0  0  0
   -7.0072   -7.7482   23.5349 O   0  0  0  0  0  0  0  0  0  0  0  0
   -7.7258   -6.7261   21.5245 C   0  0  1  0  0  0  0  0  0  0  0  0
   -8.2863   -6.9693   20.3313 O   0  0  0  0  0  0  0  0  0  0  0  0
   -8.6758   -5.8090   22.3238 C   0  0  0  0  0  0  0  0  0  0  0  0
  1  2  2  0  0  0  0
  1 11  1  0  0  0  0
  2  3  1  0  0  0  0
  2  4  1  0  0  0  0
  4  5  1  0  0  0  0
  5  6  1  0  0  0  0
  5  7  2  0  0  0  0
  6  8  1  0  0  0  0
  6 11  2  0  0  0  0
  9  8  1  6  0  0  0
  9 10  1  0  0  0  0
  9 13  1  0  0  0  0
 10 12  1  0  0  0  0
 11 12  1  0  0  0  0
 13 14  1  1  0  0  0
 13 15  1  0  0  0  0
 15 16  1  6  0  0  0
 15 17  1  0  0  0  0
M  END
>  <CHROM.1>
175.67519850,63.03662280,-7.87076253,-9.85735089,20.78465990,-1.99421065
-1.07588910,0.06353544

>  <Name>
ligand

>  <RI>
0

>  <Rbt.Current_Directory>
/home/itssahil/PROJECTS/Mol_Feturizer/New_Systems/rnas/4LVX

>  <Rbt.Executable>
rbdock ($Id: //depot/dev/client3/rdock/2013.1/src/exe/rbdock.cxx#4 $)

>  <Rbt.Library>
libRbt.so (2013.1, Build901 2013/11/27)

>  <Rbt.Parameter_File>
/export/apps/rDock/src/rDock_2013.1_src/data/scripts/dock_solv.prm

>  <Rbt.Receptor>
prm/blind_docking_40.prm

>  <SCORE>
-10.5746

>  <SCORE.INTER>
-3.84983

>  <SCORE.INTER.CONST>
1

>  <SCORE.INTER.POLAR>
0

>  <SCORE.INTER.ROT>
2

>  <SCORE.INTER.SOLV>
7.76204

>  <SCORE.INTER.VDW>
-10.0872

>  <SCORE.INTER.norm>
-0.226461

>  <SCORE.INTRA>
-6.72472

>  <SCORE.INTRA.DIHEDRAL>
-10.0762

>  <SCORE.INTRA.DIHEDRAL.0>
10.3255

>  <SCORE.INTRA.POLAR>
0

>  <SCORE.INTRA.POLAR.0>
0

>  <SCORE.INTRA.REPUL>
0

>  <SCORE.INTRA.REPUL.0>
0

>  <SCORE.INTRA.SOLV>
0.0225194

>  <SCORE.INTRA.SOLV.lig_0>
-53.4755

>  <SCORE.INTRA.VDW>
-1.69789

>  <SCORE.INTRA.VDW.0>
2.32763

>  <SCORE.INTRA.norm>
-0.395572

>  <SCORE.RESTR>
0

>  <SCORE.RESTR.CAVITY>
0

>  <SCORE.RESTR.norm>
0

>  <SCORE.SYSTEM>
0

>  <SCORE.SYSTEM.CONST>
0

>  <SCORE.SYSTEM.DIHEDRAL>
0

>  <SCORE.SYSTEM.SOLV>
0

>  <SCORE.SYSTEM.norm>
0

>  <SCORE.heavy>
17

>  <SCORE.norm>
-0.622032

>  <RMSD>
18.556

$$$$
ligand
 OpenBabel11021811503D
libRbt.so/2013.1/901 2013/11/27
 17 18  0  0  0  0  0  0  0  0999 V2000
   -5.4535  -18.9959   35.9508 N   0  0  0  0  0  0  0  0  0  0  0  0
   -4.1732  -18.5829   36.3411 C   0  0  0  0  0  0  0  0  0  0  0  0
   -3.9958  -17.2939   36.9446 N   0  0  0  0  0  0  0  0  0  0  0  0
   -3.0726  -19.3938   36.1661 N   0  0  0  0  0  0  0  0  0  0  0  0
   -3.1940  -20.6426   35.5928 C   0  0  0  0  0  0  0  0  0  0  0  0
   -4.4763  -21.1136   35.1696 C   0  0  0  0  0  0  0  0  0  0  0  0
   -2.2110  -21.3437   35.4452 O   0  0  0  0  0  0  0  0  0  0  0  0
   -4.6444  -22.4276   34.5541 N   0  0  0  0  0  0  0  0  0  0  0  0
   -5.9506  -22.9346   34.3277 C   0  0  2  0  0  0  0  0  0  0  0  0
   -7.0122  -21.8291   34.0840 C   0  0  0  0  0  0  0  0  0  0  0  0
   -5.6044  -20.2610   35.3651 C   0  0  0  0  0  0  0  0  0  0  0  0
   -6.9374  -20.7261   34.9395 N   0  0  0  0  0  0  0  0  0  0  0  0
   -6.2992  -23.8658   35.4744 C   0  0  1  0  0  0  0  0  0  0  0  0
   -7.4685  -24.5494   35.2066 O   0  0  0  0  0  0  0  0  0  0  0  0
   -5.1758  -24.8267   35.7256 C   0  0  1  0  0  0  0  0  0  0  0  0
   -5.4245  -25.5724   36.8114 O   0  0  0  0  0  0  0  0  0  0  0  0
   -4.9771  -25.7766   34.5253 C   0  0  0  0  0  0  0  0  0  0  0  0
  1  2  2  0  0  0  0
  1 11  1  0  0  0  0
  2  3  1  0  0  0  0
  2  4  1  0  0  0  0
  4  5  1  0  0  0  0
  5  6  1  0  0  0  0
  5  7  2  0  0  0  0
  6  8  1  0  0  0  0
  6 11  2  0  0  0  0
  9  8  1  1  0  0  0
  9 10  1  0  0  0  0
  9 13  1  0  0  0  0
 10 12  1  0  0  0  0
 11 12  1  0  0  0  0
 13 14  1  6  0  0  0
 13 15  1  0  0  0  0
 15 16  1  1  0  0  0
 15 17  1  0  0  0  0
M  END
>  <CHROM.1>
-170.64700134,174.46965653,-5.07649751,-21.87128038,35.45150229,1.25232525
-0.23152615,0.06046527

>  <Name>
ligand

>  <RI>
0

>  <Rbt.Current_Directory>
/home/itssahil/PROJECTS/Mol_Feturizer/New_Systems/rnas/4LVX

>  <Rbt.Executable>
rbdock ($Id: //depot/dev/client3/rdock/2013.1/src/exe/rbdock.cxx#4 $)

>  <Rbt.Library>
libRbt.so (2013.1, Build901 2013/11/27)

>  <Rbt.Parameter_File>
/export/apps/rDock/src/rDock_2013.1_src/data/scripts/dock_solv.prm

>  <Rbt.Receptor>
prm/blind_docking_80.prm

>  <SCORE>
-13.8308

>  <SCORE.INTER>
-7.52958

>  <SCORE.INTER.CONST>
1

>  <SCORE.INTER.POLAR>
0

>  <SCORE.INTER.ROT>
2

>  <SCORE.INTER.SOLV>
11.4401

>  <SCORE.INTER.VDW>
-13.7664

>  <SCORE.INTER.norm>
-0.442917

>  <SCORE.INTRA>
-6.30122

>  <SCORE.INTRA.DIHEDRAL>
-9.75816

>  <SCORE.INTRA.DIHEDRAL.0>
10.3255

>  <SCORE.INTRA.POLAR>
0

>  <SCORE.INTRA.POLAR.0>
0

>  <SCORE.INTRA.REPUL>
0

>  <SCORE.INTRA.REPUL.0>
0

>  <SCORE.INTRA.SOLV>
-0.434945

>  <SCORE.INTRA.SOLV.lig_0>
-53.4755

>  <SCORE.INTRA.VDW>
-1.20466

>  <SCORE.INTRA.VDW.0>
2.32763

>  <SCORE.INTRA.norm>
-0.37066

>  <SCORE.RESTR>
0

>  <SCORE.RESTR.CAVITY>
0

>  <SCORE.RESTR.norm>
0

>  <SCORE.SYSTEM>
0

>  <SCORE.SYSTEM.CONST>
0

>  <SCORE.SYSTEM.DIHEDRAL>
0

>  <SCORE.SYSTEM.SOLV>
0

>  <SCORE.SYSTEM.norm>
0

>  <SCORE.heavy>
17

>  <SCORE.norm>
-0.813576

>  <RMSD>
31.200

$$$$
ligand
 OpenBabel11021811503D
libRbt.so/2013.1/901 2013/11/27
 17 18  0  0  0  0  0  0  0  0999 V2000
   -5.8610  -19.5628   35.8773 N   0  0  0  0  0  0  0  0  0  0  0  0
   -4.6637  -19.1530   36.4778 C   0  0  0  0  0  0  0  0  0  0  0  0
   -4.6284  -17.9337   37.2322 N   0  0  0  0  0  0  0  0  0  0  0  0
   -3.5122  -19.9022   36.3680 N   0  0  0  0  0  0  0  0  0  0  0  0
   -3.4978  -21.0831   35.6552 C   0  0  0  0  0  0  0  0  0  0  0  0
   -4.6901  -21.5469   35.0158 C   0  0  0  0  0  0  0  0  0  0  0  0
   -2.4716  -21.7301   35.5681 O   0  0  0  0  0  0  0  0  0  0  0  0
   -4.7135  -22.7894   34.2481 N   0  0  0  0  0  0  0  0  0  0  0  0
   -5.9532  -23.3116   33.7957 C   0  0  2  0  0  0  0  0  0  0  0  0
   -7.0258  -22.2220   33.5292 C   0  0  0  0  0  0  0  0  0  0  0  0
   -5.8736  -20.7595   35.1464 C   0  0  0  0  0  0  0  0  0  0  0  0
   -7.1160  -21.2189   34.4986 N   0  0  0  0  0  0  0  0  0  0  0  0
   -6.4032  -24.3754   34.7804 C   0  0  1  0  0  0  0  0  0  0  0  0
   -7.7138  -24.7369   34.5394 O   0  0  0  0  0  0  0  0  0  0  0  0
   -5.5054  -25.5737   34.6996 C   0  0  1  0  0  0  0  0  0  0  0  0
   -5.2214  -25.8672   33.4228 O   0  0  0  0  0  0  0  0  0  0  0  0
   -4.1758  -25.3240   35.4427 C   0  0  0  0  0  0  0  0  0  0  0  0
  1  2  2  0  0  0  0
  1 11  1  0  0  0  0
  2  3  1  0  0  0  0
  2  4  1  0  0  0  0
  4  5  1  0  0  0  0
  5  6  1  0  0  0  0
  5  7  2  0  0  0  0
  6  8  1  0  0  0  0
  6 11  2  0  0  0  0
  9  8  1  1  0  0  0
  9 10  1  0  0  0  0
  9 13  1  0  0  0  0
 10 12  1  0  0  0  0
 11 12  1  0  0  0  0
 13 14  1  6  0  0  0
 13 15  1  0  0  0  0
 15 16  1  6  0  0  0
 15 17  1  0  0  0  0
M  END
>  <CHROM.1>
168.48358377,-42.18169414,-5.23962010,-22.26922520,35.05461289,1.32151067
-0.29413162,0.27593882

>  <Name>
ligand

>  <RI>
0

>  <Rbt.Current_Directory>
/home/itssahil/PROJECTS/Mol_Feturizer/New_Systems/rnas/4LVX

>  <Rbt.Executable>
rbdock ($Id: //depot/dev/client3/rdock/2013.1/src/exe/rbdock.cxx#4 $)

>  <Rbt.Library>
libRbt.so (2013.1, Build901 2013/11/27)

>  <Rbt.Parameter_File>
/export/apps/rDock/src/rDock_2013.1_src/data/scripts/dock_solv.prm

>  <Rbt.Receptor>
prm/blind_docking_80.prm

>  <SCORE>
-14.2634

>  <SCORE.INTER>
-8.73642

>  <SCORE.INTER.CONST>
1

>  <SCORE.INTER.POLAR>
0

>  <SCORE.INTER.ROT>
2

>  <SCORE.INTER.SOLV>
9.40618

>  <SCORE.INTER.VDW>
-13.893

>  <SCORE.INTER.norm>
-0.513907

>  <SCORE.INTRA>
-5.52696

>  <SCORE.INTRA.DIHEDRAL>
-8.65307

>  <SCORE.INTRA.DIHEDRAL.0>
10.3255

>  <SCORE.INTRA.POLAR>
0

>  <SCORE.INTRA.POLAR.0>
0

>  <SCORE.INTRA.REPUL>
0

>  <SCORE.INTRA.REPUL.0>
0

>  <SCORE.INTRA.SOLV>
0.359393

>  <SCORE.INTRA.SOLV.lig_0>
-53.4755

>  <SCORE.INTRA.VDW>
-1.38012

>  <SCORE.INTRA.VDW.0>
2.32763

>  <SCORE.INTRA.norm>
-0.325115

>  <SCORE.RESTR>
0

>  <SCORE.RESTR.CAVITY>
0

>  <SCORE.RESTR.norm>
0

>  <SCORE.SYSTEM>
0

>  <SCORE.SYSTEM.CONST>
0

>  <SCORE.SYSTEM.DIHEDRAL>
0

>  <SCORE.SYSTEM.SOLV>
0

>  <SCORE.SYSTEM.norm>
0

>  <SCORE.heavy>
17

>  <SCORE.norm>
-0.839022

>  <RMSD>
31.399

$$$$
ligand
 OpenBabel11021811503D
libRbt.so/2013.1/901 2013/11/27
 17 18  0  0  0  0  0  0  0  0999 V2000
   -5.4859  -19.5727   36.0467 N   0  0  0  0  0  0  0  0  0  0  0  0
   -4.2989  -19.0341   36.5595 C   0  0  0  0  0  0  0  0  0  0  0  0
   -4.3327  -17.7885   37.2698 N   0  0  0  0  0  0  0  0  0  0  0  0
   -3.0915  -19.6802   36.4046 N   0  0  0  0  0  0  0  0  0  0  0  0
   -3.0095  -20.8815   35.7315 C   0  0  0  0  0  0  0  0  0  0  0  0
   -4.1888  -21.4749   35.1815 C   0  0  0  0  0  0  0  0  0  0  0  0
   -1.9347  -21.4364   35.6036 O   0  0  0  0  0  0  0  0  0  0  0  0
   -4.1417  -22.7431   34.4580 N   0  0  0  0  0  0  0  0  0  0  0  0
   -5.3521  -23.3916   34.0993 C   0  0  2  0  0  0  0  0  0  0  0  0
   -6.5341  -22.4141   33.8628 C   0  0  0  0  0  0  0  0  0  0  0  0
   -5.4302  -20.7928   35.3578 C   0  0  0  0  0  0  0  0  0  0  0  0
   -6.6603  -21.3867   34.8023 N   0  0  0  0  0  0  0  0  0  0  0  0
   -5.6447  -24.4530   35.1441 C   0  0  1  0  0  0  0  0  0  0  0  0
   -6.1872  -23.8818   36.2780 O   0  0  0  0  0  0  0  0  0  0  0  0
   -6.5707  -25.4922   34.5862 C   0  0  1  0  0  0  0  0  0  0  0  0
   -7.7051  -24.9289   34.1473 O   0  0  0  0  0  0  0  0  0  0  0  0
   -5.9185  -26.2426   33.4055 C   0  0  0  0  0  0  0  0  0  0  0  0
  1  2  2  0  0  0  0
  1 11  1  0  0  0  0
  2  3  1  0  0  0  0
  2  4  1  0  0  0  0
  4  5  1  0  0  0  0
  5  6  1  0  0  0  0
  5  7  2  0  0  0  0
  6  8  1  0  0  0  0
  6 11  2  0  0  0  0
  9  8  1  1  0  0  0
  9 10  1  0  0  0  0
  9 13  1  0  0  0  0
 10 12  1  0  0  0  0
 11 12  1  0  0  0  0
 13 14  1  1  0  0  0
 13 15  1  0  0  0  0
 15 16  1  6  0  0  0
 15 17  1  0  0  0  0
M  END
>  <CHROM.1>
78.94597178,-56.91654859,-5.11547428,-22.16882698,35.21803583,1.15412283
-0.04714295,0.33926555

>  <Name>
ligand

>  <RI>
0

>  <Rbt.Current_Directory>
/home/itssahil/PROJECTS/Mol_Feturizer/New_Systems/rnas/4LVX

>  <Rbt.Executable>
rbdock ($Id: //depot/dev/client3/rdock/2013.1/src/exe/rbdock.cxx#4 $)

>  <Rbt.Library>
libRbt.so (2013.1, Build901 2013/11/27)

>  <Rbt.Parameter_File>
/export/apps/rDock/src/rDock_2013.1_src/data/scripts/dock_solv.prm

>  <Rbt.Receptor>
prm/blind_docking_60.prm

>  <SCORE>
-12.2067

>  <SCORE.INTER>
-6.71151

>  <SCORE.INTER.CONST>
1

>  <SCORE.INTER.POLAR>
0

>  <SCORE.INTER.ROT>
2

>  <SCORE.INTER.SOLV>
7.77188

>  <SCORE.INTER.VDW>
-11.9983

>  <SCORE.INTER.norm>
-0.394795

>  <SCORE.INTRA>
-5.49519

>  <SCORE.INTRA.DIHEDRAL>
-8.99457

>  <SCORE.INTRA.DIHEDRAL.0>
10.3255

>  <SCORE.INTRA.POLAR>
0

>  <SCORE.INTRA.POLAR.0>
0

>  <SCORE.INTRA.REPUL>
0

>  <SCORE.INTRA.REPUL.0>
0

>  <SCORE.INTRA.SOLV>
0.452756

>  <SCORE.INTRA.SOLV.lig_0>
-53.4755

>  <SCORE.INTRA.VDW>
-1.22428

>  <SCORE.INTRA.VDW.0>
2.32763

>  <SCORE.INTRA.norm>
-0.323246

>  <SCORE.RESTR>
0

>  <SCORE.RESTR.CAVITY>
0

>  <SCORE.RESTR.norm>
0

>  <SCORE.SYSTEM>
0

>  <SCORE.SYSTEM.CONST>
0

>  <SCORE.SYSTEM.DIHEDRAL>
0

>  <SCORE.SYSTEM.SOLV>
0

>  <SCORE.SYSTEM.norm>
0

>  <SCORE.heavy>
17

>  <SCORE.norm>
-0.718041

>  <RMSD>
31.404

$$$$
ligand
 OpenBabel11021811503D
libRbt.so/2013.1/901 2013/11/27
 17 18  0  0  0  0  0  0  0  0999 V2000
   -4.6953  -24.2123   33.8651 N   0  0  0  0  0  0  0  0  0  0  0  0
   -5.7323  -24.5485   32.9855 C   0  0  0  0  0  0  0  0  0  0  0  0
   -5.7285  -25.8289   32.3392 N   0  0  0  0  0  0  0  0  0  0  0  0
   -6.7684  -23.6763   32.7302 N   0  0  0  0  0  0  0  0  0  0  0  0
   -6.8167  -22.4351   33.3302 C   0  0  0  0  0  0  0  0  0  0  0  0
   -5.7813  -22.0363   34.2325 C   0  0  0  0  0  0  0  0  0  0  0  0
   -7.7384  -21.6782   33.0915 O   0  0  0  0  0  0  0  0  0  0  0  0
   -5.7947  -20.7286   34.8833 N   0  0  0  0  0  0  0  0  0  0  0  0
   -4.8601  -20.4480   35.9139 C   0  0  2  0  0  0  0  0  0  0  0  0
   -3.5221  -21.2204   35.7660 C   0  0  0  0  0  0  0  0  0  0  0  0
   -4.7202  -22.9563   34.4880 C   0  0  0  0  0  0  0  0  0  0  0  0
   -3.6428  -22.5687   35.4172 N   0  0  0  0  0  0  0  0  0  0  0  0
   -5.5471  -20.6780   37.2476 C   0  0  1  0  0  0  0  0  0  0  0  0
   -4.7088  -20.3380   38.2907 O   0  0  0  0  0  0  0  0  0  0  0  0
   -6.8209  -19.8903   37.3204 C   0  0  1  0  0  0  0  0  0  0  0  0
   -7.4765  -20.1547   38.4594 O   0  0  0  0  0  0  0  0  0  0  0  0
   -6.5410  -18.3733   37.2679 C   0  0  0  0  0  0  0  0  0  0  0  0
  1  2  2  0  0  0  0
  1 11  1  0  0  0  0
  2  3  1  0  0  0  0
  2  4  1  0  0  0  0
  4  5  1  0  0  0  0
  5  6  1  0  0  0  0
  5  7  2  0  0  0  0
  6  8  1  0  0  0  0
  6 11  2  0  0  0  0
  9  8  1  6  0  0  0
  9 10  1  0  0  0  0
  9 13  1  0  0  0  0
 10 12  1  0  0  0  0
 11 12  1  0  0  0  0
 13 14  1  1  0  0  0
 13 15  1  0  0  0  0
 15 16  1  1  0  0  0
 15 17  1  0  0  0  0
M  END
>  <CHROM.1>
-176.19838667,176.02391184,-5.72457487,-21.80529747,35.22760698,-1.54039117
-0.39833501,0.82497255

>  <Name>
ligand

>  <RI>
0

>  <Rbt.Current_Directory>
/home/itssahil/PROJECTS/Mol_Feturizer/New_Systems/rnas/4LVX

>  <Rbt.Executable>
rbdock ($Id: //depot/dev/client3/rdock/2013.1/src/exe/rbdock.cxx#4 $)

>  <Rbt.Library>
libRbt.so (2013.1, Build901 2013/11/27)

>  <Rbt.Parameter_File>
/export/apps/rDock/src/rDock_2013.1_src/data/scripts/dock_solv.prm

>  <Rbt.Receptor>
prm/blind_docking_80.prm

>  <SCORE>
-15.1299

>  <SCORE.INTER>
-8.63001

>  <SCORE.INTER.CONST>
1

>  <SCORE.INTER.POLAR>
0

>  <SCORE.INTER.ROT>
2

>  <SCORE.INTER.SOLV>
9.14526

>  <SCORE.INTER.VDW>
-13.7351

>  <SCORE.INTER.norm>
-0.507648

>  <SCORE.INTRA>
-6.49993

>  <SCORE.INTRA.DIHEDRAL>
-10.0613

>  <SCORE.INTRA.DIHEDRAL.0>
10.3255

>  <SCORE.INTRA.POLAR>
0

>  <SCORE.INTRA.POLAR.0>
0

>  <SCORE.INTRA.REPUL>
0

>  <SCORE.INTRA.REPUL.0>
0

>  <SCORE.INTRA.SOLV>
-0.477925

>  <SCORE.INTRA.SOLV.lig_0>
-53.4755

>  <SCORE.INTRA.VDW>
-1.23033

>  <SCORE.INTRA.VDW.0>
2.32763

>  <SCORE.INTRA.norm>
-0.382349

>  <SCORE.RESTR>
0

>  <SCORE.RESTR.CAVITY>
0

>  <SCORE.RESTR.norm>
0

>  <SCORE.SYSTEM>
0

>  <SCORE.SYSTEM.CONST>
0

>  <SCORE.SYSTEM.DIHEDRAL>
0

>  <SCORE.SYSTEM.SOLV>
0

>  <SCORE.SYSTEM.norm>
0

>  <SCORE.heavy>
17

>  <SCORE.norm>
-0.889996

>  <RMSD>
31.527

$$$$
ligand
 OpenBabel11021811503D
libRbt.so/2013.1/901 2013/11/27
 17 18  0  0  0  0  0  0  0  0999 V2000
   -4.7004  -24.3284   33.9223 N   0  0  0  0  0  0  0  0  0  0  0  0
   -5.7453  -24.5588   33.0183 C   0  0  0  0  0  0  0  0  0  0  0  0
   -5.8299  -25.8177   32.3363 N   0  0  0  0  0  0  0  0  0  0  0  0
   -6.7061  -23.6019   32.7722 N   0  0  0  0  0  0  0  0  0  0  0  0
   -6.6681  -22.3772   33.4061 C   0  0  0  0  0  0  0  0  0  0  0  0
   -5.6203  -22.0849   34.3346 C   0  0  0  0  0  0  0  0  0  0  0  0
   -7.5241  -21.5445   33.1752 O   0  0  0  0  0  0  0  0  0  0  0  0
   -5.5432  -20.7981   35.0216 N   0  0  0  0  0  0  0  0  0  0  0  0
   -4.6073  -20.6192   36.0735 C   0  0  2  0  0  0  0  0  0  0  0  0
   -3.3310  -21.4894   35.9238 C   0  0  0  0  0  0  0  0  0  0  0  0
   -4.6384  -23.0914   34.5799 C   0  0  0  0  0  0  0  0  0  0  0  0
   -3.5501  -22.8142   35.5355 N   0  0  0  0  0  0  0  0  0  0  0  0
   -5.3326  -20.8306   37.3898 C   0  0  1  0  0  0  0  0  0  0  0  0
   -4.4294  -21.0064   38.4193 O   0  0  0  0  0  0  0  0  0  0  0  0
   -6.2375  -19.6703   37.6786 C   0  0  1  0  0  0  0  0  0  0  0  0
   -7.0796  -19.4609   36.6569 O   0  0  0  0  0  0  0  0  0  0  0  0
   -7.0766  -19.9218   38.9495 C   0  0  0  0  0  0  0  0  0  0  0  0
  1  2  2  0  0  0  0
  1 11  1  0  0  0  0
  2  3  1  0  0  0  0
  2  4  1  0  0  0  0
  4  5  1  0  0  0  0
  5  6  1  0  0  0  0
  5  7  2  0  0  0  0
  6  8  1  0  0  0  0
  6 11  2  0  0  0  0
  9  8  1  6  0  0  0
  9 10  1  0  0  0  0
  9 13  1  0  0  0  0
 10 12  1  0  0  0  0
 11 12  1  0  0  0  0
 13 14  1  1  0  0  0
 13 15  1  0  0  0  0
 15 16  1  6  0  0  0
 15 17  1  0  0  0  0
M  END
>  <CHROM.1>
164.79647104,54.82626904,-5.59090263,-21.94337923,35.30969953,-1.57126364
-0.49335832,0.86751455

>  <Name>
ligand

>  <RI>
0

>  <Rbt.Current_Directory>
/home/itssahil/PROJECTS/Mol_Feturizer/New_Systems/rnas/4LVX

>  <Rbt.Executable>
rbdock ($Id: //depot/dev/client3/rdock/2013.1/src/exe/rbdock.cxx#4 $)

>  <Rbt.Library>
libRbt.so (2013.1, Build901 2013/11/27)

>  <Rbt.Parameter_File>
/export/apps/rDock/src/rDock_2013.1_src/data/scripts/dock_solv.prm

>  <Rbt.Receptor>
prm/blind_docking_100.prm

>  <SCORE>
-13.9112

>  <SCORE.INTER>
-7.44586

>  <SCORE.INTER.CONST>
1

>  <SCORE.INTER.POLAR>
0

>  <SCORE.INTER.ROT>
2

>  <SCORE.INTER.SOLV>
9.11174

>  <SCORE.INTER.VDW>
-12.9345

>  <SCORE.INTER.norm>
-0.437992

>  <SCORE.INTRA>
-6.46536

>  <SCORE.INTRA.DIHEDRAL>
-9.28666

>  <SCORE.INTRA.DIHEDRAL.0>
10.3255

>  <SCORE.INTRA.POLAR>
0

>  <SCORE.INTRA.POLAR.0>
0

>  <SCORE.INTRA.REPUL>
0

>  <SCORE.INTRA.REPUL.0>
0

>  <SCORE.INTRA.SOLV>
-0.0618486

>  <SCORE.INTRA.SOLV.lig_0>
-53.4755

>  <SCORE.INTRA.VDW>
-1.79111

>  <SCORE.INTRA.VDW.0>
2.32763

>  <SCORE.INTRA.norm>
-0.380316

>  <SCORE.RESTR>
0

>  <SCORE.RESTR.CAVITY>
0

>  <SCORE.RESTR.norm>
0

>  <SCORE.SYSTEM>
0

>  <SCORE.SYSTEM.CONST>
0

>  <SCORE.SYSTEM.DIHEDRAL>
0

>  <SCORE.SYSTEM.SOLV>
0

>  <SCORE.SYSTEM.norm>
0

>  <SCORE.heavy>
17

>  <SCORE.norm>
-0.818307

>  <RMSD>
31.644

$$$$
ligand
 OpenBabel11021811503D
libRbt.so/2013.1/901 2013/11/27
 17 18  0  0  0  0  0  0  0  0999 V2000
   -6.0172  -23.8736   32.2921 N   0  0  0  0  0  0  0  0  0  0  0  0
   -5.1295  -24.9570   32.2766 C   0  0  0  0  0  0  0  0  0  0  0  0
   -4.9490  -25.7103   31.0694 N   0  0  0  0  0  0  0  0  0  0  0  0
   -4.4134  -25.3147   33.3985 N   0  0  0  0  0  0  0  0  0  0  0  0
   -4.5515  -24.6187   34.5815 C   0  0  0  0  0  0  0  0  0  0  0  0
   -5.4485  -23.5074   34.6568 C   0  0  0  0  0  0  0  0  0  0  0  0
   -3.9121  -24.9500   35.5618 O   0  0  0  0  0  0  0  0  0  0  0  0
   -5.6257  -22.7490   35.8926 N   0  0  0  0  0  0  0  0  0  0  0  0
   -6.3722  -21.5420   35.8743 C   0  0  2  0  0  0  0  0  0  0  0  0
   -7.4806  -21.5137   34.7883 C   0  0  0  0  0  0  0  0  0  0  0  0
   -6.1764  -23.1494   33.4823 C   0  0  0  0  0  0  0  0  0  0  0  0
   -7.1051  -22.0052   33.5347 N   0  0  0  0  0  0  0  0  0  0  0  0
   -5.3946  -20.3856   35.7711 C   0  0  1  0  0  0  0  0  0  0  0  0
   -4.9961  -20.2018   34.4620 O   0  0  0  0  0  0  0  0  0  0  0  0
   -6.0124  -19.1310   36.3122 C   0  0  1  0  0  0  0  0  0  0  0  0
   -7.1994  -18.9002   35.7337 O   0  0  0  0  0  0  0  0  0  0  0  0
   -6.2320  -19.2313   37.8367 C   0  0  0  0  0  0  0  0  0  0  0  0
  1  2  2  0  0  0  0
  1 11  1  0  0  0  0
  2  3  1  0  0  0  0
  2  4  1  0  0  0  0
  4  5  1  0  0  0  0
  5  6  1  0  0  0  0
  5  7  2  0  0  0  0
  6  8  1  0  0  0  0
  6 11  2  0  0  0  0
  9  8  1  6  0  0  0
  9 10  1  0  0  0  0
  9 13  1  0  0  0  0
 10 12  1  0  0  0  0
 11 12  1  0  0  0  0
 13 14  1  6  0  0  0
 13 15  1  0  0  0  0
 15 16  1  6  0  0  0
 15 17  1  0  0  0  0
M  END
>  <CHROM.1>
81.24807474,-52.61386601,-5.71083079,-22.38487190,34.60194422,1.19246295
0.94452782,-2.26883443

>  <Name>
ligand

>  <RI>
0

>  <Rbt.Current_Directory>
/home/itssahil/PROJECTS/Mol_Feturizer/New_Systems/rnas/4LVX

>  <Rbt.Executable>
rbdock ($Id: //depot/dev/client3/rdock/2013.1/src/exe/rbdock.cxx#4 $)

>  <Rbt.Library>
libRbt.so (2013.1, Build901 2013/11/27)

>  <Rbt.Parameter_File>
/export/apps/rDock/src/rDock_2013.1_src/data/scripts/dock_solv.prm

>  <Rbt.Receptor>
prm/blind_docking_60.prm

>  <SCORE>
-13.0436

>  <SCORE.INTER>
-7.59501

>  <SCORE.INTER.CONST>
1

>  <SCORE.INTER.POLAR>
0

>  <SCORE.INTER.ROT>
2

>  <SCORE.INTER.SOLV>
15.5771

>  <SCORE.INTER.VDW>
-15.189

>  <SCORE.INTER.norm>
-0.446765

>  <SCORE.INTRA>
-5.44862

>  <SCORE.INTRA.DIHEDRAL>
-8.57076

>  <SCORE.INTRA.DIHEDRAL.0>
10.3255

>  <SCORE.INTRA.POLAR>
0

>  <SCORE.INTRA.POLAR.0>
0

>  <SCORE.INTRA.REPUL>
0

>  <SCORE.INTRA.REPUL.0>
0

>  <SCORE.INTRA.SOLV>
0.417685

>  <SCORE.INTRA.SOLV.lig_0>
-53.4755

>  <SCORE.INTRA.VDW>
-1.37209

>  <SCORE.INTRA.VDW.0>
2.32763

>  <SCORE.INTRA.norm>
-0.320507

>  <SCORE.RESTR>
0

>  <SCORE.RESTR.CAVITY>
0

>  <SCORE.RESTR.norm>
0

>  <SCORE.SYSTEM>
0

>  <SCORE.SYSTEM.CONST>
0

>  <SCORE.SYSTEM.DIHEDRAL>
0

>  <SCORE.SYSTEM.SOLV>
0

>  <SCORE.SYSTEM.norm>
0

>  <SCORE.heavy>
17

>  <SCORE.norm>
-0.767272

>  <RMSD>
31.788

$$$$
ligand
 OpenBabel11021811503D
libRbt.so/2013.1/901 2013/11/27
 17 18  0  0  0  0  0  0  0  0999 V2000
   -5.9362  -24.0111   32.1585 N   0  0  0  0  0  0  0  0  0  0  0  0
   -5.0974  -25.1263   32.2803 C   0  0  0  0  0  0  0  0  0  0  0  0
   -4.7414  -25.8783   31.1120 N   0  0  0  0  0  0  0  0  0  0  0  0
   -4.5951  -25.5169   33.5027 N   0  0  0  0  0  0  0  0  0  0  0  0
   -4.9072  -24.8236   34.6537 C   0  0  0  0  0  0  0  0  0  0  0  0
   -5.7644  -23.6805   34.5897 C   0  0  0  0  0  0  0  0  0  0  0  0
   -4.4555  -25.1841   35.7240 O   0  0  0  0  0  0  0  0  0  0  0  0
   -6.1219  -22.9236   35.7868 N   0  0  0  0  0  0  0  0  0  0  0  0
   -6.8115  -21.6900   35.6572 C   0  0  2  0  0  0  0  0  0  0  0  0
   -7.7179  -21.6143   34.3996 C   0  0  0  0  0  0  0  0  0  0  0  0
   -6.2695  -23.2889   33.3134 C   0  0  0  0  0  0  0  0  0  0  0  0
   -7.1527  -22.1116   33.2218 N   0  0  0  0  0  0  0  0  0  0  0  0
   -5.7905  -20.5697   35.7352 C   0  0  1  0  0  0  0  0  0  0  0  0
   -5.0444  -20.5109   34.5749 O   0  0  0  0  0  0  0  0  0  0  0  0
   -6.4734  -19.2586   35.9864 C   0  0  1  0  0  0  0  0  0  0  0  0
   -7.1841  -19.3049   37.1220 O   0  0  0  0  0  0  0  0  0  0  0  0
   -5.4481  -18.1111   36.1073 C   0  0  0  0  0  0  0  0  0  0  0  0
  1  2  2  0  0  0  0
  1 11  1  0  0  0  0
  2  3  1  0  0  0  0
  2  4  1  0  0  0  0
  4  5  1  0  0  0  0
  5  6  1  0  0  0  0
  5  7  2  0  0  0  0
  6  8  1  0  0  0  0
  6 11  2  0  0  0  0
  9  8  1  6  0  0  0
  9 10  1  0  0  0  0
  9 13  1  0  0  0  0
 10 12  1  0  0  0  0
 11 12  1  0  0  0  0
 13 14  1  6  0  0  0
 13 15  1  0  0  0  0
 15 16  1  1  0  0  0
 15 17  1  0  0  0  0
M  END
>  <CHROM.1>
73.15908750,58.26964842,-5.84985762,-22.49169918,34.51665093,1.09647551,1.12708537
-2.19662814

>  <Name>
ligand

>  <RI>
0

>  <Rbt.Current_Directory>
/home/itssahil/PROJECTS/Mol_Feturizer/New_Systems/rnas/4LVX

>  <Rbt.Executable>
rbdock ($Id: //depot/dev/client3/rdock/2013.1/src/exe/rbdock.cxx#4 $)

>  <Rbt.Library>
libRbt.so (2013.1, Build901 2013/11/27)

>  <Rbt.Parameter_File>
/export/apps/rDock/src/rDock_2013.1_src/data/scripts/dock_solv.prm

>  <Rbt.Receptor>
prm/blind_docking_80.prm

>  <SCORE>
-16.3319

>  <SCORE.INTER>
-9.19474

>  <SCORE.INTER.CONST>
1

>  <SCORE.INTER.POLAR>
0

>  <SCORE.INTER.ROT>
2

>  <SCORE.INTER.SOLV>
15.8482

>  <SCORE.INTER.VDW>
-16.3459

>  <SCORE.INTER.norm>
-0.540867

>  <SCORE.INTRA>
-7.13721

>  <SCORE.INTRA.DIHEDRAL>
-9.58402

>  <SCORE.INTRA.DIHEDRAL.0>
10.3255

>  <SCORE.INTRA.POLAR>
0

>  <SCORE.INTRA.POLAR.0>
0

>  <SCORE.INTRA.REPUL>
0

>  <SCORE.INTRA.REPUL.0>
0

>  <SCORE.INTRA.SOLV>
-0.186848

>  <SCORE.INTRA.SOLV.lig_0>
-53.4755

>  <SCORE.INTRA.VDW>
-2.25177

>  <SCORE.INTRA.VDW.0>
2.32763

>  <SCORE.INTRA.norm>
-0.419836

>  <SCORE.RESTR>
0

>  <SCORE.RESTR.CAVITY>
0

>  <SCORE.RESTR.norm>
0

>  <SCORE.SYSTEM>
0

>  <SCORE.SYSTEM.CONST>
0

>  <SCORE.SYSTEM.DIHEDRAL>
0

>  <SCORE.SYSTEM.SOLV>
0

>  <SCORE.SYSTEM.norm>
0

>  <SCORE.heavy>
17

>  <SCORE.norm>
-0.960703

>  <RMSD>
31.882

$$$$
ligand
 OpenBabel11021811503D
libRbt.so/2013.1/901 2013/11/27
 17 18  0  0  0  0  0  0  0  0999 V2000
   -5.9401  -24.0166   32.1780 N   0  0  0  0  0  0  0  0  0  0  0  0
   -5.1059  -25.1347   32.3039 C   0  0  0  0  0  0  0  0  0  0  0  0
   -4.7517  -25.8917   31.1383 N   0  0  0  0  0  0  0  0  0  0  0  0
   -4.6062  -25.5235   33.5281 N   0  0  0  0  0  0  0  0  0  0  0  0
   -4.9167  -24.8255   34.6766 C   0  0  0  0  0  0  0  0  0  0  0  0
   -5.7693  -23.6793   34.6083 C   0  0  0  0  0  0  0  0  0  0  0  0
   -4.4674  -25.1845   35.7484 O   0  0  0  0  0  0  0  0  0  0  0  0
   -6.1250  -22.9173   35.8028 N   0  0  0  0  0  0  0  0  0  0  0  0
   -6.8096  -21.6813   35.6687 C   0  0  2  0  0  0  0  0  0  0  0  0
   -7.7144  -21.6060   34.4100 C   0  0  0  0  0  0  0  0  0  0  0  0
   -6.2716  -23.2895   33.3303 C   0  0  0  0  0  0  0  0  0  0  0  0
   -7.1502  -22.1091   33.2342 N   0  0  0  0  0  0  0  0  0  0  0  0
   -5.7842  -20.5648   35.7443 C   0  0  1  0  0  0  0  0  0  0  0  0
   -5.0324  -20.5167   34.5871 O   0  0  0  0  0  0  0  0  0  0  0  0
   -6.4628  -19.2493   35.9837 C   0  0  1  0  0  0  0  0  0  0  0  0
   -7.1769  -19.2844   37.1176 O   0  0  0  0  0  0  0  0  0  0  0  0
   -5.4335  -18.1049   36.0991 C   0  0  0  0  0  0  0  0  0  0  0  0
  1  2  2  0  0  0  0
  1 11  1  0  0  0  0
  2  3  1  0  0  0  0
  2  4  1  0  0  0  0
  4  5  1  0  0  0  0
  5  6  1  0  0  0  0
  5  7  2  0  0  0  0
  6  8  1  0  0  0  0
  6 11  2  0  0  0  0
  9  8  1  6  0  0  0
  9 10  1  0  0  0  0
  9 13  1  0  0  0  0
 10 12  1  0  0  0  0
 11 12  1  0  0  0  0
 13 14  1  6  0  0  0
 13 15  1  0  0  0  0
 15 16  1  1  0  0  0
 15 17  1  0  0  0  0
M  END
>  <CHROM.1>
72.86709575,58.38913336,-5.85000480,-22.49005527,34.53009626,1.09937316,1.13085743
-2.20326433

>  <Name>
ligand

>  <RI>
0

>  <Rbt.Current_Directory>
/home/itssahil/PROJECTS/Mol_Feturizer/New_Systems/rnas/4LVX

>  <Rbt.Executable>
rbdock ($Id: //depot/dev/client3/rdock/2013.1/src/exe/rbdock.cxx#4 $)

>  <Rbt.Library>
libRbt.so (2013.1, Build901 2013/11/27)

>  <Rbt.Parameter_File>
/export/apps/rDock/src/rDock_2013.1_src/data/scripts/dock_solv.prm

>  <Rbt.Receptor>
prm/blind_docking_80.prm

>  <SCORE>
-16.3218

>  <SCORE.INTER>
-9.17485

>  <SCORE.INTER.CONST>
1

>  <SCORE.INTER.POLAR>
0

>  <SCORE.INTER.ROT>
2

>  <SCORE.INTER.SOLV>
15.7103

>  <SCORE.INTER.VDW>
-16.2867

>  <SCORE.INTER.norm>
-0.539697

>  <SCORE.INTRA>
-7.14699

>  <SCORE.INTRA.DIHEDRAL>
-9.61021

>  <SCORE.INTRA.DIHEDRAL.0>
10.3255

>  <SCORE.INTRA.POLAR>
0

>  <SCORE.INTRA.POLAR.0>
0

>  <SCORE.INTRA.REPUL>
0

>  <SCORE.INTRA.REPUL.0>
0

>  <SCORE.INTRA.SOLV>
-0.186045

>  <SCORE.INTRA.SOLV.lig_0>
-53.4755

>  <SCORE.INTRA.VDW>
-2.24887

>  <SCORE.INTRA.VDW.0>
2.32763

>  <SCORE.INTRA.norm>
-0.420411

>  <SCORE.RESTR>
0

>  <SCORE.RESTR.CAVITY>
0

>  <SCORE.RESTR.norm>
0

>  <SCORE.SYSTEM>
0

>  <SCORE.SYSTEM.CONST>
0

>  <SCORE.SYSTEM.DIHEDRAL>
0

>  <SCORE.SYSTEM.SOLV>
0

>  <SCORE.SYSTEM.norm>
0

>  <SCORE.heavy>
17

>  <SCORE.norm>
-0.960108

>  <RMSD>
31.885

$$$$
ligand
 OpenBabel11021811503D
libRbt.so/2013.1/901 2013/11/27
 17 18  0  0  0  0  0  0  0  0999 V2000
   -5.9510  -24.0211   32.1814 N   0  0  0  0  0  0  0  0  0  0  0  0
   -5.1138  -25.1371   32.3064 C   0  0  0  0  0  0  0  0  0  0  0  0
   -4.7627  -25.8960   31.1411 N   0  0  0  0  0  0  0  0  0  0  0  0
   -4.6084  -25.5222   33.5294 N   0  0  0  0  0  0  0  0  0  0  0  0
   -4.9157  -24.8222   34.6777 C   0  0  0  0  0  0  0  0  0  0  0  0
   -5.7710  -23.6780   34.6103 C   0  0  0  0  0  0  0  0  0  0  0  0
   -4.4613  -25.1779   35.7484 O   0  0  0  0  0  0  0  0  0  0  0  0
   -6.1235  -22.9142   35.8045 N   0  0  0  0  0  0  0  0  0  0  0  0
   -6.8113  -21.6800   35.6704 C   0  0  2  0  0  0  0  0  0  0  0  0
   -7.7215  -21.6094   34.4153 C   0  0  0  0  0  0  0  0  0  0  0  0
   -6.2794  -23.2922   33.3334 C   0  0  0  0  0  0  0  0  0  0  0  0
   -7.1609  -22.1139   33.2384 N   0  0  0  0  0  0  0  0  0  0  0  0
   -5.7881  -20.5611   35.7394 C   0  0  1  0  0  0  0  0  0  0  0  0
   -5.0585  -20.4974   34.5689 O   0  0  0  0  0  0  0  0  0  0  0  0
   -6.4660  -19.2506   36.0066 C   0  0  1  0  0  0  0  0  0  0  0  0
   -7.1450  -19.2956   37.1616 O   0  0  0  0  0  0  0  0  0  0  0  0
   -5.4397  -18.1012   36.0968 C   0  0  0  0  0  0  0  0  0  0  0  0
  1  2  2  0  0  0  0
  1 11  1  0  0  0  0
  2  3  1  0  0  0  0
  2  4  1  0  0  0  0
  4  5  1  0  0  0  0
  5  6  1  0  0  0  0
  5  7  2  0  0  0  0
  6  8  1  0  0  0  0
  6 11  2  0  0  0  0
  9  8  1  6  0  0  0
  9 10  1  0  0  0  0
  9 13  1  0  0  0  0
 10 12  1  0  0  0  0
 11 12  1  0  0  0  0
 13 14  1  6  0  0  0
 13 15  1  0  0  0  0
 15 16  1  1  0  0  0
 15 17  1  0  0  0  0
M  END
>  <CHROM.1>
74.02353875,59.14762283,-5.85334066,-22.48937528,34.53436545,1.10372352,1.13114098
-2.20549719

>  <Name>
ligand

>  <RI>
0

>  <Rbt.Current_Directory>
/home/itssahil/PROJECTS/Mol_Feturizer/New_Systems/rnas/4LVX

>  <Rbt.Executable>
rbdock ($Id: //depot/dev/client3/rdock/2013.1/src/exe/rbdock.cxx#4 $)

>  <Rbt.Library>
libRbt.so (2013.1, Build901 2013/11/27)

>  <Rbt.Parameter_File>
/export/apps/rDock/src/rDock_2013.1_src/data/scripts/dock_solv.prm

>  <Rbt.Receptor>
prm/blind_docking_60.prm

>  <SCORE>
-16.3

>  <SCORE.INTER>
-9.20609

>  <SCORE.INTER.CONST>
1

>  <SCORE.INTER.POLAR>
0

>  <SCORE.INTER.ROT>
2

>  <SCORE.INTER.SOLV>
15.6227

>  <SCORE.INTER.VDW>
-16.2783

>  <SCORE.INTER.norm>
-0.541535

>  <SCORE.INTRA>
-7.0939

>  <SCORE.INTRA.DIHEDRAL>
-9.51854

>  <SCORE.INTRA.DIHEDRAL.0>
10.3255

>  <SCORE.INTRA.POLAR>
0

>  <SCORE.INTRA.POLAR.0>
0

>  <SCORE.INTRA.REPUL>
0

>  <SCORE.INTRA.REPUL.0>
0

>  <SCORE.INTRA.SOLV>
-0.195494

>  <SCORE.INTRA.SOLV.lig_0>
-53.4755

>  <SCORE.INTRA.VDW>
-2.23688

>  <SCORE.INTRA.VDW.0>
2.32763

>  <SCORE.INTRA.norm>
-0.417288

>  <SCORE.RESTR>
0

>  <SCORE.RESTR.CAVITY>
0

>  <SCORE.RESTR.norm>
0

>  <SCORE.SYSTEM>
0

>  <SCORE.SYSTEM.CONST>
0

>  <SCORE.SYSTEM.DIHEDRAL>
0

>  <SCORE.SYSTEM.SOLV>
0

>  <SCORE.SYSTEM.norm>
0

>  <SCORE.heavy>
17

>  <SCORE.norm>
-0.958823

>  <RMSD>
31.887

$$$$
ligand
 OpenBabel11021811503D
libRbt.so/2013.1/901 2013/11/27
 17 18  0  0  0  0  0  0  0  0999 V2000
   -5.1768  -20.8445   38.2425 N   0  0  0  0  0  0  0  0  0  0  0  0
   -3.8703  -20.6690   38.7160 C   0  0  0  0  0  0  0  0  0  0  0  0
   -3.6567  -20.1368   40.0307 N   0  0  0  0  0  0  0  0  0  0  0  0
   -2.7768  -21.0053   37.9476 N   0  0  0  0  0  0  0  0  0  0  0  0
   -2.9322  -21.5230   36.6784 C   0  0  0  0  0  0  0  0  0  0  0  0
   -4.2432  -21.7178   36.1412 C   0  0  0  0  0  0  0  0  0  0  0  0
   -1.9551  -21.8127   36.0144 O   0  0  0  0  0  0  0  0  0  0  0  0
   -4.4484  -22.2585   34.7998 N   0  0  0  0  0  0  0  0  0  0  0  0
   -5.7560  -22.6169   34.3802 C   0  0  2  0  0  0  0  0  0  0  0  0
   -6.8756  -21.7771   35.0510 C   0  0  0  0  0  0  0  0  0  0  0  0
   -5.3627  -21.3686   36.9552 C   0  0  0  0  0  0  0  0  0  0  0  0
   -6.7244  -21.5634   36.4241 N   0  0  0  0  0  0  0  0  0  0  0  0
   -5.9205  -24.1127   34.5787 C   0  0  1  0  0  0  0  0  0  0  0  0
   -7.1756  -24.5213   34.1733 O   0  0  0  0  0  0  0  0  0  0  0  0
   -4.8583  -24.8581   33.8273 C   0  0  1  0  0  0  0  0  0  0  0  0
   -4.9143  -26.1687   34.1037 O   0  0  0  0  0  0  0  0  0  0  0  0
   -5.0261  -24.6806   32.3033 C   0  0  0  0  0  0  0  0  0  0  0  0
  1  2  2  0  0  0  0
  1 11  1  0  0  0  0
  2  3  1  0  0  0  0
  2  4  1  0  0  0  0
  4  5  1  0  0  0  0
  5  6  1  0  0  0  0
  5  7  2  0  0  0  0
  6  8  1  0  0  0  0
  6 11  2  0  0  0  0
  9  8  1  1  0  0  0
  9 10  1  0  0  0  0
  9 13  1  0  0  0  0
 10 12  1  0  0  0  0
 11 12  1  0  0  0  0
 13 14  1  6  0  0  0
 13 15  1  0  0  0  0
 15 16  1  6  0  0  0
 15 17  1  0  0  0  0
M  END
>  <CHROM.1>
-179.43444373,173.83695990,-4.81730259,-22.52333192,35.83819268,1.26280834
-0.07730869,0.84291410

>  <Name>
ligand

>  <RI>
0

>  <Rbt.Current_Directory>
/home/itssahil/PROJECTS/Mol_Feturizer/New_Systems/rnas/4LVX

>  <Rbt.Executable>
rbdock ($Id: //depot/dev/client3/rdock/2013.1/src/exe/rbdock.cxx#4 $)

>  <Rbt.Library>
libRbt.so (2013.1, Build901 2013/11/27)

>  <Rbt.Parameter_File>
/export/apps/rDock/src/rDock_2013.1_src/data/scripts/dock_solv.prm

>  <Rbt.Receptor>
prm/blind_docking_100.prm

>  <SCORE>
-14.8927

>  <SCORE.INTER>
-8.31625

>  <SCORE.INTER.CONST>
1

>  <SCORE.INTER.POLAR>
0

>  <SCORE.INTER.ROT>
2

>  <SCORE.INTER.SOLV>
6.5354

>  <SCORE.INTER.VDW>
-12.656

>  <SCORE.INTER.norm>
-0.489191

>  <SCORE.INTRA>
-6.57645

>  <SCORE.INTRA.DIHEDRAL>
-10.0242

>  <SCORE.INTRA.DIHEDRAL.0>
10.3255

>  <SCORE.INTRA.POLAR>
0

>  <SCORE.INTRA.POLAR.0>
0

>  <SCORE.INTRA.REPUL>
0

>  <SCORE.INTRA.REPUL.0>
0

>  <SCORE.INTRA.SOLV>
-0.515976

>  <SCORE.INTRA.SOLV.lig_0>
-53.4755

>  <SCORE.INTRA.VDW>
-1.30634

>  <SCORE.INTRA.VDW.0>
2.32763

>  <SCORE.INTRA.norm>
-0.38685

>  <SCORE.RESTR>
0

>  <SCORE.RESTR.CAVITY>
0

>  <SCORE.RESTR.norm>
0

>  <SCORE.SYSTEM>
0

>  <SCORE.SYSTEM.CONST>
0

>  <SCORE.SYSTEM.DIHEDRAL>
0

>  <SCORE.SYSTEM.SOLV>
0

>  <SCORE.SYSTEM.norm>
0

>  <SCORE.heavy>
17

>  <SCORE.norm>
-0.876041

>  <RMSD>
31.889

$$$$
ligand
 OpenBabel11021811503D
libRbt.so/2013.1/901 2013/11/27
 17 18  0  0  0  0  0  0  0  0999 V2000
   -7.0637  -20.9527   36.8374 N   0  0  0  0  0  0  0  0  0  0  0  0
   -6.0707  -20.7012   37.7927 C   0  0  0  0  0  0  0  0  0  0  0  0
   -6.4083  -20.0094   39.0030 N   0  0  0  0  0  0  0  0  0  0  0  0
   -4.7693  -21.1123   37.6012 N   0  0  0  0  0  0  0  0  0  0  0  0
   -4.3975  -21.7833   36.4546 C   0  0  0  0  0  0  0  0  0  0  0  0
   -5.3685  -22.0618   35.4424 C   0  0  0  0  0  0  0  0  0  0  0  0
   -3.2437  -22.1371   36.3025 O   0  0  0  0  0  0  0  0  0  0  0  0
   -5.0125  -22.7652   34.2126 N   0  0  0  0  0  0  0  0  0  0  0  0
   -6.0359  -23.1917   33.3267 C   0  0  2  0  0  0  0  0  0  0  0  0
   -7.3009  -22.2932   33.3606 C   0  0  0  0  0  0  0  0  0  0  0  0
   -6.7121  -21.6327   35.6625 C   0  0  0  0  0  0  0  0  0  0  0  0
   -7.7317  -21.9112   34.6343 N   0  0  0  0  0  0  0  0  0  0  0  0
   -6.3250  -24.6543   33.6109 C   0  0  1  0  0  0  0  0  0  0  0  0
   -7.4158  -25.0844   32.8817 O   0  0  0  0  0  0  0  0  0  0  0  0
   -5.1221  -25.4936   33.2993 C   0  0  1  0  0  0  0  0  0  0  0  0
   -5.3482  -26.7782   33.6085 O   0  0  0  0  0  0  0  0  0  0  0  0
   -4.7626  -25.4160   31.8002 C   0  0  0  0  0  0  0  0  0  0  0  0
  1  2  2  0  0  0  0
  1 11  1  0  0  0  0
  2  3  1  0  0  0  0
  2  4  1  0  0  0  0
  4  5  1  0  0  0  0
  5  6  1  0  0  0  0
  5  7  2  0  0  0  0
  6  8  1  0  0  0  0
  6 11  2  0  0  0  0
  9  8  1  1  0  0  0
  9 10  1  0  0  0  0
  9 13  1  0  0  0  0
 10 12  1  0  0  0  0
 11 12  1  0  0  0  0
 13 14  1  6  0  0  0
 13 15  1  0  0  0  0
 15 16  1  6  0  0  0
 15 17  1  0  0  0  0
M  END
>  <CHROM.1>
173.30016287,177.03330080,-5.81814102,-22.90367166,34.99122237,1.56644725
-0.35819671,0.79714610

>  <Name>
ligand

>  <RI>
0

>  <Rbt.Current_Directory>
/home/itssahil/PROJECTS/Mol_Feturizer/New_Systems/rnas/4LVX

>  <Rbt.Executable>
rbdock ($Id: //depot/dev/client3/rdock/2013.1/src/exe/rbdock.cxx#4 $)

>  <Rbt.Library>
libRbt.so (2013.1, Build901 2013/11/27)

>  <Rbt.Parameter_File>
/export/apps/rDock/src/rDock_2013.1_src/data/scripts/dock_solv.prm

>  <Rbt.Receptor>
prm/blind_docking_80.prm

>  <SCORE>
-12.72

>  <SCORE.INTER>
-6.26789

>  <SCORE.INTER.CONST>
1

>  <SCORE.INTER.POLAR>
0

>  <SCORE.INTER.ROT>
2

>  <SCORE.INTER.SOLV>
7.55616

>  <SCORE.INTER.VDW>
-11.6306

>  <SCORE.INTER.norm>
-0.368699

>  <SCORE.INTRA>
-6.45319

>  <SCORE.INTRA.DIHEDRAL>
-9.97531

>  <SCORE.INTRA.DIHEDRAL.0>
10.3255

>  <SCORE.INTRA.POLAR>
0

>  <SCORE.INTRA.POLAR.0>
0

>  <SCORE.INTRA.REPUL>
0

>  <SCORE.INTRA.REPUL.0>
0

>  <SCORE.INTRA.SOLV>
-0.545883

>  <SCORE.INTRA.SOLV.lig_0>
-53.4755

>  <SCORE.INTRA.VDW>
-1.19259

>  <SCORE.INTRA.VDW.0>
2.32763

>  <SCORE.INTRA.norm>
-0.3796

>  <SCORE.RESTR>
0.00111988

>  <SCORE.RESTR.CAVITY>
0.00111988

>  <SCORE.RESTR.norm>
6.58753e-05

>  <SCORE.SYSTEM>
0

>  <SCORE.SYSTEM.CONST>
0

>  <SCORE.SYSTEM.DIHEDRAL>
0

>  <SCORE.SYSTEM.SOLV>
0

>  <SCORE.SYSTEM.norm>
0

>  <SCORE.heavy>
17

>  <SCORE.norm>
-0.748233

>  <RMSD>
31.999

$$$$
ligand
 OpenBabel11021811503D
libRbt.so/2013.1/901 2013/11/27
 17 18  0  0  0  0  0  0  0  0999 V2000
   -6.3161  -20.4394   35.6357 N   0  0  0  0  0  0  0  0  0  0  0  0
   -5.3207  -20.1171   36.5669 C   0  0  0  0  0  0  0  0  0  0  0  0
   -5.4841  -18.9708   37.4134 N   0  0  0  0  0  0  0  0  0  0  0  0
   -4.1834  -20.8846   36.6969 N   0  0  0  0  0  0  0  0  0  0  0  0
   -3.9830  -21.9976   35.9070 C   0  0  0  0  0  0  0  0  0  0  0  0
   -4.9633  -22.3704   34.9349 C   0  0  0  0  0  0  0  0  0  0  0  0
   -2.9722  -22.6620   36.0352 O   0  0  0  0  0  0  0  0  0  0  0  0
   -4.7848  -23.5389   34.0766 N   0  0  0  0  0  0  0  0  0  0  0  0
   -5.8609  -23.9851   33.2659 C   0  0  2  0  0  0  0  0  0  0  0  0
   -6.8211  -22.8475   32.8271 C   0  0  0  0  0  0  0  0  0  0  0  0
   -6.1368  -21.5658   34.8199 C   0  0  0  0  0  0  0  0  0  0  0  0
   -7.1634  -21.9321   33.8267 N   0  0  0  0  0  0  0  0  0  0  0  0
   -6.5594  -25.1193   33.9934 C   0  0  1  0  0  0  0  0  0  0  0  0
   -7.1557  -24.6596   35.1507 O   0  0  0  0  0  0  0  0  0  0  0  0
   -7.5766  -25.7636   33.0996 C   0  0  1  0  0  0  0  0  0  0  0  0
   -6.9990  -26.2282   31.9828 O   0  0  0  0  0  0  0  0  0  0  0  0
   -8.2716  -26.9454   33.8088 C   0  0  0  0  0  0  0  0  0  0  0  0
  1  2  2  0  0  0  0
  1 11  1  0  0  0  0
  2  3  1  0  0  0  0
  2  4  1  0  0  0  0
  4  5  1  0  0  0  0
  5  6  1  0  0  0  0
  5  7  2  0  0  0  0
  6  8  1  0  0  0  0
  6 11  2  0  0  0  0
  9  8  1  1  0  0  0
  9 10  1  0  0  0  0
  9 13  1  0  0  0  0
 10 12  1  0  0  0  0
 11 12  1  0  0  0  0
 13 14  1  1  0  0  0
 13 15  1  0  0  0  0
 15 16  1  6  0  0  0
 15 17  1  0  0  0  0
M  END
>  <CHROM.1>
65.77935840,58.26463267,-5.93823690,-23.02380206,34.68303082,1.16325022,-0.36364928
0.40349851

>  <Name>
ligand

>  <RI>
0

>  <Rbt.Current_Directory>
/home/itssahil/PROJECTS/Mol_Feturizer/New_Systems/rnas/4LVX

>  <Rbt.Executable>
rbdock ($Id: //depot/dev/client3/rdock/2013.1/src/exe/rbdock.cxx#4 $)

>  <Rbt.Library>
libRbt.so (2013.1, Build901 2013/11/27)

>  <Rbt.Parameter_File>
/export/apps/rDock/src/rDock_2013.1_src/data/scripts/dock_solv.prm

>  <Rbt.Receptor>
prm/blind_docking_80.prm

>  <SCORE>
-12.7162

>  <SCORE.INTER>
-5.45115

>  <SCORE.INTER.CONST>
1

>  <SCORE.INTER.POLAR>
0

>  <SCORE.INTER.ROT>
2

>  <SCORE.INTER.SOLV>
6.97925

>  <SCORE.INTER.VDW>
-10.8939

>  <SCORE.INTER.norm>
-0.320656

>  <SCORE.INTRA>
-7.26501

>  <SCORE.INTRA.DIHEDRAL>
-10.0474

>  <SCORE.INTRA.DIHEDRAL.0>
10.3255

>  <SCORE.INTRA.POLAR>
0

>  <SCORE.INTRA.POLAR.0>
0

>  <SCORE.INTRA.REPUL>
0

>  <SCORE.INTRA.REPUL.0>
0

>  <SCORE.INTRA.SOLV>
-0.150464

>  <SCORE.INTRA.SOLV.lig_0>
-53.4755

>  <SCORE.INTRA.VDW>
-2.16605

>  <SCORE.INTRA.VDW.0>
2.32763

>  <SCORE.INTRA.norm>
-0.427353

>  <SCORE.RESTR>
0

>  <SCORE.RESTR.CAVITY>
0

>  <SCORE.RESTR.norm>
0

>  <SCORE.SYSTEM>
0

>  <SCORE.SYSTEM.CONST>
0

>  <SCORE.SYSTEM.DIHEDRAL>
0

>  <SCORE.SYSTEM.SOLV>
0

>  <SCORE.SYSTEM.norm>
0

>  <SCORE.heavy>
17

>  <SCORE.norm>
-0.74801

>  <RMSD>
32.088

$$$$
ligand
 OpenBabel11021811503D
libRbt.so/2013.1/901 2013/11/27
 17 18  0  0  0  0  0  0  0  0999 V2000
   -4.3121  -21.3318   35.5375 N   0  0  0  0  0  0  0  0  0  0  0  0
   -5.1457  -20.2066   35.5690 C   0  0  0  0  0  0  0  0  0  0  0  0
   -4.6241  -18.9484   36.0184 N   0  0  0  0  0  0  0  0  0  0  0  0
   -6.4624  -20.2770   35.1679 N   0  0  0  0  0  0  0  0  0  0  0  0
   -7.0080  -21.4642   34.7254 C   0  0  0  0  0  0  0  0  0  0  0  0
   -6.2049  -22.6465   34.6781 C   0  0  0  0  0  0  0  0  0  0  0  0
   -8.1725  -21.5072   34.3768 O   0  0  0  0  0  0  0  0  0  0  0  0
   -6.7478  -23.9231   34.2205 N   0  0  0  0  0  0  0  0  0  0  0  0
   -5.8739  -25.0204   34.0047 C   0  0  2  0  0  0  0  0  0  0  0  0
   -4.6160  -25.0005   34.9134 C   0  0  0  0  0  0  0  0  0  0  0  0
   -4.8421  -22.5513   35.0922 C   0  0  0  0  0  0  0  0  0  0  0  0
   -3.9934  -23.7564   35.0493 N   0  0  0  0  0  0  0  0  0  0  0  0
   -5.5491  -25.0790   32.5233 C   0  0  1  0  0  0  0  0  0  0  0  0
   -4.3902  -25.7981   32.3083 O   0  0  0  0  0  0  0  0  0  0  0  0
   -6.6907  -25.6849   31.7629 C   0  0  1  0  0  0  0  0  0  0  0  0
   -6.4140  -25.7330   30.4522 O   0  0  0  0  0  0  0  0  0  0  0  0
   -6.9810  -27.1218   32.2461 C   0  0  0  0  0  0  0  0  0  0  0  0
  1  2  2  0  0  0  0
  1 11  1  0  0  0  0
  2  3  1  0  0  0  0
  2  4  1  0  0  0  0
  4  5  1  0  0  0  0
  5  6  1  0  0  0  0
  5  7  2  0  0  0  0
  6  8  1  0  0  0  0
  6 11  2  0  0  0  0
  9  8  1  6  0  0  0
  9 10  1  0  0  0  0
  9 13  1  0  0  0  0
 10 12  1  0  0  0  0
 11 12  1  0  0  0  0
 13 14  1  1  0  0  0
 13 15  1  0  0  0  0
 15 16  1  6  0  0  0
 15 17  1  0  0  0  0
M  END
>  <CHROM.1>
159.58736193,179.65103507,-5.78127172,-23.36978409,33.97063809,-1.48126562
0.41990012,-2.62135736

>  <Name>
ligand

>  <RI>
0

>  <Rbt.Current_Directory>
/home/itssahil/PROJECTS/Mol_Feturizer/New_Systems/rnas/4LVX

>  <Rbt.Executable>
rbdock ($Id: //depot/dev/client3/rdock/2013.1/src/exe/rbdock.cxx#4 $)

>  <Rbt.Library>
libRbt.so (2013.1, Build901 2013/11/27)

>  <Rbt.Parameter_File>
/export/apps/rDock/src/rDock_2013.1_src/data/scripts/dock_solv.prm

>  <Rbt.Receptor>
prm/blind_docking_60.prm

>  <SCORE>
-13.8192

>  <SCORE.INTER>
-8.28066

>  <SCORE.INTER.CONST>
1

>  <SCORE.INTER.POLAR>
0

>  <SCORE.INTER.ROT>
2

>  <SCORE.INTER.SOLV>
9.67714

>  <SCORE.INTER.VDW>
-13.6795

>  <SCORE.INTER.norm>
-0.487098

>  <SCORE.INTRA>
-5.53851

>  <SCORE.INTRA.DIHEDRAL>
-8.82998

>  <SCORE.INTRA.DIHEDRAL.0>
10.3255

>  <SCORE.INTRA.POLAR>
0

>  <SCORE.INTRA.POLAR.0>
0

>  <SCORE.INTRA.REPUL>
0

>  <SCORE.INTRA.REPUL.0>
0

>  <SCORE.INTRA.SOLV>
-0.604953

>  <SCORE.INTRA.SOLV.lig_0>
-53.4755

>  <SCORE.INTRA.VDW>
-0.821043

>  <SCORE.INTRA.VDW.0>
2.32763

>  <SCORE.INTRA.norm>
-0.325795

>  <SCORE.RESTR>
0

>  <SCORE.RESTR.CAVITY>
0

>  <SCORE.RESTR.norm>
0

>  <SCORE.SYSTEM>
0

>  <SCORE.SYSTEM.CONST>
0

>  <SCORE.SYSTEM.DIHEDRAL>
0

>  <SCORE.SYSTEM.SOLV>
0

>  <SCORE.SYSTEM.norm>
0

>  <SCORE.heavy>
17

>  <SCORE.norm>
-0.812893

>  <RMSD>
32.149

$$$$
ligand
 OpenBabel11021811503D
libRbt.so/2013.1/901 2013/11/27
 17 18  0  0  0  0  0  0  0  0999 V2000
   -4.7124  -24.5710   33.7290 N   0  0  0  0  0  0  0  0  0  0  0  0
   -5.7564  -24.6804   32.8017 C   0  0  0  0  0  0  0  0  0  0  0  0
   -5.8454  -25.8425   31.9658 N   0  0  0  0  0  0  0  0  0  0  0  0
   -6.7124  -23.6955   32.6773 N   0  0  0  0  0  0  0  0  0  0  0  0
   -6.6702  -22.5611   33.4610 C   0  0  0  0  0  0  0  0  0  0  0  0
   -5.6230  -22.3934   34.4204 C   0  0  0  0  0  0  0  0  0  0  0  0
   -7.5220  -21.7018   33.3360 O   0  0  0  0  0  0  0  0  0  0  0  0
   -5.5415  -21.2042   35.2648 N   0  0  0  0  0  0  0  0  0  0  0  0
   -4.6068  -21.1641   36.3321 C   0  0  2  0  0  0  0  0  0  0  0  0
   -3.3341  -22.0144   36.0754 C   0  0  0  0  0  0  0  0  0  0  0  0
   -4.6460  -23.4275   34.5378 C   0  0  0  0  0  0  0  0  0  0  0  0
   -3.5584  -23.2785   35.5223 N   0  0  0  0  0  0  0  0  0  0  0  0
   -5.3357  -21.5369   37.6101 C   0  0  1  0  0  0  0  0  0  0  0  0
   -5.8188  -22.8282   37.5347 O   0  0  0  0  0  0  0  0  0  0  0  0
   -4.4256  -21.3859   38.7923 C   0  0  1  0  0  0  0  0  0  0  0  0
   -3.9656  -20.1297   38.8782 O   0  0  0  0  0  0  0  0  0  0  0  0
   -5.1615  -21.7193   40.1074 C   0  0  0  0  0  0  0  0  0  0  0  0
  1  2  2  0  0  0  0
  1 11  1  0  0  0  0
  2  3  1  0  0  0  0
  2  4  1  0  0  0  0
  4  5  1  0  0  0  0
  5  6  1  0  0  0  0
  5  7  2  0  0  0  0
  6  8  1  0  0  0  0
  6 11  2  0  0  0  0
  9  8  1  6  0  0  0
  9 10  1  0  0  0  0
  9 13  1  0  0  0  0
 10 12  1  0  0  0  0
 11 12  1  0  0  0  0
 13 14  1  6  0  0  0
 13 15  1  0  0  0  0
 15 16  1  1  0  0  0
 15 17  1  0  0  0  0
M  END
>  <CHROM.1>
62.78647748,58.08254784,-5.25323244,-22.55840748,35.55226877,-1.86411212
-0.71339221,0.91726537

>  <Name>
ligand

>  <RI>
0

>  <Rbt.Current_Directory>
/home/itssahil/PROJECTS/Mol_Feturizer/New_Systems/rnas/4LVX

>  <Rbt.Executable>
rbdock ($Id: //depot/dev/client3/rdock/2013.1/src/exe/rbdock.cxx#4 $)

>  <Rbt.Library>
libRbt.so (2013.1, Build901 2013/11/27)

>  <Rbt.Parameter_File>
/export/apps/rDock/src/rDock_2013.1_src/data/scripts/dock_solv.prm

>  <Rbt.Receptor>
prm/blind_docking_100.prm

>  <SCORE>
-13.5647

>  <SCORE.INTER>
-6.33911

>  <SCORE.INTER.CONST>
1

>  <SCORE.INTER.POLAR>
0

>  <SCORE.INTER.ROT>
2

>  <SCORE.INTER.SOLV>
9.0238

>  <SCORE.INTER.VDW>
-12.1673

>  <SCORE.INTER.norm>
-0.372889

>  <SCORE.INTRA>
-7.22559

>  <SCORE.INTRA.DIHEDRAL>
-10.1318

>  <SCORE.INTRA.DIHEDRAL.0>
10.3255

>  <SCORE.INTRA.POLAR>
0

>  <SCORE.INTRA.POLAR.0>
0

>  <SCORE.INTRA.REPUL>
0

>  <SCORE.INTRA.REPUL.0>
0

>  <SCORE.INTRA.SOLV>
-0.134401

>  <SCORE.INTRA.SOLV.lig_0>
-53.4755

>  <SCORE.INTRA.VDW>
-2.09251

>  <SCORE.INTRA.VDW.0>
2.32763

>  <SCORE.INTRA.norm>
-0.425034

>  <SCORE.RESTR>
0

>  <SCORE.RESTR.CAVITY>
0

>  <SCORE.RESTR.norm>
0

>  <SCORE.SYSTEM>
0

>  <SCORE.SYSTEM.CONST>
0

>  <SCORE.SYSTEM.DIHEDRAL>
0

>  <SCORE.SYSTEM.SOLV>
0

>  <SCORE.SYSTEM.norm>
0

>  <SCORE.heavy>
17

>  <SCORE.norm>
-0.797923

>  <RMSD>
32.177

$$$$
ligand
 OpenBabel11021811503D
libRbt.so/2013.1/901 2013/11/27
 17 18  0  0  0  0  0  0  0  0999 V2000
   -7.9908  -24.9355   35.6194 N   0  0  0  0  0  0  0  0  0  0  0  0
   -9.2417  -24.4141   35.2653 C   0  0  0  0  0  0  0  0  0  0  0  0
  -10.4289  -25.1741   35.5300 N   0  0  0  0  0  0  0  0  0  0  0  0
   -9.3616  -23.1759   34.6721 N   0  0  0  0  0  0  0  0  0  0  0  0
   -8.2489  -22.4073   34.4003 C   0  0  0  0  0  0  0  0  0  0  0  0
   -6.9457  -22.8924   34.7346 C   0  0  0  0  0  0  0  0  0  0  0  0
   -8.3743  -21.3174   33.8749 O   0  0  0  0  0  0  0  0  0  0  0  0
   -5.7434  -22.1102   34.4581 N   0  0  0  0  0  0  0  0  0  0  0  0
   -4.4936  -22.5371   34.9778 C   0  0  2  0  0  0  0  0  0  0  0  0
   -4.3873  -24.0754   35.1545 C   0  0  0  0  0  0  0  0  0  0  0  0
   -6.8434  -24.1745   35.3537 C   0  0  0  0  0  0  0  0  0  0  0  0
   -5.5104  -24.6946   35.7104 N   0  0  0  0  0  0  0  0  0  0  0  0
   -4.2252  -21.7616   36.2545 C   0  0  1  0  0  0  0  0  0  0  0  0
   -2.9146  -21.9265   36.6565 O   0  0  0  0  0  0  0  0  0  0  0  0
   -4.5336  -20.3077   36.0558 C   0  0  1  0  0  0  0  0  0  0  0  0
   -4.4900  -19.6506   37.2234 O   0  0  0  0  0  0  0  0  0  0  0  0
   -3.5197  -19.6497   35.0958 C   0  0  0  0  0  0  0  0  0  0  0  0
  1  2  2  0  0  0  0
  1 11  1  0  0  0  0
  2  3  1  0  0  0  0
  2  4  1  0  0  0  0
  4  5  1  0  0  0  0
  5  6  1  0  0  0  0
  5  7  2  0  0  0  0
  6  8  1  0  0  0  0
  6 11  2  0  0  0  0
  9  8  1  1  0  0  0
  9 10  1  0  0  0  0
  9 13  1  0  0  0  0
 10 12  1  0  0  0  0
 11 12  1  0  0  0  0
 13 14  1  6  0  0  0
 13 15  1  0  0  0  0
 15 16  1  1  0  0  0
 15 17  1  0  0  0  0
M  END
>  <CHROM.1>
-167.63726926,170.89139467,-6.24223370,-22.58925336,35.37738798,-2.61239137
-0.26302473,-0.11712250

>  <Name>
ligand

>  <RI>
0

>  <Rbt.Current_Directory>
/home/itssahil/PROJECTS/Mol_Feturizer/New_Systems/rnas/4LVX

>  <Rbt.Executable>
rbdock ($Id: //depot/dev/client3/rdock/2013.1/src/exe/rbdock.cxx#4 $)

>  <Rbt.Library>
libRbt.so (2013.1, Build901 2013/11/27)

>  <Rbt.Parameter_File>
/export/apps/rDock/src/rDock_2013.1_src/data/scripts/dock_solv.prm

>  <Rbt.Receptor>
prm/blind_docking_100.prm

>  <SCORE>
-13.5994

>  <SCORE.INTER>
-7.48151

>  <SCORE.INTER.CONST>
1

>  <SCORE.INTER.POLAR>
0

>  <SCORE.INTER.ROT>
2

>  <SCORE.INTER.SOLV>
6.8209

>  <SCORE.INTER.VDW>
-12.1946

>  <SCORE.INTER.norm>
-0.440089

>  <SCORE.INTRA>
-6.11794

>  <SCORE.INTRA.DIHEDRAL>
-9.34944

>  <SCORE.INTRA.DIHEDRAL.0>
10.3255

>  <SCORE.INTRA.POLAR>
0

>  <SCORE.INTRA.POLAR.0>
0

>  <SCORE.INTRA.REPUL>
0

>  <SCORE.INTRA.REPUL.0>
0

>  <SCORE.INTRA.SOLV>
-0.424334

>  <SCORE.INTRA.SOLV.lig_0>
-53.4755

>  <SCORE.INTRA.VDW>
-1.23105

>  <SCORE.INTRA.VDW.0>
2.32763

>  <SCORE.INTRA.norm>
-0.359879

>  <SCORE.RESTR>
0

>  <SCORE.RESTR.CAVITY>
0

>  <SCORE.RESTR.norm>
0

>  <SCORE.SYSTEM>
0

>  <SCORE.SYSTEM.CONST>
0

>  <SCORE.SYSTEM.DIHEDRAL>
0

>  <SCORE.SYSTEM.SOLV>
0

>  <SCORE.SYSTEM.norm>
0

>  <SCORE.heavy>
17

>  <SCORE.norm>
-0.799967

>  <RMSD>
32.188

$$$$
ligand
 OpenBabel11021811503D
libRbt.so/2013.1/901 2013/11/27
 17 18  0  0  0  0  0  0  0  0999 V2000
   -5.1086  -21.8840   38.1074 N   0  0  0  0  0  0  0  0  0  0  0  0
   -3.8939  -21.3677   38.5764 C   0  0  0  0  0  0  0  0  0  0  0  0
   -3.7745  -20.9677   39.9486 N   0  0  0  0  0  0  0  0  0  0  0  0
   -2.7997  -21.2415   37.7481 N   0  0  0  0  0  0  0  0  0  0  0  0
   -2.8655  -21.6153   36.4219 C   0  0  0  0  0  0  0  0  0  0  0  0
   -4.0824  -22.1431   35.8872 C   0  0  0  0  0  0  0  0  0  0  0  0
   -1.8898  -21.4952   35.7056 O   0  0  0  0  0  0  0  0  0  0  0  0
   -4.1928  -22.5451   34.4872 N   0  0  0  0  0  0  0  0  0  0  0  0
   -5.3485  -23.2406   34.0459 C   0  0  2  0  0  0  0  0  0  0  0  0
   -6.6293  -22.8892   34.8488 C   0  0  0  0  0  0  0  0  0  0  0  0
   -5.2023  -22.2712   36.7630 C   0  0  0  0  0  0  0  0  0  0  0  0
   -6.4671  -22.8157   36.2353 N   0  0  0  0  0  0  0  0  0  0  0  0
   -5.0294  -24.7244   34.0352 C   0  0  1  0  0  0  0  0  0  0  0  0
   -4.8800  -25.1984   35.3234 O   0  0  0  0  0  0  0  0  0  0  0  0
   -6.1056  -25.4839   33.3187 C   0  0  1  0  0  0  0  0  0  0  0  0
   -6.2887  -24.9945   32.0842 O   0  0  0  0  0  0  0  0  0  0  0  0
   -5.7431  -26.9791   33.1942 C   0  0  0  0  0  0  0  0  0  0  0  0
  1  2  2  0  0  0  0
  1 11  1  0  0  0  0
  2  3  1  0  0  0  0
  2  4  1  0  0  0  0
  4  5  1  0  0  0  0
  5  6  1  0  0  0  0
  5  7  2  0  0  0  0
  6  8  1  0  0  0  0
  6 11  2  0  0  0  0
  9  8  1  1  0  0  0
  9 10  1  0  0  0  0
  9 13  1  0  0  0  0
 10 12  1  0  0  0  0
 11 12  1  0  0  0  0
 13 14  1  1  0  0  0
 13 15  1  0  0  0  0
 15 16  1  6  0  0  0
 15 17  1  0  0  0  0
M  END
>  <CHROM.1>
68.98791648,55.09989504,-4.73330758,-23.11202772,35.62762737,1.17693847,0.43288763
1.04268150

>  <Name>
ligand

>  <RI>
0

>  <Rbt.Current_Directory>
/home/itssahil/PROJECTS/Mol_Feturizer/New_Systems/rnas/4LVX

>  <Rbt.Executable>
rbdock ($Id: //depot/dev/client3/rdock/2013.1/src/exe/rbdock.cxx#4 $)

>  <Rbt.Library>
libRbt.so (2013.1, Build901 2013/11/27)

>  <Rbt.Parameter_File>
/export/apps/rDock/src/rDock_2013.1_src/data/scripts/dock_solv.prm

>  <Rbt.Receptor>
prm/blind_docking_100.prm

>  <SCORE>
-14.8627

>  <SCORE.INTER>
-7.63376

>  <SCORE.INTER.CONST>
1

>  <SCORE.INTER.POLAR>
0

>  <SCORE.INTER.ROT>
2

>  <SCORE.INTER.SOLV>
8.99303

>  <SCORE.INTER.VDW>
-13.0202

>  <SCORE.INTER.norm>
-0.449045

>  <SCORE.INTRA>
-7.23915

>  <SCORE.INTRA.DIHEDRAL>
-9.80546

>  <SCORE.INTRA.DIHEDRAL.0>
10.3255

>  <SCORE.INTRA.POLAR>
0

>  <SCORE.INTRA.POLAR.0>
0

>  <SCORE.INTRA.REPUL>
0

>  <SCORE.INTRA.REPUL.0>
0

>  <SCORE.INTRA.SOLV>
-0.149885

>  <SCORE.INTRA.SOLV.lig_0>
-53.4755

>  <SCORE.INTRA.VDW>
-2.26148

>  <SCORE.INTRA.VDW.0>
2.32763

>  <SCORE.INTRA.norm>
-0.425832

>  <SCORE.RESTR>
0.0102405

>  <SCORE.RESTR.CAVITY>
0.0102405

>  <SCORE.RESTR.norm>
0.000602384

>  <SCORE.SYSTEM>
0

>  <SCORE.SYSTEM.CONST>
0

>  <SCORE.SYSTEM.DIHEDRAL>
0

>  <SCORE.SYSTEM.SOLV>
0

>  <SCORE.SYSTEM.norm>
0

>  <SCORE.heavy>
17

>  <SCORE.norm>
-0.874275

>  <RMSD>
32.334

$$$$
ligand
 OpenBabel11021811503D
libRbt.so/2013.1/901 2013/11/27
 17 18  0  0  0  0  0  0  0  0999 V2000
   -5.1277  -21.9261   38.1116 N   0  0  0  0  0  0  0  0  0  0  0  0
   -3.9134  -21.4160   38.5883 C   0  0  0  0  0  0  0  0  0  0  0  0
   -3.7989  -21.0227   39.9629 N   0  0  0  0  0  0  0  0  0  0  0  0
   -2.8152  -21.2895   37.7654 N   0  0  0  0  0  0  0  0  0  0  0  0
   -2.8763  -21.6570   36.4372 C   0  0  0  0  0  0  0  0  0  0  0  0
   -4.0925  -22.1782   35.8947 C   0  0  0  0  0  0  0  0  0  0  0  0
   -1.8970  -21.5368   35.7259 O   0  0  0  0  0  0  0  0  0  0  0  0
   -4.1980  -22.5734   34.4924 N   0  0  0  0  0  0  0  0  0  0  0  0
   -5.3540  -23.2631   34.0427 C   0  0  2  0  0  0  0  0  0  0  0  0
   -6.6372  -22.9111   34.8416 C   0  0  0  0  0  0  0  0  0  0  0  0
   -5.2168  -22.3068   36.7649 C   0  0  0  0  0  0  0  0  0  0  0  0
   -6.4809  -22.8446   36.2291 N   0  0  0  0  0  0  0  0  0  0  0  0
   -5.0397  -24.7478   34.0265 C   0  0  1  0  0  0  0  0  0  0  0  0
   -4.9058  -25.2300   35.3134 O   0  0  0  0  0  0  0  0  0  0  0  0
   -6.1107  -25.4994   33.2939 C   0  0  1  0  0  0  0  0  0  0  0  0
   -6.2682  -25.0120   32.0551 O   0  0  0  0  0  0  0  0  0  0  0  0
   -5.7600  -26.9982   33.1798 C   0  0  0  0  0  0  0  0  0  0  0  0
  1  2  2  0  0  0  0
  1 11  1  0  0  0  0
  2  3  1  0  0  0  0
  2  4  1  0  0  0  0
  4  5  1  0  0  0  0
  5  6  1  0  0  0  0
  5  7  2  0  0  0  0
  6  8  1  0  0  0  0
  6 11  2  0  0  0  0
  9  8  1  1  0  0  0
  9 10  1  0  0  0  0
  9 13  1  0  0  0  0
 10 12  1  0  0  0  0
 11 12  1  0  0  0  0
 13 14  1  1  0  0  0
 13 15  1  0  0  0  0
 15 16  1  6  0  0  0
 15 17  1  0  0  0  0
M  END
>  <CHROM.1>
69.35785555,55.80714575,-4.74434945,-23.14450635,35.62690769,1.17985646,0.43156914
1.04753364

>  <Name>
ligand

>  <RI>
0

>  <Rbt.Current_Directory>
/home/itssahil/PROJECTS/Mol_Feturizer/New_Systems/rnas/4LVX

>  <Rbt.Executable>
rbdock ($Id: //depot/dev/client3/rdock/2013.1/src/exe/rbdock.cxx#4 $)

>  <Rbt.Library>
libRbt.so (2013.1, Build901 2013/11/27)

>  <Rbt.Parameter_File>
/export/apps/rDock/src/rDock_2013.1_src/data/scripts/dock_solv.prm

>  <Rbt.Receptor>
prm/blind_docking_100.prm

>  <SCORE>
-14.8039

>  <SCORE.INTER>
-7.56641

>  <SCORE.INTER.CONST>
1

>  <SCORE.INTER.POLAR>
0

>  <SCORE.INTER.ROT>
2

>  <SCORE.INTER.SOLV>
9.18474

>  <SCORE.INTER.VDW>
-13.0392

>  <SCORE.INTER.norm>
-0.445083

>  <SCORE.INTRA>
-7.24054

>  <SCORE.INTRA.DIHEDRAL>
-9.80736

>  <SCORE.INTRA.DIHEDRAL.0>
10.3255

>  <SCORE.INTRA.POLAR>
0

>  <SCORE.INTRA.POLAR.0>
0

>  <SCORE.INTRA.REPUL>
0

>  <SCORE.INTRA.REPUL.0>
0

>  <SCORE.INTRA.SOLV>
-0.155421

>  <SCORE.INTRA.SOLV.lig_0>
-53.4755

>  <SCORE.INTRA.VDW>
-2.25915

>  <SCORE.INTRA.VDW.0>
2.32763

>  <SCORE.INTRA.norm>
-0.425914

>  <SCORE.RESTR>
0.00301391

>  <SCORE.RESTR.CAVITY>
0.00301391

>  <SCORE.RESTR.norm>
0.000177289

>  <SCORE.SYSTEM>
0

>  <SCORE.SYSTEM.CONST>
0

>  <SCORE.SYSTEM.DIHEDRAL>
0

>  <SCORE.SYSTEM.SOLV>
0

>  <SCORE.SYSTEM.norm>
0

>  <SCORE.heavy>
17

>  <SCORE.norm>
-0.87082

>  <RMSD>
32.364

$$$$
ligand
 OpenBabel11021811503D
libRbt.so/2013.1/901 2013/11/27
 17 18  0  0  0  0  0  0  0  0999 V2000
   -5.4726  -21.8282   37.9235 N   0  0  0  0  0  0  0  0  0  0  0  0
   -4.3004  -21.3593   38.5302 C   0  0  0  0  0  0  0  0  0  0  0  0
   -4.3362  -20.9092   39.8916 N   0  0  0  0  0  0  0  0  0  0  0  0
   -3.1026  -21.3274   37.8493 N   0  0  0  0  0  0  0  0  0  0  0  0
   -3.0182  -21.7524   36.5396 C   0  0  0  0  0  0  0  0  0  0  0  0
   -4.1848  -22.2353   35.8679 C   0  0  0  0  0  0  0  0  0  0  0  0
   -1.9525  -21.7155   35.9543 O   0  0  0  0  0  0  0  0  0  0  0  0
   -4.1365  -22.6891   34.4803 N   0  0  0  0  0  0  0  0  0  0  0  0
   -5.2646  -23.3388   33.9148 C   0  0  2  0  0  0  0  0  0  0  0  0
   -6.6154  -22.8851   34.5296 C   0  0  0  0  0  0  0  0  0  0  0  0
   -5.4142  -22.2657   36.5925 C   0  0  0  0  0  0  0  0  0  0  0  0
   -6.6300  -22.7625   35.9220 N   0  0  0  0  0  0  0  0  0  0  0  0
   -5.0352  -24.8369   33.9974 C   0  0  1  0  0  0  0  0  0  0  0  0
   -5.0718  -25.2622   35.3105 O   0  0  0  0  0  0  0  0  0  0  0  0
   -6.0597  -25.5668   33.1812 C   0  0  1  0  0  0  0  0  0  0  0  0
   -6.0434  -25.1411   31.9102 O   0  0  0  0  0  0  0  0  0  0  0  0
   -5.7922  -27.0870   33.1824 C   0  0  0  0  0  0  0  0  0  0  0  0
  1  2  2  0  0  0  0
  1 11  1  0  0  0  0
  2  3  1  0  0  0  0
  2  4  1  0  0  0  0
  4  5  1  0  0  0  0
  5  6  1  0  0  0  0
  5  7  2  0  0  0  0
  6  8  1  0  0  0  0
  6 11  2  0  0  0  0
  9  8  1  1  0  0  0
  9 10  1  0  0  0  0
  9 13  1  0  0  0  0
 10 12  1  0  0  0  0
 11 12  1  0  0  0  0
 13 14  1  1  0  0  0
 13 15  1  0  0  0  0
 15 16  1  6  0  0  0
 15 17  1  0  0  0  0
M  END
>  <CHROM.1>
68.51785896,56.35548311,-4.85402335,-23.17923207,35.56136907,1.26128404,0.31913764
0.97296014

>  <Name>
ligand

>  <RI>
0

>  <Rbt.Current_Directory>
/home/itssahil/PROJECTS/Mol_Feturizer/New_Systems/rnas/4LVX

>  <Rbt.Executable>
rbdock ($Id: //depot/dev/client3/rdock/2013.1/src/exe/rbdock.cxx#4 $)

>  <Rbt.Library>
libRbt.so (2013.1, Build901 2013/11/27)

>  <Rbt.Parameter_File>
/export/apps/rDock/src/rDock_2013.1_src/data/scripts/dock_solv.prm

>  <Rbt.Receptor>
prm/blind_docking_100.prm

>  <SCORE>
-14.7164

>  <SCORE.INTER>
-7.46027

>  <SCORE.INTER.CONST>
1

>  <SCORE.INTER.POLAR>
0

>  <SCORE.INTER.ROT>
2

>  <SCORE.INTER.SOLV>
8.07904

>  <SCORE.INTER.VDW>
-12.5999

>  <SCORE.INTER.norm>
-0.43884

>  <SCORE.INTRA>
-7.25608

>  <SCORE.INTRA.DIHEDRAL>
-9.87425

>  <SCORE.INTRA.DIHEDRAL.0>
10.3255

>  <SCORE.INTRA.POLAR>
0

>  <SCORE.INTRA.POLAR.0>
0

>  <SCORE.INTRA.REPUL>
0

>  <SCORE.INTRA.REPUL.0>
0

>  <SCORE.INTRA.SOLV>
-0.154063

>  <SCORE.INTRA.SOLV.lig_0>
-53.4755

>  <SCORE.INTRA.VDW>
-2.24193

>  <SCORE.INTRA.VDW.0>
2.32763

>  <SCORE.INTRA.norm>
-0.426828

>  <SCORE.RESTR>
0

>  <SCORE.RESTR.CAVITY>
0

>  <SCORE.RESTR.norm>
0

>  <SCORE.SYSTEM>
0

>  <SCORE.SYSTEM.CONST>
0

>  <SCORE.SYSTEM.DIHEDRAL>
0

>  <SCORE.SYSTEM.SOLV>
0

>  <SCORE.SYSTEM.norm>
0

>  <SCORE.heavy>
17

>  <SCORE.norm>
-0.865668

>  <RMSD>
32.370

$$$$
ligand
 OpenBabel11021811503D
libRbt.so/2013.1/901 2013/11/27
 17 18  0  0  0  0  0  0  0  0999 V2000
   -6.4048  -24.7772   32.4207 N   0  0  0  0  0  0  0  0  0  0  0  0
   -5.9617  -26.0993   32.5542 C   0  0  0  0  0  0  0  0  0  0  0  0
   -6.2349  -27.0486   31.5143 N   0  0  0  0  0  0  0  0  0  0  0  0
   -5.2569  -26.5117   33.6644 N   0  0  0  0  0  0  0  0  0  0  0  0
   -4.9678  -25.6344   34.6890 C   0  0  0  0  0  0  0  0  0  0  0  0
   -5.4010  -24.2738   34.6089 C   0  0  0  0  0  0  0  0  0  0  0  0
   -4.3459  -26.0170   35.6618 O   0  0  0  0  0  0  0  0  0  0  0  0
   -5.1187  -23.3164   35.6755 N   0  0  0  0  0  0  0  0  0  0  0  0
   -5.3931  -21.9388   35.4726 C   0  0  2  0  0  0  0  0  0  0  0  0
   -6.5703  -21.6774   34.4955 C   0  0  0  0  0  0  0  0  0  0  0  0
   -6.1245  -23.8652   33.4482 C   0  0  0  0  0  0  0  0  0  0  0  0
   -6.5789  -22.4664   33.3416 N   0  0  0  0  0  0  0  0  0  0  0  0
   -4.1013  -21.2575   35.0594 C   0  0  1  0  0  0  0  0  0  0  0  0
   -4.2641  -19.8868   35.0267 O   0  0  0  0  0  0  0  0  0  0  0  0
   -2.9919  -21.6316   35.9963 C   0  0  1  0  0  0  0  0  0  0  0  0
   -1.8083  -21.2283   35.5134 O   0  0  0  0  0  0  0  0  0  0  0  0
   -3.1917  -20.9829   37.3826 C   0  0  0  0  0  0  0  0  0  0  0  0
  1  2  2  0  0  0  0
  1 11  1  0  0  0  0
  2  3  1  0  0  0  0
  2  4  1  0  0  0  0
  4  5  1  0  0  0  0
  5  6  1  0  0  0  0
  5  7  2  0  0  0  0
  6  8  1  0  0  0  0
  6 11  2  0  0  0  0
  9  8  1  6  0  0  0
  9 10  1  0  0  0  0
  9 13  1  0  0  0  0
 10 12  1  0  0  0  0
 11 12  1  0  0  0  0
 13 14  1  1  0  0  0
 13 15  1  0  0  0  0
 15 16  1  6  0  0  0
 15 17  1  0  0  0  0
M  END
>  <CHROM.1>
-171.74018642,169.27417041,-4.92589867,-23.38097359,34.54737976,2.10025281
0.73504405,-2.99042989

>  <Name>
ligand

>  <RI>
0

>  <Rbt.Current_Directory>
/home/itssahil/PROJECTS/Mol_Feturizer/New_Systems/rnas/4LVX

>  <Rbt.Executable>
rbdock ($Id: //depot/dev/client3/rdock/2013.1/src/exe/rbdock.cxx#4 $)

>  <Rbt.Library>
libRbt.so (2013.1, Build901 2013/11/27)

>  <Rbt.Parameter_File>
/export/apps/rDock/src/rDock_2013.1_src/data/scripts/dock_solv.prm

>  <Rbt.Receptor>
prm/blind_docking_80.prm

>  <SCORE>
-16.699

>  <SCORE.INTER>
-10.4163

>  <SCORE.INTER.CONST>
1

>  <SCORE.INTER.POLAR>
0

>  <SCORE.INTER.ROT>
2

>  <SCORE.INTER.SOLV>
11.9411

>  <SCORE.INTER.VDW>
-15.8579

>  <SCORE.INTER.norm>
-0.612724

>  <SCORE.INTRA>
-6.28267

>  <SCORE.INTRA.DIHEDRAL>
-9.51424

>  <SCORE.INTRA.DIHEDRAL.0>
10.3255

>  <SCORE.INTRA.POLAR>
0

>  <SCORE.INTRA.POLAR.0>
0

>  <SCORE.INTRA.REPUL>
0

>  <SCORE.INTRA.REPUL.0>
0

>  <SCORE.INTRA.SOLV>
-0.469367

>  <SCORE.INTRA.SOLV.lig_0>
-53.4755

>  <SCORE.INTRA.VDW>
-1.29087

>  <SCORE.INTRA.VDW.0>
2.32763

>  <SCORE.INTRA.norm>
-0.369569

>  <SCORE.RESTR>
0

>  <SCORE.RESTR.CAVITY>
0

>  <SCORE.RESTR.norm>
0

>  <SCORE.SYSTEM>
0

>  <SCORE.SYSTEM.CONST>
0

>  <SCORE.SYSTEM.DIHEDRAL>
0

>  <SCORE.SYSTEM.SOLV>
0

>  <SCORE.SYSTEM.norm>
0

>  <SCORE.heavy>
17

>  <SCORE.norm>
-0.982293

>  <RMSD>
32.438

$$$$
ligand
 OpenBabel11021811503D
libRbt.so/2013.1/901 2013/11/27
 17 18  0  0  0  0  0  0  0  0999 V2000
   -7.7043  -25.0760   35.5923 N   0  0  0  0  0  0  0  0  0  0  0  0
   -8.9910  -24.6532   35.2350 C   0  0  0  0  0  0  0  0  0  0  0  0
  -10.1167  -25.5014   35.5003 N   0  0  0  0  0  0  0  0  0  0  0  0
   -9.2048  -23.4296   34.6380 N   0  0  0  0  0  0  0  0  0  0  0  0
   -8.1539  -22.5785   34.3656 C   0  0  0  0  0  0  0  0  0  0  0  0
   -6.8179  -22.9611   34.7030 C   0  0  0  0  0  0  0  0  0  0  0  0
   -8.3619  -21.5030   33.8368 O   0  0  0  0  0  0  0  0  0  0  0  0
   -5.6788  -22.0896   34.4259 N   0  0  0  0  0  0  0  0  0  0  0  0
   -4.4007  -22.4178   34.9485 C   0  0  2  0  0  0  0  0  0  0  0  0
   -4.1768  -23.9428   35.1299 C   0  0  0  0  0  0  0  0  0  0  0  0
   -6.6183  -24.2298   35.3260 C   0  0  0  0  0  0  0  0  0  0  0  0
   -5.2499  -24.6449   35.6861 N   0  0  0  0  0  0  0  0  0  0  0  0
   -4.1947  -21.6203   36.2234 C   0  0  1  0  0  0  0  0  0  0  0  0
   -5.0343  -22.0741   37.2212 O   0  0  0  0  0  0  0  0  0  0  0  0
   -2.7638  -21.7028   36.6643 C   0  0  1  0  0  0  0  0  0  0  0  0
   -1.9427  -21.2966   35.6857 O   0  0  0  0  0  0  0  0  0  0  0  0
   -2.5111  -20.8168   37.9027 C   0  0  0  0  0  0  0  0  0  0  0  0
  1  2  2  0  0  0  0
  1 11  1  0  0  0  0
  2  3  1  0  0  0  0
  2  4  1  0  0  0  0
  4  5  1  0  0  0  0
  5  6  1  0  0  0  0
  5  7  2  0  0  0  0
  6  8  1  0  0  0  0
  6 11  2  0  0  0  0
  9  8  1  1  0  0  0
  9 10  1  0  0  0  0
  9 13  1  0  0  0  0
 10 12  1  0  0  0  0
 11 12  1  0  0  0  0
 13 14  1  1  0  0  0
 13 15  1  0  0  0  0
 15 16  1  6  0  0  0
 15 17  1  0  0  0  0
M  END
>  <CHROM.1>
69.30191925,55.75988343,-5.92912600,-22.92087451,35.50232261,-2.86931856
-0.38682591,-0.37870210

>  <Name>
ligand

>  <RI>
0

>  <Rbt.Current_Directory>
/home/itssahil/PROJECTS/Mol_Feturizer/New_Systems/rnas/4LVX

>  <Rbt.Executable>
rbdock ($Id: //depot/dev/client3/rdock/2013.1/src/exe/rbdock.cxx#4 $)

>  <Rbt.Library>
libRbt.so (2013.1, Build901 2013/11/27)

>  <Rbt.Parameter_File>
/export/apps/rDock/src/rDock_2013.1_src/data/scripts/dock_solv.prm

>  <Rbt.Receptor>
prm/blind_docking_80.prm

>  <SCORE>
-15.9372

>  <SCORE.INTER>
-8.71422

>  <SCORE.INTER.CONST>
1

>  <SCORE.INTER.POLAR>
0

>  <SCORE.INTER.ROT>
2

>  <SCORE.INTER.SOLV>
9.06651

>  <SCORE.INTER.VDW>
-13.765

>  <SCORE.INTER.norm>
-0.512601

>  <SCORE.INTRA>
-7.24109

>  <SCORE.INTRA.DIHEDRAL>
-9.80931

>  <SCORE.INTRA.DIHEDRAL.0>
10.3255

>  <SCORE.INTRA.POLAR>
0

>  <SCORE.INTRA.POLAR.0>
0

>  <SCORE.INTRA.REPUL>
0

>  <SCORE.INTRA.REPUL.0>
0

>  <SCORE.INTRA.SOLV>
-0.154894

>  <SCORE.INTRA.SOLV.lig_0>
-53.4755

>  <SCORE.INTRA.VDW>
-2.25898

>  <SCORE.INTRA.VDW.0>
2.32763

>  <SCORE.INTRA.norm>
-0.425946

>  <SCORE.RESTR>
0.0181154

>  <SCORE.RESTR.CAVITY>
0.0181154

>  <SCORE.RESTR.norm>
0.00106561

>  <SCORE.SYSTEM>
0

>  <SCORE.SYSTEM.CONST>
0

>  <SCORE.SYSTEM.DIHEDRAL>
0

>  <SCORE.SYSTEM.SOLV>
0

>  <SCORE.SYSTEM.norm>
0

>  <SCORE.heavy>
17

>  <SCORE.norm>
-0.937482

>  <RMSD>
32.440

$$$$
ligand
 OpenBabel11021811503D
libRbt.so/2013.1/901 2013/11/27
 17 18  0  0  0  0  0  0  0  0999 V2000
   -6.4372  -24.8640   32.4215 N   0  0  0  0  0  0  0  0  0  0  0  0
   -5.9708  -26.1754   32.5790 C   0  0  0  0  0  0  0  0  0  0  0  0
   -6.2375  -27.1511   31.5621 N   0  0  0  0  0  0  0  0  0  0  0  0
   -5.2494  -26.5523   33.6911 N   0  0  0  0  0  0  0  0  0  0  0  0
   -4.9658  -25.6486   34.6940 C   0  0  0  0  0  0  0  0  0  0  0  0
   -5.4223  -24.2974   34.5891 C   0  0  0  0  0  0  0  0  0  0  0  0
   -4.3289  -26.0000   35.6689 O   0  0  0  0  0  0  0  0  0  0  0  0
   -5.1465  -23.3128   35.6324 N   0  0  0  0  0  0  0  0  0  0  0  0
   -5.4457  -21.9446   35.4028 C   0  0  2  0  0  0  0  0  0  0  0  0
   -6.6357  -21.7236   34.4314 C   0  0  0  0  0  0  0  0  0  0  0  0
   -6.1629  -23.9257   33.4268 C   0  0  0  0  0  0  0  0  0  0  0  0
   -6.6416  -22.5372   33.2947 N   0  0  0  0  0  0  0  0  0  0  0  0
   -4.1692  -21.2511   34.9633 C   0  0  1  0  0  0  0  0  0  0  0  0
   -4.3378  -19.8807   34.9586 O   0  0  0  0  0  0  0  0  0  0  0  0
   -3.0311  -21.6363   35.8605 C   0  0  1  0  0  0  0  0  0  0  0  0
   -1.8655  -21.2045   35.3586 O   0  0  0  0  0  0  0  0  0  0  0  0
   -3.2026  -21.0286   37.2690 C   0  0  0  0  0  0  0  0  0  0  0  0
  1  2  2  0  0  0  0
  1 11  1  0  0  0  0
  2  3  1  0  0  0  0
  2  4  1  0  0  0  0
  4  5  1  0  0  0  0
  5  6  1  0  0  0  0
  5  7  2  0  0  0  0
  6  8  1  0  0  0  0
  6 11  2  0  0  0  0
  9  8  1  6  0  0  0
  9 10  1  0  0  0  0
  9 13  1  0  0  0  0
 10 12  1  0  0  0  0
 11 12  1  0  0  0  0
 13 14  1  1  0  0  0
 13 15  1  0  0  0  0
 15 16  1  6  0  0  0
 15 17  1  0  0  0  0
M  END
>  <CHROM.1>
-169.15179282,170.09617807,-4.95764040,-23.41039974,34.50327626,2.08264659
0.71836519,-2.99631795

>  <Name>
ligand

>  <RI>
0

>  <Rbt.Current_Directory>
/home/itssahil/PROJECTS/Mol_Feturizer/New_Systems/rnas/4LVX

>  <Rbt.Executable>
rbdock ($Id: //depot/dev/client3/rdock/2013.1/src/exe/rbdock.cxx#4 $)

>  <Rbt.Library>
libRbt.so (2013.1, Build901 2013/11/27)

>  <Rbt.Parameter_File>
/export/apps/rDock/src/rDock_2013.1_src/data/scripts/dock_solv.prm

>  <Rbt.Receptor>
prm/blind_docking_100.prm

>  <SCORE>
-16.4494

>  <SCORE.INTER>
-10.3054

>  <SCORE.INTER.CONST>
1

>  <SCORE.INTER.POLAR>
0

>  <SCORE.INTER.ROT>
2

>  <SCORE.INTER.SOLV>
11.7756

>  <SCORE.INTER.VDW>
-15.7288

>  <SCORE.INTER.norm>
-0.606198

>  <SCORE.INTRA>
-6.16293

>  <SCORE.INTRA.DIHEDRAL>
-9.41001

>  <SCORE.INTRA.DIHEDRAL.0>
10.3255

>  <SCORE.INTRA.POLAR>
0

>  <SCORE.INTRA.POLAR.0>
0

>  <SCORE.INTRA.REPUL>
0

>  <SCORE.INTRA.REPUL.0>
0

>  <SCORE.INTRA.SOLV>
-0.442242

>  <SCORE.INTRA.SOLV.lig_0>
-53.4755

>  <SCORE.INTRA.VDW>
-1.2368

>  <SCORE.INTRA.VDW.0>
2.32763

>  <SCORE.INTRA.norm>
-0.362525

>  <SCORE.RESTR>
0.0189183

>  <SCORE.RESTR.CAVITY>
0.0189183

>  <SCORE.RESTR.norm>
0.00111284

>  <SCORE.SYSTEM>
0

>  <SCORE.SYSTEM.CONST>
0

>  <SCORE.SYSTEM.DIHEDRAL>
0

>  <SCORE.SYSTEM.SOLV>
0

>  <SCORE.SYSTEM.norm>
0

>  <SCORE.heavy>
17

>  <SCORE.norm>
-0.96761

>  <RMSD>
32.452

$$$$
ligand
 OpenBabel11021811503D
libRbt.so/2013.1/901 2013/11/27
 17 18  0  0  0  0  0  0  0  0999 V2000
   -6.3197  -24.8329   32.4025 N   0  0  0  0  0  0  0  0  0  0  0  0
   -5.8757  -26.1494   32.5812 C   0  0  0  0  0  0  0  0  0  0  0  0
   -6.0905  -27.1183   31.5458 N   0  0  0  0  0  0  0  0  0  0  0  0
   -5.2253  -26.5377   33.7326 N   0  0  0  0  0  0  0  0  0  0  0  0
   -4.9935  -25.6409   34.7548 C   0  0  0  0  0  0  0  0  0  0  0  0
   -5.4305  -24.2850   34.6293 C   0  0  0  0  0  0  0  0  0  0  0  0
   -4.4191  -26.0024   35.7642 O   0  0  0  0  0  0  0  0  0  0  0  0
   -5.2081  -23.3074   35.6917 N   0  0  0  0  0  0  0  0  0  0  0  0
   -5.4804  -21.9354   35.4512 C   0  0  2  0  0  0  0  0  0  0  0  0
   -6.6084  -21.6991   34.4117 C   0  0  0  0  0  0  0  0  0  0  0  0
   -6.0970  -23.9014   33.4267 C   0  0  0  0  0  0  0  0  0  0  0  0
   -6.5541  -22.5079   33.2729 N   0  0  0  0  0  0  0  0  0  0  0  0
   -4.1736  -21.2523   35.0915 C   0  0  1  0  0  0  0  0  0  0  0  0
   -4.3424  -19.8834   35.0287 O   0  0  0  0  0  0  0  0  0  0  0  0
   -3.1100  -21.6042   36.0882 C   0  0  1  0  0  0  0  0  0  0  0  0
   -1.9016  -21.2334   35.6418 O   0  0  0  0  0  0  0  0  0  0  0  0
   -3.3595  -20.9018   37.4398 C   0  0  0  0  0  0  0  0  0  0  0  0
  1  2  2  0  0  0  0
  1 11  1  0  0  0  0
  2  3  1  0  0  0  0
  2  4  1  0  0  0  0
  4  5  1  0  0  0  0
  5  6  1  0  0  0  0
  5  7  2  0  0  0  0
  6  8  1  0  0  0  0
  6 11  2  0  0  0  0
  9  8  1  6  0  0  0
  9 10  1  0  0  0  0
  9 13  1  0  0  0  0
 10 12  1  0  0  0  0
 11 12  1  0  0  0  0
 13 14  1  1  0  0  0
 13 15  1  0  0  0  0
 15 16  1  6  0  0  0
 15 17  1  0  0  0  0
M  END
>  <CHROM.1>
-171.65100965,167.60167882,-4.95636035,-23.39052392,34.57406928,2.07962909
0.77967857,-2.99259100

>  <Name>
ligand

>  <RI>
0

>  <Rbt.Current_Directory>
/home/itssahil/PROJECTS/Mol_Feturizer/New_Systems/rnas/4LVX

>  <Rbt.Executable>
rbdock ($Id: //depot/dev/client3/rdock/2013.1/src/exe/rbdock.cxx#4 $)

>  <Rbt.Library>
libRbt.so (2013.1, Build901 2013/11/27)

>  <Rbt.Parameter_File>
/export/apps/rDock/src/rDock_2013.1_src/data/scripts/dock_solv.prm

>  <Rbt.Receptor>
prm/blind_docking_100.prm

>  <SCORE>
-16.3655

>  <SCORE.INTER>
-10.1584

>  <SCORE.INTER.CONST>
1

>  <SCORE.INTER.POLAR>
0

>  <SCORE.INTER.ROT>
2

>  <SCORE.INTER.SOLV>
11.5642

>  <SCORE.INTER.VDW>
-15.5604

>  <SCORE.INTER.norm>
-0.597555

>  <SCORE.INTRA>
-6.20707

>  <SCORE.INTRA.DIHEDRAL>
-9.37321

>  <SCORE.INTRA.DIHEDRAL.0>
10.3255

>  <SCORE.INTRA.POLAR>
0

>  <SCORE.INTRA.POLAR.0>
0

>  <SCORE.INTRA.REPUL>
0

>  <SCORE.INTRA.REPUL.0>
0

>  <SCORE.INTRA.SOLV>
-0.475446

>  <SCORE.INTRA.SOLV.lig_0>
-53.4755

>  <SCORE.INTRA.VDW>
-1.28274

>  <SCORE.INTRA.VDW.0>
2.32763

>  <SCORE.INTRA.norm>
-0.365122

>  <SCORE.RESTR>
0

>  <SCORE.RESTR.CAVITY>
0

>  <SCORE.RESTR.norm>
0

>  <SCORE.SYSTEM>
0

>  <SCORE.SYSTEM.CONST>
0

>  <SCORE.SYSTEM.DIHEDRAL>
0

>  <SCORE.SYSTEM.SOLV>
0

>  <SCORE.SYSTEM.norm>
0

>  <SCORE.heavy>
17

>  <SCORE.norm>
-0.962677

>  <RMSD>
32.466

$$$$
ligand
 OpenBabel11021811503D
libRbt.so/2013.1/901 2013/11/27
 17 18  0  0  0  0  0  0  0  0999 V2000
   -6.4708  -21.4866   34.0890 N   0  0  0  0  0  0  0  0  0  0  0  0
   -5.7397  -20.9934   35.1773 C   0  0  0  0  0  0  0  0  0  0  0  0
   -6.1757  -19.8007   35.8440 N   0  0  0  0  0  0  0  0  0  0  0  0
   -4.6080  -21.6351   35.6321 N   0  0  0  0  0  0  0  0  0  0  0  0
   -4.1515  -22.7866   35.0249 C   0  0  0  0  0  0  0  0  0  0  0  0
   -4.8549  -23.3318   33.9055 C   0  0  0  0  0  0  0  0  0  0  0  0
   -3.1499  -23.3383   35.4395 O   0  0  0  0  0  0  0  0  0  0  0  0
   -4.4000  -24.5461   33.2329 N   0  0  0  0  0  0  0  0  0  0  0  0
   -5.2276  -25.1597   32.2568 C   0  0  2  0  0  0  0  0  0  0  0  0
   -6.1446  -24.1599   31.5029 C   0  0  0  0  0  0  0  0  0  0  0  0
   -6.0279  -22.6555   33.4535 C   0  0  0  0  0  0  0  0  0  0  0  0
   -6.7718  -23.2004   32.3028 N   0  0  0  0  0  0  0  0  0  0  0  0
   -5.9871  -26.2900   32.9269 C   0  0  1  0  0  0  0  0  0  0  0  0
   -7.1439  -25.8169   33.5139 O   0  0  0  0  0  0  0  0  0  0  0  0
   -6.3062  -27.3655   31.9319 C   0  0  1  0  0  0  0  0  0  0  0  0
   -6.8837  -26.8443   30.8403 O   0  0  0  0  0  0  0  0  0  0  0  0
   -5.0292  -28.1117   31.4903 C   0  0  0  0  0  0  0  0  0  0  0  0
  1  2  2  0  0  0  0
  1 11  1  0  0  0  0
  2  3  1  0  0  0  0
  2  4  1  0  0  0  0
  4  5  1  0  0  0  0
  5  6  1  0  0  0  0
  5  7  2  0  0  0  0
  6  8  1  0  0  0  0
  6 11  2  0  0  0  0
  9  8  1  1  0  0  0
  9 10  1  0  0  0  0
  9 13  1  0  0  0  0
 10 12  1  0  0  0  0
 11 12  1  0  0  0  0
 13 14  1  6  0  0  0
 13 15  1  0  0  0  0
 15 16  1  6  0  0  0
 15 17  1  0  0  0  0
M  END
>  <CHROM.1>
86.06250154,-50.64284027,-5.60394972,-24.04790305,33.41296373,1.42286930
-0.56109260,0.48186026

>  <Name>
ligand

>  <RI>
0

>  <Rbt.Current_Directory>
/home/itssahil/PROJECTS/Mol_Feturizer/New_Systems/rnas/4LVX

>  <Rbt.Executable>
rbdock ($Id: //depot/dev/client3/rdock/2013.1/src/exe/rbdock.cxx#4 $)

>  <Rbt.Library>
libRbt.so (2013.1, Build901 2013/11/27)

>  <Rbt.Parameter_File>
/export/apps/rDock/src/rDock_2013.1_src/data/scripts/dock_solv.prm

>  <Rbt.Receptor>
prm/blind_docking_80.prm

>  <SCORE>
1.79031

>  <SCORE.INTER>
7.07709

>  <SCORE.INTER.CONST>
1

>  <SCORE.INTER.POLAR>
0

>  <SCORE.INTER.ROT>
2

>  <SCORE.INTER.SOLV>
13.7625

>  <SCORE.INTER.VDW>
-4.80279

>  <SCORE.INTER.norm>
0.416299

>  <SCORE.INTRA>
-5.30491

>  <SCORE.INTRA.DIHEDRAL>
-7.8481

>  <SCORE.INTRA.DIHEDRAL.0>
10.3255

>  <SCORE.INTRA.POLAR>
0

>  <SCORE.INTRA.POLAR.0>
0

>  <SCORE.INTRA.REPUL>
0

>  <SCORE.INTRA.REPUL.0>
0

>  <SCORE.INTRA.SOLV>
0.333179

>  <SCORE.INTRA.SOLV.lig_0>
-53.4755

>  <SCORE.INTRA.VDW>
-1.54745

>  <SCORE.INTRA.VDW.0>
2.32763

>  <SCORE.INTRA.norm>
-0.312053

>  <SCORE.RESTR>
0.0181296

>  <SCORE.RESTR.CAVITY>
0.0181296

>  <SCORE.RESTR.norm>
0.00106645

>  <SCORE.SYSTEM>
0

>  <SCORE.SYSTEM.CONST>
0

>  <SCORE.SYSTEM.DIHEDRAL>
0

>  <SCORE.SYSTEM.SOLV>
0

>  <SCORE.SYSTEM.norm>
0

>  <SCORE.heavy>
17

>  <SCORE.norm>
0.105313

>  <RMSD>
32.466

$$$$
ligand
 OpenBabel11021811503D
libRbt.so/2013.1/901 2013/11/27
 17 18  0  0  0  0  0  0  0  0999 V2000
   -6.4483  -24.8940   32.6790 N   0  0  0  0  0  0  0  0  0  0  0  0
   -5.9642  -26.2028   32.7999 C   0  0  0  0  0  0  0  0  0  0  0  0
   -6.2859  -27.1748   31.7954 N   0  0  0  0  0  0  0  0  0  0  0  0
   -5.1736  -26.5806   33.8636 N   0  0  0  0  0  0  0  0  0  0  0  0
   -4.8354  -25.6805   34.8527 C   0  0  0  0  0  0  0  0  0  0  0  0
   -5.3069  -24.3321   34.7840 C   0  0  0  0  0  0  0  0  0  0  0  0
   -4.1377  -26.0326   35.7847 O   0  0  0  0  0  0  0  0  0  0  0  0
   -4.9746  -23.3513   35.8143 N   0  0  0  0  0  0  0  0  0  0  0  0
   -5.2967  -21.9841   35.6116 C   0  0  2  0  0  0  0  0  0  0  0  0
   -6.5453  -21.7663   34.7160 C   0  0  0  0  0  0  0  0  0  0  0  0
   -6.1196  -23.9593   33.6713 C   0  0  0  0  0  0  0  0  0  0  0  0
   -6.6151  -22.5736   33.5770 N   0  0  0  0  0  0  0  0  0  0  0  0
   -4.0542  -21.2789   35.0990 C   0  0  1  0  0  0  0  0  0  0  0  0
   -4.2656  -19.9165   35.0227 O   0  0  0  0  0  0  0  0  0  0  0  0
   -2.8819  -21.5787   35.9846 C   0  0  1  0  0  0  0  0  0  0  0  0
   -1.7437  -21.1418   35.4274 O   0  0  0  0  0  0  0  0  0  0  0  0
   -3.0357  -20.8976   37.3612 C   0  0  0  0  0  0  0  0  0  0  0  0
  1  2  2  0  0  0  0
  1 11  1  0  0  0  0
  2  3  1  0  0  0  0
  2  4  1  0  0  0  0
  4  5  1  0  0  0  0
  5  6  1  0  0  0  0
  5  7  2  0  0  0  0
  6  8  1  0  0  0  0
  6 11  2  0  0  0  0
  9  8  1  6  0  0  0
  9 10  1  0  0  0  0
  9 13  1  0  0  0  0
 10 12  1  0  0  0  0
 11 12  1  0  0  0  0
 13 14  1  1  0  0  0
 13 15  1  0  0  0  0
 15 16  1  6  0  0  0
 15 17  1  0  0  0  0
M  END
>  <CHROM.1>
-173.42581891,170.08725947,-4.86422942,-23.42143022,34.67871463,2.08146532
0.66854693,-2.99669366

>  <Name>
ligand

>  <RI>
0

>  <Rbt.Current_Directory>
/home/itssahil/PROJECTS/Mol_Feturizer/New_Systems/rnas/4LVX

>  <Rbt.Executable>
rbdock ($Id: //depot/dev/client3/rdock/2013.1/src/exe/rbdock.cxx#4 $)

>  <Rbt.Library>
libRbt.so (2013.1, Build901 2013/11/27)

>  <Rbt.Parameter_File>
/export/apps/rDock/src/rDock_2013.1_src/data/scripts/dock_solv.prm

>  <Rbt.Receptor>
prm/blind_docking_80.prm

>  <SCORE>
-16.6152

>  <SCORE.INTER>
-10.2294

>  <SCORE.INTER.CONST>
1

>  <SCORE.INTER.POLAR>
0

>  <SCORE.INTER.ROT>
2

>  <SCORE.INTER.SOLV>
11.3593

>  <SCORE.INTER.VDW>
-15.5394

>  <SCORE.INTER.norm>
-0.601731

>  <SCORE.INTRA>
-6.38582

>  <SCORE.INTRA.DIHEDRAL>
-9.65867

>  <SCORE.INTRA.DIHEDRAL.0>
10.3255

>  <SCORE.INTRA.POLAR>
0

>  <SCORE.INTRA.POLAR.0>
0

>  <SCORE.INTRA.REPUL>
0

>  <SCORE.INTRA.REPUL.0>
0

>  <SCORE.INTRA.SOLV>
-0.480828

>  <SCORE.INTRA.SOLV.lig_0>
-53.4755

>  <SCORE.INTRA.VDW>
-1.31607

>  <SCORE.INTRA.VDW.0>
2.32763

>  <SCORE.INTRA.norm>
-0.375636

>  <SCORE.RESTR>
0

>  <SCORE.RESTR.CAVITY>
0

>  <SCORE.RESTR.norm>
0

>  <SCORE.SYSTEM>
0

>  <SCORE.SYSTEM.CONST>
0

>  <SCORE.SYSTEM.DIHEDRAL>
0

>  <SCORE.SYSTEM.SOLV>
0

>  <SCORE.SYSTEM.norm>
0

>  <SCORE.heavy>
17

>  <SCORE.norm>
-0.977368

>  <RMSD>
32.511

$$$$
ligand
 OpenBabel11021811503D
libRbt.so/2013.1/901 2013/11/27
 17 18  0  0  0  0  0  0  0  0999 V2000
   -3.8752  -22.6691   35.3856 N   0  0  0  0  0  0  0  0  0  0  0  0
   -4.2621  -21.3311   35.5342 C   0  0  0  0  0  0  0  0  0  0  0  0
   -3.4068  -20.4180   36.2357 N   0  0  0  0  0  0  0  0  0  0  0  0
   -5.4491  -20.8646   35.0120 N   0  0  0  0  0  0  0  0  0  0  0  0
   -6.3030  -21.7043   34.3273 C   0  0  0  0  0  0  0  0  0  0  0  0
   -5.9619  -23.0819   34.1507 C   0  0  0  0  0  0  0  0  0  0  0  0
   -7.3471  -21.2748   33.8747 O   0  0  0  0  0  0  0  0  0  0  0  0
   -6.8421  -24.0031   33.4363 N   0  0  0  0  0  0  0  0  0  0  0  0
   -6.3817  -25.3066   33.1152 C   0  0  2  0  0  0  0  0  0  0  0  0
   -5.3396  -25.8628   34.1218 C   0  0  0  0  0  0  0  0  0  0  0  0
   -4.7254  -23.5439   34.6942 C   0  0  0  0  0  0  0  0  0  0  0  0
   -4.3506  -24.9597   34.5221 N   0  0  0  0  0  0  0  0  0  0  0  0
   -5.8879  -25.2911   31.6801 C   0  0  1  0  0  0  0  0  0  0  0  0
   -4.5713  -24.8792   31.6239 O   0  0  0  0  0  0  0  0  0  0  0  0
   -6.0394  -26.6489   31.0620 C   0  0  1  0  0  0  0  0  0  0  0  0
   -5.4821  -27.5878   31.8396 O   0  0  0  0  0  0  0  0  0  0  0  0
   -7.5276  -27.0082   30.8659 C   0  0  0  0  0  0  0  0  0  0  0  0
  1  2  2  0  0  0  0
  1 11  1  0  0  0  0
  2  3  1  0  0  0  0
  2  4  1  0  0  0  0
  4  5  1  0  0  0  0
  5  6  1  0  0  0  0
  5  7  2  0  0  0  0
  6  8  1  0  0  0  0
  6 11  2  0  0  0  0
  9  8  1  1  0  0  0
  9 10  1  0  0  0  0
  9 13  1  0  0  0  0
 10 12  1  0  0  0  0
 11 12  1  0  0  0  0
 13 14  1  1  0  0  0
 13 15  1  0  0  0  0
 15 16  1  1  0  0  0
 15 17  1  0  0  0  0
M  END
>  <CHROM.1>
85.84254069,-51.74077767,-5.53040271,-23.96648546,33.55955046,-1.33657675
0.52389324,-2.65326587

>  <Name>
ligand

>  <RI>
0

>  <Rbt.Current_Directory>
/home/itssahil/PROJECTS/Mol_Feturizer/New_Systems/rnas/4LVX

>  <Rbt.Executable>
rbdock ($Id: //depot/dev/client3/rdock/2013.1/src/exe/rbdock.cxx#4 $)

>  <Rbt.Library>
libRbt.so (2013.1, Build901 2013/11/27)

>  <Rbt.Parameter_File>
/export/apps/rDock/src/rDock_2013.1_src/data/scripts/dock_solv.prm

>  <Rbt.Receptor>
prm/blind_docking_80.prm

>  <SCORE>
-16.4877

>  <SCORE.INTER>
-11.1495

>  <SCORE.INTER.CONST>
1

>  <SCORE.INTER.POLAR>
0

>  <SCORE.INTER.ROT>
2

>  <SCORE.INTER.SOLV>
9.70454

>  <SCORE.INTER.VDW>
-15.6012

>  <SCORE.INTER.norm>
-0.65585

>  <SCORE.INTRA>
-5.33825

>  <SCORE.INTRA.DIHEDRAL>
-7.94395

>  <SCORE.INTRA.DIHEDRAL.0>
10.3255

>  <SCORE.INTRA.POLAR>
0

>  <SCORE.INTRA.POLAR.0>
0

>  <SCORE.INTRA.REPUL>
0

>  <SCORE.INTRA.REPUL.0>
0

>  <SCORE.INTRA.SOLV>
0.336011

>  <SCORE.INTRA.SOLV.lig_0>
-53.4755

>  <SCORE.INTRA.VDW>
-1.53428

>  <SCORE.INTRA.VDW.0>
2.32763

>  <SCORE.INTRA.norm>
-0.314015

>  <SCORE.RESTR>
0

>  <SCORE.RESTR.CAVITY>
0

>  <SCORE.RESTR.norm>
0

>  <SCORE.SYSTEM>
0

>  <SCORE.SYSTEM.CONST>
0

>  <SCORE.SYSTEM.DIHEDRAL>
0

>  <SCORE.SYSTEM.SOLV>
0

>  <SCORE.SYSTEM.norm>
0

>  <SCORE.heavy>
17

>  <SCORE.norm>
-0.969865

>  <RMSD>
32.514

$$$$
ligand
 OpenBabel11021811503D
libRbt.so/2013.1/901 2013/11/27
 17 18  0  0  0  0  0  0  0  0999 V2000
   -4.1322  -22.5709   35.2556 N   0  0  0  0  0  0  0  0  0  0  0  0
   -4.6115  -21.2560   35.3147 C   0  0  0  0  0  0  0  0  0  0  0  0
   -3.8594  -20.2567   36.0168 N   0  0  0  0  0  0  0  0  0  0  0  0
   -5.7923  -20.8939   34.7032 N   0  0  0  0  0  0  0  0  0  0  0  0
   -6.5486  -21.8192   34.0142 C   0  0  0  0  0  0  0  0  0  0  0  0
   -6.1108  -23.1779   33.9265 C   0  0  0  0  0  0  0  0  0  0  0  0
   -7.5889  -21.4814   33.4821 O   0  0  0  0  0  0  0  0  0  0  0  0
   -6.8864  -24.1875   33.2104 N   0  0  0  0  0  0  0  0  0  0  0  0
   -6.3259  -25.4712   32.9817 C   0  0  2  0  0  0  0  0  0  0  0  0
   -5.3127  -25.9097   34.0724 C   0  0  0  0  0  0  0  0  0  0  0  0
   -4.8823  -23.5312   34.5617 C   0  0  0  0  0  0  0  0  0  0  0  0
   -4.4087  -24.9255   34.4824 N   0  0  0  0  0  0  0  0  0  0  0  0
   -5.7491  -25.4894   31.5779 C   0  0  1  0  0  0  0  0  0  0  0  0
   -4.4593  -24.9966   31.5764 O   0  0  0  0  0  0  0  0  0  0  0  0
   -5.7793  -26.8810   31.0200 C   0  0  1  0  0  0  0  0  0  0  0  0
   -5.1911  -27.7417   31.8626 O   0  0  0  0  0  0  0  0  0  0  0  0
   -7.2293  -27.3545   30.7838 C   0  0  0  0  0  0  0  0  0  0  0  0
  1  2  2  0  0  0  0
  1 11  1  0  0  0  0
  2  3  1  0  0  0  0
  2  4  1  0  0  0  0
  4  5  1  0  0  0  0
  5  6  1  0  0  0  0
  5  7  2  0  0  0  0
  6  8  1  0  0  0  0
  6 11  2  0  0  0  0
  9  8  1  1  0  0  0
  9 10  1  0  0  0  0
  9 13  1  0  0  0  0
 10 12  1  0  0  0  0
 11 12  1  0  0  0  0
 13 14  1  1  0  0  0
 13 15  1  0  0  0  0
 15 16  1  1  0  0  0
 15 17  1  0  0  0  0
M  END
>  <CHROM.1>
85.95751501,-52.85831463,-5.58864672,-24.05877431,33.40656393,-1.43612919
0.54178670,-2.65113453

>  <Name>
ligand

>  <RI>
0

>  <Rbt.Current_Directory>
/home/itssahil/PROJECTS/Mol_Feturizer/New_Systems/rnas/4LVX

>  <Rbt.Executable>
rbdock ($Id: //depot/dev/client3/rdock/2013.1/src/exe/rbdock.cxx#4 $)

>  <Rbt.Library>
libRbt.so (2013.1, Build901 2013/11/27)

>  <Rbt.Parameter_File>
/export/apps/rDock/src/rDock_2013.1_src/data/scripts/dock_solv.prm

>  <Rbt.Receptor>
prm/blind_docking_100.prm

>  <SCORE>
-16.4133

>  <SCORE.INTER>
-11.0613

>  <SCORE.INTER.CONST>
1

>  <SCORE.INTER.POLAR>
0

>  <SCORE.INTER.ROT>
2

>  <SCORE.INTER.SOLV>
10.1724

>  <SCORE.INTER.VDW>
-15.6984

>  <SCORE.INTER.norm>
-0.650665

>  <SCORE.INTRA>
-5.35197

>  <SCORE.INTRA.DIHEDRAL>
-7.98879

>  <SCORE.INTRA.DIHEDRAL.0>
10.3255

>  <SCORE.INTRA.POLAR>
0

>  <SCORE.INTRA.POLAR.0>
0

>  <SCORE.INTRA.REPUL>
0

>  <SCORE.INTRA.REPUL.0>
0

>  <SCORE.INTRA.SOLV>
0.332621

>  <SCORE.INTRA.SOLV.lig_0>
-53.4755

>  <SCORE.INTRA.VDW>
-1.52388

>  <SCORE.INTRA.VDW.0>
2.32763

>  <SCORE.INTRA.norm>
-0.314822

>  <SCORE.RESTR>
0

>  <SCORE.RESTR.CAVITY>
0

>  <SCORE.RESTR.norm>
0

>  <SCORE.SYSTEM>
0

>  <SCORE.SYSTEM.CONST>
0

>  <SCORE.SYSTEM.DIHEDRAL>
0

>  <SCORE.SYSTEM.SOLV>
0

>  <SCORE.SYSTEM.norm>
0

>  <SCORE.heavy>
17

>  <SCORE.norm>
-0.965487

>  <RMSD>
32.546

$$$$
ligand
 OpenBabel11021811503D
libRbt.so/2013.1/901 2013/11/27
 17 18  0  0  0  0  0  0  0  0999 V2000
   -3.9040  -22.6956   35.4016 N   0  0  0  0  0  0  0  0  0  0  0  0
   -4.3013  -21.3572   35.5154 C   0  0  0  0  0  0  0  0  0  0  0  0
   -3.4757  -20.4296   36.2332 N   0  0  0  0  0  0  0  0  0  0  0  0
   -5.4704  -20.9041   34.9433 N   0  0  0  0  0  0  0  0  0  0  0  0
   -6.2955  -21.7580   34.2412 C   0  0  0  0  0  0  0  0  0  0  0  0
   -5.9428  -23.1366   34.0984 C   0  0  0  0  0  0  0  0  0  0  0  0
   -7.3242  -21.3402   33.7444 O   0  0  0  0  0  0  0  0  0  0  0  0
   -6.7928  -24.0726   33.3668 N   0  0  0  0  0  0  0  0  0  0  0  0
   -6.3160  -25.3788   33.0827 C   0  0  2  0  0  0  0  0  0  0  0  0
   -5.3089  -25.9148   34.1350 C   0  0  0  0  0  0  0  0  0  0  0  0
   -4.7251  -23.5847   34.6933 C   0  0  0  0  0  0  0  0  0  0  0  0
   -4.3386  -25.0012   34.5569 N   0  0  0  0  0  0  0  0  0  0  0  0
   -5.7705  -25.3829   31.6664 C   0  0  1  0  0  0  0  0  0  0  0  0
   -4.4608  -24.9459   31.6490 O   0  0  0  0  0  0  0  0  0  0  0  0
   -5.8729  -26.7560   31.0724 C   0  0  1  0  0  0  0  0  0  0  0  0
   -5.3358  -27.6686   31.8942 O   0  0  0  0  0  0  0  0  0  0  0  0
   -7.3452  -27.1444   30.8191 C   0  0  0  0  0  0  0  0  0  0  0  0
  1  2  2  0  0  0  0
  1 11  1  0  0  0  0
  2  3  1  0  0  0  0
  2  4  1  0  0  0  0
  4  5  1  0  0  0  0
  5  6  1  0  0  0  0
  5  7  2  0  0  0  0
  6  8  1  0  0  0  0
  6 11  2  0  0  0  0
  9  8  1  1  0  0  0
  9 10  1  0  0  0  0
  9 13  1  0  0  0  0
 10 12  1  0  0  0  0
 11 12  1  0  0  0  0
 13 14  1  1  0  0  0
 13 15  1  0  0  0  0
 15 16  1  1  0  0  0
 15 17  1  0  0  0  0
M  END
>  <CHROM.1>
84.89667399,-51.25338511,-5.48241386,-24.02822675,33.53840500,-1.36337979
0.55548789,-2.65629453

>  <Name>
ligand

>  <RI>
0

>  <Rbt.Current_Directory>
/home/itssahil/PROJECTS/Mol_Feturizer/New_Systems/rnas/4LVX

>  <Rbt.Executable>
rbdock ($Id: //depot/dev/client3/rdock/2013.1/src/exe/rbdock.cxx#4 $)

>  <Rbt.Library>
libRbt.so (2013.1, Build901 2013/11/27)

>  <Rbt.Parameter_File>
/export/apps/rDock/src/rDock_2013.1_src/data/scripts/dock_solv.prm

>  <Rbt.Receptor>
prm/blind_docking_100.prm

>  <SCORE>
-16.4692

>  <SCORE.INTER>
-11.1119

>  <SCORE.INTER.CONST>
1

>  <SCORE.INTER.POLAR>
0

>  <SCORE.INTER.ROT>
2

>  <SCORE.INTER.SOLV>
9.68897

>  <SCORE.INTER.VDW>
-15.5709

>  <SCORE.INTER.norm>
-0.65364

>  <SCORE.INTRA>
-5.35728

>  <SCORE.INTRA.DIHEDRAL>
-8.03825

>  <SCORE.INTRA.DIHEDRAL.0>
10.3255

>  <SCORE.INTRA.POLAR>
0

>  <SCORE.INTRA.POLAR.0>
0

>  <SCORE.INTRA.REPUL>
0

>  <SCORE.INTRA.REPUL.0>
0

>  <SCORE.INTRA.SOLV>
0.353274

>  <SCORE.INTRA.SOLV.lig_0>
-53.4755

>  <SCORE.INTRA.VDW>
-1.51479

>  <SCORE.INTRA.VDW.0>
2.32763

>  <SCORE.INTRA.norm>
-0.315134

>  <SCORE.RESTR>
0

>  <SCORE.RESTR.CAVITY>
0

>  <SCORE.RESTR.norm>
0

>  <SCORE.SYSTEM>
0

>  <SCORE.SYSTEM.CONST>
0

>  <SCORE.SYSTEM.DIHEDRAL>
0

>  <SCORE.SYSTEM.SOLV>
0

>  <SCORE.SYSTEM.norm>
0

>  <SCORE.heavy>
17

>  <SCORE.norm>
-0.968774

>  <RMSD>
32.551

$$$$
ligand
 OpenBabel11021811503D
libRbt.so/2013.1/901 2013/11/27
 17 18  0  0  0  0  0  0  0  0999 V2000
   -4.1684  -22.5785   35.3134 N   0  0  0  0  0  0  0  0  0  0  0  0
   -4.6257  -21.2553   35.3555 C   0  0  0  0  0  0  0  0  0  0  0  0
   -3.8724  -20.2656   36.0699 N   0  0  0  0  0  0  0  0  0  0  0  0
   -5.7859  -20.8758   34.7158 N   0  0  0  0  0  0  0  0  0  0  0  0
   -6.5426  -21.7913   34.0141 C   0  0  0  0  0  0  0  0  0  0  0  0
   -6.1267  -23.1577   33.9427 C   0  0  0  0  0  0  0  0  0  0  0  0
   -7.5645  -21.4381   33.4570 O   0  0  0  0  0  0  0  0  0  0  0  0
   -6.9035  -24.1574   33.2139 N   0  0  0  0  0  0  0  0  0  0  0  0
   -6.3605  -25.4517   33.0039 C   0  0  2  0  0  0  0  0  0  0  0  0
   -5.3800  -25.9023   34.1194 C   0  0  0  0  0  0  0  0  0  0  0  0
   -4.9192  -23.5292   34.6072 C   0  0  0  0  0  0  0  0  0  0  0  0
   -4.4685  -24.9319   34.5452 N   0  0  0  0  0  0  0  0  0  0  0  0
   -5.7525  -25.4871   31.6137 C   0  0  1  0  0  0  0  0  0  0  0  0
   -4.4503  -25.0289   31.6413 O   0  0  0  0  0  0  0  0  0  0  0  0
   -5.8073  -26.8780   31.0561 C   0  0  1  0  0  0  0  0  0  0  0  0
   -5.2948  -27.7580   31.9278 O   0  0  0  0  0  0  0  0  0  0  0  0
   -7.2604  -27.2972   30.7478 C   0  0  0  0  0  0  0  0  0  0  0  0
  1  2  2  0  0  0  0
  1 11  1  0  0  0  0
  2  3  1  0  0  0  0
  2  4  1  0  0  0  0
  4  5  1  0  0  0  0
  5  6  1  0  0  0  0
  5  7  2  0  0  0  0
  6  8  1  0  0  0  0
  6 11  2  0  0  0  0
  9  8  1  1  0  0  0
  9 10  1  0  0  0  0
  9 13  1  0  0  0  0
 10 12  1  0  0  0  0
 11 12  1  0  0  0  0
 13 14  1  1  0  0  0
 13 15  1  0  0  0  0
 15 16  1  1  0  0  0
 15 17  1  0  0  0  0
M  END
>  <CHROM.1>
86.53556540,-51.17298276,-5.61344050,-24.04951659,33.43607729,-1.42624574
0.57456477,-2.65955181

>  <Name>
ligand

>  <RI>
0

>  <Rbt.Current_Directory>
/home/itssahil/PROJECTS/Mol_Feturizer/New_Systems/rnas/4LVX

>  <Rbt.Executable>
rbdock ($Id: //depot/dev/client3/rdock/2013.1/src/exe/rbdock.cxx#4 $)

>  <Rbt.Library>
libRbt.so (2013.1, Build901 2013/11/27)

>  <Rbt.Parameter_File>
/export/apps/rDock/src/rDock_2013.1_src/data/scripts/dock_solv.prm

>  <Rbt.Receptor>
prm/blind_docking_100.prm

>  <SCORE>
-16.5255

>  <SCORE.INTER>
-11.2247

>  <SCORE.INTER.CONST>
1

>  <SCORE.INTER.POLAR>
0

>  <SCORE.INTER.ROT>
2

>  <SCORE.INTER.SOLV>
9.8031

>  <SCORE.INTER.VDW>
-15.6842

>  <SCORE.INTER.norm>
-0.660277

>  <SCORE.INTRA>
-5.30074

>  <SCORE.INTRA.DIHEDRAL>
-7.81922

>  <SCORE.INTRA.DIHEDRAL.0>
10.3255

>  <SCORE.INTRA.POLAR>
0

>  <SCORE.INTRA.POLAR.0>
0

>  <SCORE.INTRA.REPUL>
0

>  <SCORE.INTRA.REPUL.0>
0

>  <SCORE.INTRA.SOLV>
0.324388

>  <SCORE.INTRA.SOLV.lig_0>
-53.4755

>  <SCORE.INTRA.VDW>
-1.55333

>  <SCORE.INTRA.VDW.0>
2.32763

>  <SCORE.INTRA.norm>
-0.311808

>  <SCORE.RESTR>
0

>  <SCORE.RESTR.CAVITY>
0

>  <SCORE.RESTR.norm>
0

>  <SCORE.SYSTEM>
0

>  <SCORE.SYSTEM.CONST>
0

>  <SCORE.SYSTEM.DIHEDRAL>
0

>  <SCORE.SYSTEM.SOLV>
0

>  <SCORE.SYSTEM.norm>
0

>  <SCORE.heavy>
17

>  <SCORE.norm>
-0.972085

>  <RMSD>
32.552

$$$$
ligand
 OpenBabel11021811503D
libRbt.so/2013.1/901 2013/11/27
 17 18  0  0  0  0  0  0  0  0999 V2000
   -3.6267  -22.1339   35.3803 N   0  0  0  0  0  0  0  0  0  0  0  0
   -4.1276  -20.8408   35.1828 C   0  0  0  0  0  0  0  0  0  0  0  0
   -3.3031  -19.7061   35.4825 N   0  0  0  0  0  0  0  0  0  0  0  0
   -5.3996  -20.6301   34.6961 N   0  0  0  0  0  0  0  0  0  0  0  0
   -6.2284  -21.6898   34.3910 C   0  0  0  0  0  0  0  0  0  0  0  0
   -5.7716  -23.0320   34.5788 C   0  0  0  0  0  0  0  0  0  0  0  0
   -7.3485  -21.4842   33.9637 O   0  0  0  0  0  0  0  0  0  0  0  0
   -6.6213  -24.1799   34.2722 N   0  0  0  0  0  0  0  0  0  0  0  0
   -6.0676  -25.4866   34.2869 C   0  0  2  0  0  0  0  0  0  0  0  0
   -4.8836  -25.6483   35.2772 C   0  0  0  0  0  0  0  0  0  0  0  0
   -4.4490  -23.2289   35.0784 C   0  0  0  0  0  0  0  0  0  0  0  0
   -3.9546  -24.6038   35.2775 N   0  0  0  0  0  0  0  0  0  0  0  0
   -5.7183  -25.8659   32.8594 C   0  0  1  0  0  0  0  0  0  0  0  0
   -5.2545  -27.1651   32.8017 O   0  0  0  0  0  0  0  0  0  0  0  0
   -6.9118  -25.6951   31.9678 C   0  0  1  0  0  0  0  0  0  0  0  0
   -6.5904  -25.9528   30.6921 O   0  0  0  0  0  0  0  0  0  0  0  0
   -8.0540  -26.6488   32.3779 C   0  0  0  0  0  0  0  0  0  0  0  0
  1  2  2  0  0  0  0
  1 11  1  0  0  0  0
  2  3  1  0  0  0  0
  2  4  1  0  0  0  0
  4  5  1  0  0  0  0
  5  6  1  0  0  0  0
  5  7  2  0  0  0  0
  6  8  1  0  0  0  0
  6 11  2  0  0  0  0
  9  8  1  6  0  0  0
  9 10  1  0  0  0  0
  9 13  1  0  0  0  0
 10 12  1  0  0  0  0
 11 12  1  0  0  0  0
 13 14  1  1  0  0  0
 13 15  1  0  0  0  0
 15 16  1  6  0  0  0
 15 17  1  0  0  0  0
M  END
>  <CHROM.1>
-176.09777383,176.38189827,-5.58541804,-23.83434145,33.97284657,-1.15818832
0.64439310,-2.92005172

>  <Name>
ligand

>  <RI>
0

>  <Rbt.Current_Directory>
/home/itssahil/PROJECTS/Mol_Feturizer/New_Systems/rnas/4LVX

>  <Rbt.Executable>
rbdock ($Id: //depot/dev/client3/rdock/2013.1/src/exe/rbdock.cxx#4 $)

>  <Rbt.Library>
libRbt.so (2013.1, Build901 2013/11/27)

>  <Rbt.Parameter_File>
/export/apps/rDock/src/rDock_2013.1_src/data/scripts/dock_solv.prm

>  <Rbt.Receptor>
prm/blind_docking_60.prm

>  <SCORE>
-15.4076

>  <SCORE.INTER>
-8.91771

>  <SCORE.INTER.CONST>
1

>  <SCORE.INTER.POLAR>
0

>  <SCORE.INTER.ROT>
2

>  <SCORE.INTER.SOLV>
12.5103

>  <SCORE.INTER.VDW>
-15.0486

>  <SCORE.INTER.norm>
-0.524571

>  <SCORE.INTRA>
-6.48991

>  <SCORE.INTRA.DIHEDRAL>
-10.0692

>  <SCORE.INTRA.DIHEDRAL.0>
10.3255

>  <SCORE.INTRA.POLAR>
0

>  <SCORE.INTRA.POLAR.0>
0

>  <SCORE.INTRA.REPUL>
0

>  <SCORE.INTRA.REPUL.0>
0

>  <SCORE.INTRA.SOLV>
-0.475238

>  <SCORE.INTRA.SOLV.lig_0>
-53.4755

>  <SCORE.INTRA.VDW>
-1.21771

>  <SCORE.INTRA.VDW.0>
2.32763

>  <SCORE.INTRA.norm>
-0.38176

>  <SCORE.RESTR>
0

>  <SCORE.RESTR.CAVITY>
0

>  <SCORE.RESTR.norm>
0

>  <SCORE.SYSTEM>
0

>  <SCORE.SYSTEM.CONST>
0

>  <SCORE.SYSTEM.DIHEDRAL>
0

>  <SCORE.SYSTEM.SOLV>
0

>  <SCORE.SYSTEM.norm>
0

>  <SCORE.heavy>
17

>  <SCORE.norm>
-0.906331

>  <RMSD>
32.573

$$$$
ligand
 OpenBabel11021811503D
libRbt.so/2013.1/901 2013/11/27
 17 18  0  0  0  0  0  0  0  0999 V2000
   -3.6824  -22.1212   35.3164 N   0  0  0  0  0  0  0  0  0  0  0  0
   -4.1712  -20.8218   35.1306 C   0  0  0  0  0  0  0  0  0  0  0  0
   -3.3502  -19.6977   35.4766 N   0  0  0  0  0  0  0  0  0  0  0  0
   -5.4276  -20.5946   34.6117 N   0  0  0  0  0  0  0  0  0  0  0  0
   -6.2523  -21.6435   34.2617 C   0  0  0  0  0  0  0  0  0  0  0  0
   -5.8076  -22.9915   34.4356 C   0  0  0  0  0  0  0  0  0  0  0  0
   -7.3586  -21.4234   33.8066 O   0  0  0  0  0  0  0  0  0  0  0  0
   -6.6535  -24.1286   34.0816 N   0  0  0  0  0  0  0  0  0  0  0  0
   -6.1068  -25.4383   34.0860 C   0  0  2  0  0  0  0  0  0  0  0  0
   -4.9527  -25.6260   35.1065 C   0  0  0  0  0  0  0  0  0  0  0  0
   -4.5009  -23.2055   34.9690 C   0  0  0  0  0  0  0  0  0  0  0  0
   -4.0191  -24.5868   35.1545 N   0  0  0  0  0  0  0  0  0  0  0  0
   -5.7183  -25.7908   32.6618 C   0  0  1  0  0  0  0  0  0  0  0  0
   -4.5661  -25.1249   32.2937 O   0  0  0  0  0  0  0  0  0  0  0  0
   -5.5344  -27.2726   32.5233 C   0  0  1  0  0  0  0  0  0  0  0  0
   -6.6336  -27.9257   32.9260 O   0  0  0  0  0  0  0  0  0  0  0  0
   -5.2530  -27.6638   31.0569 C   0  0  0  0  0  0  0  0  0  0  0  0
  1  2  2  0  0  0  0
  1 11  1  0  0  0  0
  2  3  1  0  0  0  0
  2  4  1  0  0  0  0
  4  5  1  0  0  0  0
  5  6  1  0  0  0  0
  5  7  2  0  0  0  0
  6  8  1  0  0  0  0
  6 11  2  0  0  0  0
  9  8  1  6  0  0  0
  9 10  1  0  0  0  0
  9 13  1  0  0  0  0
 10 12  1  0  0  0  0
 11 12  1  0  0  0  0
 13 14  1  1  0  0  0
 13 15  1  0  0  0  0
 15 16  1  6  0  0  0
 15 17  1  0  0  0  0
M  END
>  <CHROM.1>
74.78786237,55.13855555,-5.31353440,-23.95615380,33.94349001,-1.41298460
0.42324960,-2.82581670

>  <Name>
ligand

>  <RI>
0

>  <Rbt.Current_Directory>
/home/itssahil/PROJECTS/Mol_Feturizer/New_Systems/rnas/4LVX

>  <Rbt.Executable>
rbdock ($Id: //depot/dev/client3/rdock/2013.1/src/exe/rbdock.cxx#4 $)

>  <Rbt.Library>
libRbt.so (2013.1, Build901 2013/11/27)

>  <Rbt.Parameter_File>
/export/apps/rDock/src/rDock_2013.1_src/data/scripts/dock_solv.prm

>  <Rbt.Receptor>
prm/blind_docking_60.prm

>  <SCORE>
-17.5427

>  <SCORE.INTER>
-10.4793

>  <SCORE.INTER.CONST>
1

>  <SCORE.INTER.POLAR>
0

>  <SCORE.INTER.ROT>
2

>  <SCORE.INTER.SOLV>
11.956

>  <SCORE.INTER.VDW>
-15.9049

>  <SCORE.INTER.norm>
-0.61643

>  <SCORE.INTRA>
-7.06337

>  <SCORE.INTRA.DIHEDRAL>
-9.35826

>  <SCORE.INTRA.DIHEDRAL.0>
10.3255

>  <SCORE.INTRA.POLAR>
0

>  <SCORE.INTRA.POLAR.0>
0

>  <SCORE.INTRA.REPUL>
0

>  <SCORE.INTRA.REPUL.0>
0

>  <SCORE.INTRA.SOLV>
-0.179005

>  <SCORE.INTRA.SOLV.lig_0>
-53.4755

>  <SCORE.INTRA.VDW>
-2.29474

>  <SCORE.INTRA.VDW.0>
2.32763

>  <SCORE.INTRA.norm>
-0.415493

>  <SCORE.RESTR>
0

>  <SCORE.RESTR.CAVITY>
0

>  <SCORE.RESTR.norm>
0

>  <SCORE.SYSTEM>
0

>  <SCORE.SYSTEM.CONST>
0

>  <SCORE.SYSTEM.DIHEDRAL>
0

>  <SCORE.SYSTEM.SOLV>
0

>  <SCORE.SYSTEM.norm>
0

>  <SCORE.heavy>
17

>  <SCORE.norm>
-1.03192

>  <RMSD>
32.609

$$$$
ligand
 OpenBabel11021811503D
libRbt.so/2013.1/901 2013/11/27
 17 18  0  0  0  0  0  0  0  0999 V2000
   -3.6805  -22.1344   35.2899 N   0  0  0  0  0  0  0  0  0  0  0  0
   -4.1709  -20.8344   35.1123 C   0  0  0  0  0  0  0  0  0  0  0  0
   -3.3440  -19.7113   35.4470 N   0  0  0  0  0  0  0  0  0  0  0  0
   -5.4346  -20.6058   34.6121 N   0  0  0  0  0  0  0  0  0  0  0  0
   -6.2652  -21.6538   34.2735 C   0  0  0  0  0  0  0  0  0  0  0  0
   -5.8191  -23.0023   34.4399 C   0  0  0  0  0  0  0  0  0  0  0  0
   -7.3779  -21.4325   33.8349 O   0  0  0  0  0  0  0  0  0  0  0  0
   -6.6711  -24.1384   34.0975 N   0  0  0  0  0  0  0  0  0  0  0  0
   -6.1255  -25.4486   34.0930 C   0  0  2  0  0  0  0  0  0  0  0  0
   -4.9566  -25.6380   35.0963 C   0  0  0  0  0  0  0  0  0  0  0  0
   -4.5049  -23.2178   34.9539 C   0  0  0  0  0  0  0  0  0  0  0  0
   -4.0216  -24.5996   35.1313 N   0  0  0  0  0  0  0  0  0  0  0  0
   -5.7582  -25.8004   32.6630 C   0  0  1  0  0  0  0  0  0  0  0  0
   -4.6310  -25.1084   32.2667 O   0  0  0  0  0  0  0  0  0  0  0  0
   -5.5404  -27.2779   32.5292 C   0  0  1  0  0  0  0  0  0  0  0  0
   -6.6195  -27.9552   32.9460 O   0  0  0  0  0  0  0  0  0  0  0  0
   -5.2645  -27.6692   31.0618 C   0  0  0  0  0  0  0  0  0  0  0  0
  1  2  2  0  0  0  0
  1 11  1  0  0  0  0
  2  3  1  0  0  0  0
  2  4  1  0  0  0  0
  4  5  1  0  0  0  0
  5  6  1  0  0  0  0
  5  7  2  0  0  0  0
  6  8  1  0  0  0  0
  6 11  2  0  0  0  0
  9  8  1  6  0  0  0
  9 10  1  0  0  0  0
  9 13  1  0  0  0  0
 10 12  1  0  0  0  0
 11 12  1  0  0  0  0
 13 14  1  1  0  0  0
 13 15  1  0  0  0  0
 15 16  1  6  0  0  0
 15 17  1  0  0  0  0
M  END
>  <CHROM.1>
73.22081627,55.77081140,-5.32547057,-23.96612179,33.94076406,-1.41282606
0.40999775,-2.82671878

>  <Name>
ligand

>  <RI>
0

>  <Rbt.Current_Directory>
/home/itssahil/PROJECTS/Mol_Feturizer/New_Systems/rnas/4LVX

>  <Rbt.Executable>
rbdock ($Id: //depot/dev/client3/rdock/2013.1/src/exe/rbdock.cxx#4 $)

>  <Rbt.Library>
libRbt.so (2013.1, Build901 2013/11/27)

>  <Rbt.Parameter_File>
/export/apps/rDock/src/rDock_2013.1_src/data/scripts/dock_solv.prm

>  <Rbt.Receptor>
prm/blind_docking_80.prm

>  <SCORE>
-17.5384

>  <SCORE.INTER>
-10.4039

>  <SCORE.INTER.CONST>
1

>  <SCORE.INTER.POLAR>
0

>  <SCORE.INTER.ROT>
2

>  <SCORE.INTER.SOLV>
12.044

>  <SCORE.INTER.VDW>
-15.8839

>  <SCORE.INTER.norm>
-0.611994

>  <SCORE.INTRA>
-7.13448

>  <SCORE.INTRA.DIHEDRAL>
-9.52011

>  <SCORE.INTRA.DIHEDRAL.0>
10.3255

>  <SCORE.INTRA.POLAR>
0

>  <SCORE.INTRA.POLAR.0>
0

>  <SCORE.INTRA.REPUL>
0

>  <SCORE.INTRA.REPUL.0>
0

>  <SCORE.INTRA.SOLV>
-0.174458

>  <SCORE.INTRA.SOLV.lig_0>
-53.4755

>  <SCORE.INTRA.VDW>
-2.2872

>  <SCORE.INTRA.VDW.0>
2.32763

>  <SCORE.INTRA.norm>
-0.419675

>  <SCORE.RESTR>
0

>  <SCORE.RESTR.CAVITY>
0

>  <SCORE.RESTR.norm>
0

>  <SCORE.SYSTEM>
0

>  <SCORE.SYSTEM.CONST>
0

>  <SCORE.SYSTEM.DIHEDRAL>
0

>  <SCORE.SYSTEM.SOLV>
0

>  <SCORE.SYSTEM.norm>
0

>  <SCORE.heavy>
17

>  <SCORE.norm>
-1.03167

>  <RMSD>
32.619

$$$$
ligand
 OpenBabel11021811503D
libRbt.so/2013.1/901 2013/11/27
 17 18  0  0  0  0  0  0  0  0999 V2000
   -3.6635  -22.1446   35.3175 N   0  0  0  0  0  0  0  0  0  0  0  0
   -4.1369  -20.8404   35.1249 C   0  0  0  0  0  0  0  0  0  0  0  0
   -3.3032  -19.7244   35.4667 N   0  0  0  0  0  0  0  0  0  0  0  0
   -5.3899  -20.6009   34.6034 N   0  0  0  0  0  0  0  0  0  0  0  0
   -6.2264  -21.6418   34.2573 C   0  0  0  0  0  0  0  0  0  0  0  0
   -5.7977  -22.9941   34.4381 C   0  0  0  0  0  0  0  0  0  0  0  0
   -7.3294  -21.4110   33.7997 O   0  0  0  0  0  0  0  0  0  0  0  0
   -6.6565  -24.1228   34.0884 N   0  0  0  0  0  0  0  0  0  0  0  0
   -6.1251  -25.4388   34.0998 C   0  0  2  0  0  0  0  0  0  0  0  0
   -4.9745  -25.6352   35.1226 C   0  0  0  0  0  0  0  0  0  0  0  0
   -4.4943  -23.2208   34.9742 C   0  0  0  0  0  0  0  0  0  0  0  0
   -4.0289  -24.6067   35.1670 N   0  0  0  0  0  0  0  0  0  0  0  0
   -5.7389  -25.8027   32.6778 C   0  0  1  0  0  0  0  0  0  0  0  0
   -4.5969  -25.1268   32.2966 O   0  0  0  0  0  0  0  0  0  0  0  0
   -5.5374  -27.2835   32.5550 C   0  0  1  0  0  0  0  0  0  0  0  0
   -6.6226  -27.9458   32.9799 O   0  0  0  0  0  0  0  0  0  0  0  0
   -5.2695  -27.6892   31.0901 C   0  0  0  0  0  0  0  0  0  0  0  0
  1  2  2  0  0  0  0
  1 11  1  0  0  0  0
  2  3  1  0  0  0  0
  2  4  1  0  0  0  0
  4  5  1  0  0  0  0
  5  6  1  0  0  0  0
  5  7  2  0  0  0  0
  6  8  1  0  0  0  0
  6 11  2  0  0  0  0
  9  8  1  6  0  0  0
  9 10  1  0  0  0  0
  9 13  1  0  0  0  0
 10 12  1  0  0  0  0
 11 12  1  0  0  0  0
 13 14  1  1  0  0  0
 13 15  1  0  0  0  0
 15 16  1  6  0  0  0
 15 17  1  0  0  0  0
M  END
>  <CHROM.1>
73.31551420,54.67144289,-5.30822821,-23.96628553,33.95341188,-1.40549381
0.43257257,-2.83639788

>  <Name>
ligand

>  <RI>
0

>  <Rbt.Current_Directory>
/home/itssahil/PROJECTS/Mol_Feturizer/New_Systems/rnas/4LVX

>  <Rbt.Executable>
rbdock ($Id: //depot/dev/client3/rdock/2013.1/src/exe/rbdock.cxx#4 $)

>  <Rbt.Library>
libRbt.so (2013.1, Build901 2013/11/27)

>  <Rbt.Parameter_File>
/export/apps/rDock/src/rDock_2013.1_src/data/scripts/dock_solv.prm

>  <Rbt.Receptor>
prm/blind_docking_80.prm

>  <SCORE>
-17.5265

>  <SCORE.INTER>
-10.4078

>  <SCORE.INTER.CONST>
1

>  <SCORE.INTER.POLAR>
0

>  <SCORE.INTER.ROT>
2

>  <SCORE.INTER.SOLV>
12.0586

>  <SCORE.INTER.VDW>
-15.8914

>  <SCORE.INTER.norm>
-0.612223

>  <SCORE.INTRA>
-7.11868

>  <SCORE.INTRA.DIHEDRAL>
-9.47199

>  <SCORE.INTRA.DIHEDRAL.0>
10.3255

>  <SCORE.INTRA.POLAR>
0

>  <SCORE.INTRA.POLAR.0>
0

>  <SCORE.INTRA.REPUL>
0

>  <SCORE.INTRA.REPUL.0>
0

>  <SCORE.INTRA.SOLV>
-0.169397

>  <SCORE.INTRA.SOLV.lig_0>
-53.4755

>  <SCORE.INTRA.VDW>
-2.29799

>  <SCORE.INTRA.VDW.0>
2.32763

>  <SCORE.INTRA.norm>
-0.418746

>  <SCORE.RESTR>
0

>  <SCORE.RESTR.CAVITY>
0

>  <SCORE.RESTR.norm>
0

>  <SCORE.SYSTEM>
0

>  <SCORE.SYSTEM.CONST>
0

>  <SCORE.SYSTEM.DIHEDRAL>
0

>  <SCORE.SYSTEM.SOLV>
0

>  <SCORE.SYSTEM.norm>
0

>  <SCORE.heavy>
17

>  <SCORE.norm>
-1.03097

>  <RMSD>
32.622

$$$$
ligand
 OpenBabel11021811503D
libRbt.so/2013.1/901 2013/11/27
 17 18  0  0  0  0  0  0  0  0999 V2000
   -3.6982  -22.1240   35.3020 N   0  0  0  0  0  0  0  0  0  0  0  0
   -4.1926  -20.8261   35.1204 C   0  0  0  0  0  0  0  0  0  0  0  0
   -3.3704  -19.6995   35.4553 N   0  0  0  0  0  0  0  0  0  0  0  0
   -5.4556  -20.6028   34.6163 N   0  0  0  0  0  0  0  0  0  0  0  0
   -6.2817  -21.6542   34.2775 C   0  0  0  0  0  0  0  0  0  0  0  0
   -5.8315  -23.0009   34.4477 C   0  0  0  0  0  0  0  0  0  0  0  0
   -7.3939  -21.4376   33.8353 O   0  0  0  0  0  0  0  0  0  0  0  0
   -6.6787  -24.1406   34.1053 N   0  0  0  0  0  0  0  0  0  0  0  0
   -6.1286  -25.4489   34.1048 C   0  0  2  0  0  0  0  0  0  0  0  0
   -4.9619  -25.6324   35.1117 C   0  0  0  0  0  0  0  0  0  0  0  0
   -4.5180  -23.2108   34.9658 C   0  0  0  0  0  0  0  0  0  0  0  0
   -4.0304  -24.5906   35.1473 N   0  0  0  0  0  0  0  0  0  0  0  0
   -5.7561  -25.8022   32.6765 C   0  0  1  0  0  0  0  0  0  0  0  0
   -4.6167  -25.1249   32.2900 O   0  0  0  0  0  0  0  0  0  0  0  0
   -5.5577  -27.2823   32.5405 C   0  0  1  0  0  0  0  0  0  0  0  0
   -6.6514  -27.9454   32.9419 O   0  0  0  0  0  0  0  0  0  0  0  0
   -5.2694  -27.6729   31.0754 C   0  0  0  0  0  0  0  0  0  0  0  0
  1  2  2  0  0  0  0
  1 11  1  0  0  0  0
  2  3  1  0  0  0  0
  2  4  1  0  0  0  0
  4  5  1  0  0  0  0
  5  6  1  0  0  0  0
  5  7  2  0  0  0  0
  6  8  1  0  0  0  0
  6 11  2  0  0  0  0
  9  8  1  6  0  0  0
  9 10  1  0  0  0  0
  9 13  1  0  0  0  0
 10 12  1  0  0  0  0
 11 12  1  0  0  0  0
 13 14  1  1  0  0  0
 13 15  1  0  0  0  0
 15 16  1  6  0  0  0
 15 17  1  0  0  0  0
M  END
>  <CHROM.1>
74.26822315,56.07650110,-5.33755813,-23.96444614,33.95045819,-1.41420030
0.40851239,-2.82631022

>  <Name>
ligand

>  <RI>
0

>  <Rbt.Current_Directory>
/home/itssahil/PROJECTS/Mol_Feturizer/New_Systems/rnas/4LVX

>  <Rbt.Executable>
rbdock ($Id: //depot/dev/client3/rdock/2013.1/src/exe/rbdock.cxx#4 $)

>  <Rbt.Library>
libRbt.so (2013.1, Build901 2013/11/27)

>  <Rbt.Parameter_File>
/export/apps/rDock/src/rDock_2013.1_src/data/scripts/dock_solv.prm

>  <Rbt.Receptor>
prm/blind_docking_100.prm

>  <SCORE>
-17.5243

>  <SCORE.INTER>
-10.4299

>  <SCORE.INTER.CONST>
1

>  <SCORE.INTER.POLAR>
0

>  <SCORE.INTER.ROT>
2

>  <SCORE.INTER.SOLV>
11.9666

>  <SCORE.INTER.VDW>
-15.8755

>  <SCORE.INTER.norm>
-0.613525

>  <SCORE.INTRA>
-7.09442

>  <SCORE.INTRA.DIHEDRAL>
-9.43765

>  <SCORE.INTRA.DIHEDRAL.0>
10.3255

>  <SCORE.INTRA.POLAR>
0

>  <SCORE.INTRA.POLAR.0>
0

>  <SCORE.INTRA.REPUL>
0

>  <SCORE.INTRA.REPUL.0>
0

>  <SCORE.INTRA.SOLV>
-0.181141

>  <SCORE.INTRA.SOLV.lig_0>
-53.4755

>  <SCORE.INTRA.VDW>
-2.28502

>  <SCORE.INTRA.VDW.0>
2.32763

>  <SCORE.INTRA.norm>
-0.417319

>  <SCORE.RESTR>
0

>  <SCORE.RESTR.CAVITY>
0

>  <SCORE.RESTR.norm>
0

>  <SCORE.SYSTEM>
0

>  <SCORE.SYSTEM.CONST>
0

>  <SCORE.SYSTEM.DIHEDRAL>
0

>  <SCORE.SYSTEM.SOLV>
0

>  <SCORE.SYSTEM.norm>
0

>  <SCORE.heavy>
17

>  <SCORE.norm>
-1.03084

>  <RMSD>
32.623

$$$$
ligand
 OpenBabel11021811503D
libRbt.so/2013.1/901 2013/11/27
 17 18  0  0  0  0  0  0  0  0999 V2000
   -3.6947  -22.1382   35.3597 N   0  0  0  0  0  0  0  0  0  0  0  0
   -4.1777  -20.8369   35.1714 C   0  0  0  0  0  0  0  0  0  0  0  0
   -3.3577  -19.7160   35.5295 N   0  0  0  0  0  0  0  0  0  0  0  0
   -5.4274  -20.6050   34.6387 N   0  0  0  0  0  0  0  0  0  0  0  0
   -6.2510  -21.6508   34.2768 C   0  0  0  0  0  0  0  0  0  0  0  0
   -5.8120  -23.0005   34.4526 C   0  0  0  0  0  0  0  0  0  0  0  0
   -7.3514  -21.4266   33.8095 O   0  0  0  0  0  0  0  0  0  0  0  0
   -6.6570  -24.1343   34.0863 N   0  0  0  0  0  0  0  0  0  0  0  0
   -6.1140  -25.4456   34.0939 C   0  0  2  0  0  0  0  0  0  0  0  0
   -4.9721  -25.6389   35.1271 C   0  0  0  0  0  0  0  0  0  0  0  0
   -4.5121  -23.2193   35.0005 C   0  0  0  0  0  0  0  0  0  0  0  0
   -4.0363  -24.6024   35.1883 N   0  0  0  0  0  0  0  0  0  0  0  0
   -5.7101  -25.7959   32.6734 C   0  0  1  0  0  0  0  0  0  0  0  0
   -4.5472  -25.1391   32.3231 O   0  0  0  0  0  0  0  0  0  0  0  0
   -5.5379  -27.2787   32.5311 C   0  0  1  0  0  0  0  0  0  0  0  0
   -6.6405  -27.9244   32.9367 O   0  0  0  0  0  0  0  0  0  0  0  0
   -5.2650  -27.6689   31.0629 C   0  0  0  0  0  0  0  0  0  0  0  0
  1  2  2  0  0  0  0
  1 11  1  0  0  0  0
  2  3  1  0  0  0  0
  2  4  1  0  0  0  0
  4  5  1  0  0  0  0
  5  6  1  0  0  0  0
  5  7  2  0  0  0  0
  6  8  1  0  0  0  0
  6 11  2  0  0  0  0
  9  8  1  6  0  0  0
  9 10  1  0  0  0  0
  9 13  1  0  0  0  0
 10 12  1  0  0  0  0
 11 12  1  0  0  0  0
 13 14  1  1  0  0  0
 13 15  1  0  0  0  0
 15 16  1  6  0  0  0
 15 17  1  0  0  0  0
M  END
>  <CHROM.1>
75.17731437,54.16126821,-5.31776609,-23.96571402,33.96456257,-1.41180478
0.43802946,-2.82446669

>  <Name>
ligand

>  <RI>
0

>  <Rbt.Current_Directory>
/home/itssahil/PROJECTS/Mol_Feturizer/New_Systems/rnas/4LVX

>  <Rbt.Executable>
rbdock ($Id: //depot/dev/client3/rdock/2013.1/src/exe/rbdock.cxx#4 $)

>  <Rbt.Library>
libRbt.so (2013.1, Build901 2013/11/27)

>  <Rbt.Parameter_File>
/export/apps/rDock/src/rDock_2013.1_src/data/scripts/dock_solv.prm

>  <Rbt.Receptor>
prm/blind_docking_60.prm

>  <SCORE>
-17.5465

>  <SCORE.INTER>
-10.5152

>  <SCORE.INTER.CONST>
1

>  <SCORE.INTER.POLAR>
0

>  <SCORE.INTER.ROT>
2

>  <SCORE.INTER.SOLV>
11.72

>  <SCORE.INTER.VDW>
-15.8501

>  <SCORE.INTER.norm>
-0.618542

>  <SCORE.INTRA>
-7.03131

>  <SCORE.INTRA.DIHEDRAL>
-9.28199

>  <SCORE.INTRA.DIHEDRAL.0>
10.3255

>  <SCORE.INTRA.POLAR>
0

>  <SCORE.INTRA.POLAR.0>
0

>  <SCORE.INTRA.REPUL>
0

>  <SCORE.INTRA.REPUL.0>
0

>  <SCORE.INTRA.SOLV>
-0.176087

>  <SCORE.INTRA.SOLV.lig_0>
-53.4755

>  <SCORE.INTRA.VDW>
-2.30228

>  <SCORE.INTRA.VDW.0>
2.32763

>  <SCORE.INTRA.norm>
-0.413607

>  <SCORE.RESTR>
0

>  <SCORE.RESTR.CAVITY>
0

>  <SCORE.RESTR.norm>
0

>  <SCORE.SYSTEM>
0

>  <SCORE.SYSTEM.CONST>
0

>  <SCORE.SYSTEM.DIHEDRAL>
0

>  <SCORE.SYSTEM.SOLV>
0

>  <SCORE.SYSTEM.norm>
0

>  <SCORE.heavy>
17

>  <SCORE.norm>
-1.03215

>  <RMSD>
32.625

$$$$
ligand
 OpenBabel11021811503D
libRbt.so/2013.1/901 2013/11/27
 17 18  0  0  0  0  0  0  0  0999 V2000
   -3.6801  -22.1458   35.3006 N   0  0  0  0  0  0  0  0  0  0  0  0
   -4.1677  -20.8448   35.1227 C   0  0  0  0  0  0  0  0  0  0  0  0
   -3.3406  -19.7234   35.4627 N   0  0  0  0  0  0  0  0  0  0  0  0
   -5.4289  -20.6135   34.6174 N   0  0  0  0  0  0  0  0  0  0  0  0
   -6.2596  -21.6597   34.2736 C   0  0  0  0  0  0  0  0  0  0  0  0
   -5.8163  -23.0092   34.4400 C   0  0  0  0  0  0  0  0  0  0  0  0
   -7.3700  -21.4361   33.8304 O   0  0  0  0  0  0  0  0  0  0  0  0
   -6.6686  -24.1435   34.0922 N   0  0  0  0  0  0  0  0  0  0  0  0
   -6.1249  -25.4544   34.0882 C   0  0  2  0  0  0  0  0  0  0  0  0
   -4.9608  -25.6472   35.0963 C   0  0  0  0  0  0  0  0  0  0  0  0
   -4.5047  -23.2274   34.9594 C   0  0  0  0  0  0  0  0  0  0  0  0
   -4.0243  -24.6102   35.1369 N   0  0  0  0  0  0  0  0  0  0  0  0
   -5.7519  -25.8048   32.6593 C   0  0  1  0  0  0  0  0  0  0  0  0
   -4.6188  -25.1181   32.2708 O   0  0  0  0  0  0  0  0  0  0  0  0
   -5.5416  -27.2832   32.5230 C   0  0  1  0  0  0  0  0  0  0  0  0
   -6.6275  -27.9554   32.9301 O   0  0  0  0  0  0  0  0  0  0  0  0
   -5.2572  -27.6720   31.0565 C   0  0  0  0  0  0  0  0  0  0  0  0
  1  2  2  0  0  0  0
  1 11  1  0  0  0  0
  2  3  1  0  0  0  0
  2  4  1  0  0  0  0
  4  5  1  0  0  0  0
  5  6  1  0  0  0  0
  5  7  2  0  0  0  0
  6  8  1  0  0  0  0
  6 11  2  0  0  0  0
  9  8  1  6  0  0  0
  9 10  1  0  0  0  0
  9 13  1  0  0  0  0
 10 12  1  0  0  0  0
 11 12  1  0  0  0  0
 13 14  1  1  0  0  0
 13 15  1  0  0  0  0
 15 16  1  6  0  0  0
 15 17  1  0  0  0  0
M  END
>  <CHROM.1>
73.46350988,55.88032739,-5.32295659,-23.97311328,33.94123647,-1.41203662
0.41375983,-2.82511589

>  <Name>
ligand

>  <RI>
0

>  <Rbt.Current_Directory>
/home/itssahil/PROJECTS/Mol_Feturizer/New_Systems/rnas/4LVX

>  <Rbt.Executable>
rbdock ($Id: //depot/dev/client3/rdock/2013.1/src/exe/rbdock.cxx#4 $)

>  <Rbt.Library>
libRbt.so (2013.1, Build901 2013/11/27)

>  <Rbt.Parameter_File>
/export/apps/rDock/src/rDock_2013.1_src/data/scripts/dock_solv.prm

>  <Rbt.Receptor>
prm/blind_docking_80.prm

>  <SCORE>
-17.5406

>  <SCORE.INTER>
-10.4146

>  <SCORE.INTER.CONST>
1

>  <SCORE.INTER.POLAR>
0

>  <SCORE.INTER.ROT>
2

>  <SCORE.INTER.SOLV>
11.9785

>  <SCORE.INTER.VDW>
-15.8693

>  <SCORE.INTER.norm>
-0.612625

>  <SCORE.INTRA>
-7.12602

>  <SCORE.INTRA.DIHEDRAL>
-9.50282

>  <SCORE.INTRA.DIHEDRAL.0>
10.3255

>  <SCORE.INTRA.POLAR>
0

>  <SCORE.INTRA.POLAR.0>
0

>  <SCORE.INTRA.REPUL>
0

>  <SCORE.INTRA.REPUL.0>
0

>  <SCORE.INTRA.SOLV>
-0.176206

>  <SCORE.INTRA.SOLV.lig_0>
-53.4755

>  <SCORE.INTRA.VDW>
-2.28651

>  <SCORE.INTRA.VDW.0>
2.32763

>  <SCORE.INTRA.norm>
-0.419178

>  <SCORE.RESTR>
0

>  <SCORE.RESTR.CAVITY>
0

>  <SCORE.RESTR.norm>
0

>  <SCORE.SYSTEM>
0

>  <SCORE.SYSTEM.CONST>
0

>  <SCORE.SYSTEM.DIHEDRAL>
0

>  <SCORE.SYSTEM.SOLV>
0

>  <SCORE.SYSTEM.norm>
0

>  <SCORE.heavy>
17

>  <SCORE.norm>
-1.0318

>  <RMSD>
32.625

$$$$
ligand
 OpenBabel11021811503D
libRbt.so/2013.1/901 2013/11/27
 17 18  0  0  0  0  0  0  0  0999 V2000
   -3.6867  -22.1377   35.3159 N   0  0  0  0  0  0  0  0  0  0  0  0
   -4.1724  -20.8367   35.1321 C   0  0  0  0  0  0  0  0  0  0  0  0
   -3.3458  -19.7151   35.4728 N   0  0  0  0  0  0  0  0  0  0  0  0
   -5.4310  -20.6058   34.6203 N   0  0  0  0  0  0  0  0  0  0  0  0
   -6.2610  -21.6523   34.2756 C   0  0  0  0  0  0  0  0  0  0  0  0
   -5.8196  -23.0017   34.4478 C   0  0  0  0  0  0  0  0  0  0  0  0
   -7.3692  -21.4289   33.8267 O   0  0  0  0  0  0  0  0  0  0  0  0
   -6.6712  -24.1362   34.0993 N   0  0  0  0  0  0  0  0  0  0  0  0
   -6.1287  -25.4476   34.1014 C   0  0  2  0  0  0  0  0  0  0  0  0
   -4.9693  -25.6385   35.1154 C   0  0  0  0  0  0  0  0  0  0  0  0
   -4.5106  -23.2195   34.9738 C   0  0  0  0  0  0  0  0  0  0  0  0
   -4.0322  -24.6022   35.1575 N   0  0  0  0  0  0  0  0  0  0  0  0
   -5.7494  -25.8023   32.6752 C   0  0  1  0  0  0  0  0  0  0  0  0
   -4.6037  -25.1313   32.2962 O   0  0  0  0  0  0  0  0  0  0  0  0
   -5.5588  -27.2834   32.5395 C   0  0  1  0  0  0  0  0  0  0  0  0
   -6.6582  -27.9404   32.9349 O   0  0  0  0  0  0  0  0  0  0  0  0
   -5.2652  -27.6749   31.0756 C   0  0  0  0  0  0  0  0  0  0  0  0
  1  2  2  0  0  0  0
  1 11  1  0  0  0  0
  2  3  1  0  0  0  0
  2  4  1  0  0  0  0
  4  5  1  0  0  0  0
  5  6  1  0  0  0  0
  5  7  2  0  0  0  0
  6  8  1  0  0  0  0
  6 11  2  0  0  0  0
  9  8  1  6  0  0  0
  9 10  1  0  0  0  0
  9 13  1  0  0  0  0
 10 12  1  0  0  0  0
 11 12  1  0  0  0  0
 13 14  1  1  0  0  0
 13 15  1  0  0  0  0
 15 16  1  6  0  0  0
 15 17  1  0  0  0  0
M  END
>  <CHROM.1>
74.26897094,56.00868035,-5.32824876,-23.96772388,33.95300399,-1.41023764
0.41646743,-2.82732595

>  <Name>
ligand

>  <RI>
0

>  <Rbt.Current_Directory>
/home/itssahil/PROJECTS/Mol_Feturizer/New_Systems/rnas/4LVX

>  <Rbt.Executable>
rbdock ($Id: //depot/dev/client3/rdock/2013.1/src/exe/rbdock.cxx#4 $)

>  <Rbt.Library>
libRbt.so (2013.1, Build901 2013/11/27)

>  <Rbt.Parameter_File>
/export/apps/rDock/src/rDock_2013.1_src/data/scripts/dock_solv.prm

>  <Rbt.Receptor>
prm/blind_docking_80.prm

>  <SCORE>
-17.5316

>  <SCORE.INTER>
-10.4376

>  <SCORE.INTER.CONST>
1

>  <SCORE.INTER.POLAR>
0

>  <SCORE.INTER.ROT>
2

>  <SCORE.INTER.SOLV>
11.9274

>  <SCORE.INTER.VDW>
-15.8675

>  <SCORE.INTER.norm>
-0.613976

>  <SCORE.INTRA>
-7.09397

>  <SCORE.INTRA.DIHEDRAL>
-9.43551

>  <SCORE.INTRA.DIHEDRAL.0>
10.3255

>  <SCORE.INTRA.POLAR>
0

>  <SCORE.INTRA.POLAR.0>
0

>  <SCORE.INTRA.REPUL>
0

>  <SCORE.INTRA.REPUL.0>
0

>  <SCORE.INTRA.SOLV>
-0.180805

>  <SCORE.INTRA.SOLV.lig_0>
-53.4755

>  <SCORE.INTRA.VDW>
-2.28582

>  <SCORE.INTRA.VDW.0>
2.32763

>  <SCORE.INTRA.norm>
-0.417292

>  <SCORE.RESTR>
0

>  <SCORE.RESTR.CAVITY>
0

>  <SCORE.RESTR.norm>
0

>  <SCORE.SYSTEM>
0

>  <SCORE.SYSTEM.CONST>
0

>  <SCORE.SYSTEM.DIHEDRAL>
0

>  <SCORE.SYSTEM.SOLV>
0

>  <SCORE.SYSTEM.norm>
0

>  <SCORE.heavy>
17

>  <SCORE.norm>
-1.03127

>  <RMSD>
32.626

$$$$
ligand
 OpenBabel11021811503D
libRbt.so/2013.1/901 2013/11/27
 17 18  0  0  0  0  0  0  0  0999 V2000
   -3.6969  -22.1444   35.3508 N   0  0  0  0  0  0  0  0  0  0  0  0
   -4.1830  -20.8445   35.1613 C   0  0  0  0  0  0  0  0  0  0  0  0
   -3.3653  -19.7213   35.5178 N   0  0  0  0  0  0  0  0  0  0  0  0
   -5.4336  -20.6160   34.6291 N   0  0  0  0  0  0  0  0  0  0  0  0
   -6.2550  -21.6640   34.2688 C   0  0  0  0  0  0  0  0  0  0  0  0
   -5.8128  -23.0125   34.4458 C   0  0  0  0  0  0  0  0  0  0  0  0
   -7.3561  -21.4428   33.8019 O   0  0  0  0  0  0  0  0  0  0  0  0
   -6.6554  -24.1486   34.0811 N   0  0  0  0  0  0  0  0  0  0  0  0
   -6.1094  -25.4586   34.0898 C   0  0  2  0  0  0  0  0  0  0  0  0
   -4.9666  -25.6483   35.1225 C   0  0  0  0  0  0  0  0  0  0  0  0
   -4.5121  -23.2278   34.9931 C   0  0  0  0  0  0  0  0  0  0  0  0
   -4.0330  -24.6096   35.1821 N   0  0  0  0  0  0  0  0  0  0  0  0
   -5.7056  -25.8095   32.6694 C   0  0  1  0  0  0  0  0  0  0  0  0
   -4.5433  -25.1520   32.3184 O   0  0  0  0  0  0  0  0  0  0  0  0
   -5.5322  -27.2923   32.5280 C   0  0  1  0  0  0  0  0  0  0  0  0
   -6.6334  -27.9387   32.9359 O   0  0  0  0  0  0  0  0  0  0  0  0
   -5.2612  -27.6834   31.0597 C   0  0  0  0  0  0  0  0  0  0  0  0
  1  2  2  0  0  0  0
  1 11  1  0  0  0  0
  2  3  1  0  0  0  0
  2  4  1  0  0  0  0
  4  5  1  0  0  0  0
  5  6  1  0  0  0  0
  5  7  2  0  0  0  0
  6  8  1  0  0  0  0
  6 11  2  0  0  0  0
  9  8  1  6  0  0  0
  9 10  1  0  0  0  0
  9 13  1  0  0  0  0
 10 12  1  0  0  0  0
 11 12  1  0  0  0  0
 13 14  1  1  0  0  0
 13 15  1  0  0  0  0
 15 16  1  6  0  0  0
 15 17  1  0  0  0  0
M  END
>  <CHROM.1>
75.26360261,54.08096732,-5.31714177,-23.97715660,33.95842816,-1.41363066
0.43692263,-2.82469887

>  <Name>
ligand

>  <RI>
0

>  <Rbt.Current_Directory>
/home/itssahil/PROJECTS/Mol_Feturizer/New_Systems/rnas/4LVX

>  <Rbt.Executable>
rbdock ($Id: //depot/dev/client3/rdock/2013.1/src/exe/rbdock.cxx#4 $)

>  <Rbt.Library>
libRbt.so (2013.1, Build901 2013/11/27)

>  <Rbt.Parameter_File>
/export/apps/rDock/src/rDock_2013.1_src/data/scripts/dock_solv.prm

>  <Rbt.Receptor>
prm/blind_docking_100.prm

>  <SCORE>
-17.544

>  <SCORE.INTER>
-10.5181

>  <SCORE.INTER.CONST>
1

>  <SCORE.INTER.POLAR>
0

>  <SCORE.INTER.ROT>
2

>  <SCORE.INTER.SOLV>
11.7712

>  <SCORE.INTER.VDW>
-15.8692

>  <SCORE.INTER.norm>
-0.618714

>  <SCORE.INTRA>
-7.02583

>  <SCORE.INTRA.DIHEDRAL>
-9.2702

>  <SCORE.INTRA.DIHEDRAL.0>
10.3255

>  <SCORE.INTRA.POLAR>
0

>  <SCORE.INTRA.POLAR.0>
0

>  <SCORE.INTRA.REPUL>
0

>  <SCORE.INTRA.REPUL.0>
0

>  <SCORE.INTRA.SOLV>
-0.176118

>  <SCORE.INTRA.SOLV.lig_0>
-53.4755

>  <SCORE.INTRA.VDW>
-2.30267

>  <SCORE.INTRA.VDW.0>
2.32763

>  <SCORE.INTRA.norm>
-0.413284

>  <SCORE.RESTR>
0

>  <SCORE.RESTR.CAVITY>
0

>  <SCORE.RESTR.norm>
0

>  <SCORE.SYSTEM>
0

>  <SCORE.SYSTEM.CONST>
0

>  <SCORE.SYSTEM.DIHEDRAL>
0

>  <SCORE.SYSTEM.SOLV>
0

>  <SCORE.SYSTEM.norm>
0

>  <SCORE.heavy>
17

>  <SCORE.norm>
-1.032

>  <RMSD>
32.633

$$$$
ligand
 OpenBabel11021811503D
libRbt.so/2013.1/901 2013/11/27
 17 18  0  0  0  0  0  0  0  0999 V2000
   -3.6928  -22.1478   35.3380 N   0  0  0  0  0  0  0  0  0  0  0  0
   -4.1751  -20.8458   35.1529 C   0  0  0  0  0  0  0  0  0  0  0  0
   -3.3492  -19.7261   35.5013 N   0  0  0  0  0  0  0  0  0  0  0  0
   -5.4296  -20.6119   34.6325 N   0  0  0  0  0  0  0  0  0  0  0  0
   -6.2589  -21.6565   34.2802 C   0  0  0  0  0  0  0  0  0  0  0  0
   -5.8209  -23.0069   34.4533 C   0  0  0  0  0  0  0  0  0  0  0  0
   -7.3634  -21.4306   33.8237 O   0  0  0  0  0  0  0  0  0  0  0  0
   -6.6719  -24.1394   34.0968 N   0  0  0  0  0  0  0  0  0  0  0  0
   -6.1315  -25.4518   34.1006 C   0  0  2  0  0  0  0  0  0  0  0  0
   -4.9797  -25.6462   35.1226 C   0  0  0  0  0  0  0  0  0  0  0  0
   -4.5161  -23.2277   34.9883 C   0  0  0  0  0  0  0  0  0  0  0  0
   -4.0412  -24.6115   35.1731 N   0  0  0  0  0  0  0  0  0  0  0  0
   -5.7426  -25.8047   32.6766 C   0  0  1  0  0  0  0  0  0  0  0  0
   -4.5939  -25.1339   32.3065 O   0  0  0  0  0  0  0  0  0  0  0  0
   -5.5519  -27.2857   32.5402 C   0  0  1  0  0  0  0  0  0  0  0  0
   -6.6483  -27.9433   32.9432 O   0  0  0  0  0  0  0  0  0  0  0  0
   -5.2679  -27.6776   31.0745 C   0  0  0  0  0  0  0  0  0  0  0  0
  1  2  2  0  0  0  0
  1 11  1  0  0  0  0
  2  3  1  0  0  0  0
  2  4  1  0  0  0  0
  4  5  1  0  0  0  0
  5  6  1  0  0  0  0
  5  7  2  0  0  0  0
  6  8  1  0  0  0  0
  6 11  2  0  0  0  0
  9  8  1  6  0  0  0
  9 10  1  0  0  0  0
  9 13  1  0  0  0  0
 10 12  1  0  0  0  0
 11 12  1  0  0  0  0
 13 14  1  1  0  0  0
 13 15  1  0  0  0  0
 15 16  1  6  0  0  0
 15 17  1  0  0  0  0
M  END
>  <CHROM.1>
74.20693175,55.22367324,-5.32814175,-23.97309743,33.96138775,-1.41040125
0.42684468,-2.82658384

>  <Name>
ligand

>  <RI>
0

>  <Rbt.Current_Directory>
/home/itssahil/PROJECTS/Mol_Feturizer/New_Systems/rnas/4LVX

>  <Rbt.Executable>
rbdock ($Id: //depot/dev/client3/rdock/2013.1/src/exe/rbdock.cxx#4 $)

>  <Rbt.Library>
libRbt.so (2013.1, Build901 2013/11/27)

>  <Rbt.Parameter_File>
/export/apps/rDock/src/rDock_2013.1_src/data/scripts/dock_solv.prm

>  <Rbt.Receptor>
prm/blind_docking_100.prm

>  <SCORE>
-17.5462

>  <SCORE.INTER>
-10.4564

>  <SCORE.INTER.CONST>
1

>  <SCORE.INTER.POLAR>
0

>  <SCORE.INTER.ROT>
2

>  <SCORE.INTER.SOLV>
11.8029

>  <SCORE.INTER.VDW>
-15.8386

>  <SCORE.INTER.norm>
-0.615083

>  <SCORE.INTRA>
-7.08983

>  <SCORE.INTRA.DIHEDRAL>
-9.41474

>  <SCORE.INTRA.DIHEDRAL.0>
10.3255

>  <SCORE.INTRA.POLAR>
0

>  <SCORE.INTRA.POLAR.0>
0

>  <SCORE.INTRA.REPUL>
0

>  <SCORE.INTRA.REPUL.0>
0

>  <SCORE.INTRA.SOLV>
-0.176571

>  <SCORE.INTRA.SOLV.lig_0>
-53.4755

>  <SCORE.INTRA.VDW>
-2.29417

>  <SCORE.INTRA.VDW.0>
2.32763

>  <SCORE.INTRA.norm>
-0.417049

>  <SCORE.RESTR>
0

>  <SCORE.RESTR.CAVITY>
0

>  <SCORE.RESTR.norm>
0

>  <SCORE.SYSTEM>
0

>  <SCORE.SYSTEM.CONST>
0

>  <SCORE.SYSTEM.DIHEDRAL>
0

>  <SCORE.SYSTEM.SOLV>
0

>  <SCORE.SYSTEM.norm>
0

>  <SCORE.heavy>
17

>  <SCORE.norm>
-1.03213

>  <RMSD>
32.633

$$$$
ligand
 OpenBabel11021811503D
libRbt.so/2013.1/901 2013/11/27
 17 18  0  0  0  0  0  0  0  0999 V2000
   -3.6897  -22.1522   35.3430 N   0  0  0  0  0  0  0  0  0  0  0  0
   -4.1699  -20.8495   35.1573 C   0  0  0  0  0  0  0  0  0  0  0  0
   -3.3433  -19.7310   35.5077 N   0  0  0  0  0  0  0  0  0  0  0  0
   -5.4231  -20.6140   34.6344 N   0  0  0  0  0  0  0  0  0  0  0  0
   -6.2529  -21.6574   34.2800 C   0  0  0  0  0  0  0  0  0  0  0  0
   -5.8170  -23.0084   34.4536 C   0  0  0  0  0  0  0  0  0  0  0  0
   -7.3562  -21.4299   33.8213 O   0  0  0  0  0  0  0  0  0  0  0  0
   -6.6686  -24.1397   34.0950 N   0  0  0  0  0  0  0  0  0  0  0  0
   -6.1299  -25.4527   34.0995 C   0  0  2  0  0  0  0  0  0  0  0  0
   -4.9805  -25.6489   35.1238 C   0  0  0  0  0  0  0  0  0  0  0  0
   -4.5135  -23.2310   34.9912 C   0  0  0  0  0  0  0  0  0  0  0  0
   -4.0408  -24.6154   35.1765 N   0  0  0  0  0  0  0  0  0  0  0  0
   -5.7385  -25.8057   32.6762 C   0  0  1  0  0  0  0  0  0  0  0  0
   -4.5865  -25.1387   32.3097 O   0  0  0  0  0  0  0  0  0  0  0  0
   -5.5529  -27.2873   32.5389 C   0  0  1  0  0  0  0  0  0  0  0  0
   -6.6527  -27.9413   32.9384 O   0  0  0  0  0  0  0  0  0  0  0  0
   -5.2665  -27.6788   31.0735 C   0  0  0  0  0  0  0  0  0  0  0  0
  1  2  2  0  0  0  0
  1 11  1  0  0  0  0
  2  3  1  0  0  0  0
  2  4  1  0  0  0  0
  4  5  1  0  0  0  0
  5  6  1  0  0  0  0
  5  7  2  0  0  0  0
  6  8  1  0  0  0  0
  6 11  2  0  0  0  0
  9  8  1  6  0  0  0
  9 10  1  0  0  0  0
  9 13  1  0  0  0  0
 10 12  1  0  0  0  0
 11 12  1  0  0  0  0
 13 14  1  1  0  0  0
 13 15  1  0  0  0  0
 15 16  1  6  0  0  0
 15 17  1  0  0  0  0
M  END
>  <CHROM.1>
74.35114487,55.22037779,-5.32509007,-23.97508602,33.96224564,-1.40931644
0.42893514,-2.82650948

>  <Name>
ligand

>  <RI>
0

>  <Rbt.Current_Directory>
/home/itssahil/PROJECTS/Mol_Feturizer/New_Systems/rnas/4LVX

>  <Rbt.Executable>
rbdock ($Id: //depot/dev/client3/rdock/2013.1/src/exe/rbdock.cxx#4 $)

>  <Rbt.Library>
libRbt.so (2013.1, Build901 2013/11/27)

>  <Rbt.Parameter_File>
/export/apps/rDock/src/rDock_2013.1_src/data/scripts/dock_solv.prm

>  <Rbt.Receptor>
prm/blind_docking_60.prm

>  <SCORE>
-17.5462

>  <SCORE.INTER>
-10.4626

>  <SCORE.INTER.CONST>
1

>  <SCORE.INTER.POLAR>
0

>  <SCORE.INTER.ROT>
2

>  <SCORE.INTER.SOLV>
11.7869

>  <SCORE.INTER.VDW>
-15.8374

>  <SCORE.INTER.norm>
-0.615449

>  <SCORE.INTRA>
-7.08361

>  <SCORE.INTRA.DIHEDRAL>
-9.40153

>  <SCORE.INTRA.DIHEDRAL.0>
10.3255

>  <SCORE.INTRA.POLAR>
0

>  <SCORE.INTRA.POLAR.0>
0

>  <SCORE.INTRA.REPUL>
0

>  <SCORE.INTRA.REPUL.0>
0

>  <SCORE.INTRA.SOLV>
-0.177265

>  <SCORE.INTRA.SOLV.lig_0>
-53.4755

>  <SCORE.INTRA.VDW>
-2.29421

>  <SCORE.INTRA.VDW.0>
2.32763

>  <SCORE.INTRA.norm>
-0.416683

>  <SCORE.RESTR>
0

>  <SCORE.RESTR.CAVITY>
0

>  <SCORE.RESTR.norm>
0

>  <SCORE.SYSTEM>
0

>  <SCORE.SYSTEM.CONST>
0

>  <SCORE.SYSTEM.DIHEDRAL>
0

>  <SCORE.SYSTEM.SOLV>
0

>  <SCORE.SYSTEM.norm>
0

>  <SCORE.heavy>
17

>  <SCORE.norm>
-1.03213

>  <RMSD>
32.635

$$$$
ligand
 OpenBabel11021811503D
libRbt.so/2013.1/901 2013/11/27
 17 18  0  0  0  0  0  0  0  0999 V2000
   -6.9949  -25.2213   32.9263 N   0  0  0  0  0  0  0  0  0  0  0  0
   -6.1785  -26.3582   32.8715 C   0  0  0  0  0  0  0  0  0  0  0  0
   -6.3877  -27.3341   31.8414 N   0  0  0  0  0  0  0  0  0  0  0  0
   -5.1661  -26.5599   33.7846 N   0  0  0  0  0  0  0  0  0  0  0  0
   -4.9249  -25.6481   34.7913 C   0  0  0  0  0  0  0  0  0  0  0  0
   -5.7315  -24.4721   34.8992 C   0  0  0  0  0  0  0  0  0  0  0  0
   -4.0277  -25.8438   35.5889 O   0  0  0  0  0  0  0  0  0  0  0  0
   -5.5104  -23.4861   35.9541 N   0  0  0  0  0  0  0  0  0  0  0  0
   -6.1995  -22.2461   35.9113 C   0  0  2  0  0  0  0  0  0  0  0  0
   -7.5827  -22.3281   35.2122 C   0  0  0  0  0  0  0  0  0  0  0  0
   -6.7711  -24.2789   33.9403 C   0  0  0  0  0  0  0  0  0  0  0  0
   -7.6141  -23.0722   34.0293 N   0  0  0  0  0  0  0  0  0  0  0  0
   -5.2720  -21.2132   35.2979 C   0  0  1  0  0  0  0  0  0  0  0  0
   -5.8891  -19.9794   35.2405 O   0  0  0  0  0  0  0  0  0  0  0  0
   -3.9973  -21.1258   36.0828 C   0  0  1  0  0  0  0  0  0  0  0  0
   -3.3078  -22.2720   35.9951 O   0  0  0  0  0  0  0  0  0  0  0  0
   -3.0996  -19.9837   35.5611 C   0  0  0  0  0  0  0  0  0  0  0  0
  1  2  2  0  0  0  0
  1 11  1  0  0  0  0
  2  3  1  0  0  0  0
  2  4  1  0  0  0  0
  4  5  1  0  0  0  0
  5  6  1  0  0  0  0
  5  7  2  0  0  0  0
  6  8  1  0  0  0  0
  6 11  2  0  0  0  0
  9  8  1  6  0  0  0
  9 10  1  0  0  0  0
  9 13  1  0  0  0  0
 10 12  1  0  0  0  0
 11 12  1  0  0  0  0
 13 14  1  1  0  0  0
 13 15  1  0  0  0  0
 15 16  1  6  0  0  0
 15 17  1  0  0  0  0
M  END
>  <CHROM.1>
-179.53660270,65.49325893,-5.52151002,-23.54637860,34.73477530,1.82819399
0.41543483,-2.82330854

>  <Name>
ligand

>  <RI>
0

>  <Rbt.Current_Directory>
/home/itssahil/PROJECTS/Mol_Feturizer/New_Systems/rnas/4LVX

>  <Rbt.Executable>
rbdock ($Id: //depot/dev/client3/rdock/2013.1/src/exe/rbdock.cxx#4 $)

>  <Rbt.Library>
libRbt.so (2013.1, Build901 2013/11/27)

>  <Rbt.Parameter_File>
/export/apps/rDock/src/rDock_2013.1_src/data/scripts/dock_solv.prm

>  <Rbt.Receptor>
prm/blind_docking_80.prm

>  <SCORE>
-13.6892

>  <SCORE.INTER>
-7.10849

>  <SCORE.INTER.CONST>
1

>  <SCORE.INTER.POLAR>
0

>  <SCORE.INTER.ROT>
2

>  <SCORE.INTER.SOLV>
7.91466

>  <SCORE.INTER.VDW>
-12.3105

>  <SCORE.INTER.norm>
-0.418146

>  <SCORE.INTRA>
-6.58074

>  <SCORE.INTRA.DIHEDRAL>
-10.072

>  <SCORE.INTRA.DIHEDRAL.0>
10.3255

>  <SCORE.INTRA.POLAR>
0

>  <SCORE.INTRA.POLAR.0>
0

>  <SCORE.INTRA.REPUL>
0

>  <SCORE.INTRA.REPUL.0>
0

>  <SCORE.INTRA.SOLV>
0.0603382

>  <SCORE.INTRA.SOLV.lig_0>
-53.4755

>  <SCORE.INTRA.VDW>
-1.5749

>  <SCORE.INTRA.VDW.0>
2.32763

>  <SCORE.INTRA.norm>
-0.387102

>  <SCORE.RESTR>
0

>  <SCORE.RESTR.CAVITY>
0

>  <SCORE.RESTR.norm>
0

>  <SCORE.SYSTEM>
0

>  <SCORE.SYSTEM.CONST>
0

>  <SCORE.SYSTEM.DIHEDRAL>
0

>  <SCORE.SYSTEM.SOLV>
0

>  <SCORE.SYSTEM.norm>
0

>  <SCORE.heavy>
17

>  <SCORE.norm>
-0.805249

>  <RMSD>
32.759

$$$$
ligand
 OpenBabel11021811503D
libRbt.so/2013.1/901 2013/11/27
 17 18  0  0  0  0  0  0  0  0999 V2000
   -8.3023  -26.1874   32.4788 N   0  0  0  0  0  0  0  0  0  0  0  0
   -7.8910  -26.6828   31.2348 C   0  0  0  0  0  0  0  0  0  0  0  0
   -8.7003  -27.6507   30.5528 N   0  0  0  0  0  0  0  0  0  0  0  0
   -6.7234  -26.2537   30.6415 N   0  0  0  0  0  0  0  0  0  0  0  0
   -5.9136  -25.3223   31.2577 C   0  0  0  0  0  0  0  0  0  0  0  0
   -6.2811  -24.7868   32.5319 C   0  0  0  0  0  0  0  0  0  0  0  0
   -4.8861  -24.9567   30.7192 O   0  0  0  0  0  0  0  0  0  0  0  0
   -5.4475  -23.8029   33.2181 N   0  0  0  0  0  0  0  0  0  0  0  0
   -5.9397  -23.1551   34.3810 C   0  0  2  0  0  0  0  0  0  0  0  0
   -6.9413  -24.0170   35.1951 C   0  0  0  0  0  0  0  0  0  0  0  0
   -7.4970  -25.2398   33.1268 C   0  0  0  0  0  0  0  0  0  0  0  0
   -7.8984  -24.6997   34.4390 N   0  0  0  0  0  0  0  0  0  0  0  0
   -6.4995  -21.8064   33.9670 C   0  0  1  0  0  0  0  0  0  0  0  0
   -7.7969  -21.9376   33.5133 O   0  0  0  0  0  0  0  0  0  0  0  0
   -6.4403  -20.8431   35.1146 C   0  0  1  0  0  0  0  0  0  0  0  0
   -7.0300  -21.3632   36.2003 O   0  0  0  0  0  0  0  0  0  0  0  0
   -4.9800  -20.5000   35.4785 C   0  0  0  0  0  0  0  0  0  0  0  0
  1  2  2  0  0  0  0
  1 11  1  0  0  0  0
  2  3  1  0  0  0  0
  2  4  1  0  0  0  0
  4  5  1  0  0  0  0
  5  6  1  0  0  0  0
  5  7  2  0  0  0  0
  6  8  1  0  0  0  0
  6 11  2  0  0  0  0
  9  8  1  6  0  0  0
  9 10  1  0  0  0  0
  9 13  1  0  0  0  0
 10 12  1  0  0  0  0
 11 12  1  0  0  0  0
 13 14  1  1  0  0  0
 13 15  1  0  0  0  0
 15 16  1  1  0  0  0
 15 17  1  0  0  0  0
M  END
>  <CHROM.1>
83.82080929,-53.14243957,-6.76351360,-23.99961151,33.21967322,1.75626747
-0.55486819,-2.36233386

>  <Name>
ligand

>  <RI>
0

>  <Rbt.Current_Directory>
/home/itssahil/PROJECTS/Mol_Feturizer/New_Systems/rnas/4LVX

>  <Rbt.Executable>
rbdock ($Id: //depot/dev/client3/rdock/2013.1/src/exe/rbdock.cxx#4 $)

>  <Rbt.Library>
libRbt.so (2013.1, Build901 2013/11/27)

>  <Rbt.Parameter_File>
/export/apps/rDock/src/rDock_2013.1_src/data/scripts/dock_solv.prm

>  <Rbt.Receptor>
prm/blind_docking_60.prm

>  <SCORE>
-14.6129

>  <SCORE.INTER>
-9.19069

>  <SCORE.INTER.CONST>
1

>  <SCORE.INTER.POLAR>
0

>  <SCORE.INTER.ROT>
2

>  <SCORE.INTER.SOLV>
9.40785

>  <SCORE.INTER.VDW>
-14.1964

>  <SCORE.INTER.norm>
-0.540629

>  <SCORE.INTRA>
-5.42222

>  <SCORE.INTRA.DIHEDRAL>
-8.27869

>  <SCORE.INTRA.DIHEDRAL.0>
10.3255

>  <SCORE.INTRA.POLAR>
0

>  <SCORE.INTRA.POLAR.0>
0

>  <SCORE.INTRA.REPUL>
0

>  <SCORE.INTRA.REPUL.0>
0

>  <SCORE.INTRA.SOLV>
0.370323

>  <SCORE.INTRA.SOLV.lig_0>
-53.4755

>  <SCORE.INTRA.VDW>
-1.46803

>  <SCORE.INTRA.VDW.0>
2.32763

>  <SCORE.INTRA.norm>
-0.318954

>  <SCORE.RESTR>
0

>  <SCORE.RESTR.CAVITY>
0

>  <SCORE.RESTR.norm>
0

>  <SCORE.SYSTEM>
0

>  <SCORE.SYSTEM.CONST>
0

>  <SCORE.SYSTEM.DIHEDRAL>
0

>  <SCORE.SYSTEM.SOLV>
0

>  <SCORE.SYSTEM.norm>
0

>  <SCORE.heavy>
17

>  <SCORE.norm>
-0.859583

>  <RMSD>
32.942

$$$$
ligand
 OpenBabel11021811503D
libRbt.so/2013.1/901 2013/11/27
 17 18  0  0  0  0  0  0  0  0999 V2000
   -8.3285  -26.2096   32.3067 N   0  0  0  0  0  0  0  0  0  0  0  0
   -7.8715  -26.7022   31.0776 C   0  0  0  0  0  0  0  0  0  0  0  0
   -8.6623  -27.6575   30.3569 N   0  0  0  0  0  0  0  0  0  0  0  0
   -6.6761  -26.2823   30.5355 N   0  0  0  0  0  0  0  0  0  0  0  0
   -5.8826  -25.3633   31.1902 C   0  0  0  0  0  0  0  0  0  0  0  0
   -6.2966  -24.8312   32.4515 C   0  0  0  0  0  0  0  0  0  0  0  0
   -4.8300  -25.0056   30.6967 O   0  0  0  0  0  0  0  0  0  0  0  0
   -5.4817  -23.8603   33.1775 N   0  0  0  0  0  0  0  0  0  0  0  0
   -6.0145  -23.2139   34.3231 C   0  0  2  0  0  0  0  0  0  0  0  0
   -7.0578  -24.0696   35.0900 C   0  0  0  0  0  0  0  0  0  0  0  0
   -7.5407  -25.2745   32.9931 C   0  0  0  0  0  0  0  0  0  0  0  0
   -7.9900  -24.7377   34.2910 N   0  0  0  0  0  0  0  0  0  0  0  0
   -6.5426  -21.8569   33.8949 C   0  0  1  0  0  0  0  0  0  0  0  0
   -7.8347  -21.9662   33.4206 O   0  0  0  0  0  0  0  0  0  0  0  0
   -6.4842  -20.8900   35.0395 C   0  0  1  0  0  0  0  0  0  0  0  0
   -7.0977  -21.3961   36.1186 O   0  0  0  0  0  0  0  0  0  0  0  0
   -5.0239  -20.5691   35.4231 C   0  0  0  0  0  0  0  0  0  0  0  0
  1  2  2  0  0  0  0
  1 11  1  0  0  0  0
  2  3  1  0  0  0  0
  2  4  1  0  0  0  0
  4  5  1  0  0  0  0
  5  6  1  0  0  0  0
  5  7  2  0  0  0  0
  6  8  1  0  0  0  0
  6 11  2  0  0  0  0
  9  8  1  6  0  0  0
  9 10  1  0  0  0  0
  9 13  1  0  0  0  0
 10 12  1  0  0  0  0
 11 12  1  0  0  0  0
 13 14  1  1  0  0  0
 13 15  1  0  0  0  0
 15 16  1  1  0  0  0
 15 17  1  0  0  0  0
M  END
>  <CHROM.1>
85.42461195,-52.97556042,-6.79009698,-24.03970714,33.12283035,1.73741786
-0.51818779,-2.36862011

>  <Name>
ligand

>  <RI>
0

>  <Rbt.Current_Directory>
/home/itssahil/PROJECTS/Mol_Feturizer/New_Systems/rnas/4LVX

>  <Rbt.Executable>
rbdock ($Id: //depot/dev/client3/rdock/2013.1/src/exe/rbdock.cxx#4 $)

>  <Rbt.Library>
libRbt.so (2013.1, Build901 2013/11/27)

>  <Rbt.Parameter_File>
/export/apps/rDock/src/rDock_2013.1_src/data/scripts/dock_solv.prm

>  <Rbt.Receptor>
prm/blind_docking_80.prm

>  <SCORE>
-14.6261

>  <SCORE.INTER>
-9.25348

>  <SCORE.INTER.CONST>
1

>  <SCORE.INTER.POLAR>
0

>  <SCORE.INTER.ROT>
2

>  <SCORE.INTER.SOLV>
10.025

>  <SCORE.INTER.VDW>
-14.444

>  <SCORE.INTER.norm>
-0.544322

>  <SCORE.INTRA>
-5.37262

>  <SCORE.INTRA.DIHEDRAL>
-8.06421

>  <SCORE.INTRA.DIHEDRAL.0>
10.3255

>  <SCORE.INTRA.POLAR>
0

>  <SCORE.INTRA.POLAR.0>
0

>  <SCORE.INTRA.REPUL>
0

>  <SCORE.INTRA.REPUL.0>
0

>  <SCORE.INTRA.SOLV>
0.3419

>  <SCORE.INTRA.SOLV.lig_0>
-53.4755

>  <SCORE.INTRA.VDW>
-1.51147

>  <SCORE.INTRA.VDW.0>
2.32763

>  <SCORE.INTRA.norm>
-0.316037

>  <SCORE.RESTR>
0

>  <SCORE.RESTR.CAVITY>
0

>  <SCORE.RESTR.norm>
0

>  <SCORE.SYSTEM>
0

>  <SCORE.SYSTEM.CONST>
0

>  <SCORE.SYSTEM.DIHEDRAL>
0

>  <SCORE.SYSTEM.SOLV>
0

>  <SCORE.SYSTEM.norm>
0

>  <SCORE.heavy>
17

>  <SCORE.norm>
-0.860359

>  <RMSD>
32.955

$$$$
ligand
 OpenBabel11021811503D
libRbt.so/2013.1/901 2013/11/27
 17 18  0  0  0  0  0  0  0  0999 V2000
   -7.7310  -26.2496   33.0402 N   0  0  0  0  0  0  0  0  0  0  0  0
   -7.6442  -26.5673   31.6787 C   0  0  0  0  0  0  0  0  0  0  0  0
   -8.6098  -27.4512   31.0925 N   0  0  0  0  0  0  0  0  0  0  0  0
   -6.6515  -26.0412   30.8805 N   0  0  0  0  0  0  0  0  0  0  0  0
   -5.7022  -25.1848   31.3985 C   0  0  0  0  0  0  0  0  0  0  0  0
   -5.7385  -24.8306   32.7836 C   0  0  0  0  0  0  0  0  0  0  0  0
   -4.8327  -24.7315   30.6788 O   0  0  0  0  0  0  0  0  0  0  0  0
   -4.7482  -23.9310   33.3700 N   0  0  0  0  0  0  0  0  0  0  0  0
   -4.9312  -23.4530   34.6938 C   0  0  2  0  0  0  0  0  0  0  0  0
   -5.7150  -24.4343   35.6056 C   0  0  0  0  0  0  0  0  0  0  0  0
   -6.7780  -25.3816   33.5920 C   0  0  0  0  0  0  0  0  0  0  0  0
   -6.8379  -25.0284   35.0225 N   0  0  0  0  0  0  0  0  0  0  0  0
   -5.5559  -22.0721   34.6133 C   0  0  1  0  0  0  0  0  0  0  0  0
   -6.8495  -22.1513   34.1372 O   0  0  0  0  0  0  0  0  0  0  0  0
   -5.5319  -21.4100   35.9585 C   0  0  1  0  0  0  0  0  0  0  0  0
   -4.2807  -21.3540   36.4363 O   0  0  0  0  0  0  0  0  0  0  0  0
   -6.0813  -19.9697   35.8797 C   0  0  0  0  0  0  0  0  0  0  0  0
  1  2  2  0  0  0  0
  1 11  1  0  0  0  0
  2  3  1  0  0  0  0
  2  4  1  0  0  0  0
  4  5  1  0  0  0  0
  5  6  1  0  0  0  0
  5  7  2  0  0  0  0
  6  8  1  0  0  0  0
  6 11  2  0  0  0  0
  9  8  1  6  0  0  0
  9 10  1  0  0  0  0
  9 13  1  0  0  0  0
 10 12  1  0  0  0  0
 11 12  1  0  0  0  0
 13 14  1  1  0  0  0
 13 15  1  0  0  0  0
 15 16  1  6  0  0  0
 15 17  1  0  0  0  0
M  END
>  <CHROM.1>
68.29148446,56.21191445,-6.10822035,-24.05492947,33.61713456,1.92717297,-0.74082527
-2.17907207

>  <Name>
ligand

>  <RI>
0

>  <Rbt.Current_Directory>
/home/itssahil/PROJECTS/Mol_Feturizer/New_Systems/rnas/4LVX

>  <Rbt.Executable>
rbdock ($Id: //depot/dev/client3/rdock/2013.1/src/exe/rbdock.cxx#4 $)

>  <Rbt.Library>
libRbt.so (2013.1, Build901 2013/11/27)

>  <Rbt.Parameter_File>
/export/apps/rDock/src/rDock_2013.1_src/data/scripts/dock_solv.prm

>  <Rbt.Receptor>
prm/blind_docking_60.prm

>  <SCORE>
-15.0392

>  <SCORE.INTER>
-7.78135

>  <SCORE.INTER.CONST>
1

>  <SCORE.INTER.POLAR>
0

>  <SCORE.INTER.ROT>
2

>  <SCORE.INTER.SOLV>
9.48471

>  <SCORE.INTER.VDW>
-13.2825

>  <SCORE.INTER.norm>
-0.457726

>  <SCORE.INTRA>
-7.2579

>  <SCORE.INTRA.DIHEDRAL>
-9.88291

>  <SCORE.INTRA.DIHEDRAL.0>
10.3255

>  <SCORE.INTRA.POLAR>
0

>  <SCORE.INTRA.POLAR.0>
0

>  <SCORE.INTRA.REPUL>
0

>  <SCORE.INTRA.REPUL.0>
0

>  <SCORE.INTRA.SOLV>
-0.152173

>  <SCORE.INTRA.SOLV.lig_0>
-53.4755

>  <SCORE.INTRA.VDW>
-2.24036

>  <SCORE.INTRA.VDW.0>
2.32763

>  <SCORE.INTRA.norm>
-0.426935

>  <SCORE.RESTR>
0

>  <SCORE.RESTR.CAVITY>
0

>  <SCORE.RESTR.norm>
0

>  <SCORE.SYSTEM>
0

>  <SCORE.SYSTEM.CONST>
0

>  <SCORE.SYSTEM.DIHEDRAL>
0

>  <SCORE.SYSTEM.SOLV>
0

>  <SCORE.SYSTEM.norm>
0

>  <SCORE.heavy>
17

>  <SCORE.norm>
-0.884662

>  <RMSD>
32.988

$$$$
ligand
 OpenBabel11021811503D
libRbt.so/2013.1/901 2013/11/27
 17 18  0  0  0  0  0  0  0  0999 V2000
   -7.7662  -26.1585   33.3448 N   0  0  0  0  0  0  0  0  0  0  0  0
   -7.7129  -26.2707   31.9496 C   0  0  0  0  0  0  0  0  0  0  0  0
   -8.7695  -26.9427   31.2501 N   0  0  0  0  0  0  0  0  0  0  0  0
   -6.6670  -25.7400   31.2260 N   0  0  0  0  0  0  0  0  0  0  0  0
   -5.6295  -25.0827   31.8541 C   0  0  0  0  0  0  0  0  0  0  0  0
   -5.6285  -24.9439   33.2775 C   0  0  0  0  0  0  0  0  0  0  0  0
   -4.7141  -24.6221   31.1988 O   0  0  0  0  0  0  0  0  0  0  0  0
   -4.5456  -24.2592   33.9792 N   0  0  0  0  0  0  0  0  0  0  0  0
   -4.6766  -23.9733   35.3632 C   0  0  2  0  0  0  0  0  0  0  0  0
   -5.5655  -24.9913   36.1262 C   0  0  0  0  0  0  0  0  0  0  0  0
   -6.7238  -25.4954   34.0081 C   0  0  0  0  0  0  0  0  0  0  0  0
   -6.7464  -25.3620   35.4765 N   0  0  0  0  0  0  0  0  0  0  0  0
   -5.1445  -22.5364   35.5047 C   0  0  1  0  0  0  0  0  0  0  0  0
   -5.4967  -22.2669   36.8122 O   0  0  0  0  0  0  0  0  0  0  0  0
   -4.0745  -21.5921   35.0446 C   0  0  1  0  0  0  0  0  0  0  0  0
   -4.5455  -20.3388   34.9787 O   0  0  0  0  0  0  0  0  0  0  0  0
   -2.8700  -21.6028   36.0098 C   0  0  0  0  0  0  0  0  0  0  0  0
  1  2  2  0  0  0  0
  1 11  1  0  0  0  0
  2  3  1  0  0  0  0
  2  4  1  0  0  0  0
  4  5  1  0  0  0  0
  5  6  1  0  0  0  0
  5  7  2  0  0  0  0
  6  8  1  0  0  0  0
  6 11  2  0  0  0  0
  9  8  1  6  0  0  0
  9 10  1  0  0  0  0
  9 13  1  0  0  0  0
 10 12  1  0  0  0  0
 11 12  1  0  0  0  0
 13 14  1  1  0  0  0
 13 15  1  0  0  0  0
 15 16  1  1  0  0  0
 15 17  1  0  0  0  0
M  END
>  <CHROM.1>
170.31284906,170.87156905,-5.67901027,-24.16594268,34.00713331,2.33180067
-0.83538714,-1.80042780

>  <Name>
ligand

>  <RI>
0

>  <Rbt.Current_Directory>
/home/itssahil/PROJECTS/Mol_Feturizer/New_Systems/rnas/4LVX

>  <Rbt.Executable>
rbdock ($Id: //depot/dev/client3/rdock/2013.1/src/exe/rbdock.cxx#4 $)

>  <Rbt.Library>
libRbt.so (2013.1, Build901 2013/11/27)

>  <Rbt.Parameter_File>
/export/apps/rDock/src/rDock_2013.1_src/data/scripts/dock_solv.prm

>  <Rbt.Receptor>
prm/blind_docking_80.prm

>  <SCORE>
-15.5463

>  <SCORE.INTER>
-9.21501

>  <SCORE.INTER.CONST>
1

>  <SCORE.INTER.POLAR>
0

>  <SCORE.INTER.ROT>
2

>  <SCORE.INTER.SOLV>
11.8826

>  <SCORE.INTER.VDW>
-15.0375

>  <SCORE.INTER.norm>
-0.54206

>  <SCORE.INTRA>
-6.3313

>  <SCORE.INTRA.DIHEDRAL>
-9.52836

>  <SCORE.INTRA.DIHEDRAL.0>
10.3255

>  <SCORE.INTRA.POLAR>
0

>  <SCORE.INTRA.POLAR.0>
0

>  <SCORE.INTRA.REPUL>
0

>  <SCORE.INTRA.REPUL.0>
0

>  <SCORE.INTRA.SOLV>
-0.585279

>  <SCORE.INTRA.SOLV.lig_0>
-53.4755

>  <SCORE.INTRA.VDW>
-1.27448

>  <SCORE.INTRA.VDW.0>
2.32763

>  <SCORE.INTRA.norm>
-0.37243

>  <SCORE.RESTR>
0

>  <SCORE.RESTR.CAVITY>
0

>  <SCORE.RESTR.norm>
0

>  <SCORE.SYSTEM>
0

>  <SCORE.SYSTEM.CONST>
0

>  <SCORE.SYSTEM.DIHEDRAL>
0

>  <SCORE.SYSTEM.SOLV>
0

>  <SCORE.SYSTEM.norm>
0

>  <SCORE.heavy>
17

>  <SCORE.norm>
-0.914489

>  <RMSD>
33.109

$$$$
ligand
 OpenBabel11021811503D
libRbt.so/2013.1/901 2013/11/27
 17 18  0  0  0  0  0  0  0  0999 V2000
   -2.0237  -25.7987   14.7353 N   0  0  0  0  0  0  0  0  0  0  0  0
   -2.5835  -25.2715   13.5645 C   0  0  0  0  0  0  0  0  0  0  0  0
   -3.9633  -24.8804   13.5505 N   0  0  0  0  0  0  0  0  0  0  0  0
   -1.8336  -25.1102   12.4195 N   0  0  0  0  0  0  0  0  0  0  0  0
   -0.5022  -25.4694   12.3855 C   0  0  0  0  0  0  0  0  0  0  0  0
    0.1202  -26.0188   13.5500 C   0  0  0  0  0  0  0  0  0  0  0  0
    0.1433  -25.3210   11.3653 O   0  0  0  0  0  0  0  0  0  0  0  0
    1.5260  -26.4157   13.5517 N   0  0  0  0  0  0  0  0  0  0  0  0
    2.1531  -26.7721   14.7739 C   0  0  2  0  0  0  0  0  0  0  0  0
    1.1795  -27.3840   15.8162 C   0  0  0  0  0  0  0  0  0  0  0  0
   -0.6721  -26.1723   14.7274 C   0  0  0  0  0  0  0  0  0  0  0  0
   -0.0516  -26.7337   15.9416 N   0  0  0  0  0  0  0  0  0  0  0  0
    2.9052  -25.5583   15.2884 C   0  0  1  0  0  0  0  0  0  0  0  0
    2.1590  -24.8921   16.2402 O   0  0  0  0  0  0  0  0  0  0  0  0
    4.2316  -25.9685   15.8548 C   0  0  1  0  0  0  0  0  0  0  0  0
    4.0931  -27.0260   16.6669 O   0  0  0  0  0  0  0  0  0  0  0  0
    5.2217  -26.3497   14.7337 C   0  0  0  0  0  0  0  0  0  0  0  0
  1  2  2  0  0  0  0
  1 11  1  0  0  0  0
  2  3  1  0  0  0  0
  2  4  1  0  0  0  0
  4  5  1  0  0  0  0
  5  6  1  0  0  0  0
  5  7  2  0  0  0  0
  6  8  1  0  0  0  0
  6 11  2  0  0  0  0
  9  8  1  6  0  0  0
  9 10  1  0  0  0  0
  9 13  1  0  0  0  0
 10 12  1  0  0  0  0
 11 12  1  0  0  0  0
 13 14  1  1  0  0  0
 13 15  1  0  0  0  0
 15 16  1  1  0  0  0
 15 17  1  0  0  0  0
M  END
>  <CHROM.1>
98.05102124,-46.88465196,0.79310540,-25.95172667,14.44983847,2.72234151,0.07784551
-1.35738235

>  <Name>
ligand

>  <RI>
0

>  <Rbt.Current_Directory>
/home/itssahil/PROJECTS/Mol_Feturizer/New_Systems/rnas/4LVX

>  <Rbt.Executable>
rbdock ($Id: //depot/dev/client3/rdock/2013.1/src/exe/rbdock.cxx#4 $)

>  <Rbt.Library>
libRbt.so (2013.1, Build901 2013/11/27)

>  <Rbt.Parameter_File>
/export/apps/rDock/src/rDock_2013.1_src/data/scripts/dock_solv.prm

>  <Rbt.Receptor>
prm/blind_docking_40.prm

>  <SCORE>
-13.8922

>  <SCORE.INTER>
-9.43005

>  <SCORE.INTER.CONST>
1

>  <SCORE.INTER.POLAR>
0

>  <SCORE.INTER.ROT>
2

>  <SCORE.INTER.SOLV>
14.2587

>  <SCORE.INTER.VDW>
-15.9729

>  <SCORE.INTER.norm>
-0.554709

>  <SCORE.INTRA>
-4.47003

>  <SCORE.INTRA.DIHEDRAL>
-5.98592

>  <SCORE.INTRA.DIHEDRAL.0>
10.3255

>  <SCORE.INTRA.POLAR>
0

>  <SCORE.INTRA.POLAR.0>
0

>  <SCORE.INTRA.REPUL>
0

>  <SCORE.INTRA.REPUL.0>
0

>  <SCORE.INTRA.SOLV>
0.136688

>  <SCORE.INTRA.SOLV.lig_0>
-53.4755

>  <SCORE.INTRA.VDW>
-1.54541

>  <SCORE.INTRA.VDW.0>
2.32763

>  <SCORE.INTRA.norm>
-0.262943

>  <SCORE.RESTR>
0.00792895

>  <SCORE.RESTR.CAVITY>
0.00792895

>  <SCORE.RESTR.norm>
0.000466409

>  <SCORE.SYSTEM>
0

>  <SCORE.SYSTEM.CONST>
0

>  <SCORE.SYSTEM.DIHEDRAL>
0

>  <SCORE.SYSTEM.SOLV>
0

>  <SCORE.SYSTEM.norm>
0

>  <SCORE.heavy>
17

>  <SCORE.norm>
-0.817185

>  <RMSD>
33.121

$$$$
ligand
 OpenBabel11021811503D
libRbt.so/2013.1/901 2013/11/27
 17 18  0  0  0  0  0  0  0  0999 V2000
   -7.6712  -26.2361   33.3965 N   0  0  0  0  0  0  0  0  0  0  0  0
   -7.6813  -26.3269   31.9987 C   0  0  0  0  0  0  0  0  0  0  0  0
   -8.7559  -27.0103   31.3390 N   0  0  0  0  0  0  0  0  0  0  0  0
   -6.6811  -25.7645   31.2354 N   0  0  0  0  0  0  0  0  0  0  0  0
   -5.6285  -25.0952   31.8246 C   0  0  0  0  0  0  0  0  0  0  0  0
   -5.5635  -24.9769   33.2483 C   0  0  0  0  0  0  0  0  0  0  0  0
   -4.7542  -24.6064   31.1345 O   0  0  0  0  0  0  0  0  0  0  0  0
   -4.4627  -24.2804   33.9093 N   0  0  0  0  0  0  0  0  0  0  0  0
   -4.5343  -24.0173   35.3021 C   0  0  2  0  0  0  0  0  0  0  0  0
   -5.3661  -25.0643   36.0899 C   0  0  0  0  0  0  0  0  0  0  0  0
   -6.6122  -25.5613   34.0206 C   0  0  0  0  0  0  0  0  0  0  0  0
   -6.5686  -25.4497   35.4903 N   0  0  0  0  0  0  0  0  0  0  0  0
   -5.0235  -22.5926   35.4874 C   0  0  1  0  0  0  0  0  0  0  0  0
   -5.3729  -22.3663   36.8039 O   0  0  0  0  0  0  0  0  0  0  0  0
   -3.9705  -21.6188   35.0496 C   0  0  1  0  0  0  0  0  0  0  0  0
   -4.4709  -20.3768   34.9868 O   0  0  0  0  0  0  0  0  0  0  0  0
   -2.7796  -21.6082   36.0315 C   0  0  0  0  0  0  0  0  0  0  0  0
  1  2  2  0  0  0  0
  1 11  1  0  0  0  0
  2  3  1  0  0  0  0
  2  4  1  0  0  0  0
  4  5  1  0  0  0  0
  5  6  1  0  0  0  0
  5  7  2  0  0  0  0
  6  8  1  0  0  0  0
  6 11  2  0  0  0  0
  9  8  1  6  0  0  0
  9 10  1  0  0  0  0
  9 13  1  0  0  0  0
 10 12  1  0  0  0  0
 11 12  1  0  0  0  0
 13 14  1  1  0  0  0
 13 15  1  0  0  0  0
 15 16  1  1  0  0  0
 15 17  1  0  0  0  0
M  END
>  <CHROM.1>
167.77702425,169.17006810,-5.59806026,-24.21130597,34.00362438,2.38788305
-0.86312668,-1.73989989

>  <Name>
ligand

>  <RI>
0

>  <Rbt.Current_Directory>
/home/itssahil/PROJECTS/Mol_Feturizer/New_Systems/rnas/4LVX

>  <Rbt.Executable>
rbdock ($Id: //depot/dev/client3/rdock/2013.1/src/exe/rbdock.cxx#4 $)

>  <Rbt.Library>
libRbt.so (2013.1, Build901 2013/11/27)

>  <Rbt.Parameter_File>
/export/apps/rDock/src/rDock_2013.1_src/data/scripts/dock_solv.prm

>  <Rbt.Receptor>
prm/blind_docking_100.prm

>  <SCORE>
-15.6661

>  <SCORE.INTER>
-9.53938

>  <SCORE.INTER.CONST>
1

>  <SCORE.INTER.POLAR>
0

>  <SCORE.INTER.ROT>
2

>  <SCORE.INTER.SOLV>
12.3395

>  <SCORE.INTER.VDW>
-15.4061

>  <SCORE.INTER.norm>
-0.56114

>  <SCORE.INTRA>
-6.12676

>  <SCORE.INTRA.DIHEDRAL>
-9.2204

>  <SCORE.INTRA.DIHEDRAL.0>
10.3255

>  <SCORE.INTRA.POLAR>
0

>  <SCORE.INTRA.POLAR.0>
0

>  <SCORE.INTRA.REPUL>
0

>  <SCORE.INTRA.REPUL.0>
0

>  <SCORE.INTRA.SOLV>
-0.6029

>  <SCORE.INTRA.SOLV.lig_0>
-53.4755

>  <SCORE.INTRA.VDW>
-1.21511

>  <SCORE.INTRA.VDW.0>
2.32763

>  <SCORE.INTRA.norm>
-0.360398

>  <SCORE.RESTR>
0

>  <SCORE.RESTR.CAVITY>
0

>  <SCORE.RESTR.norm>
0

>  <SCORE.SYSTEM>
0

>  <SCORE.SYSTEM.CONST>
0

>  <SCORE.SYSTEM.DIHEDRAL>
0

>  <SCORE.SYSTEM.SOLV>
0

>  <SCORE.SYSTEM.norm>
0

>  <SCORE.heavy>
17

>  <SCORE.norm>
-0.921538

>  <RMSD>
33.134

$$$$
ligand
 OpenBabel11021811503D
libRbt.so/2013.1/901 2013/11/27
 17 18  0  0  0  0  0  0  0  0999 V2000
   -7.8732  -26.2009   33.3479 N   0  0  0  0  0  0  0  0  0  0  0  0
   -8.0295  -26.4163   31.9727 C   0  0  0  0  0  0  0  0  0  0  0  0
   -9.2109  -27.0677   31.4854 N   0  0  0  0  0  0  0  0  0  0  0  0
   -7.0731  -26.0074   31.0685 N   0  0  0  0  0  0  0  0  0  0  0  0
   -5.9218  -25.3746   31.4892 C   0  0  0  0  0  0  0  0  0  0  0  0
   -5.7064  -25.1341   32.8824 C   0  0  0  0  0  0  0  0  0  0  0  0
   -5.0883  -25.0222   30.6765 O   0  0  0  0  0  0  0  0  0  0  0  0
   -4.4981  -24.4717   33.3671 N   0  0  0  0  0  0  0  0  0  0  0  0
   -4.4109  -24.0791   34.7282 C   0  0  2  0  0  0  0  0  0  0  0  0
   -5.2324  -24.9803   35.6883 C   0  0  0  0  0  0  0  0  0  0  0  0
   -6.7116  -25.5600   33.8021 C   0  0  0  0  0  0  0  0  0  0  0  0
   -6.5132  -25.3202   35.2435 N   0  0  0  0  0  0  0  0  0  0  0  0
   -4.7761  -22.6087   34.8182 C   0  0  1  0  0  0  0  0  0  0  0  0
   -6.1414  -22.4393   34.7010 O   0  0  0  0  0  0  0  0  0  0  0  0
   -4.2847  -22.0276   36.1102 C   0  0  1  0  0  0  0  0  0  0  0  0
   -2.9667  -22.2292   36.2490 O   0  0  0  0  0  0  0  0  0  0  0  0
   -4.5479  -20.5080   36.1728 C   0  0  0  0  0  0  0  0  0  0  0  0
  1  2  2  0  0  0  0
  1 11  1  0  0  0  0
  2  3  1  0  0  0  0
  2  4  1  0  0  0  0
  4  5  1  0  0  0  0
  5  6  1  0  0  0  0
  5  7  2  0  0  0  0
  6  8  1  0  0  0  0
  6 11  2  0  0  0  0
  9  8  1  6  0  0  0
  9 10  1  0  0  0  0
  9 13  1  0  0  0  0
 10 12  1  0  0  0  0
 11 12  1  0  0  0  0
 13 14  1  1  0  0  0
 13 15  1  0  0  0  0
 15 16  1  6  0  0  0
 15 17  1  0  0  0  0
M  END
>  <CHROM.1>
75.87240680,55.34155263,-5.77985056,-24.36908879,33.78994305,2.22142414,-0.63573374
-1.94002430

>  <Name>
ligand

>  <RI>
0

>  <Rbt.Current_Directory>
/home/itssahil/PROJECTS/Mol_Feturizer/New_Systems/rnas/4LVX

>  <Rbt.Executable>
rbdock ($Id: //depot/dev/client3/rdock/2013.1/src/exe/rbdock.cxx#4 $)

>  <Rbt.Library>
libRbt.so (2013.1, Build901 2013/11/27)

>  <Rbt.Parameter_File>
/export/apps/rDock/src/rDock_2013.1_src/data/scripts/dock_solv.prm

>  <Rbt.Receptor>
prm/blind_docking_100.prm

>  <SCORE>
-15.4195

>  <SCORE.INTER>
-8.4058

>  <SCORE.INTER.CONST>
1

>  <SCORE.INTER.POLAR>
0

>  <SCORE.INTER.ROT>
2

>  <SCORE.INTER.SOLV>
12.0312

>  <SCORE.INTER.VDW>
-14.5476

>  <SCORE.INTER.norm>
-0.494459

>  <SCORE.INTRA>
-7.01368

>  <SCORE.INTRA.DIHEDRAL>
-9.2615

>  <SCORE.INTRA.DIHEDRAL.0>
10.3255

>  <SCORE.INTRA.POLAR>
0

>  <SCORE.INTRA.POLAR.0>
0

>  <SCORE.INTRA.REPUL>
0

>  <SCORE.INTRA.REPUL.0>
0

>  <SCORE.INTRA.SOLV>
-0.185321

>  <SCORE.INTRA.SOLV.lig_0>
-53.4755

>  <SCORE.INTRA.VDW>
-2.29026

>  <SCORE.INTRA.VDW.0>
2.32763

>  <SCORE.INTRA.norm>
-0.412569

>  <SCORE.RESTR>
0

>  <SCORE.RESTR.CAVITY>
0

>  <SCORE.RESTR.norm>
0

>  <SCORE.SYSTEM>
0

>  <SCORE.SYSTEM.CONST>
0

>  <SCORE.SYSTEM.DIHEDRAL>
0

>  <SCORE.SYSTEM.SOLV>
0

>  <SCORE.SYSTEM.norm>
0

>  <SCORE.heavy>
17

>  <SCORE.norm>
-0.907028

>  <RMSD>
33.231

$$$$
ligand
 OpenBabel11021811503D
libRbt.so/2013.1/901 2013/11/27
 17 18  0  0  0  0  0  0  0  0999 V2000
   -7.9118  -26.2206   33.3450 N   0  0  0  0  0  0  0  0  0  0  0  0
   -8.0904  -26.4231   31.9705 C   0  0  0  0  0  0  0  0  0  0  0  0
   -9.2850  -27.0592   31.4955 N   0  0  0  0  0  0  0  0  0  0  0  0
   -7.1436  -26.0158   31.0556 N   0  0  0  0  0  0  0  0  0  0  0  0
   -5.9802  -25.3974   31.4644 C   0  0  0  0  0  0  0  0  0  0  0  0
   -5.7420  -25.1705   32.8562 C   0  0  0  0  0  0  0  0  0  0  0  0
   -5.1554  -25.0461   30.6424 O   0  0  0  0  0  0  0  0  0  0  0  0
   -4.5204  -24.5236   33.3284 N   0  0  0  0  0  0  0  0  0  0  0  0
   -4.4094  -24.1432   34.6912 C   0  0  2  0  0  0  0  0  0  0  0  0
   -5.2252  -25.0445   35.6559 C   0  0  0  0  0  0  0  0  0  0  0  0
   -6.7376  -25.5945   33.7871 C   0  0  0  0  0  0  0  0  0  0  0  0
   -6.5157  -25.3686   35.2274 N   0  0  0  0  0  0  0  0  0  0  0  0
   -4.7592  -22.6701   34.7985 C   0  0  1  0  0  0  0  0  0  0  0  0
   -6.1230  -22.4854   34.6870 O   0  0  0  0  0  0  0  0  0  0  0  0
   -4.2584  -22.1087   36.0957 C   0  0  1  0  0  0  0  0  0  0  0  0
   -2.9367  -22.2978   36.2146 O   0  0  0  0  0  0  0  0  0  0  0  0
   -4.5378  -20.5937   36.1912 C   0  0  0  0  0  0  0  0  0  0  0  0
  1  2  2  0  0  0  0
  1 11  1  0  0  0  0
  2  3  1  0  0  0  0
  2  4  1  0  0  0  0
  4  5  1  0  0  0  0
  5  6  1  0  0  0  0
  5  7  2  0  0  0  0
  6  8  1  0  0  0  0
  6 11  2  0  0  0  0
  9  8  1  6  0  0  0
  9 10  1  0  0  0  0
  9 13  1  0  0  0  0
 10 12  1  0  0  0  0
 11 12  1  0  0  0  0
 13 14  1  1  0  0  0
 13 15  1  0  0  0  0
 15 16  1  6  0  0  0
 15 17  1  0  0  0  0
M  END
>  <CHROM.1>
75.15556764,56.77907209,-5.79928672,-24.41171641,33.77247395,2.23721254,-0.62932480
-1.92361691

>  <Name>
ligand

>  <RI>
0

>  <Rbt.Current_Directory>
/home/itssahil/PROJECTS/Mol_Feturizer/New_Systems/rnas/4LVX

>  <Rbt.Executable>
rbdock ($Id: //depot/dev/client3/rdock/2013.1/src/exe/rbdock.cxx#4 $)

>  <Rbt.Library>
libRbt.so (2013.1, Build901 2013/11/27)

>  <Rbt.Parameter_File>
/export/apps/rDock/src/rDock_2013.1_src/data/scripts/dock_solv.prm

>  <Rbt.Receptor>
prm/blind_docking_60.prm

>  <SCORE>
-15.4181

>  <SCORE.INTER>
-8.36107

>  <SCORE.INTER.CONST>
1

>  <SCORE.INTER.POLAR>
0

>  <SCORE.INTER.ROT>
2

>  <SCORE.INTER.SOLV>
12.2211

>  <SCORE.INTER.VDW>
-14.5811

>  <SCORE.INTER.norm>
-0.491827

>  <SCORE.INTRA>
-7.05707

>  <SCORE.INTRA.DIHEDRAL>
-9.37471

>  <SCORE.INTRA.DIHEDRAL.0>
10.3255

>  <SCORE.INTRA.POLAR>
0

>  <SCORE.INTRA.POLAR.0>
0

>  <SCORE.INTRA.REPUL>
0

>  <SCORE.INTRA.REPUL.0>
0

>  <SCORE.INTRA.SOLV>
-0.188982

>  <SCORE.INTRA.SOLV.lig_0>
-53.4755

>  <SCORE.INTRA.VDW>
-2.27523

>  <SCORE.INTRA.VDW.0>
2.32763

>  <SCORE.INTRA.norm>
-0.415122

>  <SCORE.RESTR>
0

>  <SCORE.RESTR.CAVITY>
0

>  <SCORE.RESTR.norm>
0

>  <SCORE.SYSTEM>
0

>  <SCORE.SYSTEM.CONST>
0

>  <SCORE.SYSTEM.DIHEDRAL>
0

>  <SCORE.SYSTEM.SOLV>
0

>  <SCORE.SYSTEM.norm>
0

>  <SCORE.heavy>
17

>  <SCORE.norm>
-0.906949

>  <RMSD>
33.265

$$$$
ligand
 OpenBabel11021811503D
libRbt.so/2013.1/901 2013/11/27
 17 18  0  0  0  0  0  0  0  0999 V2000
   -7.9571  -26.1906   33.3718 N   0  0  0  0  0  0  0  0  0  0  0  0
   -8.1206  -26.4161   31.9990 C   0  0  0  0  0  0  0  0  0  0  0  0
   -9.3185  -27.0428   31.5198 N   0  0  0  0  0  0  0  0  0  0  0  0
   -7.1556  -26.0405   31.0897 N   0  0  0  0  0  0  0  0  0  0  0  0
   -5.9883  -25.4322   31.5026 C   0  0  0  0  0  0  0  0  0  0  0  0
   -5.7651  -25.1828   32.8930 C   0  0  0  0  0  0  0  0  0  0  0  0
   -5.1474  -25.1089   30.6854 O   0  0  0  0  0  0  0  0  0  0  0  0
   -4.5401  -24.5457   33.3696 N   0  0  0  0  0  0  0  0  0  0  0  0
   -4.4414  -24.1415   34.7264 C   0  0  2  0  0  0  0  0  0  0  0  0
   -5.2837  -25.0121   35.6967 C   0  0  0  0  0  0  0  0  0  0  0  0
   -6.7794  -25.5742   33.8181 C   0  0  0  0  0  0  0  0  0  0  0  0
   -6.5732  -25.3246   35.2567 N   0  0  0  0  0  0  0  0  0  0  0  0
   -4.7698  -22.6616   34.8017 C   0  0  1  0  0  0  0  0  0  0  0  0
   -6.1311  -22.4599   34.6898 O   0  0  0  0  0  0  0  0  0  0  0  0
   -4.2570  -22.0785   36.0845 C   0  0  1  0  0  0  0  0  0  0  0  0
   -2.9398  -22.2937   36.2092 O   0  0  0  0  0  0  0  0  0  0  0  0
   -4.5028  -20.5557   36.1410 C   0  0  0  0  0  0  0  0  0  0  0  0
  1  2  2  0  0  0  0
  1 11  1  0  0  0  0
  2  3  1  0  0  0  0
  2  4  1  0  0  0  0
  4  5  1  0  0  0  0
  5  6  1  0  0  0  0
  5  7  2  0  0  0  0
  6  8  1  0  0  0  0
  6 11  2  0  0  0  0
  9  8  1  6  0  0  0
  9 10  1  0  0  0  0
  9 13  1  0  0  0  0
 10 12  1  0  0  0  0
 11 12  1  0  0  0  0
 13 14  1  1  0  0  0
 13 15  1  0  0  0  0
 15 16  1  6  0  0  0
 15 17  1  0  0  0  0
M  END
>  <CHROM.1>
76.12056519,56.25327405,-5.81838735,-24.40577570,33.79217649,2.23237431,-0.61035779
-1.94652820

>  <Name>
ligand

>  <RI>
0

>  <Rbt.Current_Directory>
/home/itssahil/PROJECTS/Mol_Feturizer/New_Systems/rnas/4LVX

>  <Rbt.Executable>
rbdock ($Id: //depot/dev/client3/rdock/2013.1/src/exe/rbdock.cxx#4 $)

>  <Rbt.Library>
libRbt.so (2013.1, Build901 2013/11/27)

>  <Rbt.Parameter_File>
/export/apps/rDock/src/rDock_2013.1_src/data/scripts/dock_solv.prm

>  <Rbt.Receptor>
prm/blind_docking_60.prm

>  <SCORE>
-15.409

>  <SCORE.INTER>
-8.4012

>  <SCORE.INTER.CONST>
1

>  <SCORE.INTER.POLAR>
0

>  <SCORE.INTER.ROT>
2

>  <SCORE.INTER.SOLV>
11.9629

>  <SCORE.INTER.VDW>
-14.5218

>  <SCORE.INTER.norm>
-0.494188

>  <SCORE.INTRA>
-7.00781

>  <SCORE.INTRA.DIHEDRAL>
-9.26634

>  <SCORE.INTRA.DIHEDRAL.0>
10.3255

>  <SCORE.INTRA.POLAR>
0

>  <SCORE.INTRA.POLAR.0>
0

>  <SCORE.INTRA.REPUL>
0

>  <SCORE.INTRA.REPUL.0>
0

>  <SCORE.INTRA.SOLV>
-0.191037

>  <SCORE.INTRA.SOLV.lig_0>
-53.4755

>  <SCORE.INTRA.VDW>
-2.27912

>  <SCORE.INTRA.VDW.0>
2.32763

>  <SCORE.INTRA.norm>
-0.412224

>  <SCORE.RESTR>
0

>  <SCORE.RESTR.CAVITY>
0

>  <SCORE.RESTR.norm>
0

>  <SCORE.SYSTEM>
0

>  <SCORE.SYSTEM.CONST>
0

>  <SCORE.SYSTEM.DIHEDRAL>
0

>  <SCORE.SYSTEM.SOLV>
0

>  <SCORE.SYSTEM.norm>
0

>  <SCORE.heavy>
17

>  <SCORE.norm>
-0.906412

>  <RMSD>
33.269

$$$$
ligand
 OpenBabel11021811503D
libRbt.so/2013.1/901 2013/11/27
 17 18  0  0  0  0  0  0  0  0999 V2000
    0.2734  -24.4887   12.1506 N   0  0  0  0  0  0  0  0  0  0  0  0
   -1.1160  -24.5801   11.9982 C   0  0  0  0  0  0  0  0  0  0  0  0
   -1.7315  -24.1033   10.7936 N   0  0  0  0  0  0  0  0  0  0  0  0
   -1.9115  -25.1286   12.9809 N   0  0  0  0  0  0  0  0  0  0  0  0
   -1.3650  -25.6029   14.1553 C   0  0  0  0  0  0  0  0  0  0  0  0
    0.0474  -25.5294   14.3676 C   0  0  0  0  0  0  0  0  0  0  0  0
   -2.0832  -26.0824   15.0119 O   0  0  0  0  0  0  0  0  0  0  0  0
    0.6628  -26.0162   15.5997 N   0  0  0  0  0  0  0  0  0  0  0  0
    2.0764  -26.1038   15.6910 C   0  0  2  0  0  0  0  0  0  0  0  0
    2.8211  -25.0568   14.8204 C   0  0  0  0  0  0  0  0  0  0  0  0
    0.8544  -24.9632   13.3353 C   0  0  0  0  0  0  0  0  0  0  0  0
    2.3137  -24.8794   13.5300 N   0  0  0  0  0  0  0  0  0  0  0  0
    2.4795  -27.5361   15.3915 C   0  0  1  0  0  0  0  0  0  0  0  0
    3.8466  -27.6308   15.2231 O   0  0  0  0  0  0  0  0  0  0  0  0
    2.0224  -28.4471   16.4913 C   0  0  1  0  0  0  0  0  0  0  0  0
    1.9583  -29.7148   16.0602 O   0  0  0  0  0  0  0  0  0  0  0  0
    2.9889  -28.3966   17.6937 C   0  0  0  0  0  0  0  0  0  0  0  0
  1  2  2  0  0  0  0
  1 11  1  0  0  0  0
  2  3  1  0  0  0  0
  2  4  1  0  0  0  0
  4  5  1  0  0  0  0
  5  6  1  0  0  0  0
  5  7  2  0  0  0  0
  6  8  1  0  0  0  0
  6 11  2  0  0  0  0
  9  8  1  6  0  0  0
  9 10  1  0  0  0  0
  9 13  1  0  0  0  0
 10 12  1  0  0  0  0
 11 12  1  0  0  0  0
 13 14  1  1  0  0  0
 13 15  1  0  0  0  0
 15 16  1  6  0  0  0
 15 17  1  0  0  0  0
M  END
>  <CHROM.1>
168.97704814,159.26560183,0.87630334,-26.20290321,14.48385201,-2.21393675
0.06620504,2.34900333

>  <Name>
ligand

>  <RI>
0

>  <Rbt.Current_Directory>
/home/itssahil/PROJECTS/Mol_Feturizer/New_Systems/rnas/4LVX

>  <Rbt.Executable>
rbdock ($Id: //depot/dev/client3/rdock/2013.1/src/exe/rbdock.cxx#4 $)

>  <Rbt.Library>
libRbt.so (2013.1, Build901 2013/11/27)

>  <Rbt.Parameter_File>
/export/apps/rDock/src/rDock_2013.1_src/data/scripts/dock_solv.prm

>  <Rbt.Receptor>
prm/blind_docking_80.prm

>  <SCORE>
-16.3982

>  <SCORE.INTER>
-10.9137

>  <SCORE.INTER.CONST>
1

>  <SCORE.INTER.POLAR>
0

>  <SCORE.INTER.ROT>
2

>  <SCORE.INTER.SOLV>
12.1112

>  <SCORE.INTER.VDW>
-16.2462

>  <SCORE.INTER.norm>
-0.641981

>  <SCORE.INTRA>
-5.48456

>  <SCORE.INTRA.DIHEDRAL>
-8.28964

>  <SCORE.INTRA.DIHEDRAL.0>
10.3255

>  <SCORE.INTRA.POLAR>
0

>  <SCORE.INTRA.POLAR.0>
0

>  <SCORE.INTRA.REPUL>
0

>  <SCORE.INTRA.REPUL.0>
0

>  <SCORE.INTRA.SOLV>
-0.619113

>  <SCORE.INTRA.SOLV.lig_0>
-53.4755

>  <SCORE.INTRA.VDW>
-1.03018

>  <SCORE.INTRA.VDW.0>
2.32763

>  <SCORE.INTRA.norm>
-0.322621

>  <SCORE.RESTR>
0

>  <SCORE.RESTR.CAVITY>
0

>  <SCORE.RESTR.norm>
0

>  <SCORE.SYSTEM>
0

>  <SCORE.SYSTEM.CONST>
0

>  <SCORE.SYSTEM.DIHEDRAL>
0

>  <SCORE.SYSTEM.SOLV>
0

>  <SCORE.SYSTEM.norm>
0

>  <SCORE.heavy>
17

>  <SCORE.norm>
-0.964602

>  <RMSD>
33.367

$$$$
ligand
 OpenBabel11021811503D
libRbt.so/2013.1/901 2013/11/27
 17 18  0  0  0  0  0  0  0  0999 V2000
    0.2106  -24.4642   12.1155 N   0  0  0  0  0  0  0  0  0  0  0  0
   -1.1792  -24.5496   11.9638 C   0  0  0  0  0  0  0  0  0  0  0  0
   -1.7941  -24.0612   10.7636 N   0  0  0  0  0  0  0  0  0  0  0  0
   -1.9758  -25.1031   12.9428 N   0  0  0  0  0  0  0  0  0  0  0  0
   -1.4298  -25.5886   14.1129 C   0  0  0  0  0  0  0  0  0  0  0  0
   -0.0170  -25.5217   14.3245 C   0  0  0  0  0  0  0  0  0  0  0  0
   -2.1489  -26.0724   14.9663 O   0  0  0  0  0  0  0  0  0  0  0  0
    0.5978  -26.0204   15.5521 N   0  0  0  0  0  0  0  0  0  0  0  0
    2.0112  -26.1136   15.6414 C   0  0  2  0  0  0  0  0  0  0  0  0
    2.7587  -25.0623   14.7785 C   0  0  0  0  0  0  0  0  0  0  0  0
    0.7911  -24.9500   13.2959 C   0  0  0  0  0  0  0  0  0  0  0  0
    2.2508  -24.8729   13.4900 N   0  0  0  0  0  0  0  0  0  0  0  0
    2.4090  -27.5448   15.3302 C   0  0  1  0  0  0  0  0  0  0  0  0
    3.7739  -27.6402   15.1448 O   0  0  0  0  0  0  0  0  0  0  0  0
    1.9642  -28.4606   16.4311 C   0  0  1  0  0  0  0  0  0  0  0  0
    1.9163  -29.7294   16.0011 O   0  0  0  0  0  0  0  0  0  0  0  0
    2.9305  -28.3965   17.6330 C   0  0  0  0  0  0  0  0  0  0  0  0
  1  2  2  0  0  0  0
  1 11  1  0  0  0  0
  2  3  1  0  0  0  0
  2  4  1  0  0  0  0
  4  5  1  0  0  0  0
  5  6  1  0  0  0  0
  5  7  2  0  0  0  0
  6  8  1  0  0  0  0
  6 11  2  0  0  0  0
  9  8  1  6  0  0  0
  9 10  1  0  0  0  0
  9 13  1  0  0  0  0
 10 12  1  0  0  0  0
 11 12  1  0  0  0  0
 13 14  1  1  0  0  0
 13 15  1  0  0  0  0
 15 16  1  6  0  0  0
 15 17  1  0  0  0  0
M  END
>  <CHROM.1>
168.29887431,160.36051823,0.81360057,-26.19694231,14.43584207,-2.21348019
0.06041448,2.35376846

>  <Name>
ligand

>  <RI>
0

>  <Rbt.Current_Directory>
/home/itssahil/PROJECTS/Mol_Feturizer/New_Systems/rnas/4LVX

>  <Rbt.Executable>
rbdock ($Id: //depot/dev/client3/rdock/2013.1/src/exe/rbdock.cxx#4 $)

>  <Rbt.Library>
libRbt.so (2013.1, Build901 2013/11/27)

>  <Rbt.Parameter_File>
/export/apps/rDock/src/rDock_2013.1_src/data/scripts/dock_solv.prm

>  <Rbt.Receptor>
prm/blind_docking_40.prm

>  <SCORE>
-16.3866

>  <SCORE.INTER>
-10.8286

>  <SCORE.INTER.CONST>
1

>  <SCORE.INTER.POLAR>
0

>  <SCORE.INTER.ROT>
2

>  <SCORE.INTER.SOLV>
12.1475

>  <SCORE.INTER.VDW>
-16.2016

>  <SCORE.INTER.norm>
-0.636977

>  <SCORE.INTRA>
-5.55796

>  <SCORE.INTRA.DIHEDRAL>
-8.37312

>  <SCORE.INTRA.DIHEDRAL.0>
10.3255

>  <SCORE.INTRA.POLAR>
0

>  <SCORE.INTRA.POLAR.0>
0

>  <SCORE.INTRA.REPUL>
0

>  <SCORE.INTRA.REPUL.0>
0

>  <SCORE.INTRA.SOLV>
-0.620396

>  <SCORE.INTRA.SOLV.lig_0>
-53.4755

>  <SCORE.INTRA.VDW>
-1.06121

>  <SCORE.INTRA.VDW.0>
2.32763

>  <SCORE.INTRA.norm>
-0.326939

>  <SCORE.RESTR>
0

>  <SCORE.RESTR.CAVITY>
0

>  <SCORE.RESTR.norm>
0

>  <SCORE.SYSTEM>
0

>  <SCORE.SYSTEM.CONST>
0

>  <SCORE.SYSTEM.DIHEDRAL>
0

>  <SCORE.SYSTEM.SOLV>
0

>  <SCORE.SYSTEM.norm>
0

>  <SCORE.heavy>
17

>  <SCORE.norm>
-0.963917

>  <RMSD>
33.371

$$$$
ligand
 OpenBabel11021811503D
libRbt.so/2013.1/901 2013/11/27
 17 18  0  0  0  0  0  0  0  0999 V2000
    0.0697  -24.4905   12.0449 N   0  0  0  0  0  0  0  0  0  0  0  0
   -1.3232  -24.5781   11.9253 C   0  0  0  0  0  0  0  0  0  0  0  0
   -1.9648  -24.1064   10.7324 N   0  0  0  0  0  0  0  0  0  0  0  0
   -2.0976  -25.1180   12.9294 N   0  0  0  0  0  0  0  0  0  0  0  0
   -1.5255  -25.5872   14.0937 C   0  0  0  0  0  0  0  0  0  0  0  0
   -0.1084  -25.5173   14.2728 C   0  0  0  0  0  0  0  0  0  0  0  0
   -2.2253  -26.0591   14.9695 O   0  0  0  0  0  0  0  0  0  0  0  0
    0.5338  -25.9989   15.4932 N   0  0  0  0  0  0  0  0  0  0  0  0
    1.9488  -26.0909   15.5523 C   0  0  2  0  0  0  0  0  0  0  0  0
    2.6765  -25.0516   14.6584 C   0  0  0  0  0  0  0  0  0  0  0  0
    0.6764  -24.9600   13.2187 C   0  0  0  0  0  0  0  0  0  0  0  0
    2.1401  -24.8801   13.3791 N   0  0  0  0  0  0  0  0  0  0  0  0
    2.3401  -27.5263   15.2522 C   0  0  1  0  0  0  0  0  0  0  0  0
    3.7007  -27.6243   15.0387 O   0  0  0  0  0  0  0  0  0  0  0  0
    1.9193  -28.4269   16.3749 C   0  0  1  0  0  0  0  0  0  0  0  0
    1.8821  -29.7039   15.9689 O   0  0  0  0  0  0  0  0  0  0  0  0
    2.8987  -28.3289   17.5639 C   0  0  0  0  0  0  0  0  0  0  0  0
  1  2  2  0  0  0  0
  1 11  1  0  0  0  0
  2  3  1  0  0  0  0
  2  4  1  0  0  0  0
  4  5  1  0  0  0  0
  5  6  1  0  0  0  0
  5  7  2  0  0  0  0
  6  8  1  0  0  0  0
  6 11  2  0  0  0  0
  9  8  1  6  0  0  0
  9 10  1  0  0  0  0
  9 13  1  0  0  0  0
 10 12  1  0  0  0  0
 11 12  1  0  0  0  0
 13 14  1  1  0  0  0
 13 15  1  0  0  0  0
 15 16  1  6  0  0  0
 15 17  1  0  0  0  0
M  END
>  <CHROM.1>
168.33722183,161.29763164,0.72503279,-26.19004807,14.37595009,-2.22938154
0.04378229,2.33917074

>  <Name>
ligand

>  <RI>
0

>  <Rbt.Current_Directory>
/home/itssahil/PROJECTS/Mol_Feturizer/New_Systems/rnas/4LVX

>  <Rbt.Executable>
rbdock ($Id: //depot/dev/client3/rdock/2013.1/src/exe/rbdock.cxx#4 $)

>  <Rbt.Library>
libRbt.so (2013.1, Build901 2013/11/27)

>  <Rbt.Parameter_File>
/export/apps/rDock/src/rDock_2013.1_src/data/scripts/dock_solv.prm

>  <Rbt.Receptor>
prm/blind_docking_100.prm

>  <SCORE>
-16.3479

>  <SCORE.INTER>
-10.6992

>  <SCORE.INTER.CONST>
1

>  <SCORE.INTER.POLAR>
0

>  <SCORE.INTER.ROT>
2

>  <SCORE.INTER.SOLV>
11.7891

>  <SCORE.INTER.VDW>
-15.9959

>  <SCORE.INTER.norm>
-0.629367

>  <SCORE.INTRA>
-5.64863

>  <SCORE.INTRA.DIHEDRAL>
-8.48804

>  <SCORE.INTRA.DIHEDRAL.0>
10.3255

>  <SCORE.INTRA.POLAR>
0

>  <SCORE.INTRA.POLAR.0>
0

>  <SCORE.INTRA.REPUL>
0

>  <SCORE.INTRA.REPUL.0>
0

>  <SCORE.INTRA.SOLV>
-0.618677

>  <SCORE.INTRA.SOLV.lig_0>
-53.4755

>  <SCORE.INTRA.VDW>
-1.09527

>  <SCORE.INTRA.VDW.0>
2.32763

>  <SCORE.INTRA.norm>
-0.332272

>  <SCORE.RESTR>
0

>  <SCORE.RESTR.CAVITY>
0

>  <SCORE.RESTR.norm>
0

>  <SCORE.SYSTEM>
0

>  <SCORE.SYSTEM.CONST>
0

>  <SCORE.SYSTEM.DIHEDRAL>
0

>  <SCORE.SYSTEM.SOLV>
0

>  <SCORE.SYSTEM.norm>
0

>  <SCORE.heavy>
17

>  <SCORE.norm>
-0.961639

>  <RMSD>
33.375

$$$$
ligand
 OpenBabel11021811503D
libRbt.so/2013.1/901 2013/11/27
 17 18  0  0  0  0  0  0  0  0999 V2000
    0.0226  -24.5083   12.0659 N   0  0  0  0  0  0  0  0  0  0  0  0
   -1.3695  -24.6037   11.9434 C   0  0  0  0  0  0  0  0  0  0  0  0
   -2.0121  -24.1284   10.7525 N   0  0  0  0  0  0  0  0  0  0  0  0
   -2.1422  -25.1547   12.9428 N   0  0  0  0  0  0  0  0  0  0  0  0
   -1.5692  -25.6277   14.1051 C   0  0  0  0  0  0  0  0  0  0  0  0
   -0.1528  -25.5502   14.2870 C   0  0  0  0  0  0  0  0  0  0  0  0
   -2.2675  -26.1094   14.9767 O   0  0  0  0  0  0  0  0  0  0  0  0
    0.4903  -26.0356   15.5055 N   0  0  0  0  0  0  0  0  0  0  0  0
    1.9058  -26.1192   15.5664 C   0  0  2  0  0  0  0  0  0  0  0  0
    2.6286  -25.0699   14.6803 C   0  0  0  0  0  0  0  0  0  0  0  0
    0.6303  -24.9815   13.2377 C   0  0  0  0  0  0  0  0  0  0  0  0
    2.0932  -24.8936   13.4011 N   0  0  0  0  0  0  0  0  0  0  0  0
    2.3064  -27.5503   15.2579 C   0  0  1  0  0  0  0  0  0  0  0  0
    3.6685  -27.6393   15.0503 O   0  0  0  0  0  0  0  0  0  0  0  0
    1.8851  -28.4612   16.3720 C   0  0  1  0  0  0  0  0  0  0  0  0
    1.8582  -29.7356   15.9570 O   0  0  0  0  0  0  0  0  0  0  0  0
    2.8572  -28.3652   17.5671 C   0  0  0  0  0  0  0  0  0  0  0  0
  1  2  2  0  0  0  0
  1 11  1  0  0  0  0
  2  3  1  0  0  0  0
  2  4  1  0  0  0  0
  4  5  1  0  0  0  0
  5  6  1  0  0  0  0
  5  7  2  0  0  0  0
  6  8  1  0  0  0  0
  6 11  2  0  0  0  0
  9  8  1  6  0  0  0
  9 10  1  0  0  0  0
  9 13  1  0  0  0  0
 10 12  1  0  0  0  0
 11 12  1  0  0  0  0
 13 14  1  1  0  0  0
 13 15  1  0  0  0  0
 15 16  1  6  0  0  0
 15 17  1  0  0  0  0
M  END
>  <CHROM.1>
168.53284160,161.36399405,0.68365723,-26.21866472,14.38741738,-2.23205392
0.04961366,2.34584802

>  <Name>
ligand

>  <RI>
0

>  <Rbt.Current_Directory>
/home/itssahil/PROJECTS/Mol_Feturizer/New_Systems/rnas/4LVX

>  <Rbt.Executable>
rbdock ($Id: //depot/dev/client3/rdock/2013.1/src/exe/rbdock.cxx#4 $)

>  <Rbt.Library>
libRbt.so (2013.1, Build901 2013/11/27)

>  <Rbt.Parameter_File>
/export/apps/rDock/src/rDock_2013.1_src/data/scripts/dock_solv.prm

>  <Rbt.Receptor>
prm/blind_docking_40.prm

>  <SCORE>
-16.329

>  <SCORE.INTER>
-10.6637

>  <SCORE.INTER.CONST>
1

>  <SCORE.INTER.POLAR>
0

>  <SCORE.INTER.ROT>
2

>  <SCORE.INTER.SOLV>
11.8938

>  <SCORE.INTER.VDW>
-16.0071

>  <SCORE.INTER.norm>
-0.627279

>  <SCORE.INTRA>
-5.66528

>  <SCORE.INTRA.DIHEDRAL>
-8.5109

>  <SCORE.INTRA.DIHEDRAL.0>
10.3255

>  <SCORE.INTRA.POLAR>
0

>  <SCORE.INTRA.POLAR.0>
0

>  <SCORE.INTRA.REPUL>
0

>  <SCORE.INTRA.REPUL.0>
0

>  <SCORE.INTRA.SOLV>
-0.617702

>  <SCORE.INTRA.SOLV.lig_0>
-53.4755

>  <SCORE.INTRA.VDW>
-1.10098

>  <SCORE.INTRA.VDW.0>
2.32763

>  <SCORE.INTRA.norm>
-0.333252

>  <SCORE.RESTR>
0

>  <SCORE.RESTR.CAVITY>
0

>  <SCORE.RESTR.norm>
0

>  <SCORE.SYSTEM>
0

>  <SCORE.SYSTEM.CONST>
0

>  <SCORE.SYSTEM.DIHEDRAL>
0

>  <SCORE.SYSTEM.SOLV>
0

>  <SCORE.SYSTEM.norm>
0

>  <SCORE.heavy>
17

>  <SCORE.norm>
-0.960531

>  <RMSD>
33.399

$$$$
ligand
 OpenBabel11021811503D
libRbt.so/2013.1/901 2013/11/27
 17 18  0  0  0  0  0  0  0  0999 V2000
    0.0174  -24.5473   12.0183 N   0  0  0  0  0  0  0  0  0  0  0  0
   -1.3761  -24.6416   11.9127 C   0  0  0  0  0  0  0  0  0  0  0  0
   -2.0308  -24.1852   10.7209 N   0  0  0  0  0  0  0  0  0  0  0  0
   -2.1389  -25.1738   12.9297 N   0  0  0  0  0  0  0  0  0  0  0  0
   -1.5542  -25.6283   14.0935 C   0  0  0  0  0  0  0  0  0  0  0  0
   -0.1357  -25.5509   14.2586 C   0  0  0  0  0  0  0  0  0  0  0  0
   -2.2438  -26.0936   14.9808 O   0  0  0  0  0  0  0  0  0  0  0  0
    0.5198  -26.0169   15.4780 N   0  0  0  0  0  0  0  0  0  0  0  0
    1.9357  -26.1026   15.5248 C   0  0  2  0  0  0  0  0  0  0  0  0
    2.6508  -25.0701   14.6131 C   0  0  0  0  0  0  0  0  0  0  0  0
    0.6370  -25.0018   13.1912 C   0  0  0  0  0  0  0  0  0  0  0  0
    2.1017  -24.9144   13.3371 N   0  0  0  0  0  0  0  0  0  0  0  0
    2.3299  -27.5396   15.2363 C   0  0  1  0  0  0  0  0  0  0  0  0
    3.6920  -27.6379   15.0322 O   0  0  0  0  0  0  0  0  0  0  0  0
    1.9026  -28.4334   16.3619 C   0  0  1  0  0  0  0  0  0  0  0  0
    1.8635  -29.7123   15.9622 O   0  0  0  0  0  0  0  0  0  0  0  0
    2.8776  -28.3319   17.5541 C   0  0  0  0  0  0  0  0  0  0  0  0
  1  2  2  0  0  0  0
  1 11  1  0  0  0  0
  2  3  1  0  0  0  0
  2  4  1  0  0  0  0
  4  5  1  0  0  0  0
  5  6  1  0  0  0  0
  5  7  2  0  0  0  0
  6  8  1  0  0  0  0
  6 11  2  0  0  0  0
  9  8  1  6  0  0  0
  9 10  1  0  0  0  0
  9 13  1  0  0  0  0
 10 12  1  0  0  0  0
 11 12  1  0  0  0  0
 13 14  1  1  0  0  0
 13 15  1  0  0  0  0
 15 16  1  6  0  0  0
 15 17  1  0  0  0  0
M  END
>  <CHROM.1>
169.29706389,161.04296634,0.69652018,-26.22077848,14.36086914,-2.23687141
0.04230346,2.33109532

>  <Name>
ligand

>  <RI>
0

>  <Rbt.Current_Directory>
/home/itssahil/PROJECTS/Mol_Feturizer/New_Systems/rnas/4LVX

>  <Rbt.Executable>
rbdock ($Id: //depot/dev/client3/rdock/2013.1/src/exe/rbdock.cxx#4 $)

>  <Rbt.Library>
libRbt.so (2013.1, Build901 2013/11/27)

>  <Rbt.Parameter_File>
/export/apps/rDock/src/rDock_2013.1_src/data/scripts/dock_solv.prm

>  <Rbt.Receptor>
prm/blind_docking_60.prm

>  <SCORE>
-16.3801

>  <SCORE.INTER>
-10.7048

>  <SCORE.INTER.CONST>
1

>  <SCORE.INTER.POLAR>
0

>  <SCORE.INTER.ROT>
2

>  <SCORE.INTER.SOLV>
11.5449

>  <SCORE.INTER.VDW>
-15.9182

>  <SCORE.INTER.norm>
-0.629696

>  <SCORE.INTRA>
-5.6753

>  <SCORE.INTRA.DIHEDRAL>
-8.52975

>  <SCORE.INTRA.DIHEDRAL.0>
10.3255

>  <SCORE.INTRA.POLAR>
0

>  <SCORE.INTRA.POLAR.0>
0

>  <SCORE.INTRA.REPUL>
0

>  <SCORE.INTRA.REPUL.0>
0

>  <SCORE.INTRA.SOLV>
-0.614894

>  <SCORE.INTRA.SOLV.lig_0>
-53.4755

>  <SCORE.INTRA.VDW>
-1.10298

>  <SCORE.INTRA.VDW.0>
2.32763

>  <SCORE.INTRA.norm>
-0.333841

>  <SCORE.RESTR>
0

>  <SCORE.RESTR.CAVITY>
0

>  <SCORE.RESTR.norm>
0

>  <SCORE.SYSTEM>
0

>  <SCORE.SYSTEM.CONST>
0

>  <SCORE.SYSTEM.DIHEDRAL>
0

>  <SCORE.SYSTEM.SOLV>
0

>  <SCORE.SYSTEM.norm>
0

>  <SCORE.heavy>
17

>  <SCORE.norm>
-0.963537

>  <RMSD>
33.408

$$$$
ligand
 OpenBabel11021811503D
libRbt.so/2013.1/901 2013/11/27
 17 18  0  0  0  0  0  0  0  0999 V2000
    0.7516  -24.6428   12.6187 N   0  0  0  0  0  0  0  0  0  0  0  0
   -0.5976  -24.5927   12.2454 C   0  0  0  0  0  0  0  0  0  0  0  0
   -0.9679  -23.9864   10.9995 N   0  0  0  0  0  0  0  0  0  0  0  0
   -1.5847  -25.1230   13.0477 N   0  0  0  0  0  0  0  0  0  0  0  0
   -1.2771  -25.7185   14.2534 C   0  0  0  0  0  0  0  0  0  0  0  0
    0.0834  -25.7923   14.6879 C   0  0  0  0  0  0  0  0  0  0  0  0
   -2.1621  -26.1798   14.9488 O   0  0  0  0  0  0  0  0  0  0  0  0
    0.4484  -26.4103   15.9602 N   0  0  0  0  0  0  0  0  0  0  0  0
    1.8162  -26.6368   16.2635 C   0  0  2  0  0  0  0  0  0  0  0  0
    2.7769  -25.6133   15.6016 C   0  0  0  0  0  0  0  0  0  0  0  0
    1.0914  -25.2424   13.8399 C   0  0  0  0  0  0  0  0  0  0  0  0
    2.5017  -25.3094   14.2652 N   0  0  0  0  0  0  0  0  0  0  0  0
    2.1412  -28.0796   15.9224 C   0  0  1  0  0  0  0  0  0  0  0  0
    2.3074  -28.2310   14.5601 O   0  0  0  0  0  0  0  0  0  0  0  0
    3.3730  -28.5233   16.6534 C   0  0  1  0  0  0  0  0  0  0  0  0
    4.3972  -27.6962   16.4007 O   0  0  0  0  0  0  0  0  0  0  0  0
    3.1376  -28.5449   18.1787 C   0  0  0  0  0  0  0  0  0  0  0  0
  1  2  2  0  0  0  0
  1 11  1  0  0  0  0
  2  3  1  0  0  0  0
  2  4  1  0  0  0  0
  4  5  1  0  0  0  0
  5  6  1  0  0  0  0
  5  7  2  0  0  0  0
  6  8  1  0  0  0  0
  6 11  2  0  0  0  0
  9  8  1  6  0  0  0
  9 10  1  0  0  0  0
  9 13  1  0  0  0  0
 10 12  1  0  0  0  0
 11 12  1  0  0  0  0
 13 14  1  6  0  0  0
 13 15  1  0  0  0  0
 15 16  1  1  0  0  0
 15 17  1  0  0  0  0
M  END
>  <CHROM.1>
77.90934928,-54.98336930,1.11839765,-26.30513282,14.77564067,-2.26003659
-0.04806382,2.20003711

>  <Name>
ligand

>  <RI>
0

>  <Rbt.Current_Directory>
/home/itssahil/PROJECTS/Mol_Feturizer/New_Systems/rnas/4LVX

>  <Rbt.Executable>
rbdock ($Id: //depot/dev/client3/rdock/2013.1/src/exe/rbdock.cxx#4 $)

>  <Rbt.Library>
libRbt.so (2013.1, Build901 2013/11/27)

>  <Rbt.Parameter_File>
/export/apps/rDock/src/rDock_2013.1_src/data/scripts/dock_solv.prm

>  <Rbt.Receptor>
prm/blind_docking_40.prm

>  <SCORE>
-17.2714

>  <SCORE.INTER>
-11.8026

>  <SCORE.INTER.CONST>
1

>  <SCORE.INTER.POLAR>
0

>  <SCORE.INTER.ROT>
2

>  <SCORE.INTER.SOLV>
13.4777

>  <SCORE.INTER.VDW>
-17.2943

>  <SCORE.INTER.norm>
-0.694274

>  <SCORE.INTRA>
-5.46878

>  <SCORE.INTRA.DIHEDRAL>
-9.05448

>  <SCORE.INTRA.DIHEDRAL.0>
10.3255

>  <SCORE.INTRA.POLAR>
0

>  <SCORE.INTRA.POLAR.0>
0

>  <SCORE.INTRA.REPUL>
0

>  <SCORE.INTRA.REPUL.0>
0

>  <SCORE.INTRA.SOLV>
0.475989

>  <SCORE.INTRA.SOLV.lig_0>
-53.4755

>  <SCORE.INTRA.VDW>
-1.17954

>  <SCORE.INTRA.VDW.0>
2.32763

>  <SCORE.INTRA.norm>
-0.321693

>  <SCORE.RESTR>
0

>  <SCORE.RESTR.CAVITY>
0

>  <SCORE.RESTR.norm>
0

>  <SCORE.SYSTEM>
0

>  <SCORE.SYSTEM.CONST>
0

>  <SCORE.SYSTEM.DIHEDRAL>
0

>  <SCORE.SYSTEM.SOLV>
0

>  <SCORE.SYSTEM.norm>
0

>  <SCORE.heavy>
17

>  <SCORE.norm>
-1.01597

>  <RMSD>
33.410

$$$$
ligand
 OpenBabel11021811503D
libRbt.so/2013.1/901 2013/11/27
 17 18  0  0  0  0  0  0  0  0999 V2000
    0.5892  -24.6038   12.6923 N   0  0  0  0  0  0  0  0  0  0  0  0
   -0.7547  -24.5465   12.3017 C   0  0  0  0  0  0  0  0  0  0  0  0
   -1.1094  -23.9054   11.0686 N   0  0  0  0  0  0  0  0  0  0  0  0
   -1.7514  -25.1026   13.0742 N   0  0  0  0  0  0  0  0  0  0  0  0
   -1.4589  -25.7319   14.2664 C   0  0  0  0  0  0  0  0  0  0  0  0
   -0.1044  -25.8146   14.7178 C   0  0  0  0  0  0  0  0  0  0  0  0
   -2.3521  -26.2155   14.9355 O   0  0  0  0  0  0  0  0  0  0  0  0
    0.2446  -26.4682   15.9767 N   0  0  0  0  0  0  0  0  0  0  0  0
    1.6087  -26.6997   16.2926 C   0  0  2  0  0  0  0  0  0  0  0  0
    2.5754  -25.6548   15.6742 C   0  0  0  0  0  0  0  0  0  0  0  0
    0.9137  -25.2376   13.9004 C   0  0  0  0  0  0  0  0  0  0  0  0
    2.3182  -25.3130   14.3435 N   0  0  0  0  0  0  0  0  0  0  0  0
    1.9430  -28.1311   15.9146 C   0  0  1  0  0  0  0  0  0  0  0  0
    2.0558  -28.2578   14.5443 O   0  0  0  0  0  0  0  0  0  0  0  0
    3.2107  -28.5655   16.5874 C   0  0  1  0  0  0  0  0  0  0  0  0
    4.2260  -27.7573   16.2513 O   0  0  0  0  0  0  0  0  0  0  0  0
    3.0630  -28.5384   18.1236 C   0  0  0  0  0  0  0  0  0  0  0  0
  1  2  2  0  0  0  0
  1 11  1  0  0  0  0
  2  3  1  0  0  0  0
  2  4  1  0  0  0  0
  4  5  1  0  0  0  0
  5  6  1  0  0  0  0
  5  7  2  0  0  0  0
  6  8  1  0  0  0  0
  6 11  2  0  0  0  0
  9  8  1  6  0  0  0
  9 10  1  0  0  0  0
  9 13  1  0  0  0  0
 10 12  1  0  0  0  0
 11 12  1  0  0  0  0
 13 14  1  6  0  0  0
 13 15  1  0  0  0  0
 15 16  1  1  0  0  0
 15 17  1  0  0  0  0
M  END
>  <CHROM.1>
74.58939426,-58.21034893,0.94068123,-26.31884196,14.78574239,-2.26542697
-0.04326305,2.22577738

>  <Name>
ligand

>  <RI>
0

>  <Rbt.Current_Directory>
/home/itssahil/PROJECTS/Mol_Feturizer/New_Systems/rnas/4LVX

>  <Rbt.Executable>
rbdock ($Id: //depot/dev/client3/rdock/2013.1/src/exe/rbdock.cxx#4 $)

>  <Rbt.Library>
libRbt.so (2013.1, Build901 2013/11/27)

>  <Rbt.Parameter_File>
/export/apps/rDock/src/rDock_2013.1_src/data/scripts/dock_solv.prm

>  <Rbt.Receptor>
prm/blind_docking_40.prm

>  <SCORE>
-17.2307

>  <SCORE.INTER>
-11.8092

>  <SCORE.INTER.CONST>
1

>  <SCORE.INTER.POLAR>
0

>  <SCORE.INTER.ROT>
2

>  <SCORE.INTER.SOLV>
14.1284

>  <SCORE.INTER.VDW>
-17.5156

>  <SCORE.INTER.norm>
-0.694661

>  <SCORE.INTRA>
-5.42143

>  <SCORE.INTRA.DIHEDRAL>
-9.46245

>  <SCORE.INTRA.DIHEDRAL.0>
10.3255

>  <SCORE.INTRA.POLAR>
0

>  <SCORE.INTRA.POLAR.0>
0

>  <SCORE.INTRA.REPUL>
0

>  <SCORE.INTRA.REPUL.0>
0

>  <SCORE.INTRA.SOLV>
0.53168

>  <SCORE.INTRA.SOLV.lig_0>
-53.4755

>  <SCORE.INTRA.VDW>
-0.956041

>  <SCORE.INTRA.VDW.0>
2.32763

>  <SCORE.INTRA.norm>
-0.318907

>  <SCORE.RESTR>
0

>  <SCORE.RESTR.CAVITY>
0

>  <SCORE.RESTR.norm>
0

>  <SCORE.SYSTEM>
0

>  <SCORE.SYSTEM.CONST>
0

>  <SCORE.SYSTEM.DIHEDRAL>
0

>  <SCORE.SYSTEM.SOLV>
0

>  <SCORE.SYSTEM.norm>
0

>  <SCORE.heavy>
17

>  <SCORE.norm>
-1.01357

>  <RMSD>
33.412

$$$$
ligand
 OpenBabel11021811503D
libRbt.so/2013.1/901 2013/11/27
 17 18  0  0  0  0  0  0  0  0999 V2000
    0.7659  -24.6407   12.6528 N   0  0  0  0  0  0  0  0  0  0  0  0
   -0.5794  -24.5772   12.2681 C   0  0  0  0  0  0  0  0  0  0  0  0
   -0.9342  -23.9560   11.0249 N   0  0  0  0  0  0  0  0  0  0  0  0
   -1.5775  -25.1081   13.0563 N   0  0  0  0  0  0  0  0  0  0  0  0
   -1.2850  -25.7176   14.2588 C   0  0  0  0  0  0  0  0  0  0  0  0
    0.0710  -25.8054   14.7047 C   0  0  0  0  0  0  0  0  0  0  0  0
   -2.1794  -26.1792   14.9417 O   0  0  0  0  0  0  0  0  0  0  0  0
    0.4201  -26.4385   15.9740 N   0  0  0  0  0  0  0  0  0  0  0  0
    1.7835  -26.6779   16.2872 C   0  0  2  0  0  0  0  0  0  0  0  0
    2.7574  -25.6549   15.6439 C   0  0  0  0  0  0  0  0  0  0  0  0
    1.0905  -25.2546   13.8710 C   0  0  0  0  0  0  0  0  0  0  0  0
    2.4965  -25.3359   14.3082 N   0  0  0  0  0  0  0  0  0  0  0  0
    2.1013  -28.1196   15.9348 C   0  0  1  0  0  0  0  0  0  0  0  0
    2.2557  -28.2633   14.5703 O   0  0  0  0  0  0  0  0  0  0  0  0
    3.3377  -28.5713   16.6529 C   0  0  1  0  0  0  0  0  0  0  0  0
    4.3626  -27.7465   16.3958 O   0  0  0  0  0  0  0  0  0  0  0  0
    3.1152  -28.6001   18.1801 C   0  0  0  0  0  0  0  0  0  0  0  0
  1  2  2  0  0  0  0
  1 11  1  0  0  0  0
  2  3  1  0  0  0  0
  2  4  1  0  0  0  0
  4  5  1  0  0  0  0
  5  6  1  0  0  0  0
  5  7  2  0  0  0  0
  6  8  1  0  0  0  0
  6 11  2  0  0  0  0
  9  8  1  6  0  0  0
  9 10  1  0  0  0  0
  9 13  1  0  0  0  0
 10 12  1  0  0  0  0
 11 12  1  0  0  0  0
 13 14  1  6  0  0  0
 13 15  1  0  0  0  0
 15 16  1  1  0  0  0
 15 17  1  0  0  0  0
M  END
>  <CHROM.1>
76.87223249,-55.03647341,1.10387589,-26.32484397,14.79148546,-2.25209859
-0.04850469,2.21090698

>  <Name>
ligand

>  <RI>
0

>  <Rbt.Current_Directory>
/home/itssahil/PROJECTS/Mol_Feturizer/New_Systems/rnas/4LVX

>  <Rbt.Executable>
rbdock ($Id: //depot/dev/client3/rdock/2013.1/src/exe/rbdock.cxx#4 $)

>  <Rbt.Library>
libRbt.so (2013.1, Build901 2013/11/27)

>  <Rbt.Parameter_File>
/export/apps/rDock/src/rDock_2013.1_src/data/scripts/dock_solv.prm

>  <Rbt.Receptor>
prm/blind_docking_40.prm

>  <SCORE>
-17.2381

>  <SCORE.INTER>
-11.7754

>  <SCORE.INTER.CONST>
1

>  <SCORE.INTER.POLAR>
0

>  <SCORE.INTER.ROT>
2

>  <SCORE.INTER.SOLV>
13.6823

>  <SCORE.INTER.VDW>
-17.3443

>  <SCORE.INTER.norm>
-0.69267

>  <SCORE.INTRA>
-5.46272

>  <SCORE.INTRA.DIHEDRAL>
-9.16579

>  <SCORE.INTRA.DIHEDRAL.0>
10.3255

>  <SCORE.INTRA.POLAR>
0

>  <SCORE.INTRA.POLAR.0>
0

>  <SCORE.INTRA.REPUL>
0

>  <SCORE.INTRA.REPUL.0>
0

>  <SCORE.INTRA.SOLV>
0.495364

>  <SCORE.INTRA.SOLV.lig_0>
-53.4755

>  <SCORE.INTRA.VDW>
-1.1275

>  <SCORE.INTRA.VDW.0>
2.32763

>  <SCORE.INTRA.norm>
-0.321336

>  <SCORE.RESTR>
0

>  <SCORE.RESTR.CAVITY>
0

>  <SCORE.RESTR.norm>
0

>  <SCORE.SYSTEM>
0

>  <SCORE.SYSTEM.CONST>
0

>  <SCORE.SYSTEM.DIHEDRAL>
0

>  <SCORE.SYSTEM.SOLV>
0

>  <SCORE.SYSTEM.norm>
0

>  <SCORE.heavy>
17

>  <SCORE.norm>
-1.01401

>  <RMSD>
33.424

$$$$
ligand
 OpenBabel11021811503D
libRbt.so/2013.1/901 2013/11/27
 17 18  0  0  0  0  0  0  0  0999 V2000
    0.5781  -24.6404   12.6897 N   0  0  0  0  0  0  0  0  0  0  0  0
   -0.7660  -24.6089   12.2969 C   0  0  0  0  0  0  0  0  0  0  0  0
   -1.1303  -23.9790   11.0608 N   0  0  0  0  0  0  0  0  0  0  0  0
   -1.7537  -25.1797   13.0701 N   0  0  0  0  0  0  0  0  0  0  0  0
   -1.4518  -25.7989   14.2653 C   0  0  0  0  0  0  0  0  0  0  0  0
   -0.0967  -25.8555   14.7190 C   0  0  0  0  0  0  0  0  0  0  0  0
   -2.3372  -26.2959   14.9350 O   0  0  0  0  0  0  0  0  0  0  0  0
    0.2620  -26.4978   15.9809 N   0  0  0  0  0  0  0  0  0  0  0  0
    1.6296  -26.7034   16.2998 C   0  0  2  0  0  0  0  0  0  0  0  0
    2.5783  -25.6438   15.6787 C   0  0  0  0  0  0  0  0  0  0  0  0
    0.9121  -25.2635   13.9007 C   0  0  0  0  0  0  0  0  0  0  0  0
    2.3169  -25.3119   14.3462 N   0  0  0  0  0  0  0  0  0  0  0  0
    1.9901  -28.1301   15.9279 C   0  0  1  0  0  0  0  0  0  0  0  0
    2.1227  -28.2565   14.5594 O   0  0  0  0  0  0  0  0  0  0  0  0
    3.2553  -28.5447   16.6178 C   0  0  1  0  0  0  0  0  0  0  0  0
    4.2555  -27.7042   16.3177 O   0  0  0  0  0  0  0  0  0  0  0  0
    3.0767  -28.5515   18.1509 C   0  0  0  0  0  0  0  0  0  0  0  0
  1  2  2  0  0  0  0
  1 11  1  0  0  0  0
  2  3  1  0  0  0  0
  2  4  1  0  0  0  0
  4  5  1  0  0  0  0
  5  6  1  0  0  0  0
  5  7  2  0  0  0  0
  6  8  1  0  0  0  0
  6 11  2  0  0  0  0
  9  8  1  6  0  0  0
  9 10  1  0  0  0  0
  9 13  1  0  0  0  0
 10 12  1  0  0  0  0
 11 12  1  0  0  0  0
 13 14  1  6  0  0  0
 13 15  1  0  0  0  0
 15 16  1  1  0  0  0
 15 17  1  0  0  0  0
M  END
>  <CHROM.1>
75.29318185,-56.82331057,0.95458374,-26.34277399,14.79544671,-2.27119482
-0.02540737,2.22345957

>  <Name>
ligand

>  <RI>
0

>  <Rbt.Current_Directory>
/home/itssahil/PROJECTS/Mol_Feturizer/New_Systems/rnas/4LVX

>  <Rbt.Executable>
rbdock ($Id: //depot/dev/client3/rdock/2013.1/src/exe/rbdock.cxx#4 $)

>  <Rbt.Library>
libRbt.so (2013.1, Build901 2013/11/27)

>  <Rbt.Parameter_File>
/export/apps/rDock/src/rDock_2013.1_src/data/scripts/dock_solv.prm

>  <Rbt.Receptor>
prm/blind_docking_40.prm

>  <SCORE>
-17.1993

>  <SCORE.INTER>
-11.7611

>  <SCORE.INTER.CONST>
1

>  <SCORE.INTER.POLAR>
0

>  <SCORE.INTER.ROT>
2

>  <SCORE.INTER.SOLV>
13.9577

>  <SCORE.INTER.VDW>
-17.4266

>  <SCORE.INTER.norm>
-0.69183

>  <SCORE.INTRA>
-5.43817

>  <SCORE.INTRA.DIHEDRAL>
-9.37326

>  <SCORE.INTRA.DIHEDRAL.0>
10.3255

>  <SCORE.INTRA.POLAR>
0

>  <SCORE.INTRA.POLAR.0>
0

>  <SCORE.INTRA.REPUL>
0

>  <SCORE.INTRA.REPUL.0>
0

>  <SCORE.INTRA.SOLV>
0.521638

>  <SCORE.INTRA.SOLV.lig_0>
-53.4755

>  <SCORE.INTRA.VDW>
-1.01235

>  <SCORE.INTRA.VDW.0>
2.32763

>  <SCORE.INTRA.norm>
-0.319892

>  <SCORE.RESTR>
0

>  <SCORE.RESTR.CAVITY>
0

>  <SCORE.RESTR.norm>
0

>  <SCORE.SYSTEM>
0

>  <SCORE.SYSTEM.CONST>
0

>  <SCORE.SYSTEM.DIHEDRAL>
0

>  <SCORE.SYSTEM.SOLV>
0

>  <SCORE.SYSTEM.norm>
0

>  <SCORE.heavy>
17

>  <SCORE.norm>
-1.01172

>  <RMSD>
33.435

$$$$
ligand
 OpenBabel11021811503D
libRbt.so/2013.1/901 2013/11/27
 17 18  0  0  0  0  0  0  0  0999 V2000
    0.4823  -24.6693   12.6469 N   0  0  0  0  0  0  0  0  0  0  0  0
   -0.8681  -24.6319   12.2769 C   0  0  0  0  0  0  0  0  0  0  0  0
   -1.2485  -24.0174   11.0380 N   0  0  0  0  0  0  0  0  0  0  0  0
   -1.8470  -25.1825   13.0756 N   0  0  0  0  0  0  0  0  0  0  0  0
   -1.5295  -25.7865   14.2745 C   0  0  0  0  0  0  0  0  0  0  0  0
   -0.1673  -25.8480   14.7056 C   0  0  0  0  0  0  0  0  0  0  0  0
   -2.4073  -26.2657   14.9669 O   0  0  0  0  0  0  0  0  0  0  0  0
    0.2079  -26.4746   15.9707 N   0  0  0  0  0  0  0  0  0  0  0  0
    1.5790  -26.6874   16.2689 C   0  0  2  0  0  0  0  0  0  0  0  0
    2.5257  -25.6454   15.6156 C   0  0  0  0  0  0  0  0  0  0  0  0
    0.8321  -25.2771   13.8612 C   0  0  0  0  0  0  0  0  0  0  0  0
    2.2440  -25.3312   14.2830 N   0  0  0  0  0  0  0  0  0  0  0  0
    1.9209  -28.1225   15.9123 C   0  0  1  0  0  0  0  0  0  0  0  0
    2.0340  -28.2693   14.5440 O   0  0  0  0  0  0  0  0  0  0  0  0
    3.1913  -28.5398   16.5910 C   0  0  1  0  0  0  0  0  0  0  0  0
    4.2002  -27.7262   16.2489 O   0  0  0  0  0  0  0  0  0  0  0  0
    3.0409  -28.4995   18.1267 C   0  0  0  0  0  0  0  0  0  0  0  0
  1  2  2  0  0  0  0
  1 11  1  0  0  0  0
  2  3  1  0  0  0  0
  2  4  1  0  0  0  0
  4  5  1  0  0  0  0
  5  6  1  0  0  0  0
  5  7  2  0  0  0  0
  6  8  1  0  0  0  0
  6 11  2  0  0  0  0
  9  8  1  6  0  0  0
  9 10  1  0  0  0  0
  9 13  1  0  0  0  0
 10 12  1  0  0  0  0
 11 12  1  0  0  0  0
 13 14  1  6  0  0  0
 13 15  1  0  0  0  0
 15 16  1  1  0  0  0
 15 17  1  0  0  0  0
M  END
>  <CHROM.1>
75.53660940,-57.82589793,0.88138751,-26.34307687,14.77121451,-2.28030354
-0.04477004,2.20622734

>  <Name>
ligand

>  <RI>
0

>  <Rbt.Current_Directory>
/home/itssahil/PROJECTS/Mol_Feturizer/New_Systems/rnas/4LVX

>  <Rbt.Executable>
rbdock ($Id: //depot/dev/client3/rdock/2013.1/src/exe/rbdock.cxx#4 $)

>  <Rbt.Library>
libRbt.so (2013.1, Build901 2013/11/27)

>  <Rbt.Parameter_File>
/export/apps/rDock/src/rDock_2013.1_src/data/scripts/dock_solv.prm

>  <Rbt.Receptor>
prm/blind_docking_40.prm

>  <SCORE>
-17.1789

>  <SCORE.INTER>
-11.725

>  <SCORE.INTER.CONST>
1

>  <SCORE.INTER.POLAR>
0

>  <SCORE.INTER.ROT>
2

>  <SCORE.INTER.SOLV>
13.644

>  <SCORE.INTER.VDW>
-17.298

>  <SCORE.INTER.norm>
-0.689703

>  <SCORE.INTRA>
-5.45394

>  <SCORE.INTRA.DIHEDRAL>
-9.3678

>  <SCORE.INTRA.DIHEDRAL.0>
10.3255

>  <SCORE.INTRA.POLAR>
0

>  <SCORE.INTRA.POLAR.0>
0

>  <SCORE.INTRA.REPUL>
0

>  <SCORE.INTRA.REPUL.0>
0

>  <SCORE.INTRA.SOLV>
0.51466

>  <SCORE.INTRA.SOLV.lig_0>
-53.4755

>  <SCORE.INTRA.VDW>
-1.02737

>  <SCORE.INTRA.VDW.0>
2.32763

>  <SCORE.INTRA.norm>
-0.32082

>  <SCORE.RESTR>
0

>  <SCORE.RESTR.CAVITY>
0

>  <SCORE.RESTR.norm>
0

>  <SCORE.SYSTEM>
0

>  <SCORE.SYSTEM.CONST>
0

>  <SCORE.SYSTEM.DIHEDRAL>
0

>  <SCORE.SYSTEM.SOLV>
0

>  <SCORE.SYSTEM.norm>
0

>  <SCORE.heavy>
17

>  <SCORE.norm>
-1.01052

>  <RMSD>
33.437

$$$$
ligand
 OpenBabel11021811503D
libRbt.so/2013.1/901 2013/11/27
 17 18  0  0  0  0  0  0  0  0999 V2000
    0.2786  -24.8261   12.4895 N   0  0  0  0  0  0  0  0  0  0  0  0
   -1.0631  -24.8612   12.0886 C   0  0  0  0  0  0  0  0  0  0  0  0
   -1.4240  -24.4123   10.7751 N   0  0  0  0  0  0  0  0  0  0  0  0
   -2.0514  -25.3278   12.9282 N   0  0  0  0  0  0  0  0  0  0  0  0
   -1.7527  -25.7725   14.1994 C   0  0  0  0  0  0  0  0  0  0  0  0
   -0.4002  -25.7536   14.6640 C   0  0  0  0  0  0  0  0  0  0  0  0
   -2.6386  -26.1795   14.9267 O   0  0  0  0  0  0  0  0  0  0  0  0
   -0.0450  -26.2114   16.0049 N   0  0  0  0  0  0  0  0  0  0  0  0
    1.3220  -26.3589   16.3569 C   0  0  2  0  0  0  0  0  0  0  0  0
    2.2665  -25.3874   15.5999 C   0  0  0  0  0  0  0  0  0  0  0  0
    0.6093  -25.2722   13.7771 C   0  0  0  0  0  0  0  0  0  0  0  0
    2.0115  -25.2460   14.2328 N   0  0  0  0  0  0  0  0  0  0  0  0
    1.6963  -27.8201   16.1887 C   0  0  1  0  0  0  0  0  0  0  0  0
    1.9415  -28.1089   14.8609 O   0  0  0  0  0  0  0  0  0  0  0  0
    2.8946  -28.1512   17.0271 C   0  0  1  0  0  0  0  0  0  0  0  0
    2.9771  -29.4730   17.2339 O   0  0  0  0  0  0  0  0  0  0  0  0
    4.1982  -27.6895   16.3417 C   0  0  0  0  0  0  0  0  0  0  0  0
  1  2  2  0  0  0  0
  1 11  1  0  0  0  0
  2  3  1  0  0  0  0
  2  4  1  0  0  0  0
  4  5  1  0  0  0  0
  5  6  1  0  0  0  0
  5  7  2  0  0  0  0
  6  8  1  0  0  0  0
  6 11  2  0  0  0  0
  9  8  1  6  0  0  0
  9 10  1  0  0  0  0
  9 13  1  0  0  0  0
 10 12  1  0  0  0  0
 11 12  1  0  0  0  0
 13 14  1  6  0  0  0
 13 15  1  0  0  0  0
 15 16  1  6  0  0  0
 15 17  1  0  0  0  0
M  END
>  <CHROM.1>
79.98692028,160.07672772,0.68246123,-26.34824155,14.73152232,-2.28494904
-0.02730540,2.20610391

>  <Name>
ligand

>  <RI>
0

>  <Rbt.Current_Directory>
/home/itssahil/PROJECTS/Mol_Feturizer/New_Systems/rnas/4LVX

>  <Rbt.Executable>
rbdock ($Id: //depot/dev/client3/rdock/2013.1/src/exe/rbdock.cxx#4 $)

>  <Rbt.Library>
libRbt.so (2013.1, Build901 2013/11/27)

>  <Rbt.Parameter_File>
/export/apps/rDock/src/rDock_2013.1_src/data/scripts/dock_solv.prm

>  <Rbt.Receptor>
prm/blind_docking_40.prm

>  <SCORE>
-16.4024

>  <SCORE.INTER>
-12.2194

>  <SCORE.INTER.CONST>
1

>  <SCORE.INTER.POLAR>
0

>  <SCORE.INTER.ROT>
2

>  <SCORE.INTER.SOLV>
12.4715

>  <SCORE.INTER.VDW>
-17.2367

>  <SCORE.INTER.norm>
-0.718787

>  <SCORE.INTRA>
-4.18299

>  <SCORE.INTRA.DIHEDRAL>
-7.5452

>  <SCORE.INTRA.DIHEDRAL.0>
10.3255

>  <SCORE.INTRA.POLAR>
0

>  <SCORE.INTRA.POLAR.0>
0

>  <SCORE.INTRA.REPUL>
0

>  <SCORE.INTRA.REPUL.0>
0

>  <SCORE.INTRA.SOLV>
0.0331839

>  <SCORE.INTRA.SOLV.lig_0>
-53.4755

>  <SCORE.INTRA.VDW>
-0.426983

>  <SCORE.INTRA.VDW.0>
2.32763

>  <SCORE.INTRA.norm>
-0.246058

>  <SCORE.RESTR>
0

>  <SCORE.RESTR.CAVITY>
0

>  <SCORE.RESTR.norm>
0

>  <SCORE.SYSTEM>
0

>  <SCORE.SYSTEM.CONST>
0

>  <SCORE.SYSTEM.DIHEDRAL>
0

>  <SCORE.SYSTEM.SOLV>
0

>  <SCORE.SYSTEM.norm>
0

>  <SCORE.heavy>
17

>  <SCORE.norm>
-0.964845

>  <RMSD>
33.445

$$$$
ligand
 OpenBabel11021811503D
libRbt.so/2013.1/901 2013/11/27
 17 18  0  0  0  0  0  0  0  0999 V2000
    0.2191  -24.8174   12.4807 N   0  0  0  0  0  0  0  0  0  0  0  0
   -1.1254  -24.8490   12.0888 C   0  0  0  0  0  0  0  0  0  0  0  0
   -1.4949  -24.3921   10.7805 N   0  0  0  0  0  0  0  0  0  0  0  0
   -2.1083  -25.3197   12.9324 N   0  0  0  0  0  0  0  0  0  0  0  0
   -1.8012  -25.7722   14.1989 C   0  0  0  0  0  0  0  0  0  0  0  0
   -0.4456  -25.7572   14.6543 C   0  0  0  0  0  0  0  0  0  0  0  0
   -2.6824  -26.1827   14.9299 O   0  0  0  0  0  0  0  0  0  0  0  0
   -0.0815  -26.2231   15.9900 N   0  0  0  0  0  0  0  0  0  0  0  0
    1.2878  -26.3738   16.3317 C   0  0  2  0  0  0  0  0  0  0  0  0
    2.2278  -25.3987   15.5739 C   0  0  0  0  0  0  0  0  0  0  0  0
    0.5583  -25.2713   13.7633 C   0  0  0  0  0  0  0  0  0  0  0  0
    1.9636  -25.2490   14.2095 N   0  0  0  0  0  0  0  0  0  0  0  0
    1.6596  -27.8343   16.1523 C   0  0  1  0  0  0  0  0  0  0  0  0
    1.9396  -28.1050   14.8276 O   0  0  0  0  0  0  0  0  0  0  0  0
    2.8329  -28.1836   17.0182 C   0  0  1  0  0  0  0  0  0  0  0  0
    2.9231  -29.5112   17.1802 O   0  0  0  0  0  0  0  0  0  0  0  0
    4.1534  -27.6847   16.3939 C   0  0  0  0  0  0  0  0  0  0  0  0
  1  2  2  0  0  0  0
  1 11  1  0  0  0  0
  2  3  1  0  0  0  0
  2  4  1  0  0  0  0
  4  5  1  0  0  0  0
  5  6  1  0  0  0  0
  5  7  2  0  0  0  0
  6  8  1  0  0  0  0
  6 11  2  0  0  0  0
  9  8  1  6  0  0  0
  9 10  1  0  0  0  0
  9 13  1  0  0  0  0
 10 12  1  0  0  0  0
 11 12  1  0  0  0  0
 13 14  1  6  0  0  0
 13 15  1  0  0  0  0
 15 16  1  6  0  0  0
 15 17  1  0  0  0  0
M  END
>  <CHROM.1>
82.02235754,161.62243644,0.63620695,-26.35275684,14.72021526,-2.28608829
-0.02524556,2.21429824

>  <Name>
ligand

>  <RI>
0

>  <Rbt.Current_Directory>
/home/itssahil/PROJECTS/Mol_Feturizer/New_Systems/rnas/4LVX

>  <Rbt.Executable>
rbdock ($Id: //depot/dev/client3/rdock/2013.1/src/exe/rbdock.cxx#4 $)

>  <Rbt.Library>
libRbt.so (2013.1, Build901 2013/11/27)

>  <Rbt.Parameter_File>
/export/apps/rDock/src/rDock_2013.1_src/data/scripts/dock_solv.prm

>  <Rbt.Receptor>
prm/blind_docking_40.prm

>  <SCORE>
-16.3616

>  <SCORE.INTER>
-12.1501

>  <SCORE.INTER.CONST>
1

>  <SCORE.INTER.POLAR>
0

>  <SCORE.INTER.ROT>
2

>  <SCORE.INTER.SOLV>
12.5128

>  <SCORE.INTER.VDW>
-17.2043

>  <SCORE.INTER.norm>
-0.714712

>  <SCORE.INTRA>
-4.21153

>  <SCORE.INTRA.DIHEDRAL>
-7.48702

>  <SCORE.INTRA.DIHEDRAL.0>
10.3255

>  <SCORE.INTRA.POLAR>
0

>  <SCORE.INTRA.POLAR.0>
0

>  <SCORE.INTRA.REPUL>
0

>  <SCORE.INTRA.REPUL.0>
0

>  <SCORE.INTRA.SOLV>
0.00303985

>  <SCORE.INTRA.SOLV.lig_0>
-53.4755

>  <SCORE.INTRA.VDW>
-0.469542

>  <SCORE.INTRA.VDW.0>
2.32763

>  <SCORE.INTRA.norm>
-0.247737

>  <SCORE.RESTR>
0

>  <SCORE.RESTR.CAVITY>
0

>  <SCORE.RESTR.norm>
0

>  <SCORE.SYSTEM>
0

>  <SCORE.SYSTEM.CONST>
0

>  <SCORE.SYSTEM.DIHEDRAL>
0

>  <SCORE.SYSTEM.SOLV>
0

>  <SCORE.SYSTEM.norm>
0

>  <SCORE.heavy>
17

>  <SCORE.norm>
-0.962449

>  <RMSD>
33.450

$$$$
ligand
 OpenBabel11021811503D
libRbt.so/2013.1/901 2013/11/27
 17 18  0  0  0  0  0  0  0  0999 V2000
    0.2411  -24.8072   12.5002 N   0  0  0  0  0  0  0  0  0  0  0  0
   -1.0990  -24.8515   12.0947 C   0  0  0  0  0  0  0  0  0  0  0  0
   -1.4611  -24.3872   10.7869 N   0  0  0  0  0  0  0  0  0  0  0  0
   -2.0843  -25.3418   12.9242 N   0  0  0  0  0  0  0  0  0  0  0  0
   -1.7842  -25.8019   14.1895 C   0  0  0  0  0  0  0  0  0  0  0  0
   -0.4334  -25.7746   14.6586 C   0  0  0  0  0  0  0  0  0  0  0  0
   -2.6675  -26.2297   14.9080 O   0  0  0  0  0  0  0  0  0  0  0  0
   -0.0768  -26.2482   15.9936 N   0  0  0  0  0  0  0  0  0  0  0  0
    1.2907  -26.3854   16.3475 C   0  0  2  0  0  0  0  0  0  0  0  0
    2.2262  -25.3921   15.6080 C   0  0  0  0  0  0  0  0  0  0  0  0
    0.5731  -25.2686   13.7820 C   0  0  0  0  0  0  0  0  0  0  0  0
    1.9736  -25.2333   14.2423 N   0  0  0  0  0  0  0  0  0  0  0  0
    1.6821  -27.8396   16.1588 C   0  0  1  0  0  0  0  0  0  0  0  0
    1.9610  -28.0992   14.8316 O   0  0  0  0  0  0  0  0  0  0  0  0
    2.8634  -28.1773   17.0185 C   0  0  1  0  0  0  0  0  0  0  0  0
    2.9583  -29.5030   17.1931 O   0  0  0  0  0  0  0  0  0  0  0  0
    4.1775  -27.6815   16.3783 C   0  0  0  0  0  0  0  0  0  0  0  0
  1  2  2  0  0  0  0
  1 11  1  0  0  0  0
  2  3  1  0  0  0  0
  2  4  1  0  0  0  0
  4  5  1  0  0  0  0
  5  6  1  0  0  0  0
  5  7  2  0  0  0  0
  6  8  1  0  0  0  0
  6 11  2  0  0  0  0
  9  8  1  6  0  0  0
  9 10  1  0  0  0  0
  9 13  1  0  0  0  0
 10 12  1  0  0  0  0
 11 12  1  0  0  0  0
 13 14  1  6  0  0  0
 13 15  1  0  0  0  0
 15 16  1  6  0  0  0
 15 17  1  0  0  0  0
M  END
>  <CHROM.1>
81.21172915,160.48598425,0.65491392,-26.35837484,14.72639734,-2.28662573
-0.01300772,2.22201613

>  <Name>
ligand

>  <RI>
0

>  <Rbt.Current_Directory>
/home/itssahil/PROJECTS/Mol_Feturizer/New_Systems/rnas/4LVX

>  <Rbt.Executable>
rbdock ($Id: //depot/dev/client3/rdock/2013.1/src/exe/rbdock.cxx#4 $)

>  <Rbt.Library>
libRbt.so (2013.1, Build901 2013/11/27)

>  <Rbt.Parameter_File>
/export/apps/rDock/src/rDock_2013.1_src/data/scripts/dock_solv.prm

>  <Rbt.Receptor>
prm/blind_docking_40.prm

>  <SCORE>
-16.392

>  <SCORE.INTER>
-12.2005

>  <SCORE.INTER.CONST>
1

>  <SCORE.INTER.POLAR>
0

>  <SCORE.INTER.ROT>
2

>  <SCORE.INTER.SOLV>
12.5809

>  <SCORE.INTER.VDW>
-17.2606

>  <SCORE.INTER.norm>
-0.717677

>  <SCORE.INTRA>
-4.19145

>  <SCORE.INTRA.DIHEDRAL>
-7.45051

>  <SCORE.INTRA.DIHEDRAL.0>
10.3255

>  <SCORE.INTRA.POLAR>
0

>  <SCORE.INTRA.POLAR.0>
0

>  <SCORE.INTRA.REPUL>
0

>  <SCORE.INTRA.REPUL.0>
0

>  <SCORE.INTRA.SOLV>
0.0107022

>  <SCORE.INTRA.SOLV.lig_0>
-53.4755

>  <SCORE.INTRA.VDW>
-0.471545

>  <SCORE.INTRA.VDW.0>
2.32763

>  <SCORE.INTRA.norm>
-0.246556

>  <SCORE.RESTR>
0

>  <SCORE.RESTR.CAVITY>
0

>  <SCORE.RESTR.norm>
0

>  <SCORE.SYSTEM>
0

>  <SCORE.SYSTEM.CONST>
0

>  <SCORE.SYSTEM.DIHEDRAL>
0

>  <SCORE.SYSTEM.SOLV>
0

>  <SCORE.SYSTEM.norm>
0

>  <SCORE.heavy>
17

>  <SCORE.norm>
-0.964233

>  <RMSD>
33.455

$$$$
ligand
 OpenBabel11021811503D
libRbt.so/2013.1/901 2013/11/27
 17 18  0  0  0  0  0  0  0  0999 V2000
   -7.9152  -26.2054   33.3630 N   0  0  0  0  0  0  0  0  0  0  0  0
   -7.9095  -26.7122   32.0572 C   0  0  0  0  0  0  0  0  0  0  0  0
   -9.1111  -27.2685   31.5058 N   0  0  0  0  0  0  0  0  0  0  0  0
   -6.7717  -26.6817   31.2801 N   0  0  0  0  0  0  0  0  0  0  0  0
   -5.5933  -26.1542   31.7658 C   0  0  0  0  0  0  0  0  0  0  0  0
   -5.5394  -25.6282   33.0946 C   0  0  0  0  0  0  0  0  0  0  0  0
   -4.5988  -26.1371   31.0656 O   0  0  0  0  0  0  0  0  0  0  0  0
   -4.3092  -25.0660   33.6462 N   0  0  0  0  0  0  0  0  0  0  0  0
   -4.3459  -24.3819   34.8892 C   0  0  2  0  0  0  0  0  0  0  0  0
   -5.4556  -24.8925   35.8465 C   0  0  0  0  0  0  0  0  0  0  0  0
   -6.7301  -25.6639   33.8812 C   0  0  0  0  0  0  0  0  0  0  0  0
   -6.6999  -25.1246   35.2533 N   0  0  0  0  0  0  0  0  0  0  0  0
   -4.4301  -22.8934   34.6048 C   0  0  1  0  0  0  0  0  0  0  0  0
   -5.7001  -22.5501   34.1857 O   0  0  0  0  0  0  0  0  0  0  0  0
   -4.0499  -22.1075   35.8239 C   0  0  1  0  0  0  0  0  0  0  0  0
   -2.8099  -22.4235   36.2232 O   0  0  0  0  0  0  0  0  0  0  0  0
   -4.0927  -20.5902   35.5437 C   0  0  0  0  0  0  0  0  0  0  0  0
  1  2  2  0  0  0  0
  1 11  1  0  0  0  0
  2  3  1  0  0  0  0
  2  4  1  0  0  0  0
  4  5  1  0  0  0  0
  5  6  1  0  0  0  0
  5  7  2  0  0  0  0
  6  8  1  0  0  0  0
  6 11  2  0  0  0  0
  9  8  1  6  0  0  0
  9 10  1  0  0  0  0
  9 13  1  0  0  0  0
 10 12  1  0  0  0  0
 11 12  1  0  0  0  0
 13 14  1  1  0  0  0
 13 15  1  0  0  0  0
 15 16  1  6  0  0  0
 15 17  1  0  0  0  0
M  END
>  <CHROM.1>
74.94015649,58.28948102,-5.60155636,-24.66552260,33.79533732,2.14317228,-0.39345015
-2.20966413

>  <Name>
ligand

>  <RI>
0

>  <Rbt.Current_Directory>
/home/itssahil/PROJECTS/Mol_Feturizer/New_Systems/rnas/4LVX

>  <Rbt.Executable>
rbdock ($Id: //depot/dev/client3/rdock/2013.1/src/exe/rbdock.cxx#4 $)

>  <Rbt.Library>
libRbt.so (2013.1, Build901 2013/11/27)

>  <Rbt.Parameter_File>
/export/apps/rDock/src/rDock_2013.1_src/data/scripts/dock_solv.prm

>  <Rbt.Receptor>
prm/blind_docking_100.prm

>  <SCORE>
-15.7824

>  <SCORE.INTER>
-8.72

>  <SCORE.INTER.CONST>
1

>  <SCORE.INTER.POLAR>
0

>  <SCORE.INTER.ROT>
2

>  <SCORE.INTER.SOLV>
11.5635

>  <SCORE.INTER.VDW>
-14.6012

>  <SCORE.INTER.norm>
-0.512941

>  <SCORE.INTRA>
-7.06244

>  <SCORE.INTRA.DIHEDRAL>
-9.42492

>  <SCORE.INTRA.DIHEDRAL.0>
10.3255

>  <SCORE.INTRA.POLAR>
0

>  <SCORE.INTRA.POLAR.0>
0

>  <SCORE.INTRA.REPUL>
0

>  <SCORE.INTRA.REPUL.0>
0

>  <SCORE.INTRA.SOLV>
-0.195536

>  <SCORE.INTRA.SOLV.lig_0>
-53.4755

>  <SCORE.INTRA.VDW>
-2.25221

>  <SCORE.INTRA.VDW.0>
2.32763

>  <SCORE.INTRA.norm>
-0.415437

>  <SCORE.RESTR>
0

>  <SCORE.RESTR.CAVITY>
0

>  <SCORE.RESTR.norm>
0

>  <SCORE.SYSTEM>
0

>  <SCORE.SYSTEM.CONST>
0

>  <SCORE.SYSTEM.DIHEDRAL>
0

>  <SCORE.SYSTEM.SOLV>
0

>  <SCORE.SYSTEM.norm>
0

>  <SCORE.heavy>
17

>  <SCORE.norm>
-0.928379

>  <RMSD>
33.469

$$$$
ligand
 OpenBabel11021811503D
libRbt.so/2013.1/901 2013/11/27
 17 18  0  0  0  0  0  0  0  0999 V2000
    0.1967  -24.8065   12.4563 N   0  0  0  0  0  0  0  0  0  0  0  0
   -1.1474  -24.8424   12.0640 C   0  0  0  0  0  0  0  0  0  0  0  0
   -1.5199  -24.3728   10.7609 N   0  0  0  0  0  0  0  0  0  0  0  0
   -2.1273  -25.3291   12.9021 N   0  0  0  0  0  0  0  0  0  0  0  0
   -1.8172  -25.7941   14.1632 C   0  0  0  0  0  0  0  0  0  0  0  0
   -0.4618  -25.7754   14.6190 C   0  0  0  0  0  0  0  0  0  0  0  0
   -2.6958  -26.2187   14.8894 O   0  0  0  0  0  0  0  0  0  0  0  0
   -0.0946  -26.2543   15.9493 N   0  0  0  0  0  0  0  0  0  0  0  0
    1.2756  -26.3999   16.2893 C   0  0  2  0  0  0  0  0  0  0  0  0
    2.2093  -25.4100   15.5429 C   0  0  0  0  0  0  0  0  0  0  0  0
    0.5389  -25.2728   13.7337 C   0  0  0  0  0  0  0  0  0  0  0  0
    1.9441  -25.2464   14.1802 N   0  0  0  0  0  0  0  0  0  0  0  0
    1.6570  -27.8558   16.0932 C   0  0  1  0  0  0  0  0  0  0  0  0
    1.9533  -28.1060   14.7680 O   0  0  0  0  0  0  0  0  0  0  0  0
    2.8223  -28.2117   16.9672 C   0  0  1  0  0  0  0  0  0  0  0  0
    2.9289  -29.5418   17.0957 O   0  0  0  0  0  0  0  0  0  0  0  0
    4.1446  -27.6782   16.3762 C   0  0  0  0  0  0  0  0  0  0  0  0
  1  2  2  0  0  0  0
  1 11  1  0  0  0  0
  2  3  1  0  0  0  0
  2  4  1  0  0  0  0
  4  5  1  0  0  0  0
  5  6  1  0  0  0  0
  5  7  2  0  0  0  0
  6  8  1  0  0  0  0
  6 11  2  0  0  0  0
  9  8  1  6  0  0  0
  9 10  1  0  0  0  0
  9 13  1  0  0  0  0
 10 12  1  0  0  0  0
 11 12  1  0  0  0  0
 13 14  1  6  0  0  0
 13 15  1  0  0  0  0
 15 16  1  6  0  0  0
 15 17  1  0  0  0  0
M  END
>  <CHROM.1>
82.69371057,162.50232513,0.62383581,-26.36410267,14.68105673,-2.28903437
-0.01729859,2.22667343

>  <Name>
ligand

>  <RI>
0

>  <Rbt.Current_Directory>
/home/itssahil/PROJECTS/Mol_Feturizer/New_Systems/rnas/4LVX

>  <Rbt.Executable>
rbdock ($Id: //depot/dev/client3/rdock/2013.1/src/exe/rbdock.cxx#4 $)

>  <Rbt.Library>
libRbt.so (2013.1, Build901 2013/11/27)

>  <Rbt.Parameter_File>
/export/apps/rDock/src/rDock_2013.1_src/data/scripts/dock_solv.prm

>  <Rbt.Receptor>
prm/blind_docking_40.prm

>  <SCORE>
-16.3795

>  <SCORE.INTER>
-12.1574

>  <SCORE.INTER.CONST>
1

>  <SCORE.INTER.POLAR>
0

>  <SCORE.INTER.ROT>
2

>  <SCORE.INTER.SOLV>
12.5047

>  <SCORE.INTER.VDW>
-17.2065

>  <SCORE.INTER.norm>
-0.715139

>  <SCORE.INTRA>
-4.22214

>  <SCORE.INTRA.DIHEDRAL>
-7.50491

>  <SCORE.INTRA.DIHEDRAL.0>
10.3255

>  <SCORE.INTRA.POLAR>
0

>  <SCORE.INTRA.POLAR.0>
0

>  <SCORE.INTRA.REPUL>
0

>  <SCORE.INTRA.REPUL.0>
0

>  <SCORE.INTRA.SOLV>
-0.00390782

>  <SCORE.INTRA.SOLV.lig_0>
-53.4755

>  <SCORE.INTRA.VDW>
-0.467729

>  <SCORE.INTRA.VDW.0>
2.32763

>  <SCORE.INTRA.norm>
-0.248361

>  <SCORE.RESTR>
0

>  <SCORE.RESTR.CAVITY>
0

>  <SCORE.RESTR.norm>
0

>  <SCORE.SYSTEM>
0

>  <SCORE.SYSTEM.CONST>
0

>  <SCORE.SYSTEM.DIHEDRAL>
0

>  <SCORE.SYSTEM.SOLV>
0

>  <SCORE.SYSTEM.norm>
0

>  <SCORE.heavy>
17

>  <SCORE.norm>
-0.9635

>  <RMSD>
33.470

$$$$
ligand
 OpenBabel11021811503D
libRbt.so/2013.1/901 2013/11/27
 17 18  0  0  0  0  0  0  0  0999 V2000
   -7.8956  -26.2147   33.3486 N   0  0  0  0  0  0  0  0  0  0  0  0
   -7.8780  -26.7262   32.0447 C   0  0  0  0  0  0  0  0  0  0  0  0
   -9.0739  -27.2863   31.4851 N   0  0  0  0  0  0  0  0  0  0  0  0
   -6.7336  -26.6967   31.2773 N   0  0  0  0  0  0  0  0  0  0  0  0
   -5.5602  -26.1657   31.7711 C   0  0  0  0  0  0  0  0  0  0  0  0
   -5.5185  -25.6349   33.0985 C   0  0  0  0  0  0  0  0  0  0  0  0
   -4.5598  -26.1496   31.0794 O   0  0  0  0  0  0  0  0  0  0  0  0
   -4.2938  -25.0688   33.6585 N   0  0  0  0  0  0  0  0  0  0  0  0
   -4.3422  -24.3803   34.8987 C   0  0  2  0  0  0  0  0  0  0  0  0
   -5.4593  -24.8891   35.8483 C   0  0  0  0  0  0  0  0  0  0  0  0
   -6.7158  -25.6695   33.8749 C   0  0  0  0  0  0  0  0  0  0  0  0
   -6.6981  -25.1253   35.2453 N   0  0  0  0  0  0  0  0  0  0  0  0
   -4.4261  -22.8930   34.6082 C   0  0  1  0  0  0  0  0  0  0  0  0
   -5.6955  -22.5516   34.1854 O   0  0  0  0  0  0  0  0  0  0  0  0
   -4.0484  -22.1021   35.8249 C   0  0  1  0  0  0  0  0  0  0  0  0
   -2.8089  -22.4160   36.2275 O   0  0  0  0  0  0  0  0  0  0  0  0
   -4.0913  -20.5860   35.5386 C   0  0  0  0  0  0  0  0  0  0  0  0
  1  2  2  0  0  0  0
  1 11  1  0  0  0  0
  2  3  1  0  0  0  0
  2  4  1  0  0  0  0
  4  5  1  0  0  0  0
  5  6  1  0  0  0  0
  5  7  2  0  0  0  0
  6  8  1  0  0  0  0
  6 11  2  0  0  0  0
  9  8  1  6  0  0  0
  9 10  1  0  0  0  0
  9 13  1  0  0  0  0
 10 12  1  0  0  0  0
 11 12  1  0  0  0  0
 13 14  1  1  0  0  0
 13 15  1  0  0  0  0
 15 16  1  6  0  0  0
 15 17  1  0  0  0  0
M  END
>  <CHROM.1>
75.33344039,58.30714304,-5.58630782,-24.66974079,33.79461370,2.13593355,-0.38897397
-2.21682213

>  <Name>
ligand

>  <RI>
0

>  <Rbt.Current_Directory>
/home/itssahil/PROJECTS/Mol_Feturizer/New_Systems/rnas/4LVX

>  <Rbt.Executable>
rbdock ($Id: //depot/dev/client3/rdock/2013.1/src/exe/rbdock.cxx#4 $)

>  <Rbt.Library>
libRbt.so (2013.1, Build901 2013/11/27)

>  <Rbt.Parameter_File>
/export/apps/rDock/src/rDock_2013.1_src/data/scripts/dock_solv.prm

>  <Rbt.Receptor>
prm/blind_docking_60.prm

>  <SCORE>
-15.775

>  <SCORE.INTER>
-8.73128

>  <SCORE.INTER.CONST>
1

>  <SCORE.INTER.POLAR>
0

>  <SCORE.INTER.ROT>
2

>  <SCORE.INTER.SOLV>
11.5544

>  <SCORE.INTER.VDW>
-14.6056

>  <SCORE.INTER.norm>
-0.513604

>  <SCORE.INTRA>
-7.04376

>  <SCORE.INTRA.DIHEDRAL>
-9.38779

>  <SCORE.INTRA.DIHEDRAL.0>
10.3255

>  <SCORE.INTRA.POLAR>
0

>  <SCORE.INTRA.POLAR.0>
0

>  <SCORE.INTRA.REPUL>
0

>  <SCORE.INTRA.REPUL.0>
0

>  <SCORE.INTRA.SOLV>
-0.19751

>  <SCORE.INTRA.SOLV.lig_0>
-53.4755

>  <SCORE.INTRA.VDW>
-2.25111

>  <SCORE.INTRA.VDW.0>
2.32763

>  <SCORE.INTRA.norm>
-0.414339

>  <SCORE.RESTR>
0

>  <SCORE.RESTR.CAVITY>
0

>  <SCORE.RESTR.norm>
0

>  <SCORE.SYSTEM>
0

>  <SCORE.SYSTEM.CONST>
0

>  <SCORE.SYSTEM.DIHEDRAL>
0

>  <SCORE.SYSTEM.SOLV>
0

>  <SCORE.SYSTEM.norm>
0

>  <SCORE.heavy>
17

>  <SCORE.norm>
-0.927943

>  <RMSD>
33.471

$$$$
ligand
 OpenBabel11021811503D
libRbt.so/2013.1/901 2013/11/27
 17 18  0  0  0  0  0  0  0  0999 V2000
    0.2277  -24.8605   12.4235 N   0  0  0  0  0  0  0  0  0  0  0  0
   -1.1155  -24.9110   12.0294 C   0  0  0  0  0  0  0  0  0  0  0  0
   -1.4875  -24.4707   10.7160 N   0  0  0  0  0  0  0  0  0  0  0  0
   -2.0947  -25.3847   12.8755 N   0  0  0  0  0  0  0  0  0  0  0  0
   -1.7851  -25.8216   14.1468 C   0  0  0  0  0  0  0  0  0  0  0  0
   -0.4307  -25.7870   14.6047 C   0  0  0  0  0  0  0  0  0  0  0  0
   -2.6631  -26.2351   14.8800 O   0  0  0  0  0  0  0  0  0  0  0  0
   -0.0640  -26.2361   15.9454 N   0  0  0  0  0  0  0  0  0  0  0  0
    1.3061  -26.3681   16.2911 C   0  0  2  0  0  0  0  0  0  0  0  0
    2.2367  -25.3896   15.5260 C   0  0  0  0  0  0  0  0  0  0  0  0
    0.5694  -25.2983   13.7110 C   0  0  0  0  0  0  0  0  0  0  0  0
    1.9735  -25.2560   14.1596 N   0  0  0  0  0  0  0  0  0  0  0  0
    1.6947  -27.8260   16.1263 C   0  0  1  0  0  0  0  0  0  0  0  0
    1.9886  -28.1041   14.8062 O   0  0  0  0  0  0  0  0  0  0  0  0
    2.8644  -28.1561   17.0046 C   0  0  1  0  0  0  0  0  0  0  0  0
    2.9572  -29.4802   17.1917 O   0  0  0  0  0  0  0  0  0  0  0  0
    4.1869  -27.6654   16.3779 C   0  0  0  0  0  0  0  0  0  0  0  0
  1  2  2  0  0  0  0
  1 11  1  0  0  0  0
  2  3  1  0  0  0  0
  2  4  1  0  0  0  0
  4  5  1  0  0  0  0
  5  6  1  0  0  0  0
  5  7  2  0  0  0  0
  6  8  1  0  0  0  0
  6 11  2  0  0  0  0
  9  8  1  6  0  0  0
  9 10  1  0  0  0  0
  9 13  1  0  0  0  0
 10 12  1  0  0  0  0
 11 12  1  0  0  0  0
 13 14  1  6  0  0  0
 13 15  1  0  0  0  0
 15 16  1  6  0  0  0
 15 17  1  0  0  0  0
M  END
>  <CHROM.1>
82.39707419,160.83896789,0.65668351,-26.37104609,14.68049065,-2.28956132
-0.01530258,2.20439506

>  <Name>
ligand

>  <RI>
0

>  <Rbt.Current_Directory>
/home/itssahil/PROJECTS/Mol_Feturizer/New_Systems/rnas/4LVX

>  <Rbt.Executable>
rbdock ($Id: //depot/dev/client3/rdock/2013.1/src/exe/rbdock.cxx#4 $)

>  <Rbt.Library>
libRbt.so (2013.1, Build901 2013/11/27)

>  <Rbt.Parameter_File>
/export/apps/rDock/src/rDock_2013.1_src/data/scripts/dock_solv.prm

>  <Rbt.Receptor>
prm/blind_docking_40.prm

>  <SCORE>
-16.3666

>  <SCORE.INTER>
-12.1562

>  <SCORE.INTER.CONST>
1

>  <SCORE.INTER.POLAR>
0

>  <SCORE.INTER.ROT>
2

>  <SCORE.INTER.SOLV>
12.2921

>  <SCORE.INTER.VDW>
-17.1348

>  <SCORE.INTER.norm>
-0.715071

>  <SCORE.INTRA>
-4.2104

>  <SCORE.INTRA.DIHEDRAL>
-7.34862

>  <SCORE.INTRA.DIHEDRAL.0>
10.3255

>  <SCORE.INTRA.POLAR>
0

>  <SCORE.INTRA.POLAR.0>
0

>  <SCORE.INTRA.REPUL>
0

>  <SCORE.INTRA.REPUL.0>
0

>  <SCORE.INTRA.SOLV>
-0.0114182

>  <SCORE.INTRA.SOLV.lig_0>
-53.4755

>  <SCORE.INTRA.VDW>
-0.530379

>  <SCORE.INTRA.VDW.0>
2.32763

>  <SCORE.INTRA.norm>
-0.24767

>  <SCORE.RESTR>
0

>  <SCORE.RESTR.CAVITY>
0

>  <SCORE.RESTR.norm>
0

>  <SCORE.SYSTEM>
0

>  <SCORE.SYSTEM.CONST>
0

>  <SCORE.SYSTEM.DIHEDRAL>
0

>  <SCORE.SYSTEM.SOLV>
0

>  <SCORE.SYSTEM.norm>
0

>  <SCORE.heavy>
17

>  <SCORE.norm>
-0.962742

>  <RMSD>
33.480

$$$$
ligand
 OpenBabel11021811503D
libRbt.so/2013.1/901 2013/11/27
 17 18  0  0  0  0  0  0  0  0999 V2000
   -7.9083  -26.2412   33.3421 N   0  0  0  0  0  0  0  0  0  0  0  0
   -7.8831  -26.7606   32.0415 C   0  0  0  0  0  0  0  0  0  0  0  0
   -9.0738  -27.3312   31.4813 N   0  0  0  0  0  0  0  0  0  0  0  0
   -6.7363  -26.7292   31.2778 N   0  0  0  0  0  0  0  0  0  0  0  0
   -5.5677  -26.1882   31.7724 C   0  0  0  0  0  0  0  0  0  0  0  0
   -5.5337  -25.6490   33.0965 C   0  0  0  0  0  0  0  0  0  0  0  0
   -4.5650  -26.1707   31.0841 O   0  0  0  0  0  0  0  0  0  0  0  0
   -4.3143  -25.0724   33.6573 N   0  0  0  0  0  0  0  0  0  0  0  0
   -4.3710  -24.3764   34.8929 C   0  0  2  0  0  0  0  0  0  0  0  0
   -5.4885  -24.8858   35.8419 C   0  0  0  0  0  0  0  0  0  0  0  0
   -6.7335  -25.6858   33.8691 C   0  0  0  0  0  0  0  0  0  0  0  0
   -6.7238  -25.1330   35.2361 N   0  0  0  0  0  0  0  0  0  0  0  0
   -4.4626  -22.8915   34.5929 C   0  0  1  0  0  0  0  0  0  0  0  0
   -5.7374  -22.5569   34.1812 O   0  0  0  0  0  0  0  0  0  0  0  0
   -4.0744  -22.0909   35.7999 C   0  0  1  0  0  0  0  0  0  0  0  0
   -2.8410  -22.4194   36.2093 O   0  0  0  0  0  0  0  0  0  0  0  0
   -4.0924  -20.5781   35.4938 C   0  0  0  0  0  0  0  0  0  0  0  0
  1  2  2  0  0  0  0
  1 11  1  0  0  0  0
  2  3  1  0  0  0  0
  2  4  1  0  0  0  0
  4  5  1  0  0  0  0
  5  6  1  0  0  0  0
  5  7  2  0  0  0  0
  6  8  1  0  0  0  0
  6 11  2  0  0  0  0
  9  8  1  6  0  0  0
  9 10  1  0  0  0  0
  9 13  1  0  0  0  0
 10 12  1  0  0  0  0
 11 12  1  0  0  0  0
 13 14  1  1  0  0  0
 13 15  1  0  0  0  0
 15 16  1  6  0  0  0
 15 17  1  0  0  0  0
M  END
>  <CHROM.1>
76.15511681,56.94678700,-5.60463730,-24.68150126,33.78587684,2.13358416,-0.39419532
-2.22244276

>  <Name>
ligand

>  <RI>
0

>  <Rbt.Current_Directory>
/home/itssahil/PROJECTS/Mol_Feturizer/New_Systems/rnas/4LVX

>  <Rbt.Executable>
rbdock ($Id: //depot/dev/client3/rdock/2013.1/src/exe/rbdock.cxx#4 $)

>  <Rbt.Library>
libRbt.so (2013.1, Build901 2013/11/27)

>  <Rbt.Parameter_File>
/export/apps/rDock/src/rDock_2013.1_src/data/scripts/dock_solv.prm

>  <Rbt.Receptor>
prm/blind_docking_100.prm

>  <SCORE>
-15.8076

>  <SCORE.INTER>
-8.79984

>  <SCORE.INTER.CONST>
1

>  <SCORE.INTER.POLAR>
0

>  <SCORE.INTER.ROT>
2

>  <SCORE.INTER.SOLV>
11.3855

>  <SCORE.INTER.VDW>
-14.5951

>  <SCORE.INTER.norm>
-0.517638

>  <SCORE.INTRA>
-7.00779

>  <SCORE.INTRA.DIHEDRAL>
-9.28129

>  <SCORE.INTRA.DIHEDRAL.0>
10.3255

>  <SCORE.INTRA.POLAR>
0

>  <SCORE.INTRA.POLAR.0>
0

>  <SCORE.INTRA.REPUL>
0

>  <SCORE.INTRA.REPUL.0>
0

>  <SCORE.INTRA.SOLV>
-0.194646

>  <SCORE.INTRA.SOLV.lig_0>
-53.4755

>  <SCORE.INTRA.VDW>
-2.26982

>  <SCORE.INTRA.VDW.0>
2.32763

>  <SCORE.INTRA.norm>
-0.412223

>  <SCORE.RESTR>
0

>  <SCORE.RESTR.CAVITY>
0

>  <SCORE.RESTR.norm>
0

>  <SCORE.SYSTEM>
0

>  <SCORE.SYSTEM.CONST>
0

>  <SCORE.SYSTEM.DIHEDRAL>
0

>  <SCORE.SYSTEM.SOLV>
0

>  <SCORE.SYSTEM.norm>
0

>  <SCORE.heavy>
17

>  <SCORE.norm>
-0.929861

>  <RMSD>
33.482

$$$$
ligand
 OpenBabel11021811503D
libRbt.so/2013.1/901 2013/11/27
 17 18  0  0  0  0  0  0  0  0999 V2000
   -5.3784  -27.5392   33.1043 N   0  0  0  0  0  0  0  0  0  0  0  0
   -5.5665  -27.6024   31.7177 C   0  0  0  0  0  0  0  0  0  0  0  0
   -5.8318  -28.8663   31.0936 N   0  0  0  0  0  0  0  0  0  0  0  0
   -5.5111  -26.4706   30.9332 N   0  0  0  0  0  0  0  0  0  0  0  0
   -5.2615  -25.2327   31.4884 C   0  0  0  0  0  0  0  0  0  0  0  0
   -5.0555  -25.1096   32.8982 C   0  0  0  0  0  0  0  0  0  0  0  0
   -5.2149  -24.2451   30.7799 O   0  0  0  0  0  0  0  0  0  0  0  0
   -4.7838  -23.8172   33.5224 N   0  0  0  0  0  0  0  0  0  0  0  0
   -4.7786  -23.7086   34.9375 C   0  0  2  0  0  0  0  0  0  0  0  0
   -4.3556  -25.0158   35.6592 C   0  0  0  0  0  0  0  0  0  0  0  0
   -5.1227  -26.2929   33.6939 C   0  0  0  0  0  0  0  0  0  0  0  0
   -4.9166  -26.1907   35.1504 N   0  0  0  0  0  0  0  0  0  0  0  0
   -6.1359  -23.1884   35.3745 C   0  0  1  0  0  0  0  0  0  0  0  0
   -6.2005  -23.0960   36.7506 O   0  0  0  0  0  0  0  0  0  0  0  0
   -6.4100  -21.8549   34.7460 C   0  0  1  0  0  0  0  0  0  0  0  0
   -5.2776  -21.1486   34.6210 O   0  0  0  0  0  0  0  0  0  0  0  0
   -7.0320  -22.0182   33.3428 C   0  0  0  0  0  0  0  0  0  0  0  0
  1  2  2  0  0  0  0
  1 11  1  0  0  0  0
  2  3  1  0  0  0  0
  2  4  1  0  0  0  0
  4  5  1  0  0  0  0
  5  6  1  0  0  0  0
  5  7  2  0  0  0  0
  6  8  1  0  0  0  0
  6 11  2  0  0  0  0
  9  8  1  6  0  0  0
  9 10  1  0  0  0  0
  9 13  1  0  0  0  0
 10 12  1  0  0  0  0
 11 12  1  0  0  0  0
 13 14  1  1  0  0  0
 13 15  1  0  0  0  0
 15 16  1  6  0  0  0
 15 17  1  0  0  0  0
M  END
>  <CHROM.1>
178.41162209,-34.32027002,-5.47336785,-24.70627175,33.54888587,-1.18530652
-1.39391540,1.00247361

>  <Name>
ligand

>  <RI>
0

>  <Rbt.Current_Directory>
/home/itssahil/PROJECTS/Mol_Feturizer/New_Systems/rnas/4LVX

>  <Rbt.Executable>
rbdock ($Id: //depot/dev/client3/rdock/2013.1/src/exe/rbdock.cxx#4 $)

>  <Rbt.Library>
libRbt.so (2013.1, Build901 2013/11/27)

>  <Rbt.Parameter_File>
/export/apps/rDock/src/rDock_2013.1_src/data/scripts/dock_solv.prm

>  <Rbt.Receptor>
prm/blind_docking_60.prm

>  <SCORE>
-14.0775

>  <SCORE.INTER>
-8.70217

>  <SCORE.INTER.CONST>
1

>  <SCORE.INTER.POLAR>
0

>  <SCORE.INTER.ROT>
2

>  <SCORE.INTER.SOLV>
15.5829

>  <SCORE.INTER.VDW>
-15.9291

>  <SCORE.INTER.norm>
-0.511893

>  <SCORE.INTRA>
-5.3753

>  <SCORE.INTRA.DIHEDRAL>
-8.11232

>  <SCORE.INTRA.DIHEDRAL.0>
10.3255

>  <SCORE.INTRA.POLAR>
0

>  <SCORE.INTRA.POLAR.0>
0

>  <SCORE.INTRA.REPUL>
0

>  <SCORE.INTRA.REPUL.0>
0

>  <SCORE.INTRA.SOLV>
0.434059

>  <SCORE.INTRA.SOLV.lig_0>
-53.4755

>  <SCORE.INTRA.VDW>
-1.53616

>  <SCORE.INTRA.VDW.0>
2.32763

>  <SCORE.INTRA.norm>
-0.316194

>  <SCORE.RESTR>
0

>  <SCORE.RESTR.CAVITY>
0

>  <SCORE.RESTR.norm>
0

>  <SCORE.SYSTEM>
0

>  <SCORE.SYSTEM.CONST>
0

>  <SCORE.SYSTEM.DIHEDRAL>
0

>  <SCORE.SYSTEM.SOLV>
0

>  <SCORE.SYSTEM.norm>
0

>  <SCORE.heavy>
17

>  <SCORE.norm>
-0.828086

>  <RMSD>
33.486

$$$$
ligand
 OpenBabel11021811503D
libRbt.so/2013.1/901 2013/11/27
 17 18  0  0  0  0  0  0  0  0999 V2000
   -7.9392  -26.2088   33.3594 N   0  0  0  0  0  0  0  0  0  0  0  0
   -7.9244  -26.7136   32.0529 C   0  0  0  0  0  0  0  0  0  0  0  0
   -9.1252  -27.2576   31.4879 N   0  0  0  0  0  0  0  0  0  0  0  0
   -6.7782  -26.6928   31.2880 N   0  0  0  0  0  0  0  0  0  0  0  0
   -5.6000  -26.1774   31.7871 C   0  0  0  0  0  0  0  0  0  0  0  0
   -5.5553  -25.6540   33.1173 C   0  0  0  0  0  0  0  0  0  0  0  0
   -4.5980  -26.1688   31.0976 O   0  0  0  0  0  0  0  0  0  0  0  0
   -4.3257  -25.1044   33.6829 N   0  0  0  0  0  0  0  0  0  0  0  0
   -4.3691  -24.4219   34.9265 C   0  0  2  0  0  0  0  0  0  0  0  0
   -5.4938  -24.9232   35.8711 C   0  0  0  0  0  0  0  0  0  0  0  0
   -6.7546  -25.6794   33.8910 C   0  0  0  0  0  0  0  0  0  0  0  0
   -6.7339  -25.1425   35.2643 N   0  0  0  0  0  0  0  0  0  0  0  0
   -4.4360  -22.9322   34.6436 C   0  0  1  0  0  0  0  0  0  0  0  0
   -5.7048  -22.5719   34.2352 O   0  0  0  0  0  0  0  0  0  0  0  0
   -4.0355  -22.1521   35.8600 C   0  0  1  0  0  0  0  0  0  0  0  0
   -2.7932  -22.4783   36.2437 O   0  0  0  0  0  0  0  0  0  0  0  0
   -4.0704  -20.6339   35.5839 C   0  0  0  0  0  0  0  0  0  0  0  0
  1  2  2  0  0  0  0
  1 11  1  0  0  0  0
  2  3  1  0  0  0  0
  2  4  1  0  0  0  0
  4  5  1  0  0  0  0
  5  6  1  0  0  0  0
  5  7  2  0  0  0  0
  6  8  1  0  0  0  0
  6 11  2  0  0  0  0
  9  8  1  6  0  0  0
  9 10  1  0  0  0  0
  9 13  1  0  0  0  0
 10 12  1  0  0  0  0
 11 12  1  0  0  0  0
 13 14  1  1  0  0  0
 13 15  1  0  0  0  0
 15 16  1  6  0  0  0
 15 17  1  0  0  0  0
M  END
>  <CHROM.1>
76.04482122,58.69737334,-5.61121971,-24.69137929,33.81717415,2.14280432,-0.37695533
-2.21125040

>  <Name>
ligand

>  <RI>
0

>  <Rbt.Current_Directory>
/home/itssahil/PROJECTS/Mol_Feturizer/New_Systems/rnas/4LVX

>  <Rbt.Executable>
rbdock ($Id: //depot/dev/client3/rdock/2013.1/src/exe/rbdock.cxx#4 $)

>  <Rbt.Library>
libRbt.so (2013.1, Build901 2013/11/27)

>  <Rbt.Parameter_File>
/export/apps/rDock/src/rDock_2013.1_src/data/scripts/dock_solv.prm

>  <Rbt.Receptor>
prm/blind_docking_80.prm

>  <SCORE>
-15.7397

>  <SCORE.INTER>
-8.73489

>  <SCORE.INTER.CONST>
1

>  <SCORE.INTER.POLAR>
0

>  <SCORE.INTER.ROT>
2

>  <SCORE.INTER.SOLV>
11.5203

>  <SCORE.INTER.VDW>
-14.5967

>  <SCORE.INTER.norm>
-0.513817

>  <SCORE.INTRA>
-7.00485

>  <SCORE.INTRA.DIHEDRAL>
-9.32319

>  <SCORE.INTRA.DIHEDRAL.0>
10.3255

>  <SCORE.INTRA.POLAR>
0

>  <SCORE.INTRA.POLAR.0>
0

>  <SCORE.INTRA.REPUL>
0

>  <SCORE.INTRA.REPUL.0>
0

>  <SCORE.INTRA.SOLV>
-0.202869

>  <SCORE.INTRA.SOLV.lig_0>
-53.4755

>  <SCORE.INTRA.VDW>
-2.24182

>  <SCORE.INTRA.VDW.0>
2.32763

>  <SCORE.INTRA.norm>
-0.41205

>  <SCORE.RESTR>
0

>  <SCORE.RESTR.CAVITY>
0

>  <SCORE.RESTR.norm>
0

>  <SCORE.SYSTEM>
0

>  <SCORE.SYSTEM.CONST>
0

>  <SCORE.SYSTEM.DIHEDRAL>
0

>  <SCORE.SYSTEM.SOLV>
0

>  <SCORE.SYSTEM.norm>
0

>  <SCORE.heavy>
17

>  <SCORE.norm>
-0.925867

>  <RMSD>
33.501

$$$$
ligand
 OpenBabel11021811503D
libRbt.so/2013.1/901 2013/11/27
 17 18  0  0  0  0  0  0  0  0999 V2000
   -7.9343  -26.2198   33.3765 N   0  0  0  0  0  0  0  0  0  0  0  0
   -7.9040  -26.7564   32.0830 C   0  0  0  0  0  0  0  0  0  0  0  0
   -9.0995  -27.3088   31.5148 N   0  0  0  0  0  0  0  0  0  0  0  0
   -6.7473  -26.7592   31.3337 N   0  0  0  0  0  0  0  0  0  0  0  0
   -5.5737  -26.2367   31.8363 C   0  0  0  0  0  0  0  0  0  0  0  0
   -5.5448  -25.6813   33.1539 C   0  0  0  0  0  0  0  0  0  0  0  0
   -4.5623  -26.2493   31.1607 O   0  0  0  0  0  0  0  0  0  0  0  0
   -4.3205  -25.1234   33.7229 N   0  0  0  0  0  0  0  0  0  0  0  0
   -4.3778  -24.4106   34.9488 C   0  0  2  0  0  0  0  0  0  0  0  0
   -5.5177  -24.8839   35.8897 C   0  0  0  0  0  0  0  0  0  0  0  0
   -6.7546  -25.6827   33.9114 C   0  0  0  0  0  0  0  0  0  0  0  0
   -6.7503  -25.1126   35.2713 N   0  0  0  0  0  0  0  0  0  0  0  0
   -4.4340  -22.9280   34.6289 C   0  0  1  0  0  0  0  0  0  0  0  0
   -5.6940  -22.5733   34.1895 O   0  0  0  0  0  0  0  0  0  0  0  0
   -4.0519  -22.1201   35.8330 C   0  0  1  0  0  0  0  0  0  0  0  0
   -2.8101  -22.4265   36.2341 O   0  0  0  0  0  0  0  0  0  0  0  0
   -4.0987  -20.6080   35.5264 C   0  0  0  0  0  0  0  0  0  0  0  0
  1  2  2  0  0  0  0
  1 11  1  0  0  0  0
  2  3  1  0  0  0  0
  2  4  1  0  0  0  0
  4  5  1  0  0  0  0
  5  6  1  0  0  0  0
  5  7  2  0  0  0  0
  6  8  1  0  0  0  0
  6 11  2  0  0  0  0
  9  8  1  6  0  0  0
  9 10  1  0  0  0  0
  9 13  1  0  0  0  0
 10 12  1  0  0  0  0
 11 12  1  0  0  0  0
 13 14  1  1  0  0  0
 13 15  1  0  0  0  0
 15 16  1  6  0  0  0
 15 17  1  0  0  0  0
M  END
>  <CHROM.1>
75.81440467,59.63617425,-5.60779342,-24.70061842,33.82921497,2.13203371,-0.36286798
-2.24113791

>  <Name>
ligand

>  <RI>
0

>  <Rbt.Current_Directory>
/home/itssahil/PROJECTS/Mol_Feturizer/New_Systems/rnas/4LVX

>  <Rbt.Executable>
rbdock ($Id: //depot/dev/client3/rdock/2013.1/src/exe/rbdock.cxx#4 $)

>  <Rbt.Library>
libRbt.so (2013.1, Build901 2013/11/27)

>  <Rbt.Parameter_File>
/export/apps/rDock/src/rDock_2013.1_src/data/scripts/dock_solv.prm

>  <Rbt.Receptor>
prm/blind_docking_100.prm

>  <SCORE>
-15.7416

>  <SCORE.INTER>
-8.73748

>  <SCORE.INTER.CONST>
1

>  <SCORE.INTER.POLAR>
0

>  <SCORE.INTER.ROT>
2

>  <SCORE.INTER.SOLV>
11.3184

>  <SCORE.INTER.VDW>
-14.5311

>  <SCORE.INTER.norm>
-0.513969

>  <SCORE.INTRA>
-7.00415

>  <SCORE.INTRA.DIHEDRAL>
-9.35331

>  <SCORE.INTRA.DIHEDRAL.0>
10.3255

>  <SCORE.INTRA.POLAR>
0

>  <SCORE.INTRA.POLAR.0>
0

>  <SCORE.INTRA.REPUL>
0

>  <SCORE.INTRA.REPUL.0>
0

>  <SCORE.INTRA.SOLV>
-0.206506

>  <SCORE.INTRA.SOLV.lig_0>
-53.4755

>  <SCORE.INTRA.VDW>
-2.22425

>  <SCORE.INTRA.VDW.0>
2.32763

>  <SCORE.INTRA.norm>
-0.412009

>  <SCORE.RESTR>
0

>  <SCORE.RESTR.CAVITY>
0

>  <SCORE.RESTR.norm>
0

>  <SCORE.SYSTEM>
0

>  <SCORE.SYSTEM.CONST>
0

>  <SCORE.SYSTEM.DIHEDRAL>
0

>  <SCORE.SYSTEM.SOLV>
0

>  <SCORE.SYSTEM.norm>
0

>  <SCORE.heavy>
17

>  <SCORE.norm>
-0.925978

>  <RMSD>
33.514

$$$$
ligand
 OpenBabel11021811503D
libRbt.so/2013.1/901 2013/11/27
 17 18  0  0  0  0  0  0  0  0999 V2000
   -7.9466  -26.2456   33.3461 N   0  0  0  0  0  0  0  0  0  0  0  0
   -7.9121  -26.7707   32.0480 C   0  0  0  0  0  0  0  0  0  0  0  0
   -9.1047  -27.3218   31.4727 N   0  0  0  0  0  0  0  0  0  0  0  0
   -6.7539  -26.7633   31.3010 N   0  0  0  0  0  0  0  0  0  0  0  0
   -5.5829  -26.2416   31.8105 C   0  0  0  0  0  0  0  0  0  0  0  0
   -5.5583  -25.6977   33.1330 C   0  0  0  0  0  0  0  0  0  0  0  0
   -4.5702  -26.2451   31.1369 O   0  0  0  0  0  0  0  0  0  0  0  0
   -4.3369  -25.1410   33.7092 N   0  0  0  0  0  0  0  0  0  0  0  0
   -4.3988  -24.4391   34.9412 C   0  0  2  0  0  0  0  0  0  0  0  0
   -5.5390  -24.9242   35.8757 C   0  0  0  0  0  0  0  0  0  0  0  0
   -6.7697  -25.7095   33.8881 C   0  0  0  0  0  0  0  0  0  0  0  0
   -6.7697  -25.1513   35.2529 N   0  0  0  0  0  0  0  0  0  0  0  0
   -4.4590  -22.9540   34.6342 C   0  0  1  0  0  0  0  0  0  0  0  0
   -5.7195  -22.5992   34.1963 O   0  0  0  0  0  0  0  0  0  0  0  0
   -4.0809  -22.1555   35.8458 C   0  0  1  0  0  0  0  0  0  0  0  0
   -2.8388  -22.4620   36.2461 O   0  0  0  0  0  0  0  0  0  0  0  0
   -4.1314  -20.6410   35.5523 C   0  0  0  0  0  0  0  0  0  0  0  0
  1  2  2  0  0  0  0
  1 11  1  0  0  0  0
  2  3  1  0  0  0  0
  2  4  1  0  0  0  0
  4  5  1  0  0  0  0
  5  6  1  0  0  0  0
  5  7  2  0  0  0  0
  6  8  1  0  0  0  0
  6 11  2  0  0  0  0
  9  8  1  6  0  0  0
  9 10  1  0  0  0  0
  9 13  1  0  0  0  0
 10 12  1  0  0  0  0
 11 12  1  0  0  0  0
 13 14  1  1  0  0  0
 13 15  1  0  0  0  0
 15 16  1  6  0  0  0
 15 17  1  0  0  0  0
M  END
>  <CHROM.1>
75.85459727,59.62060360,-5.62552627,-24.72318922,33.81670682,2.12846353,-0.36409757
-2.23366985

>  <Name>
ligand

>  <RI>
0

>  <Rbt.Current_Directory>
/home/itssahil/PROJECTS/Mol_Feturizer/New_Systems/rnas/4LVX

>  <Rbt.Executable>
rbdock ($Id: //depot/dev/client3/rdock/2013.1/src/exe/rbdock.cxx#4 $)

>  <Rbt.Library>
libRbt.so (2013.1, Build901 2013/11/27)

>  <Rbt.Parameter_File>
/export/apps/rDock/src/rDock_2013.1_src/data/scripts/dock_solv.prm

>  <Rbt.Receptor>
prm/blind_docking_100.prm

>  <SCORE>
-15.7303

>  <SCORE.INTER>
-8.72796

>  <SCORE.INTER.CONST>
1

>  <SCORE.INTER.POLAR>
0

>  <SCORE.INTER.ROT>
2

>  <SCORE.INTER.SOLV>
11.2911

>  <SCORE.INTER.VDW>
-14.5157

>  <SCORE.INTER.norm>
-0.51341

>  <SCORE.INTRA>
-7.00238

>  <SCORE.INTRA.DIHEDRAL>
-9.34928

>  <SCORE.INTRA.DIHEDRAL.0>
10.3255

>  <SCORE.INTRA.POLAR>
0

>  <SCORE.INTRA.POLAR.0>
0

>  <SCORE.INTRA.REPUL>
0

>  <SCORE.INTRA.REPUL.0>
0

>  <SCORE.INTRA.SOLV>
-0.206617

>  <SCORE.INTRA.SOLV.lig_0>
-53.4755

>  <SCORE.INTRA.VDW>
-2.22443

>  <SCORE.INTRA.VDW.0>
2.32763

>  <SCORE.INTRA.norm>
-0.411905

>  <SCORE.RESTR>
0

>  <SCORE.RESTR.CAVITY>
0

>  <SCORE.RESTR.norm>
0

>  <SCORE.SYSTEM>
0

>  <SCORE.SYSTEM.CONST>
0

>  <SCORE.SYSTEM.DIHEDRAL>
0

>  <SCORE.SYSTEM.SOLV>
0

>  <SCORE.SYSTEM.norm>
0

>  <SCORE.heavy>
17

>  <SCORE.norm>
-0.925314

>  <RMSD>
33.534

$$$$
ligand
 OpenBabel11021811503D
libRbt.so/2013.1/901 2013/11/27
 17 18  0  0  0  0  0  0  0  0999 V2000
   -5.6285  -22.5188   34.0791 N   0  0  0  0  0  0  0  0  0  0  0  0
   -5.3871  -22.4801   35.4584 C   0  0  0  0  0  0  0  0  0  0  0  0
   -5.4649  -21.2306   36.1584 N   0  0  0  0  0  0  0  0  0  0  0  0
   -5.0827  -23.6226   36.1664 N   0  0  0  0  0  0  0  0  0  0  0  0
   -4.9993  -24.8475   35.5373 C   0  0  0  0  0  0  0  0  0  0  0  0
   -5.2299  -24.9453   34.1293 C   0  0  0  0  0  0  0  0  0  0  0  0
   -4.7281  -25.8448   36.1786 O   0  0  0  0  0  0  0  0  0  0  0  0
   -5.1457  -26.2232   33.4267 N   0  0  0  0  0  0  0  0  0  0  0  0
   -5.5695  -26.3101   32.0750 C   0  0  2  0  0  0  0  0  0  0  0  0
   -5.4010  -24.9849   31.2849 C   0  0  0  0  0  0  0  0  0  0  0  0
   -5.5495  -23.7514   33.4152 C   0  0  0  0  0  0  0  0  0  0  0  0
   -5.7946  -23.8277   31.9631 N   0  0  0  0  0  0  0  0  0  0  0  0
   -6.9892  -26.8466   32.0604 C   0  0  1  0  0  0  0  0  0  0  0  0
   -7.8397  -25.9882   32.7284 O   0  0  0  0  0  0  0  0  0  0  0  0
   -7.4541  -27.0528   30.6498 C   0  0  1  0  0  0  0  0  0  0  0  0
   -6.7531  -28.0304   30.0584 O   0  0  0  0  0  0  0  0  0  0  0  0
   -8.9479  -27.4390   30.6069 C   0  0  0  0  0  0  0  0  0  0  0  0
  1  2  2  0  0  0  0
  1 11  1  0  0  0  0
  2  3  1  0  0  0  0
  2  4  1  0  0  0  0
  4  5  1  0  0  0  0
  5  6  1  0  0  0  0
  5  7  2  0  0  0  0
  6  8  1  0  0  0  0
  6 11  2  0  0  0  0
  9  8  1  1  0  0  0
  9 10  1  0  0  0  0
  9 13  1  0  0  0  0
 10 12  1  0  0  0  0
 11 12  1  0  0  0  0
 13 14  1  6  0  0  0
 13 15  1  0  0  0  0
 15 16  1  1  0  0  0
 15 17  1  0  0  0  0
M  END
>  <CHROM.1>
61.55007809,66.49175443,-6.03769865,-25.12046035,33.24872702,0.67030586,-1.14004368
0.00575804

>  <Name>
ligand

>  <RI>
0

>  <Rbt.Current_Directory>
/home/itssahil/PROJECTS/Mol_Feturizer/New_Systems/rnas/4LVX

>  <Rbt.Executable>
rbdock ($Id: //depot/dev/client3/rdock/2013.1/src/exe/rbdock.cxx#4 $)

>  <Rbt.Library>
libRbt.so (2013.1, Build901 2013/11/27)

>  <Rbt.Parameter_File>
/export/apps/rDock/src/rDock_2013.1_src/data/scripts/dock_solv.prm

>  <Rbt.Receptor>
prm/blind_docking_100.prm

>  <SCORE>
-16.5404

>  <SCORE.INTER>
-9.61256

>  <SCORE.INTER.CONST>
1

>  <SCORE.INTER.POLAR>
0

>  <SCORE.INTER.ROT>
2

>  <SCORE.INTER.SOLV>
10.1581

>  <SCORE.INTER.VDW>
-14.7278

>  <SCORE.INTER.norm>
-0.565445

>  <SCORE.INTRA>
-6.92782

>  <SCORE.INTRA.DIHEDRAL>
-10.0234

>  <SCORE.INTRA.DIHEDRAL.0>
10.3255

>  <SCORE.INTRA.POLAR>
0

>  <SCORE.INTRA.POLAR.0>
0

>  <SCORE.INTRA.REPUL>
0

>  <SCORE.INTRA.REPUL.0>
0

>  <SCORE.INTRA.SOLV>
-0.174801

>  <SCORE.INTRA.SOLV.lig_0>
-53.4755

>  <SCORE.INTRA.VDW>
-1.82871

>  <SCORE.INTRA.VDW.0>
2.32763

>  <SCORE.INTRA.norm>
-0.407519

>  <SCORE.RESTR>
0

>  <SCORE.RESTR.CAVITY>
0

>  <SCORE.RESTR.norm>
0

>  <SCORE.SYSTEM>
0

>  <SCORE.SYSTEM.CONST>
0

>  <SCORE.SYSTEM.DIHEDRAL>
0

>  <SCORE.SYSTEM.SOLV>
0

>  <SCORE.SYSTEM.norm>
0

>  <SCORE.heavy>
17

>  <SCORE.norm>
-0.972964

>  <RMSD>
33.539

$$$$
ligand
 OpenBabel11021811503D
libRbt.so/2013.1/901 2013/11/27
 17 18  0  0  0  0  0  0  0  0999 V2000
   -5.6028  -22.5276   34.0391 N   0  0  0  0  0  0  0  0  0  0  0  0
   -5.3724  -22.4863   35.4201 C   0  0  0  0  0  0  0  0  0  0  0  0
   -5.4239  -21.2308   36.1117 N   0  0  0  0  0  0  0  0  0  0  0  0
   -5.1036  -23.6318   36.1378 N   0  0  0  0  0  0  0  0  0  0  0  0
   -5.0464  -24.8623   35.5170 C   0  0  0  0  0  0  0  0  0  0  0  0
   -5.2674  -24.9632   34.1077 C   0  0  0  0  0  0  0  0  0  0  0  0
   -4.8064  -25.8622   36.1667 O   0  0  0  0  0  0  0  0  0  0  0  0
   -5.2102  -26.2473   33.4137 N   0  0  0  0  0  0  0  0  0  0  0  0
   -5.6245  -26.3319   32.0589 C   0  0  2  0  0  0  0  0  0  0  0  0
   -5.4152  -25.0166   31.2622 C   0  0  0  0  0  0  0  0  0  0  0  0
   -5.5500  -23.7660   33.3835 C   0  0  0  0  0  0  0  0  0  0  0  0
   -5.7846  -23.8453   31.9298 N   0  0  0  0  0  0  0  0  0  0  0  0
   -7.0574  -26.8319   32.0353 C   0  0  1  0  0  0  0  0  0  0  0  0
   -7.8934  -25.9405   32.6779 O   0  0  0  0  0  0  0  0  0  0  0  0
   -7.5101  -27.0502   30.6226 C   0  0  1  0  0  0  0  0  0  0  0  0
   -6.7952  -28.0238   30.0414 O   0  0  0  0  0  0  0  0  0  0  0  0
   -8.9997  -27.4514   30.5712 C   0  0  0  0  0  0  0  0  0  0  0  0
  1  2  2  0  0  0  0
  1 11  1  0  0  0  0
  2  3  1  0  0  0  0
  2  4  1  0  0  0  0
  4  5  1  0  0  0  0
  5  6  1  0  0  0  0
  5  7  2  0  0  0  0
  6  8  1  0  0  0  0
  6 11  2  0  0  0  0
  9  8  1  1  0  0  0
  9 10  1  0  0  0  0
  9 13  1  0  0  0  0
 10 12  1  0  0  0  0
 11 12  1  0  0  0  0
 13 14  1  6  0  0  0
 13 15  1  0  0  0  0
 15 16  1  1  0  0  0
 15 17  1  0  0  0  0
M  END
>  <CHROM.1>
62.20282435,64.30952394,-6.06785505,-25.12720990,33.22043316,0.59889028,-1.15367878
-0.07011359

>  <Name>
ligand

>  <RI>
0

>  <Rbt.Current_Directory>
/home/itssahil/PROJECTS/Mol_Feturizer/New_Systems/rnas/4LVX

>  <Rbt.Executable>
rbdock ($Id: //depot/dev/client3/rdock/2013.1/src/exe/rbdock.cxx#4 $)

>  <Rbt.Library>
libRbt.so (2013.1, Build901 2013/11/27)

>  <Rbt.Parameter_File>
/export/apps/rDock/src/rDock_2013.1_src/data/scripts/dock_solv.prm

>  <Rbt.Receptor>
prm/blind_docking_60.prm

>  <SCORE>
-16.5536

>  <SCORE.INTER>
-9.49637

>  <SCORE.INTER.CONST>
1

>  <SCORE.INTER.POLAR>
0

>  <SCORE.INTER.ROT>
2

>  <SCORE.INTER.SOLV>
10.2394

>  <SCORE.INTER.VDW>
-14.6774

>  <SCORE.INTER.norm>
-0.55861

>  <SCORE.INTRA>
-7.05726

>  <SCORE.INTRA.DIHEDRAL>
-10.0974

>  <SCORE.INTRA.DIHEDRAL.0>
10.3255

>  <SCORE.INTRA.POLAR>
0

>  <SCORE.INTRA.POLAR.0>
0

>  <SCORE.INTRA.REPUL>
0

>  <SCORE.INTRA.REPUL.0>
0

>  <SCORE.INTRA.SOLV>
-0.165849

>  <SCORE.INTRA.SOLV.lig_0>
-53.4755

>  <SCORE.INTRA.VDW>
-1.92566

>  <SCORE.INTRA.VDW.0>
2.32763

>  <SCORE.INTRA.norm>
-0.415133

>  <SCORE.RESTR>
0

>  <SCORE.RESTR.CAVITY>
0

>  <SCORE.RESTR.norm>
0

>  <SCORE.SYSTEM>
0

>  <SCORE.SYSTEM.CONST>
0

>  <SCORE.SYSTEM.DIHEDRAL>
0

>  <SCORE.SYSTEM.SOLV>
0

>  <SCORE.SYSTEM.norm>
0

>  <SCORE.heavy>
17

>  <SCORE.norm>
-0.973743

>  <RMSD>
33.545

$$$$
ligand
 OpenBabel11021811503D
libRbt.so/2013.1/901 2013/11/27
 17 18  0  0  0  0  0  0  0  0999 V2000
   -5.0592  -22.4936   34.3030 N   0  0  0  0  0  0  0  0  0  0  0  0
   -5.1361  -22.3282   35.6918 C   0  0  0  0  0  0  0  0  0  0  0  0
   -5.0649  -21.0112   36.2554 N   0  0  0  0  0  0  0  0  0  0  0  0
   -5.2881  -23.4069   36.5361 N   0  0  0  0  0  0  0  0  0  0  0  0
   -5.3642  -24.6920   36.0405 C   0  0  0  0  0  0  0  0  0  0  0  0
   -5.2850  -24.9207   34.6310 C   0  0  0  0  0  0  0  0  0  0  0  0
   -5.4969  -25.6317   36.8013 O   0  0  0  0  0  0  0  0  0  0  0  0
   -5.3565  -26.2670   34.0686 N   0  0  0  0  0  0  0  0  0  0  0  0
   -5.4696  -26.4356   32.6640 C   0  0  2  0  0  0  0  0  0  0  0  0
   -4.8086  -25.2941   31.8462 C   0  0  0  0  0  0  0  0  0  0  0  0
   -5.1335  -23.7898   33.7733 C   0  0  0  0  0  0  0  0  0  0  0  0
   -5.0526  -24.0003   32.3160 N   0  0  0  0  0  0  0  0  0  0  0  0
   -6.9354  -26.6471   32.3319 C   0  0  1  0  0  0  0  0  0  0  0  0
   -7.6848  -25.5561   32.7250 O   0  0  0  0  0  0  0  0  0  0  0  0
   -7.1062  -26.8989   30.8636 C   0  0  1  0  0  0  0  0  0  0  0  0
   -6.3915  -27.9661   30.4799 O   0  0  0  0  0  0  0  0  0  0  0  0
   -8.5863  -27.1599   30.5121 C   0  0  0  0  0  0  0  0  0  0  0  0
  1  2  2  0  0  0  0
  1 11  1  0  0  0  0
  2  3  1  0  0  0  0
  2  4  1  0  0  0  0
  4  5  1  0  0  0  0
  5  6  1  0  0  0  0
  5  7  2  0  0  0  0
  6  8  1  0  0  0  0
  6 11  2  0  0  0  0
  9  8  1  1  0  0  0
  9 10  1  0  0  0  0
  9 13  1  0  0  0  0
 10 12  1  0  0  0  0
 11 12  1  0  0  0  0
 13 14  1  6  0  0  0
 13 15  1  0  0  0  0
 15 16  1  1  0  0  0
 15 17  1  0  0  0  0
M  END
>  <CHROM.1>
60.25881730,58.05814892,-5.87821824,-25.03027497,33.58975230,-0.36987694
-1.25388747,-1.09142193

>  <Name>
ligand

>  <RI>
0

>  <Rbt.Current_Directory>
/home/itssahil/PROJECTS/Mol_Feturizer/New_Systems/rnas/4LVX

>  <Rbt.Executable>
rbdock ($Id: //depot/dev/client3/rdock/2013.1/src/exe/rbdock.cxx#4 $)

>  <Rbt.Library>
libRbt.so (2013.1, Build901 2013/11/27)

>  <Rbt.Parameter_File>
/export/apps/rDock/src/rDock_2013.1_src/data/scripts/dock_solv.prm

>  <Rbt.Receptor>
prm/blind_docking_100.prm

>  <SCORE>
-16.1081

>  <SCORE.INTER>
-8.94293

>  <SCORE.INTER.CONST>
1

>  <SCORE.INTER.POLAR>
0

>  <SCORE.INTER.ROT>
2

>  <SCORE.INTER.SOLV>
9.96084

>  <SCORE.INTER.VDW>
-14.2156

>  <SCORE.INTER.norm>
-0.526055

>  <SCORE.INTRA>
-7.16512

>  <SCORE.INTRA.DIHEDRAL>
-10.1565

>  <SCORE.INTRA.DIHEDRAL.0>
10.3255

>  <SCORE.INTRA.POLAR>
0

>  <SCORE.INTRA.POLAR.0>
0

>  <SCORE.INTRA.REPUL>
0

>  <SCORE.INTRA.REPUL.0>
0

>  <SCORE.INTRA.SOLV>
-0.121401

>  <SCORE.INTRA.SOLV.lig_0>
-53.4755

>  <SCORE.INTRA.VDW>
-2.02618

>  <SCORE.INTRA.VDW.0>
2.32763

>  <SCORE.INTRA.norm>
-0.421478

>  <SCORE.RESTR>
0

>  <SCORE.RESTR.CAVITY>
0

>  <SCORE.RESTR.norm>
0

>  <SCORE.SYSTEM>
0

>  <SCORE.SYSTEM.CONST>
0

>  <SCORE.SYSTEM.DIHEDRAL>
0

>  <SCORE.SYSTEM.SOLV>
0

>  <SCORE.SYSTEM.norm>
0

>  <SCORE.heavy>
17

>  <SCORE.norm>
-0.947533

>  <RMSD>
33.546

$$$$
ligand
 OpenBabel11021811503D
libRbt.so/2013.1/901 2013/11/27
 17 18  0  0  0  0  0  0  0  0999 V2000
   -5.6749  -22.5237   34.0602 N   0  0  0  0  0  0  0  0  0  0  0  0
   -5.4485  -22.4821   35.4418 C   0  0  0  0  0  0  0  0  0  0  0  0
   -5.5358  -21.2315   36.1387 N   0  0  0  0  0  0  0  0  0  0  0  0
   -5.1499  -23.6229   36.1552 N   0  0  0  0  0  0  0  0  0  0  0  0
   -5.0577  -24.8487   35.5293 C   0  0  0  0  0  0  0  0  0  0  0  0
   -5.2730  -24.9495   34.1191 C   0  0  0  0  0  0  0  0  0  0  0  0
   -4.7917  -25.8444   36.1753 O   0  0  0  0  0  0  0  0  0  0  0  0
   -5.1792  -26.2285   33.4197 N   0  0  0  0  0  0  0  0  0  0  0  0
   -5.5882  -26.3186   32.0637 C   0  0  2  0  0  0  0  0  0  0  0  0
   -5.4134  -24.9945   31.2731 C   0  0  0  0  0  0  0  0  0  0  0  0
   -5.5869  -23.7574   33.3994 C   0  0  0  0  0  0  0  0  0  0  0  0
   -5.8161  -23.8368   31.9449 N   0  0  0  0  0  0  0  0  0  0  0  0
   -7.0068  -26.8575   32.0349 C   0  0  1  0  0  0  0  0  0  0  0  0
   -7.8688  -25.9906   32.6767 O   0  0  0  0  0  0  0  0  0  0  0  0
   -7.4493  -27.0852   30.6204 C   0  0  1  0  0  0  0  0  0  0  0  0
   -6.7194  -28.0518   30.0459 O   0  0  0  0  0  0  0  0  0  0  0  0
   -8.9336  -27.5048   30.5622 C   0  0  0  0  0  0  0  0  0  0  0  0
  1  2  2  0  0  0  0
  1 11  1  0  0  0  0
  2  3  1  0  0  0  0
  2  4  1  0  0  0  0
  4  5  1  0  0  0  0
  5  6  1  0  0  0  0
  5  7  2  0  0  0  0
  6  8  1  0  0  0  0
  6 11  2  0  0  0  0
  9  8  1  1  0  0  0
  9 10  1  0  0  0  0
  9 13  1  0  0  0  0
 10 12  1  0  0  0  0
 11 12  1  0  0  0  0
 13 14  1  6  0  0  0
 13 15  1  0  0  0  0
 15 16  1  1  0  0  0
 15 17  1  0  0  0  0
M  END
>  <CHROM.1>
62.34528505,65.23341100,-6.06789033,-25.13164652,33.22976635,0.67322843,-1.15378330
0.00322928

>  <Name>
ligand

>  <RI>
0

>  <Rbt.Current_Directory>
/home/itssahil/PROJECTS/Mol_Feturizer/New_Systems/rnas/4LVX

>  <Rbt.Executable>
rbdock ($Id: //depot/dev/client3/rdock/2013.1/src/exe/rbdock.cxx#4 $)

>  <Rbt.Library>
libRbt.so (2013.1, Build901 2013/11/27)

>  <Rbt.Parameter_File>
/export/apps/rDock/src/rDock_2013.1_src/data/scripts/dock_solv.prm

>  <Rbt.Receptor>
prm/blind_docking_60.prm

>  <SCORE>
-16.5695

>  <SCORE.INTER>
-9.55216

>  <SCORE.INTER.CONST>
1

>  <SCORE.INTER.POLAR>
0

>  <SCORE.INTER.ROT>
2

>  <SCORE.INTER.SOLV>
10.0964

>  <SCORE.INTER.VDW>
-14.6669

>  <SCORE.INTER.norm>
-0.561892

>  <SCORE.INTRA>
-7.0173

>  <SCORE.INTRA.DIHEDRAL>
-10.0646

>  <SCORE.INTRA.DIHEDRAL.0>
10.3255

>  <SCORE.INTRA.POLAR>
0

>  <SCORE.INTRA.POLAR.0>
0

>  <SCORE.INTRA.REPUL>
0

>  <SCORE.INTRA.REPUL.0>
0

>  <SCORE.INTRA.SOLV>
-0.171654

>  <SCORE.INTRA.SOLV.lig_0>
-53.4755

>  <SCORE.INTRA.VDW>
-1.89919

>  <SCORE.INTRA.VDW.0>
2.32763

>  <SCORE.INTRA.norm>
-0.412783

>  <SCORE.RESTR>
0

>  <SCORE.RESTR.CAVITY>
0

>  <SCORE.RESTR.norm>
0

>  <SCORE.SYSTEM>
0

>  <SCORE.SYSTEM.CONST>
0

>  <SCORE.SYSTEM.DIHEDRAL>
0

>  <SCORE.SYSTEM.SOLV>
0

>  <SCORE.SYSTEM.norm>
0

>  <SCORE.heavy>
17

>  <SCORE.norm>
-0.974674

>  <RMSD>
33.547

$$$$
ligand
 OpenBabel11021811503D
libRbt.so/2013.1/901 2013/11/27
 17 18  0  0  0  0  0  0  0  0999 V2000
   -5.6614  -22.5213   34.0706 N   0  0  0  0  0  0  0  0  0  0  0  0
   -5.4307  -22.4782   35.4516 C   0  0  0  0  0  0  0  0  0  0  0  0
   -5.5100  -21.2259   36.1463 N   0  0  0  0  0  0  0  0  0  0  0  0
   -5.1353  -23.6190   36.1662 N   0  0  0  0  0  0  0  0  0  0  0  0
   -5.0508  -24.8465   35.5423 C   0  0  0  0  0  0  0  0  0  0  0  0
   -5.2708  -24.9489   34.1329 C   0  0  0  0  0  0  0  0  0  0  0  0
   -4.7876  -25.8422   36.1894 O   0  0  0  0  0  0  0  0  0  0  0  0
   -5.1852  -26.2297   33.4358 N   0  0  0  0  0  0  0  0  0  0  0  0
   -5.5987  -26.3203   32.0811 C   0  0  2  0  0  0  0  0  0  0  0  0
   -5.4200  -24.9986   31.2875 C   0  0  0  0  0  0  0  0  0  0  0  0
   -5.5812  -23.7566   33.4120 C   0  0  0  0  0  0  0  0  0  0  0  0
   -5.8152  -23.8377   31.9583 N   0  0  0  0  0  0  0  0  0  0  0  0
   -7.0199  -26.8525   32.0576 C   0  0  1  0  0  0  0  0  0  0  0  0
   -7.8729  -25.9890   32.7158 O   0  0  0  0  0  0  0  0  0  0  0  0
   -7.4745  -27.0626   30.6442 C   0  0  1  0  0  0  0  0  0  0  0  0
   -6.7594  -28.0319   30.0560 O   0  0  0  0  0  0  0  0  0  0  0  0
   -8.9637  -27.4652   30.5925 C   0  0  0  0  0  0  0  0  0  0  0  0
  1  2  2  0  0  0  0
  1 11  1  0  0  0  0
  2  3  1  0  0  0  0
  2  4  1  0  0  0  0
  4  5  1  0  0  0  0
  5  6  1  0  0  0  0
  5  7  2  0  0  0  0
  6  8  1  0  0  0  0
  6 11  2  0  0  0  0
  9  8  1  1  0  0  0
  9 10  1  0  0  0  0
  9 13  1  0  0  0  0
 10 12  1  0  0  0  0
 11 12  1  0  0  0  0
 13 14  1  6  0  0  0
 13 15  1  0  0  0  0
 15 16  1  1  0  0  0
 15 17  1  0  0  0  0
M  END
>  <CHROM.1>
61.55079367,65.63045245,-6.07108275,-25.12532704,33.24646942,0.65782956,-1.15038970
-0.01057850

>  <Name>
ligand

>  <RI>
0

>  <Rbt.Current_Directory>
/home/itssahil/PROJECTS/Mol_Feturizer/New_Systems/rnas/4LVX

>  <Rbt.Executable>
rbdock ($Id: //depot/dev/client3/rdock/2013.1/src/exe/rbdock.cxx#4 $)

>  <Rbt.Library>
libRbt.so (2013.1, Build901 2013/11/27)

>  <Rbt.Parameter_File>
/export/apps/rDock/src/rDock_2013.1_src/data/scripts/dock_solv.prm

>  <Rbt.Receptor>
prm/blind_docking_80.prm

>  <SCORE>
-16.5488

>  <SCORE.INTER>
-9.57354

>  <SCORE.INTER.CONST>
1

>  <SCORE.INTER.POLAR>
0

>  <SCORE.INTER.ROT>
2

>  <SCORE.INTER.SOLV>
10.0404

>  <SCORE.INTER.VDW>
-14.6625

>  <SCORE.INTER.norm>
-0.56315

>  <SCORE.INTRA>
-6.97523

>  <SCORE.INTRA.DIHEDRAL>
-10.0598

>  <SCORE.INTRA.DIHEDRAL.0>
10.3255

>  <SCORE.INTRA.POLAR>
0

>  <SCORE.INTRA.POLAR.0>
0

>  <SCORE.INTRA.REPUL>
0

>  <SCORE.INTRA.REPUL.0>
0

>  <SCORE.INTRA.SOLV>
-0.170019

>  <SCORE.INTRA.SOLV.lig_0>
-53.4755

>  <SCORE.INTRA.VDW>
-1.86031

>  <SCORE.INTRA.VDW.0>
2.32763

>  <SCORE.INTRA.norm>
-0.410308

>  <SCORE.RESTR>
0

>  <SCORE.RESTR.CAVITY>
0

>  <SCORE.RESTR.norm>
0

>  <SCORE.SYSTEM>
0

>  <SCORE.SYSTEM.CONST>
0

>  <SCORE.SYSTEM.DIHEDRAL>
0

>  <SCORE.SYSTEM.SOLV>
0

>  <SCORE.SYSTEM.norm>
0

>  <SCORE.heavy>
17

>  <SCORE.norm>
-0.973457

>  <RMSD>
33.549

$$$$
ligand
 OpenBabel11021811503D
libRbt.so/2013.1/901 2013/11/27
 17 18  0  0  0  0  0  0  0  0999 V2000
   -5.6627  -22.5296   34.0627 N   0  0  0  0  0  0  0  0  0  0  0  0
   -5.4348  -22.4896   35.4442 C   0  0  0  0  0  0  0  0  0  0  0  0
   -5.5130  -21.2385   36.1412 N   0  0  0  0  0  0  0  0  0  0  0  0
   -5.1433  -23.6324   36.1573 N   0  0  0  0  0  0  0  0  0  0  0  0
   -5.0600  -24.8588   35.5312 C   0  0  0  0  0  0  0  0  0  0  0  0
   -5.2772  -24.9580   34.1212 C   0  0  0  0  0  0  0  0  0  0  0  0
   -4.8002  -25.8563   36.1769 O   0  0  0  0  0  0  0  0  0  0  0  0
   -5.1926  -26.2376   33.4217 N   0  0  0  0  0  0  0  0  0  0  0  0
   -5.6035  -26.3248   32.0660 C   0  0  2  0  0  0  0  0  0  0  0  0
   -5.4204  -25.0020   31.2753 C   0  0  0  0  0  0  0  0  0  0  0  0
   -5.5836  -23.7638   33.4018 C   0  0  0  0  0  0  0  0  0  0  0  0
   -5.8146  -23.8415   31.9475 N   0  0  0  0  0  0  0  0  0  0  0  0
   -7.0257  -26.8541   32.0384 C   0  0  1  0  0  0  0  0  0  0  0  0
   -7.8796  -25.9862   32.6895 O   0  0  0  0  0  0  0  0  0  0  0  0
   -7.4746  -27.0687   30.6239 C   0  0  1  0  0  0  0  0  0  0  0  0
   -6.7510  -28.0335   30.0387 O   0  0  0  0  0  0  0  0  0  0  0  0
   -8.9608  -27.4817   30.5682 C   0  0  0  0  0  0  0  0  0  0  0  0
  1  2  2  0  0  0  0
  1 11  1  0  0  0  0
  2  3  1  0  0  0  0
  2  4  1  0  0  0  0
  4  5  1  0  0  0  0
  5  6  1  0  0  0  0
  5  7  2  0  0  0  0
  6  8  1  0  0  0  0
  6 11  2  0  0  0  0
  9  8  1  1  0  0  0
  9 10  1  0  0  0  0
  9 13  1  0  0  0  0
 10 12  1  0  0  0  0
 11 12  1  0  0  0  0
 13 14  1  6  0  0  0
 13 15  1  0  0  0  0
 15 16  1  1  0  0  0
 15 17  1  0  0  0  0
M  END
>  <CHROM.1>
61.90710127,65.07732371,-6.07453039,-25.13294197,33.23245803,0.65215057,-1.15382776
-0.01533485

>  <Name>
ligand

>  <RI>
0

>  <Rbt.Current_Directory>
/home/itssahil/PROJECTS/Mol_Feturizer/New_Systems/rnas/4LVX

>  <Rbt.Executable>
rbdock ($Id: //depot/dev/client3/rdock/2013.1/src/exe/rbdock.cxx#4 $)

>  <Rbt.Library>
libRbt.so (2013.1, Build901 2013/11/27)

>  <Rbt.Parameter_File>
/export/apps/rDock/src/rDock_2013.1_src/data/scripts/dock_solv.prm

>  <Rbt.Receptor>
prm/blind_docking_100.prm

>  <SCORE>
-16.5584

>  <SCORE.INTER>
-9.5449

>  <SCORE.INTER.CONST>
1

>  <SCORE.INTER.POLAR>
0

>  <SCORE.INTER.ROT>
2

>  <SCORE.INTER.SOLV>
10.091

>  <SCORE.INTER.VDW>
-14.6603

>  <SCORE.INTER.norm>
-0.561465

>  <SCORE.INTRA>
-7.01353

>  <SCORE.INTRA.DIHEDRAL>
-10.0764

>  <SCORE.INTRA.DIHEDRAL.0>
10.3255

>  <SCORE.INTRA.POLAR>
0

>  <SCORE.INTRA.POLAR.0>
0

>  <SCORE.INTRA.REPUL>
0

>  <SCORE.INTRA.REPUL.0>
0

>  <SCORE.INTRA.SOLV>
-0.16867

>  <SCORE.INTRA.SOLV.lig_0>
-53.4755

>  <SCORE.INTRA.VDW>
-1.891

>  <SCORE.INTRA.VDW.0>
2.32763

>  <SCORE.INTRA.norm>
-0.41256

>  <SCORE.RESTR>
0

>  <SCORE.RESTR.CAVITY>
0

>  <SCORE.RESTR.norm>
0

>  <SCORE.SYSTEM>
0

>  <SCORE.SYSTEM.CONST>
0

>  <SCORE.SYSTEM.DIHEDRAL>
0

>  <SCORE.SYSTEM.SOLV>
0

>  <SCORE.SYSTEM.norm>
0

>  <SCORE.heavy>
17

>  <SCORE.norm>
-0.974025

>  <RMSD>
33.552

$$$$
ligand
 OpenBabel11021811503D
libRbt.so/2013.1/901 2013/11/27
 17 18  0  0  0  0  0  0  0  0999 V2000
   -5.6687  -22.5298   34.0624 N   0  0  0  0  0  0  0  0  0  0  0  0
   -5.4410  -22.4891   35.4439 C   0  0  0  0  0  0  0  0  0  0  0  0
   -5.5238  -21.2383   36.1409 N   0  0  0  0  0  0  0  0  0  0  0  0
   -5.1454  -23.6308   36.1569 N   0  0  0  0  0  0  0  0  0  0  0  0
   -5.0576  -24.8569   35.5309 C   0  0  0  0  0  0  0  0  0  0  0  0
   -5.2745  -24.9569   34.1208 C   0  0  0  0  0  0  0  0  0  0  0  0
   -4.7943  -25.8535   36.1765 O   0  0  0  0  0  0  0  0  0  0  0  0
   -5.1853  -26.2362   33.4213 N   0  0  0  0  0  0  0  0  0  0  0  0
   -5.5958  -26.3248   32.0656 C   0  0  2  0  0  0  0  0  0  0  0  0
   -5.4174  -25.0013   31.2749 C   0  0  0  0  0  0  0  0  0  0  0  0
   -5.5851  -23.7637   33.4015 C   0  0  0  0  0  0  0  0  0  0  0  0
   -5.8159  -23.8423   31.9472 N   0  0  0  0  0  0  0  0  0  0  0  0
   -7.0161  -26.8592   32.0380 C   0  0  1  0  0  0  0  0  0  0  0  0
   -7.8728  -25.9954   32.6908 O   0  0  0  0  0  0  0  0  0  0  0  0
   -7.4650  -27.0734   30.6233 C   0  0  1  0  0  0  0  0  0  0  0  0
   -6.7443  -28.0412   30.0394 O   0  0  0  0  0  0  0  0  0  0  0  0
   -8.9525  -27.4813   30.5672 C   0  0  0  0  0  0  0  0  0  0  0  0
  1  2  2  0  0  0  0
  1 11  1  0  0  0  0
  2  3  1  0  0  0  0
  2  4  1  0  0  0  0
  4  5  1  0  0  0  0
  5  6  1  0  0  0  0
  5  7  2  0  0  0  0
  6  8  1  0  0  0  0
  6 11  2  0  0  0  0
  9  8  1  1  0  0  0
  9 10  1  0  0  0  0
  9 13  1  0  0  0  0
 10 12  1  0  0  0  0
 11 12  1  0  0  0  0
 13 14  1  6  0  0  0
 13 15  1  0  0  0  0
 15 16  1  1  0  0  0
 15 17  1  0  0  0  0
M  END
>  <CHROM.1>
61.81890915,65.50815570,-6.07191000,-25.13407989,33.23223684,0.66296934,-1.15266862
-0.00462895

>  <Name>
ligand

>  <RI>
0

>  <Rbt.Current_Directory>
/home/itssahil/PROJECTS/Mol_Feturizer/New_Systems/rnas/4LVX

>  <Rbt.Executable>
rbdock ($Id: //depot/dev/client3/rdock/2013.1/src/exe/rbdock.cxx#4 $)

>  <Rbt.Library>
libRbt.so (2013.1, Build901 2013/11/27)

>  <Rbt.Parameter_File>
/export/apps/rDock/src/rDock_2013.1_src/data/scripts/dock_solv.prm

>  <Rbt.Receptor>
prm/blind_docking_60.prm

>  <SCORE>
-16.5538

>  <SCORE.INTER>
-9.56444

>  <SCORE.INTER.CONST>
1

>  <SCORE.INTER.POLAR>
0

>  <SCORE.INTER.ROT>
2

>  <SCORE.INTER.SOLV>
10.0862

>  <SCORE.INTER.VDW>
-14.6717

>  <SCORE.INTER.norm>
-0.562614

>  <SCORE.INTRA>
-6.98938

>  <SCORE.INTRA.DIHEDRAL>
-10.0616

>  <SCORE.INTRA.DIHEDRAL.0>
10.3255

>  <SCORE.INTRA.POLAR>
0

>  <SCORE.INTRA.POLAR.0>
0

>  <SCORE.INTRA.REPUL>
0

>  <SCORE.INTRA.REPUL.0>
0

>  <SCORE.INTRA.SOLV>
-0.170635

>  <SCORE.INTRA.SOLV.lig_0>
-53.4755

>  <SCORE.INTRA.VDW>
-1.87326

>  <SCORE.INTRA.VDW.0>
2.32763

>  <SCORE.INTRA.norm>
-0.41114

>  <SCORE.RESTR>
0

>  <SCORE.RESTR.CAVITY>
0

>  <SCORE.RESTR.norm>
0

>  <SCORE.SYSTEM>
0

>  <SCORE.SYSTEM.CONST>
0

>  <SCORE.SYSTEM.DIHEDRAL>
0

>  <SCORE.SYSTEM.SOLV>
0

>  <SCORE.SYSTEM.norm>
0

>  <SCORE.heavy>
17

>  <SCORE.norm>
-0.973754

>  <RMSD>
33.552

$$$$
ligand
 OpenBabel11021811503D
libRbt.so/2013.1/901 2013/11/27
 17 18  0  0  0  0  0  0  0  0999 V2000
   -5.6766  -22.5339   34.0676 N   0  0  0  0  0  0  0  0  0  0  0  0
   -5.4360  -22.4977   35.4471 C   0  0  0  0  0  0  0  0  0  0  0  0
   -5.5308  -21.2523   36.1523 N   0  0  0  0  0  0  0  0  0  0  0  0
   -5.1163  -23.6390   36.1504 N   0  0  0  0  0  0  0  0  0  0  0  0
   -5.0162  -24.8599   35.5162 C   0  0  0  0  0  0  0  0  0  0  0  0
   -5.2454  -24.9550   34.1078 C   0  0  0  0  0  0  0  0  0  0  0  0
   -4.7316  -25.8562   36.1534 O   0  0  0  0  0  0  0  0  0  0  0  0
   -5.1438  -26.2287   33.3999 N   0  0  0  0  0  0  0  0  0  0  0  0
   -5.5662  -26.3157   32.0477 C   0  0  2  0  0  0  0  0  0  0  0  0
   -5.4156  -24.9851   31.2632 C   0  0  0  0  0  0  0  0  0  0  0  0
   -5.5810  -23.7625   33.3986 C   0  0  0  0  0  0  0  0  0  0  0  0
   -5.8248  -23.8361   31.9462 N   0  0  0  0  0  0  0  0  0  0  0  0
   -6.9785  -26.8713   32.0307 C   0  0  1  0  0  0  0  0  0  0  0  0
   -7.8460  -26.0129   32.6766 O   0  0  0  0  0  0  0  0  0  0  0  0
   -7.4286  -27.1081   30.6201 C   0  0  1  0  0  0  0  0  0  0  0  0
   -6.7077  -28.0843   30.0507 O   0  0  0  0  0  0  0  0  0  0  0  0
   -8.9158  -27.5181   30.5717 C   0  0  0  0  0  0  0  0  0  0  0  0
  1  2  2  0  0  0  0
  1 11  1  0  0  0  0
  2  3  1  0  0  0  0
  2  4  1  0  0  0  0
  4  5  1  0  0  0  0
  5  6  1  0  0  0  0
  5  7  2  0  0  0  0
  6  8  1  0  0  0  0
  6 11  2  0  0  0  0
  9  8  1  1  0  0  0
  9 10  1  0  0  0  0
  9 13  1  0  0  0  0
 10 12  1  0  0  0  0
 11 12  1  0  0  0  0
 13 14  1  6  0  0  0
 13 15  1  0  0  0  0
 15 16  1  1  0  0  0
 15 17  1  0  0  0  0
M  END
>  <CHROM.1>
62.87183068,66.35618353,-6.04817400,-25.14308043,33.22631284,0.71155798,-1.13885939
0.04456757

>  <Name>
ligand

>  <RI>
0

>  <Rbt.Current_Directory>
/home/itssahil/PROJECTS/Mol_Feturizer/New_Systems/rnas/4LVX

>  <Rbt.Executable>
rbdock ($Id: //depot/dev/client3/rdock/2013.1/src/exe/rbdock.cxx#4 $)

>  <Rbt.Library>
libRbt.so (2013.1, Build901 2013/11/27)

>  <Rbt.Parameter_File>
/export/apps/rDock/src/rDock_2013.1_src/data/scripts/dock_solv.prm

>  <Rbt.Receptor>
prm/blind_docking_100.prm

>  <SCORE>
-16.5692

>  <SCORE.INTER>
-9.59973

>  <SCORE.INTER.CONST>
1

>  <SCORE.INTER.POLAR>
0

>  <SCORE.INTER.ROT>
2

>  <SCORE.INTER.SOLV>
10.1229

>  <SCORE.INTER.VDW>
-14.7075

>  <SCORE.INTER.norm>
-0.56469

>  <SCORE.INTRA>
-6.96944

>  <SCORE.INTRA.DIHEDRAL>
-10.01

>  <SCORE.INTRA.DIHEDRAL.0>
10.3255

>  <SCORE.INTRA.POLAR>
0

>  <SCORE.INTRA.POLAR.0>
0

>  <SCORE.INTRA.REPUL>
0

>  <SCORE.INTRA.REPUL.0>
0

>  <SCORE.INTRA.SOLV>
-0.180391

>  <SCORE.INTRA.SOLV.lig_0>
-53.4755

>  <SCORE.INTRA.VDW>
-1.87424

>  <SCORE.INTRA.VDW.0>
2.32763

>  <SCORE.INTRA.norm>
-0.409967

>  <SCORE.RESTR>
0

>  <SCORE.RESTR.CAVITY>
0

>  <SCORE.RESTR.norm>
0

>  <SCORE.SYSTEM>
0

>  <SCORE.SYSTEM.CONST>
0

>  <SCORE.SYSTEM.DIHEDRAL>
0

>  <SCORE.SYSTEM.SOLV>
0

>  <SCORE.SYSTEM.norm>
0

>  <SCORE.heavy>
17

>  <SCORE.norm>
-0.974657

>  <RMSD>
33.553

$$$$
ligand
 OpenBabel11021811503D
libRbt.so/2013.1/901 2013/11/27
 17 18  0  0  0  0  0  0  0  0999 V2000
   -5.6593  -22.5325   34.0599 N   0  0  0  0  0  0  0  0  0  0  0  0
   -5.4278  -22.4914   35.4407 C   0  0  0  0  0  0  0  0  0  0  0  0
   -5.5004  -21.2392   36.1363 N   0  0  0  0  0  0  0  0  0  0  0  0
   -5.1380  -23.6342   36.1545 N   0  0  0  0  0  0  0  0  0  0  0  0
   -5.0599  -24.8616   35.5299 C   0  0  0  0  0  0  0  0  0  0  0  0
   -5.2810  -24.9620   34.1205 C   0  0  0  0  0  0  0  0  0  0  0  0
   -4.8016  -25.8591   36.1761 O   0  0  0  0  0  0  0  0  0  0  0  0
   -5.2022  -26.2428   33.4224 N   0  0  0  0  0  0  0  0  0  0  0  0
   -5.6167  -26.3304   32.0679 C   0  0  2  0  0  0  0  0  0  0  0  0
   -5.4316  -25.0092   31.2750 C   0  0  0  0  0  0  0  0  0  0  0  0
   -5.5856  -23.7677   33.4004 C   0  0  0  0  0  0  0  0  0  0  0  0
   -5.8206  -23.8466   31.9468 N   0  0  0  0  0  0  0  0  0  0  0  0
   -7.0406  -26.8554   32.0446 C   0  0  1  0  0  0  0  0  0  0  0  0
   -7.8871  -25.9934   32.7132 O   0  0  0  0  0  0  0  0  0  0  0  0
   -7.5010  -27.0509   30.6310 C   0  0  1  0  0  0  0  0  0  0  0  0
   -6.7925  -28.0183   30.0318 O   0  0  0  0  0  0  0  0  0  0  0  0
   -8.9923  -27.4460   30.5809 C   0  0  0  0  0  0  0  0  0  0  0  0
  1  2  2  0  0  0  0
  1 11  1  0  0  0  0
  2  3  1  0  0  0  0
  2  4  1  0  0  0  0
  4  5  1  0  0  0  0
  5  6  1  0  0  0  0
  5  7  2  0  0  0  0
  6  8  1  0  0  0  0
  6 11  2  0  0  0  0
  9  8  1  1  0  0  0
  9 10  1  0  0  0  0
  9 13  1  0  0  0  0
 10 12  1  0  0  0  0
 11 12  1  0  0  0  0
 13 14  1  6  0  0  0
 13 15  1  0  0  0  0
 15 16  1  1  0  0  0
 15 17  1  0  0  0  0
M  END
>  <CHROM.1>
61.05764818,65.61748152,-6.08328195,-25.13170951,33.23420422,0.64142955,-1.15046179
-0.02396218

>  <Name>
ligand

>  <RI>
0

>  <Rbt.Current_Directory>
/home/itssahil/PROJECTS/Mol_Feturizer/New_Systems/rnas/4LVX

>  <Rbt.Executable>
rbdock ($Id: //depot/dev/client3/rdock/2013.1/src/exe/rbdock.cxx#4 $)

>  <Rbt.Library>
libRbt.so (2013.1, Build901 2013/11/27)

>  <Rbt.Parameter_File>
/export/apps/rDock/src/rDock_2013.1_src/data/scripts/dock_solv.prm

>  <Rbt.Receptor>
prm/blind_docking_60.prm

>  <SCORE>
-16.5498

>  <SCORE.INTER>
-9.58936

>  <SCORE.INTER.CONST>
1

>  <SCORE.INTER.POLAR>
0

>  <SCORE.INTER.ROT>
2

>  <SCORE.INTER.SOLV>
10.0795

>  <SCORE.INTER.VDW>
-14.6861

>  <SCORE.INTER.norm>
-0.56408

>  <SCORE.INTRA>
-6.96039

>  <SCORE.INTRA.DIHEDRAL>
-10.0645

>  <SCORE.INTRA.DIHEDRAL.0>
10.3255

>  <SCORE.INTRA.POLAR>
0

>  <SCORE.INTRA.POLAR.0>
0

>  <SCORE.INTRA.REPUL>
0

>  <SCORE.INTRA.REPUL.0>
0

>  <SCORE.INTRA.SOLV>
-0.167563

>  <SCORE.INTRA.SOLV.lig_0>
-53.4755

>  <SCORE.INTRA.VDW>
-1.84437

>  <SCORE.INTRA.VDW.0>
2.32763

>  <SCORE.INTRA.norm>
-0.409435

>  <SCORE.RESTR>
0

>  <SCORE.RESTR.CAVITY>
0

>  <SCORE.RESTR.norm>
0

>  <SCORE.SYSTEM>
0

>  <SCORE.SYSTEM.CONST>
0

>  <SCORE.SYSTEM.DIHEDRAL>
0

>  <SCORE.SYSTEM.SOLV>
0

>  <SCORE.SYSTEM.norm>
0

>  <SCORE.heavy>
17

>  <SCORE.norm>
-0.973515

>  <RMSD>
33.554

$$$$
ligand
 OpenBabel11021811503D
libRbt.so/2013.1/901 2013/11/27
 17 18  0  0  0  0  0  0  0  0999 V2000
   -5.6226  -22.5474   34.0458 N   0  0  0  0  0  0  0  0  0  0  0  0
   -5.4034  -22.5073   35.4287 C   0  0  0  0  0  0  0  0  0  0  0  0
   -5.4718  -21.2539   36.1227 N   0  0  0  0  0  0  0  0  0  0  0  0
   -5.1298  -23.6519   36.1458 N   0  0  0  0  0  0  0  0  0  0  0  0
   -5.0565  -24.8804   35.5228 C   0  0  0  0  0  0  0  0  0  0  0  0
   -5.2655  -24.9801   34.1115 C   0  0  0  0  0  0  0  0  0  0  0  0
   -4.8125  -25.8796   36.1721 O   0  0  0  0  0  0  0  0  0  0  0  0
   -5.1911  -26.2619   33.4151 N   0  0  0  0  0  0  0  0  0  0  0  0
   -5.5940  -26.3471   32.0569 C   0  0  2  0  0  0  0  0  0  0  0  0
   -5.3904  -25.0280   31.2648 C   0  0  0  0  0  0  0  0  0  0  0  0
   -5.5533  -23.7838   33.3878 C   0  0  0  0  0  0  0  0  0  0  0  0
   -5.7757  -23.8618   31.9322 N   0  0  0  0  0  0  0  0  0  0  0  0
   -7.0220  -26.8600   32.0209 C   0  0  1  0  0  0  0  0  0  0  0  0
   -7.8670  -25.9911   32.6822 O   0  0  0  0  0  0  0  0  0  0  0  0
   -7.4715  -27.0513   30.6032 C   0  0  1  0  0  0  0  0  0  0  0  0
   -6.7435  -28.0015   29.9998 O   0  0  0  0  0  0  0  0  0  0  0  0
   -8.9556  -27.4712   30.5418 C   0  0  0  0  0  0  0  0  0  0  0  0
  1  2  2  0  0  0  0
  1 11  1  0  0  0  0
  2  3  1  0  0  0  0
  2  4  1  0  0  0  0
  4  5  1  0  0  0  0
  5  6  1  0  0  0  0
  5  7  2  0  0  0  0
  6  8  1  0  0  0  0
  6 11  2  0  0  0  0
  9  8  1  1  0  0  0
  9 10  1  0  0  0  0
  9 13  1  0  0  0  0
 10 12  1  0  0  0  0
 11 12  1  0  0  0  0
 13 14  1  6  0  0  0
 13 15  1  0  0  0  0
 15 16  1  1  0  0  0
 15 17  1  0  0  0  0
M  END
>  <CHROM.1>
60.99878423,64.07517145,-6.05891684,-25.14417547,33.21743530,0.60898044,-1.16397178
-0.05655420

>  <Name>
ligand

>  <RI>
0

>  <Rbt.Current_Directory>
/home/itssahil/PROJECTS/Mol_Feturizer/New_Systems/rnas/4LVX

>  <Rbt.Executable>
rbdock ($Id: //depot/dev/client3/rdock/2013.1/src/exe/rbdock.cxx#4 $)

>  <Rbt.Library>
libRbt.so (2013.1, Build901 2013/11/27)

>  <Rbt.Parameter_File>
/export/apps/rDock/src/rDock_2013.1_src/data/scripts/dock_solv.prm

>  <Rbt.Receptor>
prm/blind_docking_80.prm

>  <SCORE>
-16.5215

>  <SCORE.INTER>
-9.48986

>  <SCORE.INTER.CONST>
1

>  <SCORE.INTER.POLAR>
0

>  <SCORE.INTER.ROT>
2

>  <SCORE.INTER.SOLV>
10.2613

>  <SCORE.INTER.VDW>
-14.6804

>  <SCORE.INTER.norm>
-0.558227

>  <SCORE.INTRA>
-7.03166

>  <SCORE.INTRA.DIHEDRAL>
-10.1168

>  <SCORE.INTRA.DIHEDRAL.0>
10.3255

>  <SCORE.INTRA.POLAR>
0

>  <SCORE.INTRA.POLAR.0>
0

>  <SCORE.INTRA.REPUL>
0

>  <SCORE.INTRA.REPUL.0>
0

>  <SCORE.INTRA.SOLV>
-0.158678

>  <SCORE.INTRA.SOLV.lig_0>
-53.4755

>  <SCORE.INTRA.VDW>
-1.89393

>  <SCORE.INTRA.VDW.0>
2.32763

>  <SCORE.INTRA.norm>
-0.413627

>  <SCORE.RESTR>
0

>  <SCORE.RESTR.CAVITY>
0

>  <SCORE.RESTR.norm>
0

>  <SCORE.SYSTEM>
0

>  <SCORE.SYSTEM.CONST>
0

>  <SCORE.SYSTEM.DIHEDRAL>
0

>  <SCORE.SYSTEM.SOLV>
0

>  <SCORE.SYSTEM.norm>
0

>  <SCORE.heavy>
17

>  <SCORE.norm>
-0.971854

>  <RMSD>
33.556

$$$$
ligand
 OpenBabel11021811503D
libRbt.so/2013.1/901 2013/11/27
 17 18  0  0  0  0  0  0  0  0999 V2000
   -5.6485  -22.5782   34.0251 N   0  0  0  0  0  0  0  0  0  0  0  0
   -5.4047  -22.5628   35.4043 C   0  0  0  0  0  0  0  0  0  0  0  0
   -5.4844  -21.3258   36.1260 N   0  0  0  0  0  0  0  0  0  0  0  0
   -5.0962  -23.7166   36.0919 N   0  0  0  0  0  0  0  0  0  0  0  0
   -5.0108  -24.9302   35.4417 C   0  0  0  0  0  0  0  0  0  0  0  0
   -5.2438  -25.0043   34.0326 C   0  0  0  0  0  0  0  0  0  0  0  0
   -4.7359  -25.9378   36.0651 O   0  0  0  0  0  0  0  0  0  0  0  0
   -5.1577  -26.2696   33.3078 N   0  0  0  0  0  0  0  0  0  0  0  0
   -5.5837  -26.3342   31.9556 C   0  0  2  0  0  0  0  0  0  0  0  0
   -5.4200  -24.9952   31.1882 C   0  0  0  0  0  0  0  0  0  0  0  0
   -5.5677  -23.7990   33.3398 C   0  0  0  0  0  0  0  0  0  0  0  0
   -5.8152  -23.8508   31.8870 N   0  0  0  0  0  0  0  0  0  0  0  0
   -7.0021  -26.8741   31.9343 C   0  0  1  0  0  0  0  0  0  0  0  0
   -7.8649  -25.9972   32.5612 O   0  0  0  0  0  0  0  0  0  0  0  0
   -7.4432  -27.1250   30.5233 C   0  0  1  0  0  0  0  0  0  0  0  0
   -6.7077  -28.0954   29.9628 O   0  0  0  0  0  0  0  0  0  0  0  0
   -8.9250  -27.5540   30.4714 C   0  0  0  0  0  0  0  0  0  0  0  0
  1  2  2  0  0  0  0
  1 11  1  0  0  0  0
  2  3  1  0  0  0  0
  2  4  1  0  0  0  0
  4  5  1  0  0  0  0
  5  6  1  0  0  0  0
  5  7  2  0  0  0  0
  6  8  1  0  0  0  0
  6 11  2  0  0  0  0
  9  8  1  1  0  0  0
  9 10  1  0  0  0  0
  9 13  1  0  0  0  0
 10 12  1  0  0  0  0
 11 12  1  0  0  0  0
 13 14  1  6  0  0  0
 13 15  1  0  0  0  0
 15 16  1  1  0  0  0
 15 17  1  0  0  0  0
M  END
>  <CHROM.1>
64.51288374,64.89560492,-6.04566877,-25.17971880,33.15005053,0.68924846,-1.13990804
0.03201188

>  <Name>
ligand

>  <RI>
0

>  <Rbt.Current_Directory>
/home/itssahil/PROJECTS/Mol_Feturizer/New_Systems/rnas/4LVX

>  <Rbt.Executable>
rbdock ($Id: //depot/dev/client3/rdock/2013.1/src/exe/rbdock.cxx#4 $)

>  <Rbt.Library>
libRbt.so (2013.1, Build901 2013/11/27)

>  <Rbt.Parameter_File>
/export/apps/rDock/src/rDock_2013.1_src/data/scripts/dock_solv.prm

>  <Rbt.Receptor>
prm/blind_docking_80.prm

>  <SCORE>
-16.4627

>  <SCORE.INTER>
-9.38975

>  <SCORE.INTER.CONST>
1

>  <SCORE.INTER.POLAR>
0

>  <SCORE.INTER.ROT>
2

>  <SCORE.INTER.SOLV>
10.4967

>  <SCORE.INTER.VDW>
-14.6921

>  <SCORE.INTER.norm>
-0.552338

>  <SCORE.INTRA>
-7.07298

>  <SCORE.INTRA.DIHEDRAL>
-10.0261

>  <SCORE.INTRA.DIHEDRAL.0>
10.3255

>  <SCORE.INTRA.POLAR>
0

>  <SCORE.INTRA.POLAR.0>
0

>  <SCORE.INTRA.REPUL>
0

>  <SCORE.INTRA.REPUL.0>
0

>  <SCORE.INTRA.SOLV>
-0.180241

>  <SCORE.INTRA.SOLV.lig_0>
-53.4755

>  <SCORE.INTRA.VDW>
-1.96979

>  <SCORE.INTRA.VDW.0>
2.32763

>  <SCORE.INTRA.norm>
-0.416058

>  <SCORE.RESTR>
0

>  <SCORE.RESTR.CAVITY>
0

>  <SCORE.RESTR.norm>
0

>  <SCORE.SYSTEM>
0

>  <SCORE.SYSTEM.CONST>
0

>  <SCORE.SYSTEM.DIHEDRAL>
0

>  <SCORE.SYSTEM.SOLV>
0

>  <SCORE.SYSTEM.norm>
0

>  <SCORE.heavy>
17

>  <SCORE.norm>
-0.968396

>  <RMSD>
33.564

$$$$
ligand
 OpenBabel11021811503D
libRbt.so/2013.1/901 2013/11/27
 17 18  0  0  0  0  0  0  0  0999 V2000
   -5.1898  -22.4843   34.2988 N   0  0  0  0  0  0  0  0  0  0  0  0
   -5.2433  -22.3274   35.6897 C   0  0  0  0  0  0  0  0  0  0  0  0
   -5.2137  -21.0108   36.2578 N   0  0  0  0  0  0  0  0  0  0  0  0
   -5.3330  -23.4146   36.5319 N   0  0  0  0  0  0  0  0  0  0  0  0
   -5.3673  -24.6999   36.0321 C   0  0  0  0  0  0  0  0  0  0  0  0
   -5.3093  -24.9198   34.6202 C   0  0  0  0  0  0  0  0  0  0  0  0
   -5.4451  -25.6472   36.7911 O   0  0  0  0  0  0  0  0  0  0  0  0
   -5.3380  -26.2657   34.0532 N   0  0  0  0  0  0  0  0  0  0  0  0
   -5.4744  -26.4335   32.6505 C   0  0  2  0  0  0  0  0  0  0  0  0
   -4.8784  -25.2628   31.8241 C   0  0  0  0  0  0  0  0  0  0  0  0
   -5.2226  -23.7804   33.7647 C   0  0  0  0  0  0  0  0  0  0  0  0
   -5.1647  -23.9819   32.3051 N   0  0  0  0  0  0  0  0  0  0  0  0
   -6.9372  -26.7035   32.3489 C   0  0  1  0  0  0  0  0  0  0  0  0
   -7.7219  -25.6459   32.7639 O   0  0  0  0  0  0  0  0  0  0  0  0
   -7.1294  -26.9554   30.8833 C   0  0  1  0  0  0  0  0  0  0  0  0
   -6.4179  -28.0208   30.4888 O   0  0  0  0  0  0  0  0  0  0  0  0
   -8.6140  -27.2202   30.5540 C   0  0  0  0  0  0  0  0  0  0  0  0
  1  2  2  0  0  0  0
  1 11  1  0  0  0  0
  2  3  1  0  0  0  0
  2  4  1  0  0  0  0
  4  5  1  0  0  0  0
  5  6  1  0  0  0  0
  5  7  2  0  0  0  0
  6  8  1  0  0  0  0
  6 11  2  0  0  0  0
  9  8  1  1  0  0  0
  9 10  1  0  0  0  0
  9 13  1  0  0  0  0
 10 12  1  0  0  0  0
 11 12  1  0  0  0  0
 13 14  1  6  0  0  0
 13 15  1  0  0  0  0
 15 16  1  1  0  0  0
 15 17  1  0  0  0  0
M  END
>  <CHROM.1>
60.21874139,60.30904394,-5.92310059,-25.04789159,33.59150862,-0.20478538
-1.27832768,-0.92600488

>  <Name>
ligand

>  <RI>
0

>  <Rbt.Current_Directory>
/home/itssahil/PROJECTS/Mol_Feturizer/New_Systems/rnas/4LVX

>  <Rbt.Executable>
rbdock ($Id: //depot/dev/client3/rdock/2013.1/src/exe/rbdock.cxx#4 $)

>  <Rbt.Library>
libRbt.so (2013.1, Build901 2013/11/27)

>  <Rbt.Parameter_File>
/export/apps/rDock/src/rDock_2013.1_src/data/scripts/dock_solv.prm

>  <Rbt.Receptor>
prm/blind_docking_60.prm

>  <SCORE>
-16.0857

>  <SCORE.INTER>
-8.94889

>  <SCORE.INTER.CONST>
1

>  <SCORE.INTER.POLAR>
0

>  <SCORE.INTER.ROT>
2

>  <SCORE.INTER.SOLV>
9.74595

>  <SCORE.INTER.VDW>
-14.1479

>  <SCORE.INTER.norm>
-0.526405

>  <SCORE.INTRA>
-7.13677

>  <SCORE.INTRA.DIHEDRAL>
-10.1738

>  <SCORE.INTRA.DIHEDRAL.0>
10.3255

>  <SCORE.INTRA.POLAR>
0

>  <SCORE.INTRA.POLAR.0>
0

>  <SCORE.INTRA.REPUL>
0

>  <SCORE.INTRA.REPUL.0>
0

>  <SCORE.INTRA.SOLV>
-0.133772

>  <SCORE.INTRA.SOLV.lig_0>
-53.4755

>  <SCORE.INTRA.VDW>
-1.98299

>  <SCORE.INTRA.VDW.0>
2.32763

>  <SCORE.INTRA.norm>
-0.41981

>  <SCORE.RESTR>
0

>  <SCORE.RESTR.CAVITY>
0

>  <SCORE.RESTR.norm>
0

>  <SCORE.SYSTEM>
0

>  <SCORE.SYSTEM.CONST>
0

>  <SCORE.SYSTEM.DIHEDRAL>
0

>  <SCORE.SYSTEM.SOLV>
0

>  <SCORE.SYSTEM.norm>
0

>  <SCORE.heavy>
17

>  <SCORE.norm>
-0.946215

>  <RMSD>
33.567

$$$$
ligand
 OpenBabel11021811503D
libRbt.so/2013.1/901 2013/11/27
 17 18  0  0  0  0  0  0  0  0999 V2000
   -5.6422  -22.5426   34.0599 N   0  0  0  0  0  0  0  0  0  0  0  0
   -5.4085  -22.5066   35.4406 C   0  0  0  0  0  0  0  0  0  0  0  0
   -5.4685  -21.2552   36.1388 N   0  0  0  0  0  0  0  0  0  0  0  0
   -5.1286  -23.6535   36.1516 N   0  0  0  0  0  0  0  0  0  0  0  0
   -5.0629  -24.8804   35.5243 C   0  0  0  0  0  0  0  0  0  0  0  0
   -5.2868  -24.9757   34.1150 C   0  0  0  0  0  0  0  0  0  0  0  0
   -4.8132  -25.8816   36.1681 O   0  0  0  0  0  0  0  0  0  0  0  0
   -5.2209  -26.2557   33.4142 N   0  0  0  0  0  0  0  0  0  0  0  0
   -5.6381  -26.3366   32.0600 C   0  0  2  0  0  0  0  0  0  0  0  0
   -5.4415  -25.0155   31.2696 C   0  0  0  0  0  0  0  0  0  0  0  0
   -5.5811  -23.7771   33.3978 C   0  0  0  0  0  0  0  0  0  0  0  0
   -5.8187  -23.8508   31.9443 N   0  0  0  0  0  0  0  0  0  0  0  0
   -7.0669  -26.8481   32.0375 C   0  0  1  0  0  0  0  0  0  0  0  0
   -7.9120  -25.9561   32.6672 O   0  0  0  0  0  0  0  0  0  0  0  0
   -7.5132  -27.0859   30.6259 C   0  0  1  0  0  0  0  0  0  0  0  0
   -6.7771  -28.0483   30.0524 O   0  0  0  0  0  0  0  0  0  0  0  0
   -8.9939  -27.5190   30.5758 C   0  0  0  0  0  0  0  0  0  0  0  0
  1  2  2  0  0  0  0
  1 11  1  0  0  0  0
  2  3  1  0  0  0  0
  2  4  1  0  0  0  0
  4  5  1  0  0  0  0
  5  6  1  0  0  0  0
  5  7  2  0  0  0  0
  6  8  1  0  0  0  0
  6 11  2  0  0  0  0
  9  8  1  1  0  0  0
  9 10  1  0  0  0  0
  9 13  1  0  0  0  0
 10 12  1  0  0  0  0
 11 12  1  0  0  0  0
 13 14  1  6  0  0  0
 13 15  1  0  0  0  0
 15 16  1  1  0  0  0
 15 17  1  0  0  0  0
M  END
>  <CHROM.1>
63.20808592,63.50096825,-6.08549339,-25.14635792,33.22877557,0.62211495,-1.15299000
-0.04687920

>  <Name>
ligand

>  <RI>
0

>  <Rbt.Current_Directory>
/home/itssahil/PROJECTS/Mol_Feturizer/New_Systems/rnas/4LVX

>  <Rbt.Executable>
rbdock ($Id: //depot/dev/client3/rdock/2013.1/src/exe/rbdock.cxx#4 $)

>  <Rbt.Library>
libRbt.so (2013.1, Build901 2013/11/27)

>  <Rbt.Parameter_File>
/export/apps/rDock/src/rDock_2013.1_src/data/scripts/dock_solv.prm

>  <Rbt.Receptor>
prm/blind_docking_80.prm

>  <SCORE>
-16.5798

>  <SCORE.INTER>
-9.46588

>  <SCORE.INTER.CONST>
1

>  <SCORE.INTER.POLAR>
0

>  <SCORE.INTER.ROT>
2

>  <SCORE.INTER.SOLV>
10.1094

>  <SCORE.INTER.VDW>
-14.6137

>  <SCORE.INTER.norm>
-0.556816

>  <SCORE.INTRA>
-7.11389

>  <SCORE.INTRA.DIHEDRAL>
-10.1008

>  <SCORE.INTRA.DIHEDRAL.0>
10.3255

>  <SCORE.INTRA.POLAR>
0

>  <SCORE.INTRA.POLAR.0>
0

>  <SCORE.INTRA.REPUL>
0

>  <SCORE.INTRA.REPUL.0>
0

>  <SCORE.INTRA.SOLV>
-0.166276

>  <SCORE.INTRA.SOLV.lig_0>
-53.4755

>  <SCORE.INTRA.VDW>
-1.98035

>  <SCORE.INTRA.VDW.0>
2.32763

>  <SCORE.INTRA.norm>
-0.418464

>  <SCORE.RESTR>
0

>  <SCORE.RESTR.CAVITY>
0

>  <SCORE.RESTR.norm>
0

>  <SCORE.SYSTEM>
0

>  <SCORE.SYSTEM.CONST>
0

>  <SCORE.SYSTEM.DIHEDRAL>
0

>  <SCORE.SYSTEM.SOLV>
0

>  <SCORE.SYSTEM.norm>
0

>  <SCORE.heavy>
17

>  <SCORE.norm>
-0.975281

>  <RMSD>
33.567

$$$$
ligand
 OpenBabel11021811503D
libRbt.so/2013.1/901 2013/11/27
 17 18  0  0  0  0  0  0  0  0999 V2000
   -5.6663  -22.5741   34.0112 N   0  0  0  0  0  0  0  0  0  0  0  0
   -5.4334  -22.5455   35.3921 C   0  0  0  0  0  0  0  0  0  0  0  0
   -5.5092  -21.3002   36.0997 N   0  0  0  0  0  0  0  0  0  0  0  0
   -5.1392  -23.6941   36.0947 N   0  0  0  0  0  0  0  0  0  0  0  0
   -5.0580  -24.9153   35.4582 C   0  0  0  0  0  0  0  0  0  0  0  0
   -5.2803  -25.0030   34.0482 C   0  0  0  0  0  0  0  0  0  0  0  0
   -4.7959  -25.9181   36.0947 O   0  0  0  0  0  0  0  0  0  0  0  0
   -5.1982  -26.2767   33.3379 N   0  0  0  0  0  0  0  0  0  0  0  0
   -5.6139  -26.3528   31.9830 C   0  0  2  0  0  0  0  0  0  0  0  0
   -5.4338  -25.0234   31.2026 C   0  0  0  0  0  0  0  0  0  0  0  0
   -5.5894  -23.8028   33.3399 C   0  0  0  0  0  0  0  0  0  0  0  0
   -5.8257  -23.8686   31.8858 N   0  0  0  0  0  0  0  0  0  0  0  0
   -7.0362  -26.8820   31.9562 C   0  0  1  0  0  0  0  0  0  0  0  0
   -7.8941  -26.0011   32.5842 O   0  0  0  0  0  0  0  0  0  0  0  0
   -7.4756  -27.1244   30.5432 C   0  0  1  0  0  0  0  0  0  0  0  0
   -6.7568  -28.1093   29.9862 O   0  0  0  0  0  0  0  0  0  0  0  0
   -8.9653  -27.5240   30.4843 C   0  0  0  0  0  0  0  0  0  0  0  0
  1  2  2  0  0  0  0
  1 11  1  0  0  0  0
  2  3  1  0  0  0  0
  2  4  1  0  0  0  0
  4  5  1  0  0  0  0
  5  6  1  0  0  0  0
  5  7  2  0  0  0  0
  6  8  1  0  0  0  0
  6 11  2  0  0  0  0
  9  8  1  1  0  0  0
  9 10  1  0  0  0  0
  9 13  1  0  0  0  0
 10 12  1  0  0  0  0
 11 12  1  0  0  0  0
 13 14  1  6  0  0  0
 13 15  1  0  0  0  0
 15 16  1  1  0  0  0
 15 17  1  0  0  0  0
M  END
>  <CHROM.1>
63.62128438,65.65178585,-6.07893795,-25.17763551,33.16130771,0.66878552,-1.14671637
0.00545432

>  <Name>
ligand

>  <RI>
0

>  <Rbt.Current_Directory>
/home/itssahil/PROJECTS/Mol_Feturizer/New_Systems/rnas/4LVX

>  <Rbt.Executable>
rbdock ($Id: //depot/dev/client3/rdock/2013.1/src/exe/rbdock.cxx#4 $)

>  <Rbt.Library>
libRbt.so (2013.1, Build901 2013/11/27)

>  <Rbt.Parameter_File>
/export/apps/rDock/src/rDock_2013.1_src/data/scripts/dock_solv.prm

>  <Rbt.Receptor>
prm/blind_docking_80.prm

>  <SCORE>
-16.5216

>  <SCORE.INTER>
-9.49924

>  <SCORE.INTER.CONST>
1

>  <SCORE.INTER.POLAR>
0

>  <SCORE.INTER.ROT>
2

>  <SCORE.INTER.SOLV>
10.3732

>  <SCORE.INTER.VDW>
-14.7239

>  <SCORE.INTER.norm>
-0.558779

>  <SCORE.INTRA>
-7.02236

>  <SCORE.INTRA.DIHEDRAL>
-10.023

>  <SCORE.INTRA.DIHEDRAL.0>
10.3255

>  <SCORE.INTRA.POLAR>
0

>  <SCORE.INTRA.POLAR.0>
0

>  <SCORE.INTRA.REPUL>
0

>  <SCORE.INTRA.REPUL.0>
0

>  <SCORE.INTRA.SOLV>
-0.180104

>  <SCORE.INTRA.SOLV.lig_0>
-53.4755

>  <SCORE.INTRA.VDW>
-1.9208

>  <SCORE.INTRA.VDW.0>
2.32763

>  <SCORE.INTRA.norm>
-0.41308

>  <SCORE.RESTR>
0

>  <SCORE.RESTR.CAVITY>
0

>  <SCORE.RESTR.norm>
0

>  <SCORE.SYSTEM>
0

>  <SCORE.SYSTEM.CONST>
0

>  <SCORE.SYSTEM.DIHEDRAL>
0

>  <SCORE.SYSTEM.SOLV>
0

>  <SCORE.SYSTEM.norm>
0

>  <SCORE.heavy>
17

>  <SCORE.norm>
-0.971859

>  <RMSD>
33.572

$$$$
ligand
 OpenBabel11021811503D
libRbt.so/2013.1/901 2013/11/27
 17 18  0  0  0  0  0  0  0  0999 V2000
   -5.5934  -22.5874   33.9654 N   0  0  0  0  0  0  0  0  0  0  0  0
   -5.3798  -22.5392   35.3489 C   0  0  0  0  0  0  0  0  0  0  0  0
   -5.4335  -21.2795   36.0326 N   0  0  0  0  0  0  0  0  0  0  0  0
   -5.1256  -23.6818   36.0764 N   0  0  0  0  0  0  0  0  0  0  0  0
   -5.0669  -24.9162   35.4635 C   0  0  0  0  0  0  0  0  0  0  0  0
   -5.2711  -25.0242   34.0521 C   0  0  0  0  0  0  0  0  0  0  0  0
   -4.8400  -25.9135   36.1219 O   0  0  0  0  0  0  0  0  0  0  0  0
   -5.2117  -26.3126   33.3663 N   0  0  0  0  0  0  0  0  0  0  0  0
   -5.6097  -26.4030   32.0070 C   0  0  2  0  0  0  0  0  0  0  0  0
   -5.3840  -25.0934   31.2054 C   0  0  0  0  0  0  0  0  0  0  0  0
   -5.5387  -23.8299   33.3176 C   0  0  0  0  0  0  0  0  0  0  0  0
   -5.7557  -23.9165   31.8617 N   0  0  0  0  0  0  0  0  0  0  0  0
   -7.0447  -26.8960   31.9686 C   0  0  1  0  0  0  0  0  0  0  0  0
   -7.8826  -26.0020   32.6050 O   0  0  0  0  0  0  0  0  0  0  0  0
   -7.4848  -27.1092   30.5511 C   0  0  1  0  0  0  0  0  0  0  0  0
   -6.7720  -28.0882   29.9762 O   0  0  0  0  0  0  0  0  0  0  0  0
   -8.9770  -27.4982   30.4842 C   0  0  0  0  0  0  0  0  0  0  0  0
  1  2  2  0  0  0  0
  1 11  1  0  0  0  0
  2  3  1  0  0  0  0
  2  4  1  0  0  0  0
  4  5  1  0  0  0  0
  5  6  1  0  0  0  0
  5  7  2  0  0  0  0
  6  8  1  0  0  0  0
  6 11  2  0  0  0  0
  9  8  1  1  0  0  0
  9 10  1  0  0  0  0
  9 13  1  0  0  0  0
 10 12  1  0  0  0  0
 11 12  1  0  0  0  0
 13 14  1  6  0  0  0
 13 15  1  0  0  0  0
 15 16  1  1  0  0  0
 15 17  1  0  0  0  0
M  END
>  <CHROM.1>
61.72571568,64.51699763,-6.06229186,-25.18723062,33.15605363,0.58155521,-1.16542601
-0.09053511

>  <Name>
ligand

>  <RI>
0

>  <Rbt.Current_Directory>
/home/itssahil/PROJECTS/Mol_Feturizer/New_Systems/rnas/4LVX

>  <Rbt.Executable>
rbdock ($Id: //depot/dev/client3/rdock/2013.1/src/exe/rbdock.cxx#4 $)

>  <Rbt.Library>
libRbt.so (2013.1, Build901 2013/11/27)

>  <Rbt.Parameter_File>
/export/apps/rDock/src/rDock_2013.1_src/data/scripts/dock_solv.prm

>  <Rbt.Receptor>
prm/blind_docking_60.prm

>  <SCORE>
-16.5505

>  <SCORE.INTER>
-9.51565

>  <SCORE.INTER.CONST>
1

>  <SCORE.INTER.POLAR>
0

>  <SCORE.INTER.ROT>
2

>  <SCORE.INTER.SOLV>
10.5282

>  <SCORE.INTER.VDW>
-14.7865

>  <SCORE.INTER.norm>
-0.559744

>  <SCORE.INTRA>
-7.03488

>  <SCORE.INTRA.DIHEDRAL>
-10.0972

>  <SCORE.INTRA.DIHEDRAL.0>
10.3255

>  <SCORE.INTRA.POLAR>
0

>  <SCORE.INTRA.POLAR.0>
0

>  <SCORE.INTRA.REPUL>
0

>  <SCORE.INTRA.REPUL.0>
0

>  <SCORE.INTRA.SOLV>
-0.16468

>  <SCORE.INTRA.SOLV.lig_0>
-53.4755

>  <SCORE.INTRA.VDW>
-1.90393

>  <SCORE.INTRA.VDW.0>
2.32763

>  <SCORE.INTRA.norm>
-0.413817

>  <SCORE.RESTR>
0

>  <SCORE.RESTR.CAVITY>
0

>  <SCORE.RESTR.norm>
0

>  <SCORE.SYSTEM>
0

>  <SCORE.SYSTEM.CONST>
0

>  <SCORE.SYSTEM.DIHEDRAL>
0

>  <SCORE.SYSTEM.SOLV>
0

>  <SCORE.SYSTEM.norm>
0

>  <SCORE.heavy>
17

>  <SCORE.norm>
-0.973561

>  <RMSD>
33.579

$$$$
ligand
 OpenBabel11021811503D
libRbt.so/2013.1/901 2013/11/27
 17 18  0  0  0  0  0  0  0  0999 V2000
   -5.6497  -22.5976   33.9765 N   0  0  0  0  0  0  0  0  0  0  0  0
   -5.4187  -22.5661   35.3577 C   0  0  0  0  0  0  0  0  0  0  0  0
   -5.4933  -21.3190   36.0621 N   0  0  0  0  0  0  0  0  0  0  0  0
   -5.1275  -23.7135   36.0633 N   0  0  0  0  0  0  0  0  0  0  0  0
   -5.0475  -24.9364   35.4300 C   0  0  0  0  0  0  0  0  0  0  0  0
   -5.2681  -25.0271   34.0199 C   0  0  0  0  0  0  0  0  0  0  0  0
   -4.7880  -25.9381   36.0692 O   0  0  0  0  0  0  0  0  0  0  0  0
   -5.1872  -26.3027   33.3127 N   0  0  0  0  0  0  0  0  0  0  0  0
   -5.6013  -26.3813   31.9575 C   0  0  2  0  0  0  0  0  0  0  0  0
   -5.4178  -25.0541   31.1741 C   0  0  0  0  0  0  0  0  0  0  0  0
   -5.5741  -23.8281   33.3082 C   0  0  0  0  0  0  0  0  0  0  0  0
   -5.8086  -23.8969   31.8540 N   0  0  0  0  0  0  0  0  0  0  0  0
   -7.0244  -26.9080   31.9300 C   0  0  1  0  0  0  0  0  0  0  0  0
   -7.8811  -26.0259   32.5581 O   0  0  0  0  0  0  0  0  0  0  0  0
   -7.4639  -27.1491   30.5167 C   0  0  1  0  0  0  0  0  0  0  0  0
   -6.7373  -28.1256   29.9551 O   0  0  0  0  0  0  0  0  0  0  0  0
   -8.9501  -27.5615   30.4587 C   0  0  0  0  0  0  0  0  0  0  0  0
  1  2  2  0  0  0  0
  1 11  1  0  0  0  0
  2  3  1  0  0  0  0
  2  4  1  0  0  0  0
  4  5  1  0  0  0  0
  5  6  1  0  0  0  0
  5  7  2  0  0  0  0
  6  8  1  0  0  0  0
  6 11  2  0  0  0  0
  9  8  1  1  0  0  0
  9 10  1  0  0  0  0
  9 13  1  0  0  0  0
 10 12  1  0  0  0  0
 11 12  1  0  0  0  0
 13 14  1  6  0  0  0
 13 15  1  0  0  0  0
 15 16  1  1  0  0  0
 15 17  1  0  0  0  0
M  END
>  <CHROM.1>
63.44787864,65.01530772,-6.06523187,-25.20207436,33.13205828,0.65962421,-1.15013465
-0.00585634

>  <Name>
ligand

>  <RI>
0

>  <Rbt.Current_Directory>
/home/itssahil/PROJECTS/Mol_Feturizer/New_Systems/rnas/4LVX

>  <Rbt.Executable>
rbdock ($Id: //depot/dev/client3/rdock/2013.1/src/exe/rbdock.cxx#4 $)

>  <Rbt.Library>
libRbt.so (2013.1, Build901 2013/11/27)

>  <Rbt.Parameter_File>
/export/apps/rDock/src/rDock_2013.1_src/data/scripts/dock_solv.prm

>  <Rbt.Receptor>
prm/blind_docking_60.prm

>  <SCORE>
-16.5714

>  <SCORE.INTER>
-9.51976

>  <SCORE.INTER.CONST>
1

>  <SCORE.INTER.POLAR>
0

>  <SCORE.INTER.ROT>
2

>  <SCORE.INTER.SOLV>
10.5365

>  <SCORE.INTER.VDW>
-14.792

>  <SCORE.INTER.norm>
-0.559986

>  <SCORE.INTRA>
-7.05165

>  <SCORE.INTRA.DIHEDRAL>
-10.0508

>  <SCORE.INTRA.DIHEDRAL.0>
10.3255

>  <SCORE.INTRA.POLAR>
0

>  <SCORE.INTRA.POLAR.0>
0

>  <SCORE.INTRA.REPUL>
0

>  <SCORE.INTRA.REPUL.0>
0

>  <SCORE.INTRA.SOLV>
-0.175771

>  <SCORE.INTRA.SOLV.lig_0>
-53.4755

>  <SCORE.INTRA.VDW>
-1.93835

>  <SCORE.INTRA.VDW.0>
2.32763

>  <SCORE.INTRA.norm>
-0.414803

>  <SCORE.RESTR>
0

>  <SCORE.RESTR.CAVITY>
0

>  <SCORE.RESTR.norm>
0

>  <SCORE.SYSTEM>
0

>  <SCORE.SYSTEM.CONST>
0

>  <SCORE.SYSTEM.DIHEDRAL>
0

>  <SCORE.SYSTEM.SOLV>
0

>  <SCORE.SYSTEM.norm>
0

>  <SCORE.heavy>
17

>  <SCORE.norm>
-0.974789

>  <RMSD>
33.583

$$$$
ligand
 OpenBabel11021811503D
libRbt.so/2013.1/901 2013/11/27
 17 18  0  0  0  0  0  0  0  0999 V2000
    2.5115  -28.4101   17.0979 N   0  0  0  0  0  0  0  0  0  0  0  0
    3.9082  -28.4874   17.1712 C   0  0  0  0  0  0  0  0  0  0  0  0
    4.5225  -29.5352   17.9340 N   0  0  0  0  0  0  0  0  0  0  0  0
    4.7129  -27.5799   16.5169 N   0  0  0  0  0  0  0  0  0  0  0  0
    4.1681  -26.5567   15.7691 C   0  0  0  0  0  0  0  0  0  0  0  0
    2.7479  -26.4256   15.6642 C   0  0  0  0  0  0  0  0  0  0  0  0
    4.8944  -25.7644   15.1997 O   0  0  0  0  0  0  0  0  0  0  0  0
    2.1334  -25.3528   14.8861 N   0  0  0  0  0  0  0  0  0  0  0  0
    0.7344  -25.3713   14.6480 C   0  0  2  0  0  0  0  0  0  0  0  0
   -0.0776  -26.0696   15.7712 C   0  0  0  0  0  0  0  0  0  0  0  0
    1.9320  -27.3790   16.3446 C   0  0  0  0  0  0  0  0  0  0  0  0
    0.4649  -27.2661   16.2487 N   0  0  0  0  0  0  0  0  0  0  0  0
    0.4991  -25.9668   13.2719 C   0  0  1  0  0  0  0  0  0  0  0  0
   -0.8521  -26.0322   12.9956 O   0  0  0  0  0  0  0  0  0  0  0  0
    1.2096  -25.1602   12.2264 C   0  0  1  0  0  0  0  0  0  0  0  0
    1.1929  -23.8573   12.5412 O   0  0  0  0  0  0  0  0  0  0  0  0
    2.6819  -25.6024   12.0876 C   0  0  0  0  0  0  0  0  0  0  0  0
  1  2  2  0  0  0  0
  1 11  1  0  0  0  0
  2  3  1  0  0  0  0
  2  4  1  0  0  0  0
  4  5  1  0  0  0  0
  5  6  1  0  0  0  0
  5  7  2  0  0  0  0
  6  8  1  0  0  0  0
  6 11  2  0  0  0  0
  9  8  1  1  0  0  0
  9 10  1  0  0  0  0
  9 13  1  0  0  0  0
 10 12  1  0  0  0  0
 11 12  1  0  0  0  0
 13 14  1  6  0  0  0
 13 15  1  0  0  0  0
 15 16  1  1  0  0  0
 15 17  1  0  0  0  0
M  END
>  <CHROM.1>
178.90731458,-35.38720231,2.17317005,-26.47065572,15.01148457,0.99713619
0.03286221,2.22362636

>  <Name>
ligand

>  <RI>
0

>  <Rbt.Current_Directory>
/home/itssahil/PROJECTS/Mol_Feturizer/New_Systems/rnas/4LVX

>  <Rbt.Executable>
rbdock ($Id: //depot/dev/client3/rdock/2013.1/src/exe/rbdock.cxx#4 $)

>  <Rbt.Library>
libRbt.so (2013.1, Build901 2013/11/27)

>  <Rbt.Parameter_File>
/export/apps/rDock/src/rDock_2013.1_src/data/scripts/dock_solv.prm

>  <Rbt.Receptor>
prm/blind_docking_40.prm

>  <SCORE>
-14.4219

>  <SCORE.INTER>
-9.02834

>  <SCORE.INTER.CONST>
1

>  <SCORE.INTER.POLAR>
0

>  <SCORE.INTER.ROT>
2

>  <SCORE.INTER.SOLV>
12.5357

>  <SCORE.INTER.VDW>
-15.1308

>  <SCORE.INTER.norm>
-0.531079

>  <SCORE.INTRA>
-5.39358

>  <SCORE.INTRA.DIHEDRAL>
-8.26204

>  <SCORE.INTRA.DIHEDRAL.0>
10.3255

>  <SCORE.INTRA.POLAR>
0

>  <SCORE.INTRA.POLAR.0>
0

>  <SCORE.INTRA.REPUL>
0

>  <SCORE.INTRA.REPUL.0>
0

>  <SCORE.INTRA.SOLV>
0.44152

>  <SCORE.INTRA.SOLV.lig_0>
-53.4755

>  <SCORE.INTRA.VDW>
-1.48332

>  <SCORE.INTRA.VDW.0>
2.32763

>  <SCORE.INTRA.norm>
-0.31727

>  <SCORE.RESTR>
0

>  <SCORE.RESTR.CAVITY>
0

>  <SCORE.RESTR.norm>
0

>  <SCORE.SYSTEM>
0

>  <SCORE.SYSTEM.CONST>
0

>  <SCORE.SYSTEM.DIHEDRAL>
0

>  <SCORE.SYSTEM.SOLV>
0

>  <SCORE.SYSTEM.norm>
0

>  <SCORE.heavy>
17

>  <SCORE.norm>
-0.848349

>  <RMSD>
33.619

$$$$
ligand
 OpenBabel11021811503D
libRbt.so/2013.1/901 2013/11/27
 17 18  0  0  0  0  0  0  0  0999 V2000
    2.5322  -28.4160   17.0961 N   0  0  0  0  0  0  0  0  0  0  0  0
    3.9291  -28.4880   17.1696 C   0  0  0  0  0  0  0  0  0  0  0  0
    4.5474  -29.5348   17.9306 N   0  0  0  0  0  0  0  0  0  0  0  0
    4.7304  -27.5762   16.5171 N   0  0  0  0  0  0  0  0  0  0  0  0
    4.1818  -26.5537   15.7711 C   0  0  0  0  0  0  0  0  0  0  0  0
    2.7611  -26.4280   15.6661 C   0  0  0  0  0  0  0  0  0  0  0  0
    4.9051  -25.7575   15.2033 O   0  0  0  0  0  0  0  0  0  0  0  0
    2.1426  -25.3562   14.8899 N   0  0  0  0  0  0  0  0  0  0  0  0
    0.7437  -25.3797   14.6514 C   0  0  2  0  0  0  0  0  0  0  0  0
   -0.0658  -26.0833   15.7732 C   0  0  0  0  0  0  0  0  0  0  0  0
    1.9488  -27.3859   16.3446 C   0  0  0  0  0  0  0  0  0  0  0  0
    0.4813  -27.2786   16.2485 N   0  0  0  0  0  0  0  0  0  0  0  0
    0.5111  -25.9737   13.2742 C   0  0  1  0  0  0  0  0  0  0  0  0
   -0.8402  -26.0552   13.0023 O   0  0  0  0  0  0  0  0  0  0  0  0
    1.2077  -25.1547   12.2289 C   0  0  1  0  0  0  0  0  0  0  0  0
    1.1801  -23.8537   12.5506 O   0  0  0  0  0  0  0  0  0  0  0  0
    2.6834  -25.5817   12.0794 C   0  0  0  0  0  0  0  0  0  0  0  0
  1  2  2  0  0  0  0
  1 11  1  0  0  0  0
  2  3  1  0  0  0  0
  2  4  1  0  0  0  0
  4  5  1  0  0  0  0
  5  6  1  0  0  0  0
  5  7  2  0  0  0  0
  6  8  1  0  0  0  0
  6 11  2  0  0  0  0
  9  8  1  1  0  0  0
  9 10  1  0  0  0  0
  9 13  1  0  0  0  0
 10 12  1  0  0  0  0
 11 12  1  0  0  0  0
 13 14  1  6  0  0  0
 13 15  1  0  0  0  0
 15 16  1  1  0  0  0
 15 17  1  0  0  0  0
M  END
>  <CHROM.1>
178.35821304,-35.15561673,2.18433225,-26.47293320,15.01292612,0.99483316
0.03715167,2.22650472

>  <Name>
ligand

>  <RI>
0

>  <Rbt.Current_Directory>
/home/itssahil/PROJECTS/Mol_Feturizer/New_Systems/rnas/4LVX

>  <Rbt.Executable>
rbdock ($Id: //depot/dev/client3/rdock/2013.1/src/exe/rbdock.cxx#4 $)

>  <Rbt.Library>
libRbt.so (2013.1, Build901 2013/11/27)

>  <Rbt.Parameter_File>
/export/apps/rDock/src/rDock_2013.1_src/data/scripts/dock_solv.prm

>  <Rbt.Receptor>
prm/blind_docking_40.prm

>  <SCORE>
-14.404

>  <SCORE.INTER>
-9.00205

>  <SCORE.INTER.CONST>
1

>  <SCORE.INTER.POLAR>
0

>  <SCORE.INTER.ROT>
2

>  <SCORE.INTER.SOLV>
12.5018

>  <SCORE.INTER.VDW>
-15.102

>  <SCORE.INTER.norm>
-0.529532

>  <SCORE.INTRA>
-5.40192

>  <SCORE.INTRA.DIHEDRAL>
-8.22515

>  <SCORE.INTRA.DIHEDRAL.0>
10.3255

>  <SCORE.INTRA.POLAR>
0

>  <SCORE.INTRA.POLAR.0>
0

>  <SCORE.INTRA.REPUL>
0

>  <SCORE.INTRA.REPUL.0>
0

>  <SCORE.INTRA.SOLV>
0.436127

>  <SCORE.INTRA.SOLV.lig_0>
-53.4755

>  <SCORE.INTRA.VDW>
-1.50741

>  <SCORE.INTRA.VDW.0>
2.32763

>  <SCORE.INTRA.norm>
-0.31776

>  <SCORE.RESTR>
0

>  <SCORE.RESTR.CAVITY>
0

>  <SCORE.RESTR.norm>
0

>  <SCORE.SYSTEM>
0

>  <SCORE.SYSTEM.CONST>
0

>  <SCORE.SYSTEM.DIHEDRAL>
0

>  <SCORE.SYSTEM.SOLV>
0

>  <SCORE.SYSTEM.norm>
0

>  <SCORE.heavy>
17

>  <SCORE.norm>
-0.847293

>  <RMSD>
33.623

$$$$
ligand
 OpenBabel11021811503D
libRbt.so/2013.1/901 2013/11/27
 17 18  0  0  0  0  0  0  0  0999 V2000
    0.7436  -25.0829   12.6818 N   0  0  0  0  0  0  0  0  0  0  0  0
   -0.5778  -25.0660   12.2174 C   0  0  0  0  0  0  0  0  0  0  0  0
   -0.8549  -24.6310   10.8791 N   0  0  0  0  0  0  0  0  0  0  0  0
   -1.6253  -25.4679   13.0177 N   0  0  0  0  0  0  0  0  0  0  0  0
   -1.4079  -25.8969   14.3107 C   0  0  0  0  0  0  0  0  0  0  0  0
   -0.0796  -25.9290   14.8395 C   0  0  0  0  0  0  0  0  0  0  0  0
   -2.3452  -26.2465   15.0026 O   0  0  0  0  0  0  0  0  0  0  0  0
    0.1903  -26.3720   16.2051 N   0  0  0  0  0  0  0  0  0  0  0  0
    1.5308  -26.5735   16.6255 C   0  0  2  0  0  0  0  0  0  0  0  0
    2.5542  -25.6634   15.8952 C   0  0  0  0  0  0  0  0  0  0  0  0
    0.9921  -25.5142   13.9927 C   0  0  0  0  0  0  0  0  0  0  0  0
    2.3709  -25.5416   14.5148 N   0  0  0  0  0  0  0  0  0  0  0  0
    1.8442  -28.0537   16.5055 C   0  0  1  0  0  0  0  0  0  0  0  0
    2.1108  -28.3888   15.1928 O   0  0  0  0  0  0  0  0  0  0  0  0
    3.0044  -28.4138   17.3845 C   0  0  1  0  0  0  0  0  0  0  0  0
    2.7884  -28.0076   18.6436 O   0  0  0  0  0  0  0  0  0  0  0  0
    3.2349  -29.9399   17.4046 C   0  0  0  0  0  0  0  0  0  0  0  0
  1  2  2  0  0  0  0
  1 11  1  0  0  0  0
  2  3  1  0  0  0  0
  2  4  1  0  0  0  0
  4  5  1  0  0  0  0
  5  6  1  0  0  0  0
  5  7  2  0  0  0  0
  6  8  1  0  0  0  0
  6 11  2  0  0  0  0
  9  8  1  6  0  0  0
  9 10  1  0  0  0  0
  9 13  1  0  0  0  0
 10 12  1  0  0  0  0
 11 12  1  0  0  0  0
 13 14  1  6  0  0  0
 13 15  1  0  0  0  0
 15 16  1  1  0  0  0
 15 17  1  0  0  0  0
M  END
>  <CHROM.1>
78.73682243,53.17163524,0.88405439,-26.57472249,15.07829661,-2.14298883,-0.07249281
2.12518784

>  <Name>
ligand

>  <RI>
0

>  <Rbt.Current_Directory>
/home/itssahil/PROJECTS/Mol_Feturizer/New_Systems/rnas/4LVX

>  <Rbt.Executable>
rbdock ($Id: //depot/dev/client3/rdock/2013.1/src/exe/rbdock.cxx#4 $)

>  <Rbt.Library>
libRbt.so (2013.1, Build901 2013/11/27)

>  <Rbt.Parameter_File>
/export/apps/rDock/src/rDock_2013.1_src/data/scripts/dock_solv.prm

>  <Rbt.Receptor>
prm/blind_docking_40.prm

>  <SCORE>
-14.7844

>  <SCORE.INTER>
-8.00641

>  <SCORE.INTER.CONST>
1

>  <SCORE.INTER.POLAR>
0

>  <SCORE.INTER.ROT>
2

>  <SCORE.INTER.SOLV>
13.9451

>  <SCORE.INTER.VDW>
-14.9193

>  <SCORE.INTER.norm>
-0.470965

>  <SCORE.INTRA>
-6.7989

>  <SCORE.INTRA.DIHEDRAL>
-8.86672

>  <SCORE.INTRA.DIHEDRAL.0>
10.3255

>  <SCORE.INTRA.POLAR>
0

>  <SCORE.INTRA.POLAR.0>
0

>  <SCORE.INTRA.REPUL>
0

>  <SCORE.INTRA.REPUL.0>
0

>  <SCORE.INTRA.SOLV>
-0.188775

>  <SCORE.INTRA.SOLV.lig_0>
-53.4755

>  <SCORE.INTRA.VDW>
-2.27115

>  <SCORE.INTRA.VDW.0>
2.32763

>  <SCORE.INTRA.norm>
-0.399935

>  <SCORE.RESTR>
0.0209256

>  <SCORE.RESTR.CAVITY>
0.0209256

>  <SCORE.RESTR.norm>
0.00123092

>  <SCORE.SYSTEM>
0

>  <SCORE.SYSTEM.CONST>
0

>  <SCORE.SYSTEM.DIHEDRAL>
0

>  <SCORE.SYSTEM.SOLV>
0

>  <SCORE.SYSTEM.norm>
0

>  <SCORE.heavy>
17

>  <SCORE.norm>
-0.86967

>  <RMSD>
33.625

$$$$
ligand
 OpenBabel11021811503D
libRbt.so/2013.1/901 2013/11/27
 17 18  0  0  0  0  0  0  0  0999 V2000
   -6.3427  -22.6229   34.2866 N   0  0  0  0  0  0  0  0  0  0  0  0
   -6.1485  -22.6787   35.6726 C   0  0  0  0  0  0  0  0  0  0  0  0
   -6.6098  -21.6007   36.4986 N   0  0  0  0  0  0  0  0  0  0  0  0
   -5.5279  -23.7557   36.2679 N   0  0  0  0  0  0  0  0  0  0  0  0
   -5.0698  -24.8172   35.5152 C   0  0  0  0  0  0  0  0  0  0  0  0
   -5.2356  -24.8108   34.0948 C   0  0  0  0  0  0  0  0  0  0  0  0
   -4.5233  -25.7584   36.0582 O   0  0  0  0  0  0  0  0  0  0  0  0
   -4.7596  -25.9136   33.2634 N   0  0  0  0  0  0  0  0  0  0  0  0
   -5.1139  -25.9606   31.8899 C   0  0  2  0  0  0  0  0  0  0  0  0
   -5.3368  -24.5608   31.2577 C   0  0  0  0  0  0  0  0  0  0  0  0
   -5.8860  -23.6888   33.4983 C   0  0  0  0  0  0  0  0  0  0  0  0
   -6.0712  -23.6611   32.0356 N   0  0  0  0  0  0  0  0  0  0  0  0
   -6.3068  -26.8875   31.7431 C   0  0  1  0  0  0  0  0  0  0  0  0
   -6.9592  -26.6541   30.5488 O   0  0  0  0  0  0  0  0  0  0  0  0
   -5.8685  -28.3189   31.8301 C   0  0  1  0  0  0  0  0  0  0  0  0
   -4.7595  -28.5193   31.1043 O   0  0  0  0  0  0  0  0  0  0  0  0
   -5.5671  -28.7209   33.2896 C   0  0  0  0  0  0  0  0  0  0  0  0
  1  2  2  0  0  0  0
  1 11  1  0  0  0  0
  2  3  1  0  0  0  0
  2  4  1  0  0  0  0
  4  5  1  0  0  0  0
  5  6  1  0  0  0  0
  5  7  2  0  0  0  0
  6  8  1  0  0  0  0
  6 11  2  0  0  0  0
  9  8  1  1  0  0  0
  9 10  1  0  0  0  0
  9 13  1  0  0  0  0
 10 12  1  0  0  0  0
 11 12  1  0  0  0  0
 13 14  1  6  0  0  0
 13 15  1  0  0  0  0
 15 16  1  6  0  0  0
 15 17  1  0  0  0  0
M  END
>  <CHROM.1>
160.78729335,-44.16063794,-5.64654177,-25.30994064,33.41705514,1.70220507
-1.24519876,0.84972118

>  <Name>
ligand

>  <RI>
0

>  <Rbt.Current_Directory>
/home/itssahil/PROJECTS/Mol_Feturizer/New_Systems/rnas/4LVX

>  <Rbt.Executable>
rbdock ($Id: //depot/dev/client3/rdock/2013.1/src/exe/rbdock.cxx#4 $)

>  <Rbt.Library>
libRbt.so (2013.1, Build901 2013/11/27)

>  <Rbt.Parameter_File>
/export/apps/rDock/src/rDock_2013.1_src/data/scripts/dock_solv.prm

>  <Rbt.Receptor>
prm/blind_docking_60.prm

>  <SCORE>
-13.9621

>  <SCORE.INTER>
-8.65524

>  <SCORE.INTER.CONST>
1

>  <SCORE.INTER.POLAR>
0

>  <SCORE.INTER.ROT>
2

>  <SCORE.INTER.SOLV>
12.3398

>  <SCORE.INTER.VDW>
-14.8168

>  <SCORE.INTER.norm>
-0.509132

>  <SCORE.INTRA>
-5.30731

>  <SCORE.INTRA.DIHEDRAL>
-8.12221

>  <SCORE.INTRA.DIHEDRAL.0>
10.3255

>  <SCORE.INTRA.POLAR>
0

>  <SCORE.INTRA.POLAR.0>
0

>  <SCORE.INTRA.REPUL>
0

>  <SCORE.INTRA.REPUL.0>
0

>  <SCORE.INTRA.SOLV>
0.281385

>  <SCORE.INTRA.SOLV.lig_0>
-53.4755

>  <SCORE.INTRA.VDW>
-1.38689

>  <SCORE.INTRA.VDW.0>
2.32763

>  <SCORE.INTRA.norm>
-0.312194

>  <SCORE.RESTR>
0.000466233

>  <SCORE.RESTR.CAVITY>
0.000466233

>  <SCORE.RESTR.norm>
2.74255e-05

>  <SCORE.SYSTEM>
0

>  <SCORE.SYSTEM.CONST>
0

>  <SCORE.SYSTEM.DIHEDRAL>
0

>  <SCORE.SYSTEM.SOLV>
0

>  <SCORE.SYSTEM.norm>
0

>  <SCORE.heavy>
17

>  <SCORE.norm>
-0.821299

>  <RMSD>
33.626

$$$$
ligand
 OpenBabel11021811503D
libRbt.so/2013.1/901 2013/11/27
 17 18  0  0  0  0  0  0  0  0999 V2000
    0.6529  -25.8910   12.6360 N   0  0  0  0  0  0  0  0  0  0  0  0
   -0.6172  -25.4723   13.0528 C   0  0  0  0  0  0  0  0  0  0  0  0
   -1.6633  -25.3066   12.0857 N   0  0  0  0  0  0  0  0  0  0  0  0
   -0.8910  -25.2219   14.3800 N   0  0  0  0  0  0  0  0  0  0  0  0
    0.0819  -25.3700   15.3467 C   0  0  0  0  0  0  0  0  0  0  0  0
    1.3986  -25.7890   14.9777 C   0  0  0  0  0  0  0  0  0  0  0  0
   -0.1781  -25.1430   16.5130 O   0  0  0  0  0  0  0  0  0  0  0  0
    2.4567  -25.9522   15.9713 N   0  0  0  0  0  0  0  0  0  0  0  0
    3.6863  -26.5528   15.5949 C   0  0  2  0  0  0  0  0  0  0  0  0
    4.0579  -26.3259   14.1052 C   0  0  0  0  0  0  0  0  0  0  0  0
    1.6602  -26.0489   13.5987 C   0  0  0  0  0  0  0  0  0  0  0  0
    3.0096  -26.4851   13.1943 N   0  0  0  0  0  0  0  0  0  0  0  0
    3.6348  -28.0175   15.9892 C   0  0  1  0  0  0  0  0  0  0  0  0
    4.8394  -28.6359   15.7190 O   0  0  0  0  0  0  0  0  0  0  0  0
    3.2895  -28.1544   17.4420 C   0  0  1  0  0  0  0  0  0  0  0  0
    2.0071  -27.8283   17.6565 O   0  0  0  0  0  0  0  0  0  0  0  0
    3.5057  -29.6022   17.9314 C   0  0  0  0  0  0  0  0  0  0  0  0
  1  2  2  0  0  0  0
  1 11  1  0  0  0  0
  2  3  1  0  0  0  0
  2  4  1  0  0  0  0
  4  5  1  0  0  0  0
  5  6  1  0  0  0  0
  5  7  2  0  0  0  0
  6  8  1  0  0  0  0
  6 11  2  0  0  0  0
  9  8  1  6  0  0  0
  9 10  1  0  0  0  0
  9 13  1  0  0  0  0
 10 12  1  0  0  0  0
 11 12  1  0  0  0  0
 13 14  1  1  0  0  0
 13 15  1  0  0  0  0
 15 16  1  6  0  0  0
 15 17  1  0  0  0  0
M  END
>  <CHROM.1>
-176.39301597,71.14685186,1.85614078,-26.62378836,15.13461300,-2.41191594
-0.41340225,1.87087877

>  <Name>
ligand

>  <RI>
0

>  <Rbt.Current_Directory>
/home/itssahil/PROJECTS/Mol_Feturizer/New_Systems/rnas/4LVX

>  <Rbt.Executable>
rbdock ($Id: //depot/dev/client3/rdock/2013.1/src/exe/rbdock.cxx#4 $)

>  <Rbt.Library>
libRbt.so (2013.1, Build901 2013/11/27)

>  <Rbt.Parameter_File>
/export/apps/rDock/src/rDock_2013.1_src/data/scripts/dock_solv.prm

>  <Rbt.Receptor>
prm/blind_docking_80.prm

>  <SCORE>
-15.8651

>  <SCORE.INTER>
-9.55452

>  <SCORE.INTER.CONST>
1

>  <SCORE.INTER.POLAR>
0

>  <SCORE.INTER.ROT>
2

>  <SCORE.INTER.SOLV>
11.2473

>  <SCORE.INTER.VDW>
-15.0521

>  <SCORE.INTER.norm>
-0.562031

>  <SCORE.INTRA>
-6.31057

>  <SCORE.INTRA.DIHEDRAL>
-9.70396

>  <SCORE.INTRA.DIHEDRAL.0>
10.3255

>  <SCORE.INTRA.POLAR>
0

>  <SCORE.INTRA.POLAR.0>
0

>  <SCORE.INTRA.REPUL>
0

>  <SCORE.INTRA.REPUL.0>
0

>  <SCORE.INTRA.SOLV>
0.0421285

>  <SCORE.INTRA.SOLV.lig_0>
-53.4755

>  <SCORE.INTRA.VDW>
-1.47965

>  <SCORE.INTRA.VDW.0>
2.32763

>  <SCORE.INTRA.norm>
-0.37121

>  <SCORE.RESTR>
0

>  <SCORE.RESTR.CAVITY>
0

>  <SCORE.RESTR.norm>
0

>  <SCORE.SYSTEM>
0

>  <SCORE.SYSTEM.CONST>
0

>  <SCORE.SYSTEM.DIHEDRAL>
0

>  <SCORE.SYSTEM.SOLV>
0

>  <SCORE.SYSTEM.norm>
0

>  <SCORE.heavy>
17

>  <SCORE.norm>
-0.933241

>  <RMSD>
33.634

$$$$
ligand
 OpenBabel11021811503D
libRbt.so/2013.1/901 2013/11/27
 17 18  0  0  0  0  0  0  0  0999 V2000
    2.5100  -28.6552   16.9442 N   0  0  0  0  0  0  0  0  0  0  0  0
    3.9024  -28.5980   17.0858 C   0  0  0  0  0  0  0  0  0  0  0  0
    4.5987  -29.6874   17.7067 N   0  0  0  0  0  0  0  0  0  0  0  0
    4.6265  -27.5166   16.6324 N   0  0  0  0  0  0  0  0  0  0  0  0
    4.0014  -26.4465   16.0263 C   0  0  0  0  0  0  0  0  0  0  0  0
    2.5809  -26.4482   15.8608 C   0  0  0  0  0  0  0  0  0  0  0  0
    4.6570  -25.5002   15.6337 O   0  0  0  0  0  0  0  0  0  0  0  0
    1.8824  -25.3318   15.2288 N   0  0  0  0  0  0  0  0  0  0  0  0
    0.5052  -25.4561   14.9094 C   0  0  2  0  0  0  0  0  0  0  0  0
   -0.2687  -26.4102   15.8578 C   0  0  0  0  0  0  0  0  0  0  0  0
    1.8499  -27.5802   16.3320 C   0  0  0  0  0  0  0  0  0  0  0  0
    0.3845  -27.6061   16.1697 N   0  0  0  0  0  0  0  0  0  0  0  0
    0.3944  -25.8383   13.4447 C   0  0  1  0  0  0  0  0  0  0  0  0
   -0.9173  -26.1123   13.1121 O   0  0  0  0  0  0  0  0  0  0  0  0
    0.9372  -24.7420   12.5775 C   0  0  1  0  0  0  0  0  0  0  0  0
    2.2393  -24.5427   12.8257 O   0  0  0  0  0  0  0  0  0  0  0  0
    0.7803  -25.0868   11.0811 C   0  0  0  0  0  0  0  0  0  0  0  0
  1  2  2  0  0  0  0
  1 11  1  0  0  0  0
  2  3  1  0  0  0  0
  2  4  1  0  0  0  0
  4  5  1  0  0  0  0
  5  6  1  0  0  0  0
  5  7  2  0  0  0  0
  6  8  1  0  0  0  0
  6 11  2  0  0  0  0
  9  8  1  1  0  0  0
  9 10  1  0  0  0  0
  9 13  1  0  0  0  0
 10 12  1  0  0  0  0
 11 12  1  0  0  0  0
 13 14  1  6  0  0  0
 13 15  1  0  0  0  0
 15 16  1  1  0  0  0
 15 17  1  0  0  0  0
M  END
>  <CHROM.1>
173.62548325,62.15058891,2.01462044,-26.51706096,15.07090748,0.97646441,0.16122864
2.28851058

>  <Name>
ligand

>  <RI>
0

>  <Rbt.Current_Directory>
/home/itssahil/PROJECTS/Mol_Feturizer/New_Systems/rnas/4LVX

>  <Rbt.Executable>
rbdock ($Id: //depot/dev/client3/rdock/2013.1/src/exe/rbdock.cxx#4 $)

>  <Rbt.Library>
libRbt.so (2013.1, Build901 2013/11/27)

>  <Rbt.Parameter_File>
/export/apps/rDock/src/rDock_2013.1_src/data/scripts/dock_solv.prm

>  <Rbt.Receptor>
prm/blind_docking_40.prm

>  <SCORE>
-15.8463

>  <SCORE.INTER>
-9.09959

>  <SCORE.INTER.CONST>
1

>  <SCORE.INTER.POLAR>
0

>  <SCORE.INTER.ROT>
2

>  <SCORE.INTER.SOLV>
13.7498

>  <SCORE.INTER.VDW>
-15.583

>  <SCORE.INTER.norm>
-0.53527

>  <SCORE.INTRA>
-6.74672

>  <SCORE.INTRA.DIHEDRAL>
-10.0141

>  <SCORE.INTRA.DIHEDRAL.0>
10.3255

>  <SCORE.INTRA.POLAR>
0

>  <SCORE.INTRA.POLAR.0>
0

>  <SCORE.INTRA.REPUL>
0

>  <SCORE.INTRA.REPUL.0>
0

>  <SCORE.INTRA.SOLV>
0.00378685

>  <SCORE.INTRA.SOLV.lig_0>
-53.4755

>  <SCORE.INTRA.VDW>
-1.74158

>  <SCORE.INTRA.VDW.0>
2.32763

>  <SCORE.INTRA.norm>
-0.396866

>  <SCORE.RESTR>
0

>  <SCORE.RESTR.CAVITY>
0

>  <SCORE.RESTR.norm>
0

>  <SCORE.SYSTEM>
0

>  <SCORE.SYSTEM.CONST>
0

>  <SCORE.SYSTEM.DIHEDRAL>
0

>  <SCORE.SYSTEM.SOLV>
0

>  <SCORE.SYSTEM.norm>
0

>  <SCORE.heavy>
17

>  <SCORE.norm>
-0.932136

>  <RMSD>
33.648

$$$$
ligand
 OpenBabel11021811503D
libRbt.so/2013.1/901 2013/11/27
 17 18  0  0  0  0  0  0  0  0999 V2000
    2.6277  -28.7181   16.8617 N   0  0  0  0  0  0  0  0  0  0  0  0
    4.0211  -28.6302   16.9741 C   0  0  0  0  0  0  0  0  0  0  0  0
    4.7596  -29.7269   17.5301 N   0  0  0  0  0  0  0  0  0  0  0  0
    4.7063  -27.5111   16.5529 N   0  0  0  0  0  0  0  0  0  0  0  0
    4.0398  -26.4325   16.0094 C   0  0  0  0  0  0  0  0  0  0  0  0
    2.6163  -26.4647   15.8762 C   0  0  0  0  0  0  0  0  0  0  0  0
    4.6614  -25.4527   15.6444 O   0  0  0  0  0  0  0  0  0  0  0  0
    1.8746  -25.3406   15.3104 N   0  0  0  0  0  0  0  0  0  0  0  0
    0.4938  -25.4873   15.0170 C   0  0  2  0  0  0  0  0  0  0  0  0
   -0.2326  -26.5024   15.9394 C   0  0  0  0  0  0  0  0  0  0  0  0
    1.9259  -27.6352   16.3130 C   0  0  0  0  0  0  0  0  0  0  0  0
    0.4582  -27.6930   16.1829 N   0  0  0  0  0  0  0  0  0  0  0  0
    0.3580  -25.8078   13.5397 C   0  0  1  0  0  0  0  0  0  0  0  0
   -0.9497  -26.1242   13.2296 O   0  0  0  0  0  0  0  0  0  0  0  0
    0.8284  -24.6507   12.7100 C   0  0  1  0  0  0  0  0  0  0  0  0
    2.1297  -24.4116   12.9255 O   0  0  0  0  0  0  0  0  0  0  0  0
    0.6338  -24.9299   11.2045 C   0  0  0  0  0  0  0  0  0  0  0  0
  1  2  2  0  0  0  0
  1 11  1  0  0  0  0
  2  3  1  0  0  0  0
  2  4  1  0  0  0  0
  4  5  1  0  0  0  0
  5  6  1  0  0  0  0
  5  7  2  0  0  0  0
  6  8  1  0  0  0  0
  6 11  2  0  0  0  0
  9  8  1  1  0  0  0
  9 10  1  0  0  0  0
  9 13  1  0  0  0  0
 10 12  1  0  0  0  0
 11 12  1  0  0  0  0
 13 14  1  1  0  0  0
 13 15  1  0  0  0  0
 15 16  1  6  0  0  0
 15 17  1  0  0  0  0
M  END
>  <CHROM.1>
172.59417275,62.59621696,2.02840623,-26.51219952,15.09655554,0.94028364,0.16841758
2.34189398

>  <Name>
ligand

>  <RI>
0

>  <Rbt.Current_Directory>
/home/itssahil/PROJECTS/Mol_Feturizer/New_Systems/rnas/4LVX

>  <Rbt.Executable>
rbdock ($Id: //depot/dev/client3/rdock/2013.1/src/exe/rbdock.cxx#4 $)

>  <Rbt.Library>
libRbt.so (2013.1, Build901 2013/11/27)

>  <Rbt.Parameter_File>
/export/apps/rDock/src/rDock_2013.1_src/data/scripts/dock_solv.prm

>  <Rbt.Receptor>
prm/blind_docking_60.prm

>  <SCORE>
-15.8769

>  <SCORE.INTER>
-9.12957

>  <SCORE.INTER.CONST>
1

>  <SCORE.INTER.POLAR>
0

>  <SCORE.INTER.ROT>
2

>  <SCORE.INTER.SOLV>
13.8345

>  <SCORE.INTER.VDW>
-15.6312

>  <SCORE.INTER.norm>
-0.537033

>  <SCORE.INTRA>
-6.74734

>  <SCORE.INTRA.DIHEDRAL>
-9.95745

>  <SCORE.INTRA.DIHEDRAL.0>
10.3255

>  <SCORE.INTRA.POLAR>
0

>  <SCORE.INTRA.POLAR.0>
0

>  <SCORE.INTRA.REPUL>
0

>  <SCORE.INTRA.REPUL.0>
0

>  <SCORE.INTRA.SOLV>
-0.0148846

>  <SCORE.INTRA.SOLV.lig_0>
-53.4755

>  <SCORE.INTRA.VDW>
-1.76117

>  <SCORE.INTRA.VDW.0>
2.32763

>  <SCORE.INTRA.norm>
-0.396902

>  <SCORE.RESTR>
0

>  <SCORE.RESTR.CAVITY>
0

>  <SCORE.RESTR.norm>
0

>  <SCORE.SYSTEM>
0

>  <SCORE.SYSTEM.CONST>
0

>  <SCORE.SYSTEM.DIHEDRAL>
0

>  <SCORE.SYSTEM.SOLV>
0

>  <SCORE.SYSTEM.norm>
0

>  <SCORE.heavy>
17

>  <SCORE.norm>
-0.933935

>  <RMSD>
33.652

$$$$
ligand
 OpenBabel11021811503D
libRbt.so/2013.1/901 2013/11/27
 17 18  0  0  0  0  0  0  0  0999 V2000
   -5.3591  -27.7494   33.1087 N   0  0  0  0  0  0  0  0  0  0  0  0
   -5.4822  -27.9184   31.7236 C   0  0  0  0  0  0  0  0  0  0  0  0
   -5.7273  -29.2256   31.1865 N   0  0  0  0  0  0  0  0  0  0  0  0
   -5.3813  -26.8507   30.8581 N   0  0  0  0  0  0  0  0  0  0  0  0
   -5.1488  -25.5746   31.3278 C   0  0  0  0  0  0  0  0  0  0  0  0
   -5.0085  -25.3442   32.7323 C   0  0  0  0  0  0  0  0  0  0  0  0
   -5.0614  -24.6448   30.5486 O   0  0  0  0  0  0  0  0  0  0  0  0
   -4.7568  -24.0085   33.2676 N   0  0  0  0  0  0  0  0  0  0  0  0
   -4.8175  -23.7912   34.6688 C   0  0  2  0  0  0  0  0  0  0  0  0
   -4.4389  -25.0406   35.5080 C   0  0  0  0  0  0  0  0  0  0  0  0
   -5.1221  -26.4623   33.6123 C   0  0  0  0  0  0  0  0  0  0  0  0
   -4.9841  -26.2490   35.0649 N   0  0  0  0  0  0  0  0  0  0  0  0
   -6.1899  -23.2336   34.9995 C   0  0  1  0  0  0  0  0  0  0  0  0
   -6.2158  -22.7399   36.2887 O   0  0  0  0  0  0  0  0  0  0  0  0
   -6.5672  -22.1625   34.0202 C   0  0  1  0  0  0  0  0  0  0  0  0
   -6.7151  -22.6759   32.7908 O   0  0  0  0  0  0  0  0  0  0  0  0
   -7.8947  -21.4846   34.4209 C   0  0  0  0  0  0  0  0  0  0  0  0
  1  2  2  0  0  0  0
  1 11  1  0  0  0  0
  2  3  1  0  0  0  0
  2  4  1  0  0  0  0
  4  5  1  0  0  0  0
  5  6  1  0  0  0  0
  5  7  2  0  0  0  0
  6  8  1  0  0  0  0
  6 11  2  0  0  0  0
  9  8  1  6  0  0  0
  9 10  1  0  0  0  0
  9 13  1  0  0  0  0
 10 12  1  0  0  0  0
 11 12  1  0  0  0  0
 13 14  1  1  0  0  0
 13 15  1  0  0  0  0
 15 16  1  6  0  0  0
 15 17  1  0  0  0  0
M  END
>  <CHROM.1>
-167.33748211,65.51863241,-5.61111810,-24.93121321,33.32085634,-0.95143986
-1.24241374,1.15555770

>  <Name>
ligand

>  <RI>
0

>  <Rbt.Current_Directory>
/home/itssahil/PROJECTS/Mol_Feturizer/New_Systems/rnas/4LVX

>  <Rbt.Executable>
rbdock ($Id: //depot/dev/client3/rdock/2013.1/src/exe/rbdock.cxx#4 $)

>  <Rbt.Library>
libRbt.so (2013.1, Build901 2013/11/27)

>  <Rbt.Parameter_File>
/export/apps/rDock/src/rDock_2013.1_src/data/scripts/dock_solv.prm

>  <Rbt.Receptor>
prm/blind_docking_100.prm

>  <SCORE>
-13.3824

>  <SCORE.INTER>
-7.75521

>  <SCORE.INTER.CONST>
1

>  <SCORE.INTER.POLAR>
0

>  <SCORE.INTER.ROT>
2

>  <SCORE.INTER.SOLV>
17.4134

>  <SCORE.INTER.VDW>
-15.9079

>  <SCORE.INTER.norm>
-0.456189

>  <SCORE.INTRA>
-5.62722

>  <SCORE.INTRA.DIHEDRAL>
-9.53716

>  <SCORE.INTRA.DIHEDRAL.0>
10.3255

>  <SCORE.INTRA.POLAR>
0

>  <SCORE.INTRA.POLAR.0>
0

>  <SCORE.INTRA.REPUL>
0

>  <SCORE.INTRA.REPUL.0>
0

>  <SCORE.INTRA.SOLV>
0.256291

>  <SCORE.INTRA.SOLV.lig_0>
-53.4755

>  <SCORE.INTRA.VDW>
-0.986787

>  <SCORE.INTRA.VDW.0>
2.32763

>  <SCORE.INTRA.norm>
-0.331013

>  <SCORE.RESTR>
0

>  <SCORE.RESTR.CAVITY>
0

>  <SCORE.RESTR.norm>
0

>  <SCORE.SYSTEM>
0

>  <SCORE.SYSTEM.CONST>
0

>  <SCORE.SYSTEM.DIHEDRAL>
0

>  <SCORE.SYSTEM.SOLV>
0

>  <SCORE.SYSTEM.norm>
0

>  <SCORE.heavy>
17

>  <SCORE.norm>
-0.787202

>  <RMSD>
33.655

$$$$
ligand
 OpenBabel11021811503D
libRbt.so/2013.1/901 2013/11/27
 17 18  0  0  0  0  0  0  0  0999 V2000
    1.0637  -25.7631   12.5461 N   0  0  0  0  0  0  0  0  0  0  0  0
   -0.2602  -25.4117   12.8392 C   0  0  0  0  0  0  0  0  0  0  0  0
   -1.1957  -25.2127   11.7704 N   0  0  0  0  0  0  0  0  0  0  0  0
   -0.6917  -25.2594   14.1392 N   0  0  0  0  0  0  0  0  0  0  0  0
    0.1705  -25.4429   15.2003 C   0  0  0  0  0  0  0  0  0  0  0  0
    1.5352  -25.7966   14.9598 C   0  0  0  0  0  0  0  0  0  0  0  0
   -0.2281  -25.3027   16.3409 O   0  0  0  0  0  0  0  0  0  0  0  0
    2.4795  -25.9945   16.0566 N   0  0  0  0  0  0  0  0  0  0  0  0
    3.7654  -26.5313   15.7872 C   0  0  2  0  0  0  0  0  0  0  0  0
    4.2944  -26.1938   14.3677 C   0  0  0  0  0  0  0  0  0  0  0  0
    1.9608  -25.9552   13.6066 C   0  0  0  0  0  0  0  0  0  0  0  0
    3.3626  -26.3226   13.3337 N   0  0  0  0  0  0  0  0  0  0  0  0
    3.7245  -28.0202   16.0793 C   0  0  1  0  0  0  0  0  0  0  0  0
    4.9414  -28.6053   15.7909 O   0  0  0  0  0  0  0  0  0  0  0  0
    3.3538  -28.2602   17.5123 C   0  0  1  0  0  0  0  0  0  0  0  0
    2.0811  -27.9048   17.7380 O   0  0  0  0  0  0  0  0  0  0  0  0
    3.5104  -29.7497   17.8857 C   0  0  0  0  0  0  0  0  0  0  0  0
  1  2  2  0  0  0  0
  1 11  1  0  0  0  0
  2  3  1  0  0  0  0
  2  4  1  0  0  0  0
  4  5  1  0  0  0  0
  5  6  1  0  0  0  0
  5  7  2  0  0  0  0
  6  8  1  0  0  0  0
  6 11  2  0  0  0  0
  9  8  1  6  0  0  0
  9 10  1  0  0  0  0
  9 13  1  0  0  0  0
 10 12  1  0  0  0  0
 11 12  1  0  0  0  0
 13 14  1  1  0  0  0
 13 15  1  0  0  0  0
 15 16  1  6  0  0  0
 15 17  1  0  0  0  0
M  END
>  <CHROM.1>
177.98742717,68.26658767,2.02438294,-26.62223736,15.12156008,-2.31706811
-0.36263214,1.94941120

>  <Name>
ligand

>  <RI>
0

>  <Rbt.Current_Directory>
/home/itssahil/PROJECTS/Mol_Feturizer/New_Systems/rnas/4LVX

>  <Rbt.Executable>
rbdock ($Id: //depot/dev/client3/rdock/2013.1/src/exe/rbdock.cxx#4 $)

>  <Rbt.Library>
libRbt.so (2013.1, Build901 2013/11/27)

>  <Rbt.Parameter_File>
/export/apps/rDock/src/rDock_2013.1_src/data/scripts/dock_solv.prm

>  <Rbt.Receptor>
prm/blind_docking_40.prm

>  <SCORE>
-15.8259

>  <SCORE.INTER>
-9.22708

>  <SCORE.INTER.CONST>
1

>  <SCORE.INTER.POLAR>
0

>  <SCORE.INTER.ROT>
2

>  <SCORE.INTER.SOLV>
10.33

>  <SCORE.INTER.VDW>
-14.528

>  <SCORE.INTER.norm>
-0.542769

>  <SCORE.INTRA>
-6.59884

>  <SCORE.INTRA.DIHEDRAL>
-9.92375

>  <SCORE.INTRA.DIHEDRAL.0>
10.3255

>  <SCORE.INTRA.POLAR>
0

>  <SCORE.INTRA.POLAR.0>
0

>  <SCORE.INTRA.REPUL>
0

>  <SCORE.INTRA.REPUL.0>
0

>  <SCORE.INTRA.SOLV>
-0.00460435

>  <SCORE.INTRA.SOLV.lig_0>
-53.4755

>  <SCORE.INTRA.VDW>
-1.63466

>  <SCORE.INTRA.VDW.0>
2.32763

>  <SCORE.INTRA.norm>
-0.388167

>  <SCORE.RESTR>
0

>  <SCORE.RESTR.CAVITY>
0

>  <SCORE.RESTR.norm>
0

>  <SCORE.SYSTEM>
0

>  <SCORE.SYSTEM.CONST>
0

>  <SCORE.SYSTEM.DIHEDRAL>
0

>  <SCORE.SYSTEM.SOLV>
0

>  <SCORE.SYSTEM.norm>
0

>  <SCORE.heavy>
17

>  <SCORE.norm>
-0.930937

>  <RMSD>
33.659

$$$$
ligand
 OpenBabel11021811503D
libRbt.so/2013.1/901 2013/11/27
 17 18  0  0  0  0  0  0  0  0999 V2000
    2.4992  -28.6614   16.9503 N   0  0  0  0  0  0  0  0  0  0  0  0
    3.8928  -28.6219   17.0856 C   0  0  0  0  0  0  0  0  0  0  0  0
    4.5771  -29.7166   17.7107 N   0  0  0  0  0  0  0  0  0  0  0  0
    4.6292  -27.5532   16.6221 N   0  0  0  0  0  0  0  0  0  0  0  0
    4.0160  -26.4788   16.0118 C   0  0  0  0  0  0  0  0  0  0  0  0
    2.5948  -26.4626   15.8522 C   0  0  0  0  0  0  0  0  0  0  0  0
    4.6824  -25.5439   15.6103 O   0  0  0  0  0  0  0  0  0  0  0  0
    1.9086  -25.3410   15.2159 N   0  0  0  0  0  0  0  0  0  0  0  0
    0.5285  -25.4489   14.9031 C   0  0  2  0  0  0  0  0  0  0  0  0
   -0.2540  -26.3865   15.8609 C   0  0  0  0  0  0  0  0  0  0  0  0
    1.8508  -27.5816   16.3338 C   0  0  0  0  0  0  0  0  0  0  0  0
    0.3845  -27.5890   16.1778 N   0  0  0  0  0  0  0  0  0  0  0  0
    0.4064  -25.8391   13.4414 C   0  0  1  0  0  0  0  0  0  0  0  0
   -0.9087  -26.1095   13.1191 O   0  0  0  0  0  0  0  0  0  0  0  0
    0.9479  -24.7501   12.5643 C   0  0  1  0  0  0  0  0  0  0  0  0
    2.2532  -24.5571   12.8005 O   0  0  0  0  0  0  0  0  0  0  0  0
    0.7764  -25.1012   11.0710 C   0  0  0  0  0  0  0  0  0  0  0  0
  1  2  2  0  0  0  0
  1 11  1  0  0  0  0
  2  3  1  0  0  0  0
  2  4  1  0  0  0  0
  4  5  1  0  0  0  0
  5  6  1  0  0  0  0
  5  7  2  0  0  0  0
  6  8  1  0  0  0  0
  6 11  2  0  0  0  0
  9  8  1  1  0  0  0
  9 10  1  0  0  0  0
  9 13  1  0  0  0  0
 10 12  1  0  0  0  0
 11 12  1  0  0  0  0
 13 14  1  6  0  0  0
 13 15  1  0  0  0  0
 15 16  1  1  0  0  0
 15 17  1  0  0  0  0
M  END
>  <CHROM.1>
173.08176629,62.29788131,2.02187800,-26.52795267,15.06493040,0.98166484,0.15041225
2.28297915

>  <Name>
ligand

>  <RI>
0

>  <Rbt.Current_Directory>
/home/itssahil/PROJECTS/Mol_Feturizer/New_Systems/rnas/4LVX

>  <Rbt.Executable>
rbdock ($Id: //depot/dev/client3/rdock/2013.1/src/exe/rbdock.cxx#4 $)

>  <Rbt.Library>
libRbt.so (2013.1, Build901 2013/11/27)

>  <Rbt.Parameter_File>
/export/apps/rDock/src/rDock_2013.1_src/data/scripts/dock_solv.prm

>  <Rbt.Receptor>
prm/blind_docking_40.prm

>  <SCORE>
-15.8572

>  <SCORE.INTER>
-9.10864

>  <SCORE.INTER.CONST>
1

>  <SCORE.INTER.POLAR>
0

>  <SCORE.INTER.ROT>
2

>  <SCORE.INTER.SOLV>
13.6519

>  <SCORE.INTER.VDW>
-15.5564

>  <SCORE.INTER.norm>
-0.535803

>  <SCORE.INTRA>
-6.74858

>  <SCORE.INTRA.DIHEDRAL>
-9.98663

>  <SCORE.INTRA.DIHEDRAL.0>
10.3255

>  <SCORE.INTRA.POLAR>
0

>  <SCORE.INTRA.POLAR.0>
0

>  <SCORE.INTRA.REPUL>
0

>  <SCORE.INTRA.REPUL.0>
0

>  <SCORE.INTRA.SOLV>
-0.00516952

>  <SCORE.INTRA.SOLV.lig_0>
-53.4755

>  <SCORE.INTRA.VDW>
-1.75268

>  <SCORE.INTRA.VDW.0>
2.32763

>  <SCORE.INTRA.norm>
-0.396975

>  <SCORE.RESTR>
0

>  <SCORE.RESTR.CAVITY>
0

>  <SCORE.RESTR.norm>
0

>  <SCORE.SYSTEM>
0

>  <SCORE.SYSTEM.CONST>
0

>  <SCORE.SYSTEM.DIHEDRAL>
0

>  <SCORE.SYSTEM.SOLV>
0

>  <SCORE.SYSTEM.norm>
0

>  <SCORE.heavy>
17

>  <SCORE.norm>
-0.932778

>  <RMSD>
33.660

$$$$
ligand
 OpenBabel11021811503D
libRbt.so/2013.1/901 2013/11/27
 17 18  0  0  0  0  0  0  0  0999 V2000
    0.7745  -25.2014   12.6273 N   0  0  0  0  0  0  0  0  0  0  0  0
   -0.5524  -25.1793   12.1791 C   0  0  0  0  0  0  0  0  0  0  0  0
   -0.8401  -24.7862   10.8300 N   0  0  0  0  0  0  0  0  0  0  0  0
   -1.5956  -25.5367   13.0057 N   0  0  0  0  0  0  0  0  0  0  0  0
   -1.3681  -25.9243   14.3100 C   0  0  0  0  0  0  0  0  0  0  0  0
   -0.0337  -25.9595   14.8231 C   0  0  0  0  0  0  0  0  0  0  0  0
   -2.3017  -26.2349   15.0251 O   0  0  0  0  0  0  0  0  0  0  0  0
    0.2469  -26.3594   16.1997 N   0  0  0  0  0  0  0  0  0  0  0  0
    1.5895  -26.5678   16.6101 C   0  0  2  0  0  0  0  0  0  0  0  0
    2.6173  -25.6998   15.8362 C   0  0  0  0  0  0  0  0  0  0  0  0
    1.0332  -25.5912   13.9491 C   0  0  0  0  0  0  0  0  0  0  0  0
    2.4181  -25.6227   14.4547 N   0  0  0  0  0  0  0  0  0  0  0  0
    1.8782  -28.0560   16.5375 C   0  0  1  0  0  0  0  0  0  0  0  0
    2.1302  -28.4389   15.2351 O   0  0  0  0  0  0  0  0  0  0  0  0
    3.0387  -28.4055   17.4206 C   0  0  1  0  0  0  0  0  0  0  0  0
    2.8132  -28.0044   18.6796 O   0  0  0  0  0  0  0  0  0  0  0  0
    3.2854  -29.9291   17.4383 C   0  0  0  0  0  0  0  0  0  0  0  0
  1  2  2  0  0  0  0
  1 11  1  0  0  0  0
  2  3  1  0  0  0  0
  2  4  1  0  0  0  0
  4  5  1  0  0  0  0
  5  6  1  0  0  0  0
  5  7  2  0  0  0  0
  6  8  1  0  0  0  0
  6 11  2  0  0  0  0
  9  8  1  6  0  0  0
  9 10  1  0  0  0  0
  9 13  1  0  0  0  0
 10 12  1  0  0  0  0
 11 12  1  0  0  0  0
 13 14  1  6  0  0  0
 13 15  1  0  0  0  0
 15 16  1  1  0  0  0
 15 17  1  0  0  0  0
M  END
>  <CHROM.1>
79.08395718,55.79520744,0.92264016,-26.61529441,15.07084377,-2.14605478,-0.10208511
2.08661767

>  <Name>
ligand

>  <RI>
0

>  <Rbt.Current_Directory>
/home/itssahil/PROJECTS/Mol_Feturizer/New_Systems/rnas/4LVX

>  <Rbt.Executable>
rbdock ($Id: //depot/dev/client3/rdock/2013.1/src/exe/rbdock.cxx#4 $)

>  <Rbt.Library>
libRbt.so (2013.1, Build901 2013/11/27)

>  <Rbt.Parameter_File>
/export/apps/rDock/src/rDock_2013.1_src/data/scripts/dock_solv.prm

>  <Rbt.Receptor>
prm/blind_docking_40.prm

>  <SCORE>
-14.9318

>  <SCORE.INTER>
-8.16834

>  <SCORE.INTER.CONST>
1

>  <SCORE.INTER.POLAR>
0

>  <SCORE.INTER.ROT>
2

>  <SCORE.INTER.SOLV>
13.5658

>  <SCORE.INTER.VDW>
-14.9008

>  <SCORE.INTER.norm>
-0.480491

>  <SCORE.INTRA>
-6.8334

>  <SCORE.INTRA.DIHEDRAL>
-8.93707

>  <SCORE.INTRA.DIHEDRAL.0>
10.3255

>  <SCORE.INTRA.POLAR>
0

>  <SCORE.INTRA.POLAR.0>
0

>  <SCORE.INTRA.REPUL>
0

>  <SCORE.INTRA.REPUL.0>
0

>  <SCORE.INTRA.SOLV>
-0.203042

>  <SCORE.INTRA.SOLV.lig_0>
-53.4755

>  <SCORE.INTRA.VDW>
-2.26334

>  <SCORE.INTRA.VDW.0>
2.32763

>  <SCORE.INTRA.norm>
-0.401965

>  <SCORE.RESTR>
0.0699764

>  <SCORE.RESTR.CAVITY>
0.0699764

>  <SCORE.RESTR.norm>
0.00411626

>  <SCORE.SYSTEM>
0

>  <SCORE.SYSTEM.CONST>
0

>  <SCORE.SYSTEM.DIHEDRAL>
0

>  <SCORE.SYSTEM.SOLV>
0

>  <SCORE.SYSTEM.norm>
0

>  <SCORE.heavy>
17

>  <SCORE.norm>
-0.878339

>  <RMSD>
33.669

$$$$
ligand
 OpenBabel11021811503D
libRbt.so/2013.1/901 2013/11/27
 17 18  0  0  0  0  0  0  0  0999 V2000
    0.7722  -25.1995   12.6328 N   0  0  0  0  0  0  0  0  0  0  0  0
   -0.5539  -25.1794   12.1820 C   0  0  0  0  0  0  0  0  0  0  0  0
   -0.8397  -24.7846   10.8330 N   0  0  0  0  0  0  0  0  0  0  0  0
   -1.5980  -25.5404   13.0059 N   0  0  0  0  0  0  0  0  0  0  0  0
   -1.3723  -25.9298   14.3099 C   0  0  0  0  0  0  0  0  0  0  0  0
   -0.0388  -25.9631   14.8257 C   0  0  0  0  0  0  0  0  0  0  0  0
   -2.3066  -26.2436   15.0227 O   0  0  0  0  0  0  0  0  0  0  0  0
    0.2399  -26.3649   16.2021 N   0  0  0  0  0  0  0  0  0  0  0  0
    1.5820  -26.5711   16.6149 C   0  0  2  0  0  0  0  0  0  0  0  0
    2.6096  -25.6997   15.8445 C   0  0  0  0  0  0  0  0  0  0  0  0
    1.0290  -25.5911   13.9545 C   0  0  0  0  0  0  0  0  0  0  0  0
    2.4129  -25.6206   14.4628 N   0  0  0  0  0  0  0  0  0  0  0  0
    1.8740  -28.0587   16.5403 C   0  0  1  0  0  0  0  0  0  0  0  0
    2.1230  -28.4400   15.2368 O   0  0  0  0  0  0  0  0  0  0  0  0
    3.0379  -28.4062   17.4196 C   0  0  1  0  0  0  0  0  0  0  0  0
    2.8165  -28.0037   18.6789 O   0  0  0  0  0  0  0  0  0  0  0  0
    3.2859  -29.9295   17.4383 C   0  0  0  0  0  0  0  0  0  0  0  0
  1  2  2  0  0  0  0
  1 11  1  0  0  0  0
  2  3  1  0  0  0  0
  2  4  1  0  0  0  0
  4  5  1  0  0  0  0
  5  6  1  0  0  0  0
  5  7  2  0  0  0  0
  6  8  1  0  0  0  0
  6 11  2  0  0  0  0
  9  8  1  6  0  0  0
  9 10  1  0  0  0  0
  9 13  1  0  0  0  0
 10 12  1  0  0  0  0
 11 12  1  0  0  0  0
 13 14  1  6  0  0  0
 13 15  1  0  0  0  0
 15 16  1  1  0  0  0
 15 17  1  0  0  0  0
M  END
>  <CHROM.1>
78.79582026,55.65031550,0.91915854,-26.61697762,15.07330522,-2.14620045,-0.09851827
2.08879983

>  <Name>
ligand

>  <RI>
0

>  <Rbt.Current_Directory>
/home/itssahil/PROJECTS/Mol_Feturizer/New_Systems/rnas/4LVX

>  <Rbt.Executable>
rbdock ($Id: //depot/dev/client3/rdock/2013.1/src/exe/rbdock.cxx#4 $)

>  <Rbt.Library>
libRbt.so (2013.1, Build901 2013/11/27)

>  <Rbt.Parameter_File>
/export/apps/rDock/src/rDock_2013.1_src/data/scripts/dock_solv.prm

>  <Rbt.Receptor>
prm/blind_docking_40.prm

>  <SCORE>
-14.9159

>  <SCORE.INTER>
-8.13235

>  <SCORE.INTER.CONST>
1

>  <SCORE.INTER.POLAR>
0

>  <SCORE.INTER.ROT>
2

>  <SCORE.INTER.SOLV>
13.5955

>  <SCORE.INTER.VDW>
-14.8867

>  <SCORE.INTER.norm>
-0.478374

>  <SCORE.INTRA>
-6.85056

>  <SCORE.INTRA.DIHEDRAL>
-8.96457

>  <SCORE.INTRA.DIHEDRAL.0>
10.3255

>  <SCORE.INTRA.POLAR>
0

>  <SCORE.INTRA.POLAR.0>
0

>  <SCORE.INTRA.REPUL>
0

>  <SCORE.INTRA.REPUL.0>
0

>  <SCORE.INTRA.SOLV>
-0.200962

>  <SCORE.INTRA.SOLV.lig_0>
-53.4755

>  <SCORE.INTRA.VDW>
-2.26779

>  <SCORE.INTRA.VDW.0>
2.32763

>  <SCORE.INTRA.norm>
-0.402974

>  <SCORE.RESTR>
0.0669754

>  <SCORE.RESTR.CAVITY>
0.0669754

>  <SCORE.RESTR.norm>
0.00393973

>  <SCORE.SYSTEM>
0

>  <SCORE.SYSTEM.CONST>
0

>  <SCORE.SYSTEM.DIHEDRAL>
0

>  <SCORE.SYSTEM.SOLV>
0

>  <SCORE.SYSTEM.norm>
0

>  <SCORE.heavy>
17

>  <SCORE.norm>
-0.877408

>  <RMSD>
33.670

$$$$
ligand
 OpenBabel11021811503D
libRbt.so/2013.1/901 2013/11/27
 17 18  0  0  0  0  0  0  0  0999 V2000
    0.9547  -25.7705   12.5361 N   0  0  0  0  0  0  0  0  0  0  0  0
   -0.3767  -25.4440   12.8237 C   0  0  0  0  0  0  0  0  0  0  0  0
   -1.3075  -25.2465   11.7505 N   0  0  0  0  0  0  0  0  0  0  0  0
   -0.8200  -25.3149   14.1223 N   0  0  0  0  0  0  0  0  0  0  0  0
    0.0374  -25.4980   15.1874 C   0  0  0  0  0  0  0  0  0  0  0  0
    1.4093  -25.8267   14.9527 C   0  0  0  0  0  0  0  0  0  0  0  0
   -0.3717  -25.3786   16.3266 O   0  0  0  0  0  0  0  0  0  0  0  0
    2.3487  -26.0233   16.0539 N   0  0  0  0  0  0  0  0  0  0  0  0
    3.6450  -26.5360   15.7874 C   0  0  2  0  0  0  0  0  0  0  0  0
    4.1787  -26.1723   14.3761 C   0  0  0  0  0  0  0  0  0  0  0  0
    1.8471  -25.9615   13.6007 C   0  0  0  0  0  0  0  0  0  0  0  0
    3.2566  -26.3030   13.3337 N   0  0  0  0  0  0  0  0  0  0  0  0
    3.6258  -28.0289   16.0606 C   0  0  1  0  0  0  0  0  0  0  0  0
    4.8186  -28.6084   15.6758 O   0  0  0  0  0  0  0  0  0  0  0  0
    3.3609  -28.2896   17.5133 C   0  0  1  0  0  0  0  0  0  0  0  0
    2.1102  -27.9328   17.8379 O   0  0  0  0  0  0  0  0  0  0  0  0
    3.5373  -29.7852   17.8515 C   0  0  0  0  0  0  0  0  0  0  0  0
  1  2  2  0  0  0  0
  1 11  1  0  0  0  0
  2  3  1  0  0  0  0
  2  4  1  0  0  0  0
  4  5  1  0  0  0  0
  5  6  1  0  0  0  0
  5  7  2  0  0  0  0
  6  8  1  0  0  0  0
  6 11  2  0  0  0  0
  9  8  1  6  0  0  0
  9 10  1  0  0  0  0
  9 13  1  0  0  0  0
 10 12  1  0  0  0  0
 11 12  1  0  0  0  0
 13 14  1  1  0  0  0
 13 15  1  0  0  0  0
 15 16  1  6  0  0  0
 15 17  1  0  0  0  0
M  END
>  <CHROM.1>
173.29529345,67.95809022,1.93104299,-26.64560170,15.11178377,-2.32403856
-0.36081024,1.94203657

>  <Name>
ligand

>  <RI>
0

>  <Rbt.Current_Directory>
/home/itssahil/PROJECTS/Mol_Feturizer/New_Systems/rnas/4LVX

>  <Rbt.Executable>
rbdock ($Id: //depot/dev/client3/rdock/2013.1/src/exe/rbdock.cxx#4 $)

>  <Rbt.Library>
libRbt.so (2013.1, Build901 2013/11/27)

>  <Rbt.Parameter_File>
/export/apps/rDock/src/rDock_2013.1_src/data/scripts/dock_solv.prm

>  <Rbt.Receptor>
prm/blind_docking_40.prm

>  <SCORE>
-15.9006

>  <SCORE.INTER>
-9.27606

>  <SCORE.INTER.CONST>
1

>  <SCORE.INTER.POLAR>
0

>  <SCORE.INTER.ROT>
2

>  <SCORE.INTER.SOLV>
10.3963

>  <SCORE.INTER.VDW>
-14.5828

>  <SCORE.INTER.norm>
-0.545651

>  <SCORE.INTRA>
-6.62457

>  <SCORE.INTRA.DIHEDRAL>
-9.7956

>  <SCORE.INTRA.DIHEDRAL.0>
10.3255

>  <SCORE.INTRA.POLAR>
0

>  <SCORE.INTRA.POLAR.0>
0

>  <SCORE.INTRA.REPUL>
0

>  <SCORE.INTRA.REPUL.0>
0

>  <SCORE.INTRA.SOLV>
-0.0611905

>  <SCORE.INTRA.SOLV.lig_0>
-53.4755

>  <SCORE.INTRA.VDW>
-1.69617

>  <SCORE.INTRA.VDW.0>
2.32763

>  <SCORE.INTRA.norm>
-0.38968

>  <SCORE.RESTR>
0

>  <SCORE.RESTR.CAVITY>
0

>  <SCORE.RESTR.norm>
0

>  <SCORE.SYSTEM>
0

>  <SCORE.SYSTEM.CONST>
0

>  <SCORE.SYSTEM.DIHEDRAL>
0

>  <SCORE.SYSTEM.SOLV>
0

>  <SCORE.SYSTEM.norm>
0

>  <SCORE.heavy>
17

>  <SCORE.norm>
-0.935331

>  <RMSD>
33.678

$$$$
ligand
 OpenBabel11021811503D
libRbt.so/2013.1/901 2013/11/27
 17 18  0  0  0  0  0  0  0  0999 V2000
    0.3100  -26.0406   12.5444 N   0  0  0  0  0  0  0  0  0  0  0  0
   -0.9439  -25.6186   13.0046 C   0  0  0  0  0  0  0  0  0  0  0  0
   -2.0368  -25.5027   12.0830 N   0  0  0  0  0  0  0  0  0  0  0  0
   -1.1574  -25.3178   14.3325 N   0  0  0  0  0  0  0  0  0  0  0  0
   -0.1379  -25.4169   15.2565 C   0  0  0  0  0  0  0  0  0  0  0  0
    1.1647  -25.8368   14.8417 C   0  0  0  0  0  0  0  0  0  0  0  0
   -0.3450  -25.1458   16.4240 O   0  0  0  0  0  0  0  0  0  0  0  0
    2.2708  -25.9490   15.7892 N   0  0  0  0  0  0  0  0  0  0  0  0
    3.4884  -26.5516   15.3783 C   0  0  2  0  0  0  0  0  0  0  0  0
    3.7859  -26.3811   13.8647 C   0  0  0  0  0  0  0  0  0  0  0  0
    1.3637  -26.1493   13.4631 C   0  0  0  0  0  0  0  0  0  0  0  0
    2.6976  -26.5875   13.0121 N   0  0  0  0  0  0  0  0  0  0  0  0
    3.4735  -27.9997   15.8325 C   0  0  1  0  0  0  0  0  0  0  0  0
    4.6832  -28.6068   15.5595 O   0  0  0  0  0  0  0  0  0  0  0  0
    3.1635  -28.0835   17.2972 C   0  0  1  0  0  0  0  0  0  0  0  0
    1.8783  -27.7797   17.5272 O   0  0  0  0  0  0  0  0  0  0  0  0
    3.4266  -29.5037   17.8414 C   0  0  0  0  0  0  0  0  0  0  0  0
  1  2  2  0  0  0  0
  1 11  1  0  0  0  0
  2  3  1  0  0  0  0
  2  4  1  0  0  0  0
  4  5  1  0  0  0  0
  5  6  1  0  0  0  0
  5  7  2  0  0  0  0
  6  8  1  0  0  0  0
  6 11  2  0  0  0  0
  9  8  1  6  0  0  0
  9 10  1  0  0  0  0
  9 13  1  0  0  0  0
 10 12  1  0  0  0  0
 11 12  1  0  0  0  0
 13 14  1  1  0  0  0
 13 15  1  0  0  0  0
 15 16  1  6  0  0  0
 15 17  1  0  0  0  0
M  END
>  <CHROM.1>
-174.90318100,71.50794307,1.63313519,-26.66052100,15.00851717,-2.46261738
-0.41091270,1.81663828

>  <Name>
ligand

>  <RI>
0

>  <Rbt.Current_Directory>
/home/itssahil/PROJECTS/Mol_Feturizer/New_Systems/rnas/4LVX

>  <Rbt.Executable>
rbdock ($Id: //depot/dev/client3/rdock/2013.1/src/exe/rbdock.cxx#4 $)

>  <Rbt.Library>
libRbt.so (2013.1, Build901 2013/11/27)

>  <Rbt.Parameter_File>
/export/apps/rDock/src/rDock_2013.1_src/data/scripts/dock_solv.prm

>  <Rbt.Receptor>
prm/blind_docking_40.prm

>  <SCORE>
-15.715

>  <SCORE.INTER>
-9.49289

>  <SCORE.INTER.CONST>
1

>  <SCORE.INTER.POLAR>
0

>  <SCORE.INTER.ROT>
2

>  <SCORE.INTER.SOLV>
11.5211

>  <SCORE.INTER.VDW>
-15.1023

>  <SCORE.INTER.norm>
-0.558405

>  <SCORE.INTRA>
-6.22211

>  <SCORE.INTRA.DIHEDRAL>
-9.63202

>  <SCORE.INTRA.DIHEDRAL.0>
10.3255

>  <SCORE.INTRA.POLAR>
0

>  <SCORE.INTRA.POLAR.0>
0

>  <SCORE.INTRA.REPUL>
0

>  <SCORE.INTRA.REPUL.0>
0

>  <SCORE.INTRA.SOLV>
0.0614002

>  <SCORE.INTRA.SOLV.lig_0>
-53.4755

>  <SCORE.INTRA.VDW>
-1.4368

>  <SCORE.INTRA.VDW.0>
2.32763

>  <SCORE.INTRA.norm>
-0.366006

>  <SCORE.RESTR>
0

>  <SCORE.RESTR.CAVITY>
0

>  <SCORE.RESTR.norm>
0

>  <SCORE.SYSTEM>
0

>  <SCORE.SYSTEM.CONST>
0

>  <SCORE.SYSTEM.DIHEDRAL>
0

>  <SCORE.SYSTEM.SOLV>
0

>  <SCORE.SYSTEM.norm>
0

>  <SCORE.heavy>
17

>  <SCORE.norm>
-0.924412

>  <RMSD>
33.683

$$$$
ligand
 OpenBabel11021811503D
libRbt.so/2013.1/901 2013/11/27
 17 18  0  0  0  0  0  0  0  0999 V2000
    0.9841  -25.7614   12.5194 N   0  0  0  0  0  0  0  0  0  0  0  0
   -0.3500  -25.4347   12.7942 C   0  0  0  0  0  0  0  0  0  0  0  0
   -1.2686  -25.2295   11.7120 N   0  0  0  0  0  0  0  0  0  0  0  0
   -0.8074  -25.3129   14.0886 N   0  0  0  0  0  0  0  0  0  0  0  0
    0.0379  -25.5036   15.1619 C   0  0  0  0  0  0  0  0  0  0  0  0
    1.4118  -25.8329   14.9404 C   0  0  0  0  0  0  0  0  0  0  0  0
   -0.3836  -25.3905   16.2973 O   0  0  0  0  0  0  0  0  0  0  0  0
    2.3387  -26.0375   16.0507 N   0  0  0  0  0  0  0  0  0  0  0  0
    3.6372  -26.5505   15.7955 C   0  0  2  0  0  0  0  0  0  0  0  0
    4.1870  -26.1790   14.3925 C   0  0  0  0  0  0  0  0  0  0  0  0
    1.8644  -25.9602   13.5926 C   0  0  0  0  0  0  0  0  0  0  0  0
    3.2763  -26.3021   13.3392 N   0  0  0  0  0  0  0  0  0  0  0  0
    3.6130  -28.0449   16.0594 C   0  0  1  0  0  0  0  0  0  0  0  0
    4.8114  -28.6228   15.6902 O   0  0  0  0  0  0  0  0  0  0  0  0
    3.3248  -28.3141   17.5061 C   0  0  1  0  0  0  0  0  0  0  0  0
    2.0767  -27.9375   17.8183 O   0  0  0  0  0  0  0  0  0  0  0  0
    3.4696  -29.8158   17.8324 C   0  0  0  0  0  0  0  0  0  0  0  0
  1  2  2  0  0  0  0
  1 11  1  0  0  0  0
  2  3  1  0  0  0  0
  2  4  1  0  0  0  0
  4  5  1  0  0  0  0
  5  6  1  0  0  0  0
  5  7  2  0  0  0  0
  6  8  1  0  0  0  0
  6 11  2  0  0  0  0
  9  8  1  6  0  0  0
  9 10  1  0  0  0  0
  9 13  1  0  0  0  0
 10 12  1  0  0  0  0
 11 12  1  0  0  0  0
 13 14  1  1  0  0  0
 13 15  1  0  0  0  0
 15 16  1  6  0  0  0
 15 17  1  0  0  0  0
M  END
>  <CHROM.1>
173.57966894,66.90765298,1.92829333,-26.65231640,15.10012685,-2.31180850
-0.35750271,1.95267178

>  <Name>
ligand

>  <RI>
0

>  <Rbt.Current_Directory>
/home/itssahil/PROJECTS/Mol_Feturizer/New_Systems/rnas/4LVX

>  <Rbt.Executable>
rbdock ($Id: //depot/dev/client3/rdock/2013.1/src/exe/rbdock.cxx#4 $)

>  <Rbt.Library>
libRbt.so (2013.1, Build901 2013/11/27)

>  <Rbt.Parameter_File>
/export/apps/rDock/src/rDock_2013.1_src/data/scripts/dock_solv.prm

>  <Rbt.Receptor>
prm/blind_docking_40.prm

>  <SCORE>
-15.9298

>  <SCORE.INTER>
-9.26214

>  <SCORE.INTER.CONST>
1

>  <SCORE.INTER.POLAR>
0

>  <SCORE.INTER.ROT>
2

>  <SCORE.INTER.SOLV>
10.1663

>  <SCORE.INTER.VDW>
-14.4968

>  <SCORE.INTER.norm>
-0.544832

>  <SCORE.INTRA>
-6.66761

>  <SCORE.INTRA.DIHEDRAL>
-9.86305

>  <SCORE.INTRA.DIHEDRAL.0>
10.3255

>  <SCORE.INTRA.POLAR>
0

>  <SCORE.INTRA.POLAR.0>
0

>  <SCORE.INTRA.REPUL>
0

>  <SCORE.INTRA.REPUL.0>
0

>  <SCORE.INTRA.SOLV>
-0.0460377

>  <SCORE.INTRA.SOLV.lig_0>
-53.4755

>  <SCORE.INTRA.VDW>
-1.71307

>  <SCORE.INTRA.VDW.0>
2.32763

>  <SCORE.INTRA.norm>
-0.392213

>  <SCORE.RESTR>
0

>  <SCORE.RESTR.CAVITY>
0

>  <SCORE.RESTR.norm>
0

>  <SCORE.SYSTEM>
0

>  <SCORE.SYSTEM.CONST>
0

>  <SCORE.SYSTEM.DIHEDRAL>
0

>  <SCORE.SYSTEM.SOLV>
0

>  <SCORE.SYSTEM.norm>
0

>  <SCORE.heavy>
17

>  <SCORE.norm>
-0.937044

>  <RMSD>
33.689

$$$$
ligand
 OpenBabel11021811503D
libRbt.so/2013.1/901 2013/11/27
 17 18  0  0  0  0  0  0  0  0999 V2000
    2.6418  -28.3972   17.1879 N   0  0  0  0  0  0  0  0  0  0  0  0
    4.0162  -28.6668   17.1724 C   0  0  0  0  0  0  0  0  0  0  0  0
    4.5397  -29.7348   17.9740 N   0  0  0  0  0  0  0  0  0  0  0  0
    4.8835  -27.9314   16.3937 N   0  0  0  0  0  0  0  0  0  0  0  0
    4.4265  -26.8966   15.6042 C   0  0  0  0  0  0  0  0  0  0  0  0
    3.0337  -26.5727   15.5856 C   0  0  0  0  0  0  0  0  0  0  0  0
    5.2073  -26.2577   14.9247 O   0  0  0  0  0  0  0  0  0  0  0  0
    2.5123  -25.4811   14.7668 N   0  0  0  0  0  0  0  0  0  0  0  0
    1.1096  -25.3174   14.6262 C   0  0  2  0  0  0  0  0  0  0  0  0
    0.3004  -25.8122   15.8548 C   0  0  0  0  0  0  0  0  0  0  0  0
    2.1512  -27.3501   16.3946 C   0  0  0  0  0  0  0  0  0  0  0  0
    0.7102  -27.0369   16.3896 N   0  0  0  0  0  0  0  0  0  0  0  0
    0.6880  -25.9692   13.3220 C   0  0  1  0  0  0  0  0  0  0  0  0
   -0.6883  -26.0361   13.2351 O   0  0  0  0  0  0  0  0  0  0  0  0
    1.2509  -25.2132   12.1557 C   0  0  1  0  0  0  0  0  0  0  0  0
    1.2506  -23.8954   12.4012 O   0  0  0  0  0  0  0  0  0  0  0  0
    2.7023  -25.6468   11.8595 C   0  0  0  0  0  0  0  0  0  0  0  0
  1  2  2  0  0  0  0
  1 11  1  0  0  0  0
  2  3  1  0  0  0  0
  2  4  1  0  0  0  0
  4  5  1  0  0  0  0
  5  6  1  0  0  0  0
  5  7  2  0  0  0  0
  6  8  1  0  0  0  0
  6 11  2  0  0  0  0
  9  8  1  1  0  0  0
  9 10  1  0  0  0  0
  9 13  1  0  0  0  0
 10 12  1  0  0  0  0
 11 12  1  0  0  0  0
 13 14  1  6  0  0  0
 13 15  1  0  0  0  0
 15 16  1  1  0  0  0
 15 17  1  0  0  0  0
M  END
>  <CHROM.1>
170.14761828,-36.81983164,2.36833889,-26.55356293,14.97934075,1.01536705
-0.10333786,2.16940253

>  <Name>
ligand

>  <RI>
0

>  <Rbt.Current_Directory>
/home/itssahil/PROJECTS/Mol_Feturizer/New_Systems/rnas/4LVX

>  <Rbt.Executable>
rbdock ($Id: //depot/dev/client3/rdock/2013.1/src/exe/rbdock.cxx#4 $)

>  <Rbt.Library>
libRbt.so (2013.1, Build901 2013/11/27)

>  <Rbt.Parameter_File>
/export/apps/rDock/src/rDock_2013.1_src/data/scripts/dock_solv.prm

>  <Rbt.Receptor>
prm/blind_docking_40.prm

>  <SCORE>
-14.2546

>  <SCORE.INTER>
-8.80177

>  <SCORE.INTER.CONST>
1

>  <SCORE.INTER.POLAR>
0

>  <SCORE.INTER.ROT>
2

>  <SCORE.INTER.SOLV>
10.6891

>  <SCORE.INTER.VDW>
-14.3642

>  <SCORE.INTER.norm>
-0.517751

>  <SCORE.INTRA>
-5.45281

>  <SCORE.INTRA.DIHEDRAL>
-8.11675

>  <SCORE.INTRA.DIHEDRAL.0>
10.3255

>  <SCORE.INTRA.POLAR>
0

>  <SCORE.INTRA.POLAR.0>
0

>  <SCORE.INTRA.REPUL>
0

>  <SCORE.INTRA.REPUL.0>
0

>  <SCORE.INTRA.SOLV>
0.365641

>  <SCORE.INTRA.SOLV.lig_0>
-53.4755

>  <SCORE.INTRA.VDW>
-1.57725

>  <SCORE.INTRA.VDW.0>
2.32763

>  <SCORE.INTRA.norm>
-0.320753

>  <SCORE.RESTR>
0

>  <SCORE.RESTR.CAVITY>
0

>  <SCORE.RESTR.norm>
0

>  <SCORE.SYSTEM>
0

>  <SCORE.SYSTEM.CONST>
0

>  <SCORE.SYSTEM.DIHEDRAL>
0

>  <SCORE.SYSTEM.SOLV>
0

>  <SCORE.SYSTEM.norm>
0

>  <SCORE.heavy>
17

>  <SCORE.norm>
-0.838504

>  <RMSD>
33.727

$$$$
ligand
 OpenBabel11021811503D
libRbt.so/2013.1/901 2013/11/27
 17 18  0  0  0  0  0  0  0  0999 V2000
    2.7403  -28.5196   17.1247 N   0  0  0  0  0  0  0  0  0  0  0  0
    4.1289  -28.6545   17.2496 C   0  0  0  0  0  0  0  0  0  0  0  0
    4.6711  -29.7362   18.0198 N   0  0  0  0  0  0  0  0  0  0  0  0
    4.9939  -27.7720   16.6394 N   0  0  0  0  0  0  0  0  0  0  0  0
    4.5196  -26.7179   15.8865 C   0  0  0  0  0  0  0  0  0  0  0  0
    3.1108  -26.5279   15.7298 C   0  0  0  0  0  0  0  0  0  0  0  0
    5.2983  -25.9484   15.3565 O   0  0  0  0  0  0  0  0  0  0  0  0
    2.5702  -25.4211   14.9448 N   0  0  0  0  0  0  0  0  0  0  0  0
    1.1817  -25.3797   14.6536 C   0  0  2  0  0  0  0  0  0  0  0  0
    0.2999  -26.0590   15.7351 C   0  0  0  0  0  0  0  0  0  0  0  0
    2.2319  -27.4562   16.3650 C   0  0  0  0  0  0  0  0  0  0  0  0
    0.7753  -27.2827   16.2153 N   0  0  0  0  0  0  0  0  0  0  0  0
    0.9757  -25.9473   13.2611 C   0  0  1  0  0  0  0  0  0  0  0  0
   -0.3447  -25.8240   12.8768 O   0  0  0  0  0  0  0  0  0  0  0  0
    1.8744  -25.2573   12.2788 C   0  0  1  0  0  0  0  0  0  0  0  0
    1.7948  -25.8399   11.0742 O   0  0  0  0  0  0  0  0  0  0  0  0
    1.4889  -23.7711   12.1205 C   0  0  0  0  0  0  0  0  0  0  0  0
  1  2  2  0  0  0  0
  1 11  1  0  0  0  0
  2  3  1  0  0  0  0
  2  4  1  0  0  0  0
  4  5  1  0  0  0  0
  5  6  1  0  0  0  0
  5  7  2  0  0  0  0
  6  8  1  0  0  0  0
  6 11  2  0  0  0  0
  9  8  1  1  0  0  0
  9 10  1  0  0  0  0
  9 13  1  0  0  0  0
 10 12  1  0  0  0  0
 11 12  1  0  0  0  0
 13 14  1  6  0  0  0
 13 15  1  0  0  0  0
 15 16  1  6  0  0  0
 15 17  1  0  0  0  0
M  END
>  <CHROM.1>
-174.73366112,173.93656206,2.45828788,-26.55219992,14.94646646,1.05732343
0.02201579,2.17450651

>  <Name>
ligand

>  <RI>
0

>  <Rbt.Current_Directory>
/home/itssahil/PROJECTS/Mol_Feturizer/New_Systems/rnas/4LVX

>  <Rbt.Executable>
rbdock ($Id: //depot/dev/client3/rdock/2013.1/src/exe/rbdock.cxx#4 $)

>  <Rbt.Library>
libRbt.so (2013.1, Build901 2013/11/27)

>  <Rbt.Parameter_File>
/export/apps/rDock/src/rDock_2013.1_src/data/scripts/dock_solv.prm

>  <Rbt.Receptor>
prm/blind_docking_40.prm

>  <SCORE>
-16.4432

>  <SCORE.INTER>
-9.9686

>  <SCORE.INTER.CONST>
1

>  <SCORE.INTER.POLAR>
0

>  <SCORE.INTER.ROT>
2

>  <SCORE.INTER.SOLV>
10.672

>  <SCORE.INTER.VDW>
-15.1364

>  <SCORE.INTER.norm>
-0.586388

>  <SCORE.INTRA>
-6.47458

>  <SCORE.INTRA.DIHEDRAL>
-9.93655

>  <SCORE.INTRA.DIHEDRAL.0>
10.3255

>  <SCORE.INTRA.POLAR>
0

>  <SCORE.INTRA.POLAR.0>
0

>  <SCORE.INTRA.REPUL>
0

>  <SCORE.INTRA.REPUL.0>
0

>  <SCORE.INTRA.SOLV>
-0.475061

>  <SCORE.INTRA.SOLV.lig_0>
-53.4755

>  <SCORE.INTRA.VDW>
-1.26878

>  <SCORE.INTRA.VDW.0>
2.32763

>  <SCORE.INTRA.norm>
-0.380858

>  <SCORE.RESTR>
0

>  <SCORE.RESTR.CAVITY>
0

>  <SCORE.RESTR.norm>
0

>  <SCORE.SYSTEM>
0

>  <SCORE.SYSTEM.CONST>
0

>  <SCORE.SYSTEM.DIHEDRAL>
0

>  <SCORE.SYSTEM.SOLV>
0

>  <SCORE.SYSTEM.norm>
0

>  <SCORE.heavy>
17

>  <SCORE.norm>
-0.967246

>  <RMSD>
33.732

$$$$
ligand
 OpenBabel11021811503D
libRbt.so/2013.1/901 2013/11/27
 17 18  0  0  0  0  0  0  0  0999 V2000
    2.8248  -28.5100   17.1271 N   0  0  0  0  0  0  0  0  0  0  0  0
    4.1890  -28.8138   17.2199 C   0  0  0  0  0  0  0  0  0  0  0  0
    4.6142  -29.9423   17.9964 N   0  0  0  0  0  0  0  0  0  0  0  0
    5.1394  -28.0547   16.5720 N   0  0  0  0  0  0  0  0  0  0  0  0
    4.7786  -26.9618   15.8115 C   0  0  0  0  0  0  0  0  0  0  0  0
    3.4003  -26.6013   15.6865 C   0  0  0  0  0  0  0  0  0  0  0  0
    5.6317  -26.3029   15.2480 O   0  0  0  0  0  0  0  0  0  0  0  0
    2.9793  -25.4483   14.8946 N   0  0  0  0  0  0  0  0  0  0  0  0
    1.5992  -25.2399   14.6374 C   0  0  2  0  0  0  0  0  0  0  0  0
    0.6698  -25.7879   15.7530 C   0  0  0  0  0  0  0  0  0  0  0  0
    2.4311  -27.4037   16.3606 C   0  0  0  0  0  0  0  0  0  0  0  0
    1.0034  -27.0535   16.2441 N   0  0  0  0  0  0  0  0  0  0  0  0
    1.2872  -25.7991   13.2613 C   0  0  1  0  0  0  0  0  0  0  0  0
   -0.0544  -25.6516   12.9699 O   0  0  0  0  0  0  0  0  0  0  0  0
    2.1274  -25.1215   12.2205 C   0  0  1  0  0  0  0  0  0  0  0  0
    1.9730  -25.7140   11.0280 O   0  0  0  0  0  0  0  0  0  0  0  0
    1.7387  -23.6350   12.0726 C   0  0  0  0  0  0  0  0  0  0  0  0
  1  2  2  0  0  0  0
  1 11  1  0  0  0  0
  2  3  1  0  0  0  0
  2  4  1  0  0  0  0
  4  5  1  0  0  0  0
  5  6  1  0  0  0  0
  5  7  2  0  0  0  0
  6  8  1  0  0  0  0
  6 11  2  0  0  0  0
  9  8  1  1  0  0  0
  9 10  1  0  0  0  0
  9 13  1  0  0  0  0
 10 12  1  0  0  0  0
 11 12  1  0  0  0  0
 13 14  1  6  0  0  0
 13 15  1  0  0  0  0
 15 16  1  6  0  0  0
 15 17  1  0  0  0  0
M  END
>  <CHROM.1>
178.58008605,172.79724446,2.69574828,-26.54583838,14.92174163,1.09400853
-0.08303125,2.16903021

>  <Name>
ligand

>  <RI>
0

>  <Rbt.Current_Directory>
/home/itssahil/PROJECTS/Mol_Feturizer/New_Systems/rnas/4LVX

>  <Rbt.Executable>
rbdock ($Id: //depot/dev/client3/rdock/2013.1/src/exe/rbdock.cxx#4 $)

>  <Rbt.Library>
libRbt.so (2013.1, Build901 2013/11/27)

>  <Rbt.Parameter_File>
/export/apps/rDock/src/rDock_2013.1_src/data/scripts/dock_solv.prm

>  <Rbt.Receptor>
prm/blind_docking_40.prm

>  <SCORE>
-16.5386

>  <SCORE.INTER>
-9.96325

>  <SCORE.INTER.CONST>
1

>  <SCORE.INTER.POLAR>
0

>  <SCORE.INTER.ROT>
2

>  <SCORE.INTER.SOLV>
9.61689

>  <SCORE.INTER.VDW>
-14.7811

>  <SCORE.INTER.norm>
-0.586074

>  <SCORE.INTRA>
-6.57571

>  <SCORE.INTRA.DIHEDRAL>
-9.96505

>  <SCORE.INTRA.DIHEDRAL.0>
10.3255

>  <SCORE.INTRA.POLAR>
0

>  <SCORE.INTRA.POLAR.0>
0

>  <SCORE.INTRA.REPUL>
0

>  <SCORE.INTRA.REPUL.0>
0

>  <SCORE.INTRA.SOLV>
-0.535283

>  <SCORE.INTRA.SOLV.lig_0>
-53.4755

>  <SCORE.INTRA.VDW>
-1.32554

>  <SCORE.INTRA.VDW.0>
2.32763

>  <SCORE.INTRA.norm>
-0.386806

>  <SCORE.RESTR>
0.000324865

>  <SCORE.RESTR.CAVITY>
0.000324865

>  <SCORE.RESTR.norm>
1.91097e-05

>  <SCORE.SYSTEM>
0

>  <SCORE.SYSTEM.CONST>
0

>  <SCORE.SYSTEM.DIHEDRAL>
0

>  <SCORE.SYSTEM.SOLV>
0

>  <SCORE.SYSTEM.norm>
0

>  <SCORE.heavy>
17

>  <SCORE.norm>
-0.972861

>  <RMSD>
33.754

$$$$
ligand
 OpenBabel11021811503D
libRbt.so/2013.1/901 2013/11/27
 17 18  0  0  0  0  0  0  0  0999 V2000
    2.6420  -28.6248   17.0553 N   0  0  0  0  0  0  0  0  0  0  0  0
    3.8919  -29.1778   17.3618 C   0  0  0  0  0  0  0  0  0  0  0  0
    3.9636  -30.4132   18.0870 N   0  0  0  0  0  0  0  0  0  0  0  0
    5.0633  -28.5641   16.9736 N   0  0  0  0  0  0  0  0  0  0  0  0
    5.0448  -27.3765   16.2721 C   0  0  0  0  0  0  0  0  0  0  0  0
    3.7969  -26.7632   15.9372 C   0  0  0  0  0  0  0  0  0  0  0  0
    6.0889  -26.8489   15.9392 O   0  0  0  0  0  0  0  0  0  0  0  0
    3.7364  -25.5035   15.2001 N   0  0  0  0  0  0  0  0  0  0  0  0
    2.4872  -25.0305   14.7205 C   0  0  2  0  0  0  0  0  0  0  0  0
    1.2804  -25.4715   15.5911 C   0  0  0  0  0  0  0  0  0  0  0  0
    2.5951  -27.4176   16.3434 C   0  0  0  0  0  0  0  0  0  0  0  0
    1.2962  -26.8060   16.0069 N   0  0  0  0  0  0  0  0  0  0  0  0
    2.3601  -25.4323   13.2624 C   0  0  1  0  0  0  0  0  0  0  0  0
    1.9102  -26.7332   13.1546 O   0  0  0  0  0  0  0  0  0  0  0  0
    1.4358  -24.4965   12.5425 C   0  0  1  0  0  0  0  0  0  0  0  0
    1.8854  -23.2359   12.6177 O   0  0  0  0  0  0  0  0  0  0  0  0
    1.3118  -24.8745   11.0511 C   0  0  0  0  0  0  0  0  0  0  0  0
  1  2  2  0  0  0  0
  1 11  1  0  0  0  0
  2  3  1  0  0  0  0
  2  4  1  0  0  0  0
  4  5  1  0  0  0  0
  5  6  1  0  0  0  0
  5  7  2  0  0  0  0
  6  8  1  0  0  0  0
  6 11  2  0  0  0  0
  9  8  1  1  0  0  0
  9 10  1  0  0  0  0
  9 13  1  0  0  0  0
 10 12  1  0  0  0  0
 11 12  1  0  0  0  0
 13 14  1  1  0  0  0
 13 15  1  0  0  0  0
 15 16  1  6  0  0  0
 15 17  1  0  0  0  0
M  END
>  <CHROM.1>
82.90647274,58.85294746,2.97049745,-26.58451206,15.10958867,1.17210403,0.14978695
2.37064165

>  <Name>
ligand

>  <RI>
0

>  <Rbt.Current_Directory>
/home/itssahil/PROJECTS/Mol_Feturizer/New_Systems/rnas/4LVX

>  <Rbt.Executable>
rbdock ($Id: //depot/dev/client3/rdock/2013.1/src/exe/rbdock.cxx#4 $)

>  <Rbt.Library>
libRbt.so (2013.1, Build901 2013/11/27)

>  <Rbt.Parameter_File>
/export/apps/rDock/src/rDock_2013.1_src/data/scripts/dock_solv.prm

>  <Rbt.Receptor>
prm/blind_docking_40.prm

>  <SCORE>
-15.0268

>  <SCORE.INTER>
-8.4708

>  <SCORE.INTER.CONST>
1

>  <SCORE.INTER.POLAR>
0

>  <SCORE.INTER.ROT>
2

>  <SCORE.INTER.SOLV>
13.4602

>  <SCORE.INTER.VDW>
-15.0672

>  <SCORE.INTER.norm>
-0.498282

>  <SCORE.INTRA>
-6.55601

>  <SCORE.INTRA.DIHEDRAL>
-8.54705

>  <SCORE.INTRA.DIHEDRAL.0>
10.3255

>  <SCORE.INTRA.POLAR>
0

>  <SCORE.INTRA.POLAR.0>
0

>  <SCORE.INTRA.REPUL>
0

>  <SCORE.INTRA.REPUL.0>
0

>  <SCORE.INTRA.SOLV>
-0.235658

>  <SCORE.INTRA.SOLV.lig_0>
-53.4755

>  <SCORE.INTRA.VDW>
-2.16466

>  <SCORE.INTRA.VDW.0>
2.32763

>  <SCORE.INTRA.norm>
-0.385648

>  <SCORE.RESTR>
0

>  <SCORE.RESTR.CAVITY>
0

>  <SCORE.RESTR.norm>
0

>  <SCORE.SYSTEM>
0

>  <SCORE.SYSTEM.CONST>
0

>  <SCORE.SYSTEM.DIHEDRAL>
0

>  <SCORE.SYSTEM.SOLV>
0

>  <SCORE.SYSTEM.norm>
0

>  <SCORE.heavy>
17

>  <SCORE.norm>
-0.88393

>  <RMSD>
33.774

$$$$
ligand
 OpenBabel11021811503D
libRbt.so/2013.1/901 2013/11/27
 17 18  0  0  0  0  0  0  0  0999 V2000
    2.6359  -28.6186   17.0014 N   0  0  0  0  0  0  0  0  0  0  0  0
    3.8809  -29.1626   17.3419 C   0  0  0  0  0  0  0  0  0  0  0  0
    3.9417  -30.3967   18.0704 N   0  0  0  0  0  0  0  0  0  0  0  0
    5.0580  -28.5413   16.9844 N   0  0  0  0  0  0  0  0  0  0  0  0
    5.0501  -27.3545   16.2813 C   0  0  0  0  0  0  0  0  0  0  0  0
    3.8075  -26.7503   15.9123 C   0  0  0  0  0  0  0  0  0  0  0  0
    6.0991  -26.8201   15.9758 O   0  0  0  0  0  0  0  0  0  0  0  0
    3.7580  -25.4919   15.1723 N   0  0  0  0  0  0  0  0  0  0  0  0
    2.5188  -25.0280   14.6588 C   0  0  2  0  0  0  0  0  0  0  0  0
    1.2922  -25.4764   15.4973 C   0  0  0  0  0  0  0  0  0  0  0  0
    2.5998  -27.4126   16.2870 C   0  0  0  0  0  0  0  0  0  0  0  0
    1.3062  -26.8103   15.9151 N   0  0  0  0  0  0  0  0  0  0  0  0
    2.4336  -25.4322   13.1984 C   0  0  1  0  0  0  0  0  0  0  0  0
    2.0737  -26.7602   13.0822 O   0  0  0  0  0  0  0  0  0  0  0  0
    1.4554  -24.5584   12.4719 C   0  0  1  0  0  0  0  0  0  0  0  0
    1.8144  -23.2699   12.5611 O   0  0  0  0  0  0  0  0  0  0  0  0
    1.3778  -24.9334   10.9766 C   0  0  0  0  0  0  0  0  0  0  0  0
  1  2  2  0  0  0  0
  1 11  1  0  0  0  0
  2  3  1  0  0  0  0
  2  4  1  0  0  0  0
  4  5  1  0  0  0  0
  5  6  1  0  0  0  0
  5  7  2  0  0  0  0
  6  8  1  0  0  0  0
  6 11  2  0  0  0  0
  9  8  1  1  0  0  0
  9 10  1  0  0  0  0
  9 13  1  0  0  0  0
 10 12  1  0  0  0  0
 11 12  1  0  0  0  0
 13 14  1  1  0  0  0
 13 15  1  0  0  0  0
 15 16  1  6  0  0  0
 15 17  1  0  0  0  0
M  END
>  <CHROM.1>
79.29091173,58.53912871,2.98977988,-26.58810980,15.06651973,1.17449919,0.17042381
2.36648912

>  <Name>
ligand

>  <RI>
0

>  <Rbt.Current_Directory>
/home/itssahil/PROJECTS/Mol_Feturizer/New_Systems/rnas/4LVX

>  <Rbt.Executable>
rbdock ($Id: //depot/dev/client3/rdock/2013.1/src/exe/rbdock.cxx#4 $)

>  <Rbt.Library>
libRbt.so (2013.1, Build901 2013/11/27)

>  <Rbt.Parameter_File>
/export/apps/rDock/src/rDock_2013.1_src/data/scripts/dock_solv.prm

>  <Rbt.Receptor>
prm/blind_docking_40.prm

>  <SCORE>
-14.9432

>  <SCORE.INTER>
-8.12601

>  <SCORE.INTER.CONST>
1

>  <SCORE.INTER.POLAR>
0

>  <SCORE.INTER.ROT>
2

>  <SCORE.INTER.SOLV>
13.4039

>  <SCORE.INTER.VDW>
-14.8186

>  <SCORE.INTER.norm>
-0.478001

>  <SCORE.INTRA>
-6.81715

>  <SCORE.INTRA.DIHEDRAL>
-8.9752

>  <SCORE.INTRA.DIHEDRAL.0>
10.3255

>  <SCORE.INTRA.POLAR>
0

>  <SCORE.INTRA.POLAR.0>
0

>  <SCORE.INTRA.REPUL>
0

>  <SCORE.INTRA.REPUL.0>
0

>  <SCORE.INTRA.SOLV>
-0.217404

>  <SCORE.INTRA.SOLV.lig_0>
-53.4755

>  <SCORE.INTRA.VDW>
-2.22085

>  <SCORE.INTRA.VDW.0>
2.32763

>  <SCORE.INTRA.norm>
-0.401009

>  <SCORE.RESTR>
0

>  <SCORE.RESTR.CAVITY>
0

>  <SCORE.RESTR.norm>
0

>  <SCORE.SYSTEM>
0

>  <SCORE.SYSTEM.CONST>
0

>  <SCORE.SYSTEM.DIHEDRAL>
0

>  <SCORE.SYSTEM.SOLV>
0

>  <SCORE.SYSTEM.norm>
0

>  <SCORE.heavy>
17

>  <SCORE.norm>
-0.87901

>  <RMSD>
33.784

$$$$
ligand
 OpenBabel11021811503D
libRbt.so/2013.1/901 2013/11/27
 17 18  0  0  0  0  0  0  0  0999 V2000
   -6.0088  -23.0239   33.8704 N   0  0  0  0  0  0  0  0  0  0  0  0
   -6.9166  -22.2263   34.5788 C   0  0  0  0  0  0  0  0  0  0  0  0
   -6.5322  -20.9075   34.9912 N   0  0  0  0  0  0  0  0  0  0  0  0
   -8.1824  -22.6776   34.8845 N   0  0  0  0  0  0  0  0  0  0  0  0
   -8.5983  -23.9374   34.5068 C   0  0  0  0  0  0  0  0  0  0  0  0
   -7.7110  -24.7974   33.7868 C   0  0  0  0  0  0  0  0  0  0  0  0
   -9.7188  -24.3189   34.7868 O   0  0  0  0  0  0  0  0  0  0  0  0
   -8.1129  -26.1397   33.3740 N   0  0  0  0  0  0  0  0  0  0  0  0
   -7.2796  -26.8836   32.4984 C   0  0  2  0  0  0  0  0  0  0  0  0
   -5.7724  -26.5388   32.6332 C   0  0  0  0  0  0  0  0  0  0  0  0
   -6.4064  -24.3091   33.4749 C   0  0  0  0  0  0  0  0  0  0  0  0
   -5.4747  -25.1765   32.7305 N   0  0  0  0  0  0  0  0  0  0  0  0
   -7.8139  -26.7190   31.0873 C   0  0  1  0  0  0  0  0  0  0  0  0
   -6.9595  -27.3031   30.1733 O   0  0  0  0  0  0  0  0  0  0  0  0
   -9.1860  -27.3136   30.9768 C   0  0  1  0  0  0  0  0  0  0  0  0
  -10.0423  -26.6833   31.7931 O   0  0  0  0  0  0  0  0  0  0  0  0
   -9.7261  -27.2028   29.5352 C   0  0  0  0  0  0  0  0  0  0  0  0
  1  2  2  0  0  0  0
  1 11  1  0  0  0  0
  2  3  1  0  0  0  0
  2  4  1  0  0  0  0
  4  5  1  0  0  0  0
  5  6  1  0  0  0  0
  5  7  2  0  0  0  0
  6  8  1  0  0  0  0
  6 11  2  0  0  0  0
  9  8  1  1  0  0  0
  9 10  1  0  0  0  0
  9 13  1  0  0  0  0
 10 12  1  0  0  0  0
 11 12  1  0  0  0  0
 13 14  1  6  0  0  0
 13 15  1  0  0  0  0
 15 16  1  1  0  0  0
 15 17  1  0  0  0  0
M  END
>  <CHROM.1>
173.54202774,61.91120403,-7.71711908,-25.12257301,32.86848047,-1.34633689
-0.10446397,-2.42002219

>  <Name>
ligand

>  <RI>
0

>  <Rbt.Current_Directory>
/home/itssahil/PROJECTS/Mol_Feturizer/New_Systems/rnas/4LVX

>  <Rbt.Executable>
rbdock ($Id: //depot/dev/client3/rdock/2013.1/src/exe/rbdock.cxx#4 $)

>  <Rbt.Library>
libRbt.so (2013.1, Build901 2013/11/27)

>  <Rbt.Parameter_File>
/export/apps/rDock/src/rDock_2013.1_src/data/scripts/dock_solv.prm

>  <Rbt.Receptor>
prm/blind_docking_80.prm

>  <SCORE>
-13.4767

>  <SCORE.INTER>
-6.72999

>  <SCORE.INTER.CONST>
1

>  <SCORE.INTER.POLAR>
0

>  <SCORE.INTER.ROT>
2

>  <SCORE.INTER.SOLV>
10.1978

>  <SCORE.INTER.VDW>
-12.8193

>  <SCORE.INTER.norm>
-0.395882

>  <SCORE.INTRA>
-6.74668

>  <SCORE.INTRA.DIHEDRAL>
-10.0135

>  <SCORE.INTRA.DIHEDRAL.0>
10.3255

>  <SCORE.INTRA.POLAR>
0

>  <SCORE.INTRA.POLAR.0>
0

>  <SCORE.INTRA.REPUL>
0

>  <SCORE.INTRA.REPUL.0>
0

>  <SCORE.INTRA.SOLV>
0.00500702

>  <SCORE.INTRA.SOLV.lig_0>
-53.4755

>  <SCORE.INTRA.VDW>
-1.74244

>  <SCORE.INTRA.VDW.0>
2.32763

>  <SCORE.INTRA.norm>
-0.396863

>  <SCORE.RESTR>
0

>  <SCORE.RESTR.CAVITY>
0

>  <SCORE.RESTR.norm>
0

>  <SCORE.SYSTEM>
0

>  <SCORE.SYSTEM.CONST>
0

>  <SCORE.SYSTEM.DIHEDRAL>
0

>  <SCORE.SYSTEM.SOLV>
0

>  <SCORE.SYSTEM.norm>
0

>  <SCORE.heavy>
17

>  <SCORE.norm>
-0.792745

>  <RMSD>
33.808

$$$$
ligand
 OpenBabel11021811503D
libRbt.so/2013.1/901 2013/11/27
 17 18  0  0  0  0  0  0  0  0999 V2000
   -6.7901  -22.8856   32.7501 N   0  0  0  0  0  0  0  0  0  0  0  0
   -7.5597  -22.6103   33.8876 C   0  0  0  0  0  0  0  0  0  0  0  0
   -8.0984  -21.2949   34.0796 N   0  0  0  0  0  0  0  0  0  0  0  0
   -7.8212  -23.5814   34.8299 N   0  0  0  0  0  0  0  0  0  0  0  0
   -7.3270  -24.8614   34.6873 C   0  0  0  0  0  0  0  0  0  0  0  0
   -6.5298  -25.1974   33.5485 C   0  0  0  0  0  0  0  0  0  0  0  0
   -7.5671  -25.7049   35.5301 O   0  0  0  0  0  0  0  0  0  0  0  0
   -5.9846  -26.5400   33.3647 N   0  0  0  0  0  0  0  0  0  0  0  0
   -5.3666  -26.8842   32.1343 C   0  0  2  0  0  0  0  0  0  0  0  0
   -4.7049  -25.6796   31.4133 C   0  0  0  0  0  0  0  0  0  0  0  0
   -6.2753  -24.1789   32.5812 C   0  0  0  0  0  0  0  0  0  0  0  0
   -5.4584  -24.5023   31.3969 N   0  0  0  0  0  0  0  0  0  0  0  0
   -6.3895  -27.6121   31.2813 C   0  0  1  0  0  0  0  0  0  0  0  0
   -7.3269  -26.7274   30.7863 O   0  0  0  0  0  0  0  0  0  0  0  0
   -5.7103  -28.3385   30.1591 C   0  0  1  0  0  0  0  0  0  0  0  0
   -4.7628  -29.1604   30.6321 O   0  0  0  0  0  0  0  0  0  0  0  0
   -6.7190  -29.1824   29.3512 C   0  0  0  0  0  0  0  0  0  0  0  0
  1  2  2  0  0  0  0
  1 11  1  0  0  0  0
  2  3  1  0  0  0  0
  2  4  1  0  0  0  0
  4  5  1  0  0  0  0
  5  6  1  0  0  0  0
  5  7  2  0  0  0  0
  6  8  1  0  0  0  0
  6 11  2  0  0  0  0
  9  8  1  1  0  0  0
  9 10  1  0  0  0  0
  9 13  1  0  0  0  0
 10 12  1  0  0  0  0
 11 12  1  0  0  0  0
 13 14  1  6  0  0  0
 13 15  1  0  0  0  0
 15 16  1  1  0  0  0
 15 17  1  0  0  0  0
M  END
>  <CHROM.1>
73.74024428,54.98091366,-6.48981988,-25.66293574,32.45268155,-2.42169786
-1.22378836,2.94932372

>  <Name>
ligand

>  <RI>
0

>  <Rbt.Current_Directory>
/home/itssahil/PROJECTS/Mol_Feturizer/New_Systems/rnas/4LVX

>  <Rbt.Executable>
rbdock ($Id: //depot/dev/client3/rdock/2013.1/src/exe/rbdock.cxx#4 $)

>  <Rbt.Library>
libRbt.so (2013.1, Build901 2013/11/27)

>  <Rbt.Parameter_File>
/export/apps/rDock/src/rDock_2013.1_src/data/scripts/dock_solv.prm

>  <Rbt.Receptor>
prm/blind_docking_60.prm

>  <SCORE>
-15.2311

>  <SCORE.INTER>
-8.12484

>  <SCORE.INTER.CONST>
1

>  <SCORE.INTER.POLAR>
0

>  <SCORE.INTER.ROT>
2

>  <SCORE.INTER.SOLV>
19.0769

>  <SCORE.INTER.VDW>
-16.7089

>  <SCORE.INTER.norm>
-0.477932

>  <SCORE.INTRA>
-7.10625

>  <SCORE.INTRA.DIHEDRAL>
-9.44728

>  <SCORE.INTRA.DIHEDRAL.0>
10.3255

>  <SCORE.INTRA.POLAR>
0

>  <SCORE.INTRA.POLAR.0>
0

>  <SCORE.INTRA.REPUL>
0

>  <SCORE.INTRA.REPUL.0>
0

>  <SCORE.INTRA.SOLV>
-0.173053

>  <SCORE.INTRA.SOLV.lig_0>
-53.4755

>  <SCORE.INTRA.VDW>
-2.29609

>  <SCORE.INTRA.VDW.0>
2.32763

>  <SCORE.INTRA.norm>
-0.418015

>  <SCORE.RESTR>
0

>  <SCORE.RESTR.CAVITY>
0

>  <SCORE.RESTR.norm>
0

>  <SCORE.SYSTEM>
0

>  <SCORE.SYSTEM.CONST>
0

>  <SCORE.SYSTEM.DIHEDRAL>
0

>  <SCORE.SYSTEM.SOLV>
0

>  <SCORE.SYSTEM.norm>
0

>  <SCORE.heavy>
17

>  <SCORE.norm>
-0.895947

>  <RMSD>
33.820

$$$$
ligand
 OpenBabel11021811503D
libRbt.so/2013.1/901 2013/11/27
 17 18  0  0  0  0  0  0  0  0999 V2000
   -6.7489  -22.8837   32.8588 N   0  0  0  0  0  0  0  0  0  0  0  0
   -7.5832  -22.6145   33.9512 C   0  0  0  0  0  0  0  0  0  0  0  0
   -8.0624  -21.2800   34.1672 N   0  0  0  0  0  0  0  0  0  0  0  0
   -7.9650  -23.6091   34.8255 N   0  0  0  0  0  0  0  0  0  0  0  0
   -7.5318  -24.9080   34.6573 C   0  0  0  0  0  0  0  0  0  0  0  0
   -6.6731  -25.2392   33.5627 C   0  0  0  0  0  0  0  0  0  0  0  0
   -7.8781  -25.7722   35.4400 O   0  0  0  0  0  0  0  0  0  0  0  0
   -6.1895  -26.6017   33.3541 N   0  0  0  0  0  0  0  0  0  0  0  0
   -5.5031  -26.9269   32.1552 C   0  0  2  0  0  0  0  0  0  0  0  0
   -4.7263  -25.7320   31.5406 C   0  0  0  0  0  0  0  0  0  0  0  0
   -6.2940  -24.1959   32.6652 C   0  0  0  0  0  0  0  0  0  0  0  0
   -5.4117  -24.5138   31.5272 N   0  0  0  0  0  0  0  0  0  0  0  0
   -6.4990  -27.5570   31.1987 C   0  0  1  0  0  0  0  0  0  0  0  0
   -7.2842  -26.5875   30.6070 O   0  0  0  0  0  0  0  0  0  0  0  0
   -5.7826  -28.3606   30.1549 C   0  0  1  0  0  0  0  0  0  0  0  0
   -4.9132  -29.2077   30.7237 O   0  0  0  0  0  0  0  0  0  0  0  0
   -6.7756  -29.1864   29.3097 C   0  0  0  0  0  0  0  0  0  0  0  0
  1  2  2  0  0  0  0
  1 11  1  0  0  0  0
  2  3  1  0  0  0  0
  2  4  1  0  0  0  0
  4  5  1  0  0  0  0
  5  6  1  0  0  0  0
  5  7  2  0  0  0  0
  6  8  1  0  0  0  0
  6 11  2  0  0  0  0
  9  8  1  1  0  0  0
  9 10  1  0  0  0  0
  9 13  1  0  0  0  0
 10 12  1  0  0  0  0
 11 12  1  0  0  0  0
 13 14  1  6  0  0  0
 13 15  1  0  0  0  0
 15 16  1  1  0  0  0
 15 17  1  0  0  0  0
M  END
>  <CHROM.1>
78.13737812,50.88809880,-6.57450137,-25.67579492,32.46723608,-2.23274778
-1.14834015,-3.12657003

>  <Name>
ligand

>  <RI>
0

>  <Rbt.Current_Directory>
/home/itssahil/PROJECTS/Mol_Feturizer/New_Systems/rnas/4LVX

>  <Rbt.Executable>
rbdock ($Id: //depot/dev/client3/rdock/2013.1/src/exe/rbdock.cxx#4 $)

>  <Rbt.Library>
libRbt.so (2013.1, Build901 2013/11/27)

>  <Rbt.Parameter_File>
/export/apps/rDock/src/rDock_2013.1_src/data/scripts/dock_solv.prm

>  <Rbt.Receptor>
prm/blind_docking_100.prm

>  <SCORE>
-15.4068

>  <SCORE.INTER>
-8.63814

>  <SCORE.INTER.CONST>
1

>  <SCORE.INTER.POLAR>
0

>  <SCORE.INTER.ROT>
2

>  <SCORE.INTER.SOLV>
18.24

>  <SCORE.INTER.VDW>
-16.7721

>  <SCORE.INTER.norm>
-0.508126

>  <SCORE.INTRA>
-6.76861

>  <SCORE.INTRA.DIHEDRAL>
-8.79911

>  <SCORE.INTRA.DIHEDRAL.0>
10.3255

>  <SCORE.INTRA.POLAR>
0

>  <SCORE.INTRA.POLAR.0>
0

>  <SCORE.INTRA.REPUL>
0

>  <SCORE.INTRA.REPUL.0>
0

>  <SCORE.INTRA.SOLV>
-0.175021

>  <SCORE.INTRA.SOLV.lig_0>
-53.4755

>  <SCORE.INTRA.VDW>
-2.28155

>  <SCORE.INTRA.VDW.0>
2.32763

>  <SCORE.INTRA.norm>
-0.398154

>  <SCORE.RESTR>
0

>  <SCORE.RESTR.CAVITY>
0

>  <SCORE.RESTR.norm>
0

>  <SCORE.SYSTEM>
0

>  <SCORE.SYSTEM.CONST>
0

>  <SCORE.SYSTEM.DIHEDRAL>
0

>  <SCORE.SYSTEM.SOLV>
0

>  <SCORE.SYSTEM.norm>
0

>  <SCORE.heavy>
17

>  <SCORE.norm>
-0.906279

>  <RMSD>
33.858

$$$$
ligand
 OpenBabel11021811503D
libRbt.so/2013.1/901 2013/11/27
 17 18  0  0  0  0  0  0  0  0999 V2000
    2.7058  -28.6830   16.9841 N   0  0  0  0  0  0  0  0  0  0  0  0
    4.0951  -28.7603   17.1451 C   0  0  0  0  0  0  0  0  0  0  0  0
    4.6714  -29.8936   17.8088 N   0  0  0  0  0  0  0  0  0  0  0  0
    4.9290  -27.7709   16.6707 N   0  0  0  0  0  0  0  0  0  0  0  0
    4.4215  -26.6634   16.0235 C   0  0  0  0  0  0  0  0  0  0  0  0
    3.0100  -26.5290   15.8364 C   0  0  0  0  0  0  0  0  0  0  0  0
    5.1731  -25.7997   15.6129 O   0  0  0  0  0  0  0  0  0  0  0  0
    2.4344  -25.3688   15.1608 N   0  0  0  0  0  0  0  0  0  0  0  0
    1.0556  -25.3654   14.8242 C   0  0  2  0  0  0  0  0  0  0  0  0
    0.1788  -26.2078   15.7888 C   0  0  0  0  0  0  0  0  0  0  0  0
    2.1639  -27.5673   16.3300 C   0  0  0  0  0  0  0  0  0  0  0  0
    0.7053  -27.4524   16.1462 N   0  0  0  0  0  0  0  0  0  0  0  0
    0.9251  -25.7803   13.3701 C   0  0  1  0  0  0  0  0  0  0  0  0
    1.4278  -27.0523   13.1810 O   0  0  0  0  0  0  0  0  0  0  0  0
   -0.5084  -25.7131   12.9355 C   0  0  1  0  0  0  0  0  0  0  0  0
   -1.0115  -24.4894   13.1508 O   0  0  0  0  0  0  0  0  0  0  0  0
   -0.6499  -26.0333   11.4322 C   0  0  0  0  0  0  0  0  0  0  0  0
  1  2  2  0  0  0  0
  1 11  1  0  0  0  0
  2  3  1  0  0  0  0
  2  4  1  0  0  0  0
  4  5  1  0  0  0  0
  5  6  1  0  0  0  0
  5  7  2  0  0  0  0
  6  8  1  0  0  0  0
  6 11  2  0  0  0  0
  9  8  1  1  0  0  0
  9 10  1  0  0  0  0
  9 13  1  0  0  0  0
 10 12  1  0  0  0  0
 11 12  1  0  0  0  0
 13 14  1  1  0  0  0
 13 15  1  0  0  0  0
 15 16  1  6  0  0  0
 15 17  1  0  0  0  0
M  END
>  <CHROM.1>
60.92711793,55.73279168,2.05860412,-26.73761297,15.13267877,0.76505438,0.27587306
2.43434846

>  <Name>
ligand

>  <RI>
0

>  <Rbt.Current_Directory>
/home/itssahil/PROJECTS/Mol_Feturizer/New_Systems/rnas/4LVX

>  <Rbt.Executable>
rbdock ($Id: //depot/dev/client3/rdock/2013.1/src/exe/rbdock.cxx#4 $)

>  <Rbt.Library>
libRbt.so (2013.1, Build901 2013/11/27)

>  <Rbt.Parameter_File>
/export/apps/rDock/src/rDock_2013.1_src/data/scripts/dock_solv.prm

>  <Rbt.Receptor>
prm/blind_docking_40.prm

>  <SCORE>
-16.1011

>  <SCORE.INTER>
-8.91703

>  <SCORE.INTER.CONST>
1

>  <SCORE.INTER.POLAR>
0

>  <SCORE.INTER.ROT>
2

>  <SCORE.INTER.SOLV>
12.7556

>  <SCORE.INTER.VDW>
-15.1299

>  <SCORE.INTER.norm>
-0.524531

>  <SCORE.INTRA>
-7.1841

>  <SCORE.INTRA.DIHEDRAL>
-10.0975

>  <SCORE.INTRA.DIHEDRAL.0>
10.3255

>  <SCORE.INTRA.POLAR>
0

>  <SCORE.INTRA.POLAR.0>
0

>  <SCORE.INTRA.REPUL>
0

>  <SCORE.INTRA.REPUL.0>
0

>  <SCORE.INTRA.SOLV>
-0.111934

>  <SCORE.INTRA.SOLV.lig_0>
-53.4755

>  <SCORE.INTRA.VDW>
-2.07939

>  <SCORE.INTRA.VDW.0>
2.32763

>  <SCORE.INTRA.norm>
-0.422594

>  <SCORE.RESTR>
0

>  <SCORE.RESTR.CAVITY>
0

>  <SCORE.RESTR.norm>
0

>  <SCORE.SYSTEM>
0

>  <SCORE.SYSTEM.CONST>
0

>  <SCORE.SYSTEM.DIHEDRAL>
0

>  <SCORE.SYSTEM.SOLV>
0

>  <SCORE.SYSTEM.norm>
0

>  <SCORE.heavy>
17

>  <SCORE.norm>
-0.947126

>  <RMSD>
33.882

$$$$
ligand
 OpenBabel11021811503D
libRbt.so/2013.1/901 2013/11/27
 17 18  0  0  0  0  0  0  0  0999 V2000
    2.7449  -28.6999   16.9576 N   0  0  0  0  0  0  0  0  0  0  0  0
    4.1348  -28.7656   17.1178 C   0  0  0  0  0  0  0  0  0  0  0  0
    4.7218  -29.8997   17.7709 N   0  0  0  0  0  0  0  0  0  0  0  0
    4.9594  -27.7642   16.6525 N   0  0  0  0  0  0  0  0  0  0  0  0
    4.4415  -26.6555   16.0157 C   0  0  0  0  0  0  0  0  0  0  0  0
    3.0288  -26.5325   15.8301 C   0  0  0  0  0  0  0  0  0  0  0  0
    5.1848  -25.7810   15.6131 O   0  0  0  0  0  0  0  0  0  0  0  0
    2.4422  -25.3715   15.1653 N   0  0  0  0  0  0  0  0  0  0  0  0
    1.0634  -25.3778   14.8289 C   0  0  2  0  0  0  0  0  0  0  0  0
    0.1946  -26.2373   15.7857 C   0  0  0  0  0  0  0  0  0  0  0  0
    2.1925  -27.5832   16.3140 C   0  0  0  0  0  0  0  0  0  0  0  0
    0.7328  -27.4802   16.1314 N   0  0  0  0  0  0  0  0  0  0  0  0
    0.9365  -25.7803   13.3710 C   0  0  1  0  0  0  0  0  0  0  0  0
    1.4452  -27.0483   13.1712 O   0  0  0  0  0  0  0  0  0  0  0  0
   -0.4969  -25.7159   12.9353 C   0  0  1  0  0  0  0  0  0  0  0  0
   -0.9966  -24.4876   13.1317 O   0  0  0  0  0  0  0  0  0  0  0  0
   -0.6391  -26.0589   11.4371 C   0  0  0  0  0  0  0  0  0  0  0  0
  1  2  2  0  0  0  0
  1 11  1  0  0  0  0
  2  3  1  0  0  0  0
  2  4  1  0  0  0  0
  4  5  1  0  0  0  0
  5  6  1  0  0  0  0
  5  7  2  0  0  0  0
  6  8  1  0  0  0  0
  6 11  2  0  0  0  0
  9  8  1  1  0  0  0
  9 10  1  0  0  0  0
  9 13  1  0  0  0  0
 10 12  1  0  0  0  0
 11 12  1  0  0  0  0
 13 14  1  1  0  0  0
 13 15  1  0  0  0  0
 15 16  1  6  0  0  0
 15 17  1  0  0  0  0
M  END
>  <CHROM.1>
61.20844856,57.19297982,2.07973922,-26.74384121,15.12263684,0.75672718,0.28755598
2.45072437

>  <Name>
ligand

>  <RI>
0

>  <Rbt.Current_Directory>
/home/itssahil/PROJECTS/Mol_Feturizer/New_Systems/rnas/4LVX

>  <Rbt.Executable>
rbdock ($Id: //depot/dev/client3/rdock/2013.1/src/exe/rbdock.cxx#4 $)

>  <Rbt.Library>
libRbt.so (2013.1, Build901 2013/11/27)

>  <Rbt.Parameter_File>
/export/apps/rDock/src/rDock_2013.1_src/data/scripts/dock_solv.prm

>  <Rbt.Receptor>
prm/blind_docking_40.prm

>  <SCORE>
-16.1622

>  <SCORE.INTER>
-8.96099

>  <SCORE.INTER.CONST>
1

>  <SCORE.INTER.POLAR>
0

>  <SCORE.INTER.ROT>
2

>  <SCORE.INTER.SOLV>
12.6339

>  <SCORE.INTER.VDW>
-15.1186

>  <SCORE.INTER.norm>
-0.527117

>  <SCORE.INTRA>
-7.2012

>  <SCORE.INTRA.DIHEDRAL>
-10.1358

>  <SCORE.INTRA.DIHEDRAL.0>
10.3255

>  <SCORE.INTRA.POLAR>
0

>  <SCORE.INTRA.POLAR.0>
0

>  <SCORE.INTRA.REPUL>
0

>  <SCORE.INTRA.REPUL.0>
0

>  <SCORE.INTRA.SOLV>
-0.121458

>  <SCORE.INTRA.SOLV.lig_0>
-53.4755

>  <SCORE.INTRA.VDW>
-2.07258

>  <SCORE.INTRA.VDW.0>
2.32763

>  <SCORE.INTRA.norm>
-0.4236

>  <SCORE.RESTR>
0

>  <SCORE.RESTR.CAVITY>
0

>  <SCORE.RESTR.norm>
0

>  <SCORE.SYSTEM>
0

>  <SCORE.SYSTEM.CONST>
0

>  <SCORE.SYSTEM.DIHEDRAL>
0

>  <SCORE.SYSTEM.SOLV>
0

>  <SCORE.SYSTEM.norm>
0

>  <SCORE.heavy>
17

>  <SCORE.norm>
-0.950717

>  <RMSD>
33.893

$$$$
ligand
 OpenBabel11021811503D
libRbt.so/2013.1/901 2013/11/27
 17 18  0  0  0  0  0  0  0  0999 V2000
    2.7511  -28.7077   16.9346 N   0  0  0  0  0  0  0  0  0  0  0  0
    4.1418  -28.7590   17.0936 C   0  0  0  0  0  0  0  0  0  0  0  0
    4.7416  -29.8896   17.7409 N   0  0  0  0  0  0  0  0  0  0  0  0
    4.9550  -27.7464   16.6325 N   0  0  0  0  0  0  0  0  0  0  0  0
    4.4245  -26.6405   16.0013 C   0  0  0  0  0  0  0  0  0  0  0  0
    3.0104  -26.5321   15.8171 C   0  0  0  0  0  0  0  0  0  0  0  0
    5.1579  -25.7560   15.6023 O   0  0  0  0  0  0  0  0  0  0  0  0
    2.4106  -25.3745   15.1583 N   0  0  0  0  0  0  0  0  0  0  0  0
    1.0317  -25.3944   14.8228 C   0  0  2  0  0  0  0  0  0  0  0  0
    0.1731  -26.2678   15.7760 C   0  0  0  0  0  0  0  0  0  0  0  0
    2.1860  -27.5942   16.2967 C   0  0  0  0  0  0  0  0  0  0  0  0
    0.7252  -27.5063   16.1155 N   0  0  0  0  0  0  0  0  0  0  0  0
    0.9082  -25.7913   13.3631 C   0  0  1  0  0  0  0  0  0  0  0  0
    1.4203  -27.0572   13.1590 O   0  0  0  0  0  0  0  0  0  0  0  0
   -0.5245  -25.7285   12.9252 C   0  0  1  0  0  0  0  0  0  0  0  0
   -1.0311  -24.5056   13.1368 O   0  0  0  0  0  0  0  0  0  0  0  0
   -0.6619  -26.0523   11.4223 C   0  0  0  0  0  0  0  0  0  0  0  0
  1  2  2  0  0  0  0
  1 11  1  0  0  0  0
  2  3  1  0  0  0  0
  2  4  1  0  0  0  0
  4  5  1  0  0  0  0
  5  6  1  0  0  0  0
  5  7  2  0  0  0  0
  6  8  1  0  0  0  0
  6 11  2  0  0  0  0
  9  8  1  1  0  0  0
  9 10  1  0  0  0  0
  9 13  1  0  0  0  0
 10 12  1  0  0  0  0
 11 12  1  0  0  0  0
 13 14  1  1  0  0  0
 13 15  1  0  0  0  0
 15 16  1  6  0  0  0
 15 17  1  0  0  0  0
M  END
>  <CHROM.1>
61.72021770,56.63252379,2.06337847,-26.74759733,15.10928224,0.74926886,0.29268266
2.45773649

>  <Name>
ligand

>  <RI>
0

>  <Rbt.Current_Directory>
/home/itssahil/PROJECTS/Mol_Feturizer/New_Systems/rnas/4LVX

>  <Rbt.Executable>
rbdock ($Id: //depot/dev/client3/rdock/2013.1/src/exe/rbdock.cxx#4 $)

>  <Rbt.Library>
libRbt.so (2013.1, Build901 2013/11/27)

>  <Rbt.Parameter_File>
/export/apps/rDock/src/rDock_2013.1_src/data/scripts/dock_solv.prm

>  <Rbt.Receptor>
prm/blind_docking_60.prm

>  <SCORE>
-16.0522

>  <SCORE.INTER>
-8.83612

>  <SCORE.INTER.CONST>
1

>  <SCORE.INTER.POLAR>
0

>  <SCORE.INTER.ROT>
2

>  <SCORE.INTER.SOLV>
12.6287

>  <SCORE.INTER.VDW>
-15.0336

>  <SCORE.INTER.norm>
-0.519772

>  <SCORE.INTRA>
-7.21605

>  <SCORE.INTRA.DIHEDRAL>
-10.1173

>  <SCORE.INTRA.DIHEDRAL.0>
10.3255

>  <SCORE.INTRA.POLAR>
0

>  <SCORE.INTRA.POLAR.0>
0

>  <SCORE.INTRA.REPUL>
0

>  <SCORE.INTRA.REPUL.0>
0

>  <SCORE.INTRA.SOLV>
-0.120993

>  <SCORE.INTRA.SOLV.lig_0>
-53.4755

>  <SCORE.INTRA.VDW>
-2.09691

>  <SCORE.INTRA.VDW.0>
2.32763

>  <SCORE.INTRA.norm>
-0.424474

>  <SCORE.RESTR>
0

>  <SCORE.RESTR.CAVITY>
0

>  <SCORE.RESTR.norm>
0

>  <SCORE.SYSTEM>
0

>  <SCORE.SYSTEM.CONST>
0

>  <SCORE.SYSTEM.DIHEDRAL>
0

>  <SCORE.SYSTEM.SOLV>
0

>  <SCORE.SYSTEM.norm>
0

>  <SCORE.heavy>
17

>  <SCORE.norm>
-0.944245

>  <RMSD>
33.900

$$$$
ligand
 OpenBabel11021811503D
libRbt.so/2013.1/901 2013/11/27
 17 18  0  0  0  0  0  0  0  0999 V2000
   -9.0067  -26.4343   31.7872 N   0  0  0  0  0  0  0  0  0  0  0  0
   -8.5920  -27.0891   30.6204 C   0  0  0  0  0  0  0  0  0  0  0  0
   -9.5707  -27.5562   29.6818 N   0  0  0  0  0  0  0  0  0  0  0  0
   -7.2564  -27.2897   30.3457 N   0  0  0  0  0  0  0  0  0  0  0  0
   -6.2787  -26.8560   31.2168 C   0  0  0  0  0  0  0  0  0  0  0  0
   -6.6446  -26.1868   32.4266 C   0  0  0  0  0  0  0  0  0  0  0  0
   -5.1051  -27.0433   30.9580 O   0  0  0  0  0  0  0  0  0  0  0  0
   -5.6388  -25.7174   33.3763 N   0  0  0  0  0  0  0  0  0  0  0  0
   -6.0302  -24.8916   34.4621 C   0  0  2  0  0  0  0  0  0  0  0  0
   -7.4836  -25.1460   34.9434 C   0  0  0  0  0  0  0  0  0  0  0  0
   -8.0328  -25.9837   32.6898 C   0  0  0  0  0  0  0  0  0  0  0  0
   -8.4345  -25.2934   33.9294 N   0  0  0  0  0  0  0  0  0  0  0  0
   -5.7653  -23.4482   34.0749 C   0  0  1  0  0  0  0  0  0  0  0  0
   -6.5783  -23.0698   33.0250 O   0  0  0  0  0  0  0  0  0  0  0  0
   -5.9763  -22.5452   35.2532 C   0  0  1  0  0  0  0  0  0  0  0  0
   -5.1015  -22.8276   36.2288 O   0  0  0  0  0  0  0  0  0  0  0  0
   -5.7950  -21.0639   34.8589 C   0  0  0  0  0  0  0  0  0  0  0  0
  1  2  2  0  0  0  0
  1 11  1  0  0  0  0
  2  3  1  0  0  0  0
  2  4  1  0  0  0  0
  4  5  1  0  0  0  0
  5  6  1  0  0  0  0
  5  7  2  0  0  0  0
  6  8  1  0  0  0  0
  6 11  2  0  0  0  0
  9  8  1  6  0  0  0
  9 10  1  0  0  0  0
  9 13  1  0  0  0  0
 10 12  1  0  0  0  0
 11 12  1  0  0  0  0
 13 14  1  6  0  0  0
 13 15  1  0  0  0  0
 15 16  1  1  0  0  0
 15 17  1  0  0  0  0
M  END
>  <CHROM.1>
65.50898016,63.24659925,-6.85705849,-25.13632763,32.97435069,1.90241713,-0.02668525
-2.35463977

>  <Name>
ligand

>  <RI>
0

>  <Rbt.Current_Directory>
/home/itssahil/PROJECTS/Mol_Feturizer/New_Systems/rnas/4LVX

>  <Rbt.Executable>
rbdock ($Id: //depot/dev/client3/rdock/2013.1/src/exe/rbdock.cxx#4 $)

>  <Rbt.Library>
libRbt.so (2013.1, Build901 2013/11/27)

>  <Rbt.Parameter_File>
/export/apps/rDock/src/rDock_2013.1_src/data/scripts/dock_solv.prm

>  <Rbt.Receptor>
prm/blind_docking_60.prm

>  <SCORE>
-13.856

>  <SCORE.INTER>
-6.70376

>  <SCORE.INTER.CONST>
1

>  <SCORE.INTER.POLAR>
0

>  <SCORE.INTER.ROT>
2

>  <SCORE.INTER.SOLV>
7.80653

>  <SCORE.INTER.VDW>
-12.0047

>  <SCORE.INTER.norm>
-0.394339

>  <SCORE.INTRA>
-7.15223

>  <SCORE.INTRA.DIHEDRAL>
-10.0385

>  <SCORE.INTRA.DIHEDRAL.0>
10.3255

>  <SCORE.INTRA.POLAR>
0

>  <SCORE.INTRA.POLAR.0>
0

>  <SCORE.INTRA.REPUL>
0

>  <SCORE.INTRA.REPUL.0>
0

>  <SCORE.INTRA.SOLV>
-0.176058

>  <SCORE.INTRA.SOLV.lig_0>
-53.4755

>  <SCORE.INTRA.VDW>
-2.04494

>  <SCORE.INTRA.VDW.0>
2.32763

>  <SCORE.INTRA.norm>
-0.420719

>  <SCORE.RESTR>
0

>  <SCORE.RESTR.CAVITY>
0

>  <SCORE.RESTR.norm>
0

>  <SCORE.SYSTEM>
0

>  <SCORE.SYSTEM.CONST>
0

>  <SCORE.SYSTEM.DIHEDRAL>
0

>  <SCORE.SYSTEM.SOLV>
0

>  <SCORE.SYSTEM.norm>
0

>  <SCORE.heavy>
17

>  <SCORE.norm>
-0.815058

>  <RMSD>
33.903

$$$$
ligand
 OpenBabel11021811503D
libRbt.so/2013.1/901 2013/11/27
 17 18  0  0  0  0  0  0  0  0999 V2000
   -8.8624  -26.5813   31.7064 N   0  0  0  0  0  0  0  0  0  0  0  0
   -8.4049  -27.2388   30.5573 C   0  0  0  0  0  0  0  0  0  0  0  0
   -9.3500  -27.7392   29.6014 N   0  0  0  0  0  0  0  0  0  0  0  0
   -7.0590  -27.4109   30.3163 N   0  0  0  0  0  0  0  0  0  0  0  0
   -6.1126  -26.9446   31.2051 C   0  0  0  0  0  0  0  0  0  0  0  0
   -6.5226  -26.2710   32.3982 C   0  0  0  0  0  0  0  0  0  0  0  0
   -4.9291  -27.1069   30.9761 O   0  0  0  0  0  0  0  0  0  0  0  0
   -5.5509  -25.7676   33.3657 N   0  0  0  0  0  0  0  0  0  0  0  0
   -5.9872  -24.9393   34.4324 C   0  0  2  0  0  0  0  0  0  0  0  0
   -7.4452  -25.2228   34.8824 C   0  0  0  0  0  0  0  0  0  0  0  0
   -7.9210  -26.0979   32.6264 C   0  0  0  0  0  0  0  0  0  0  0  0
   -8.3680  -25.4037   33.8482 N   0  0  0  0  0  0  0  0  0  0  0  0
   -5.7469  -23.4944   34.0349 C   0  0  1  0  0  0  0  0  0  0  0  0
   -6.5586  -23.1408   32.9754 O   0  0  0  0  0  0  0  0  0  0  0  0
   -5.9849  -22.5857   35.2037 C   0  0  1  0  0  0  0  0  0  0  0  0
   -5.1716  -22.9008   36.2217 O   0  0  0  0  0  0  0  0  0  0  0  0
   -5.7303  -21.1116   34.8236 C   0  0  0  0  0  0  0  0  0  0  0  0
  1  2  2  0  0  0  0
  1 11  1  0  0  0  0
  2  3  1  0  0  0  0
  2  4  1  0  0  0  0
  4  5  1  0  0  0  0
  5  6  1  0  0  0  0
  5  7  2  0  0  0  0
  6  8  1  0  0  0  0
  6 11  2  0  0  0  0
  9  8  1  6  0  0  0
  9 10  1  0  0  0  0
  9 13  1  0  0  0  0
 10 12  1  0  0  0  0
 11 12  1  0  0  0  0
 13 14  1  6  0  0  0
 13 15  1  0  0  0  0
 15 16  1  1  0  0  0
 15 17  1  0  0  0  0
M  END
>  <CHROM.1>
66.44481933,59.18399638,-6.76612210,-25.22463190,32.93372940,1.87362386,-0.03957416
-2.35932276

>  <Name>
ligand

>  <RI>
0

>  <Rbt.Current_Directory>
/home/itssahil/PROJECTS/Mol_Feturizer/New_Systems/rnas/4LVX

>  <Rbt.Executable>
rbdock ($Id: //depot/dev/client3/rdock/2013.1/src/exe/rbdock.cxx#4 $)

>  <Rbt.Library>
libRbt.so (2013.1, Build901 2013/11/27)

>  <Rbt.Parameter_File>
/export/apps/rDock/src/rDock_2013.1_src/data/scripts/dock_solv.prm

>  <Rbt.Receptor>
prm/blind_docking_60.prm

>  <SCORE>
-13.8832

>  <SCORE.INTER>
-6.62567

>  <SCORE.INTER.CONST>
1

>  <SCORE.INTER.POLAR>
0

>  <SCORE.INTER.ROT>
2

>  <SCORE.INTER.SOLV>
8.39541

>  <SCORE.INTER.VDW>
-12.1489

>  <SCORE.INTER.norm>
-0.389745

>  <SCORE.INTRA>
-7.25749

>  <SCORE.INTRA.DIHEDRAL>
-10.03

>  <SCORE.INTRA.DIHEDRAL.0>
10.3255

>  <SCORE.INTRA.POLAR>
0

>  <SCORE.INTRA.POLAR.0>
0

>  <SCORE.INTRA.REPUL>
0

>  <SCORE.INTRA.REPUL.0>
0

>  <SCORE.INTRA.SOLV>
-0.158712

>  <SCORE.INTRA.SOLV.lig_0>
-53.4755

>  <SCORE.INTRA.VDW>
-2.16314

>  <SCORE.INTRA.VDW.0>
2.32763

>  <SCORE.INTRA.norm>
-0.426911

>  <SCORE.RESTR>
0

>  <SCORE.RESTR.CAVITY>
0

>  <SCORE.RESTR.norm>
0

>  <SCORE.SYSTEM>
0

>  <SCORE.SYSTEM.CONST>
0

>  <SCORE.SYSTEM.DIHEDRAL>
0

>  <SCORE.SYSTEM.SOLV>
0

>  <SCORE.SYSTEM.norm>
0

>  <SCORE.heavy>
17

>  <SCORE.norm>
-0.816656

>  <RMSD>
33.957

$$$$
ligand
 OpenBabel11021811503D
libRbt.so/2013.1/901 2013/11/27
 17 18  0  0  0  0  0  0  0  0999 V2000
    0.5755  -26.4883   12.6542 N   0  0  0  0  0  0  0  0  0  0  0  0
   -0.6773  -25.8760   12.7874 C   0  0  0  0  0  0  0  0  0  0  0  0
   -1.5405  -25.7690   11.6470 N   0  0  0  0  0  0  0  0  0  0  0  0
   -1.1078  -25.3776   13.9980 N   0  0  0  0  0  0  0  0  0  0  0  0
   -0.3141  -25.4598   15.1232 C   0  0  0  0  0  0  0  0  0  0  0  0
    0.9773  -26.0692   15.0443 C   0  0  0  0  0  0  0  0  0  0  0  0
   -0.7105  -25.0131   16.1828 O   0  0  0  0  0  0  0  0  0  0  0  0
    1.8488  -26.1706   16.2123 N   0  0  0  0  0  0  0  0  0  0  0  0
    3.0325  -26.9502   16.1391 C   0  0  2  0  0  0  0  0  0  0  0  0
    3.6441  -27.0184   14.7143 C   0  0  0  0  0  0  0  0  0  0  0  0
    1.4023  -26.5844   13.7827 C   0  0  0  0  0  0  0  0  0  0  0  0
    2.7287  -27.2200   13.6773 N   0  0  0  0  0  0  0  0  0  0  0  0
    2.7356  -28.3137   16.7358 C   0  0  1  0  0  0  0  0  0  0  0  0
    1.9710  -29.0677   15.8678 O   0  0  0  0  0  0  0  0  0  0  0  0
    4.0123  -29.0278   17.0653 C   0  0  1  0  0  0  0  0  0  0  0  0
    4.8266  -28.2369   17.7783 O   0  0  0  0  0  0  0  0  0  0  0  0
    3.7395  -30.3043   17.8891 C   0  0  0  0  0  0  0  0  0  0  0  0
  1  2  2  0  0  0  0
  1 11  1  0  0  0  0
  2  3  1  0  0  0  0
  2  4  1  0  0  0  0
  4  5  1  0  0  0  0
  5  6  1  0  0  0  0
  5  7  2  0  0  0  0
  6  8  1  0  0  0  0
  6 11  2  0  0  0  0
  9  8  1  6  0  0  0
  9 10  1  0  0  0  0
  9 13  1  0  0  0  0
 10 12  1  0  0  0  0
 11 12  1  0  0  0  0
 13 14  1  6  0  0  0
 13 15  1  0  0  0  0
 15 16  1  1  0  0  0
 15 17  1  0  0  0  0
M  END
>  <CHROM.1>
74.44983013,50.11033582,1.63888284,-27.04283461,15.19821849,-2.59531329,-0.66658636
1.47252062

>  <Name>
ligand

>  <RI>
0

>  <Rbt.Current_Directory>
/home/itssahil/PROJECTS/Mol_Feturizer/New_Systems/rnas/4LVX

>  <Rbt.Executable>
rbdock ($Id: //depot/dev/client3/rdock/2013.1/src/exe/rbdock.cxx#4 $)

>  <Rbt.Library>
libRbt.so (2013.1, Build901 2013/11/27)

>  <Rbt.Parameter_File>
/export/apps/rDock/src/rDock_2013.1_src/data/scripts/dock_solv.prm

>  <Rbt.Receptor>
prm/blind_docking_80.prm

>  <SCORE>
-15.8741

>  <SCORE.INTER>
-8.92785

>  <SCORE.INTER.CONST>
1

>  <SCORE.INTER.POLAR>
0

>  <SCORE.INTER.ROT>
2

>  <SCORE.INTER.SOLV>
12.0758

>  <SCORE.INTER.VDW>
-14.9105

>  <SCORE.INTER.norm>
-0.525168

>  <SCORE.INTRA>
-6.94623

>  <SCORE.INTRA.DIHEDRAL>
-9.1163

>  <SCORE.INTRA.DIHEDRAL.0>
10.3255

>  <SCORE.INTRA.POLAR>
0

>  <SCORE.INTRA.POLAR.0>
0

>  <SCORE.INTRA.REPUL>
0

>  <SCORE.INTRA.REPUL.0>
0

>  <SCORE.INTRA.SOLV>
-0.152679

>  <SCORE.INTRA.SOLV.lig_0>
-53.4755

>  <SCORE.INTRA.VDW>
-2.31174

>  <SCORE.INTRA.VDW.0>
2.32763

>  <SCORE.INTRA.norm>
-0.408602

>  <SCORE.RESTR>
0

>  <SCORE.RESTR.CAVITY>
0

>  <SCORE.RESTR.norm>
0

>  <SCORE.SYSTEM>
0

>  <SCORE.SYSTEM.CONST>
0

>  <SCORE.SYSTEM.DIHEDRAL>
0

>  <SCORE.SYSTEM.SOLV>
0

>  <SCORE.SYSTEM.norm>
0

>  <SCORE.heavy>
17

>  <SCORE.norm>
-0.93377

>  <RMSD>
34.020

$$$$
ligand
 OpenBabel11021811503D
libRbt.so/2013.1/901 2013/11/27
 17 18  0  0  0  0  0  0  0  0999 V2000
    0.7957  -26.4691   12.4966 N   0  0  0  0  0  0  0  0  0  0  0  0
   -0.4808  -25.8939   12.5381 C   0  0  0  0  0  0  0  0  0  0  0  0
   -1.2543  -25.7935   11.3344 N   0  0  0  0  0  0  0  0  0  0  0  0
   -1.0195  -25.4260   13.7172 N   0  0  0  0  0  0  0  0  0  0  0  0
   -0.3148  -25.5033   14.9005 C   0  0  0  0  0  0  0  0  0  0  0  0
    0.9958  -26.0754   14.9162 C   0  0  0  0  0  0  0  0  0  0  0  0
   -0.8061  -25.0838   15.9311 O   0  0  0  0  0  0  0  0  0  0  0  0
    1.7752  -26.1702   16.1480 N   0  0  0  0  0  0  0  0  0  0  0  0
    2.9829  -26.9155   16.1587 C   0  0  2  0  0  0  0  0  0  0  0  0
    3.7066  -26.9452   14.7860 C   0  0  0  0  0  0  0  0  0  0  0  0
    1.5335  -26.5594   13.6856 C   0  0  0  0  0  0  0  0  0  0  0  0
    2.8818  -27.1563   13.6773 N   0  0  0  0  0  0  0  0  0  0  0  0
    2.6793  -28.2957   16.7124 C   0  0  1  0  0  0  0  0  0  0  0  0
    2.0394  -29.0693   15.7645 O   0  0  0  0  0  0  0  0  0  0  0  0
    3.9420  -28.9636   17.1687 C   0  0  1  0  0  0  0  0  0  0  0  0
    4.6133  -28.1755   18.0203 O   0  0  0  0  0  0  0  0  0  0  0  0
    3.6388  -30.2969   17.8848 C   0  0  0  0  0  0  0  0  0  0  0  0
  1  2  2  0  0  0  0
  1 11  1  0  0  0  0
  2  3  1  0  0  0  0
  2  4  1  0  0  0  0
  4  5  1  0  0  0  0
  5  6  1  0  0  0  0
  5  7  2  0  0  0  0
  6  8  1  0  0  0  0
  6 11  2  0  0  0  0
  9  8  1  6  0  0  0
  9 10  1  0  0  0  0
  9 13  1  0  0  0  0
 10 12  1  0  0  0  0
 11 12  1  0  0  0  0
 13 14  1  6  0  0  0
 13 15  1  0  0  0  0
 15 16  1  1  0  0  0
 15 17  1  0  0  0  0
M  END
>  <CHROM.1>
76.05914025,53.17382416,1.66797599,-27.03379732,15.11553057,-2.49767071,-0.65413340
1.53453968

>  <Name>
ligand

>  <RI>
0

>  <Rbt.Current_Directory>
/home/itssahil/PROJECTS/Mol_Feturizer/New_Systems/rnas/4LVX

>  <Rbt.Executable>
rbdock ($Id: //depot/dev/client3/rdock/2013.1/src/exe/rbdock.cxx#4 $)

>  <Rbt.Library>
libRbt.so (2013.1, Build901 2013/11/27)

>  <Rbt.Parameter_File>
/export/apps/rDock/src/rDock_2013.1_src/data/scripts/dock_solv.prm

>  <Rbt.Receptor>
prm/blind_docking_40.prm

>  <SCORE>
-15.6326

>  <SCORE.INTER>
-8.66452

>  <SCORE.INTER.CONST>
1

>  <SCORE.INTER.POLAR>
0

>  <SCORE.INTER.ROT>
2

>  <SCORE.INTER.SOLV>
11.3606

>  <SCORE.INTER.VDW>
-14.4965

>  <SCORE.INTER.norm>
-0.509677

>  <SCORE.INTRA>
-6.96811

>  <SCORE.INTRA.DIHEDRAL>
-9.14935

>  <SCORE.INTRA.DIHEDRAL.0>
10.3255

>  <SCORE.INTRA.POLAR>
0

>  <SCORE.INTRA.POLAR.0>
0

>  <SCORE.INTRA.REPUL>
0

>  <SCORE.INTRA.REPUL.0>
0

>  <SCORE.INTRA.SOLV>
-0.175617

>  <SCORE.INTRA.SOLV.lig_0>
-53.4755

>  <SCORE.INTRA.VDW>
-2.30563

>  <SCORE.INTRA.VDW.0>
2.32763

>  <SCORE.INTRA.norm>
-0.409889

>  <SCORE.RESTR>
0

>  <SCORE.RESTR.CAVITY>
0

>  <SCORE.RESTR.norm>
0

>  <SCORE.SYSTEM>
0

>  <SCORE.SYSTEM.CONST>
0

>  <SCORE.SYSTEM.DIHEDRAL>
0

>  <SCORE.SYSTEM.SOLV>
0

>  <SCORE.SYSTEM.norm>
0

>  <SCORE.heavy>
17

>  <SCORE.norm>
-0.919566

>  <RMSD>
34.047

$$$$
ligand
 OpenBabel11021811503D
libRbt.so/2013.1/901 2013/11/27
 17 18  0  0  0  0  0  0  0  0999 V2000
    1.2857  -26.5022   12.2094 N   0  0  0  0  0  0  0  0  0  0  0  0
   -0.0373  -26.1138   11.9628 C   0  0  0  0  0  0  0  0  0  0  0  0
   -0.5201  -26.0531   10.6136 N   0  0  0  0  0  0  0  0  0  0  0  0
   -0.8956  -25.7942   12.9926 N   0  0  0  0  0  0  0  0  0  0  0  0
   -0.4777  -25.8405   14.3064 C   0  0  0  0  0  0  0  0  0  0  0  0
    0.8646  -26.2243   14.6167 C   0  0  0  0  0  0  0  0  0  0  0  0
   -1.2492  -25.5535   15.2019 O   0  0  0  0  0  0  0  0  0  0  0  0
    1.3457  -26.2803   15.9948 N   0  0  0  0  0  0  0  0  0  0  0  0
    2.6160  -26.8494   16.2719 C   0  0  2  0  0  0  0  0  0  0  0  0
    3.6313  -26.6989   15.1078 C   0  0  0  0  0  0  0  0  0  0  0  0
    1.7361  -26.5571   13.5362 C   0  0  0  0  0  0  0  0  0  0  0  0
    3.1238  -26.9588   13.8315 N   0  0  0  0  0  0  0  0  0  0  0  0
    2.4025  -28.2880   16.7062 C   0  0  1  0  0  0  0  0  0  0  0  0
    1.9524  -29.0529   15.6485 O   0  0  0  0  0  0  0  0  0  0  0  0
    3.6728  -28.8585   17.2626 C   0  0  1  0  0  0  0  0  0  0  0  0
    4.1234  -28.1088   18.2784 O   0  0  0  0  0  0  0  0  0  0  0  0
    3.4561  -30.2949   17.7844 C   0  0  0  0  0  0  0  0  0  0  0  0
  1  2  2  0  0  0  0
  1 11  1  0  0  0  0
  2  3  1  0  0  0  0
  2  4  1  0  0  0  0
  4  5  1  0  0  0  0
  5  6  1  0  0  0  0
  5  7  2  0  0  0  0
  6  8  1  0  0  0  0
  6 11  2  0  0  0  0
  9  8  1  6  0  0  0
  9 10  1  0  0  0  0
  9 13  1  0  0  0  0
 10 12  1  0  0  0  0
 11 12  1  0  0  0  0
 13 14  1  6  0  0  0
 13 15  1  0  0  0  0
 15 16  1  1  0  0  0
 15 17  1  0  0  0  0
M  END
>  <CHROM.1>
68.35156021,56.56791661,1.61875881,-27.10577823,14.91286051,-2.25198377,-0.49482271
1.72848597

>  <Name>
ligand

>  <RI>
0

>  <Rbt.Current_Directory>
/home/itssahil/PROJECTS/Mol_Feturizer/New_Systems/rnas/4LVX

>  <Rbt.Executable>
rbdock ($Id: //depot/dev/client3/rdock/2013.1/src/exe/rbdock.cxx#4 $)

>  <Rbt.Library>
libRbt.so (2013.1, Build901 2013/11/27)

>  <Rbt.Parameter_File>
/export/apps/rDock/src/rDock_2013.1_src/data/scripts/dock_solv.prm

>  <Rbt.Receptor>
prm/blind_docking_80.prm

>  <SCORE>
-15.7531

>  <SCORE.INTER>
-8.4942

>  <SCORE.INTER.CONST>
1

>  <SCORE.INTER.POLAR>
0

>  <SCORE.INTER.ROT>
2

>  <SCORE.INTER.SOLV>
9.9119

>  <SCORE.INTER.VDW>
-13.9001

>  <SCORE.INTER.norm>
-0.499659

>  <SCORE.INTRA>
-7.25886

>  <SCORE.INTRA.DIHEDRAL>
-9.88953

>  <SCORE.INTRA.DIHEDRAL.0>
10.3255

>  <SCORE.INTRA.POLAR>
0

>  <SCORE.INTRA.POLAR.0>
0

>  <SCORE.INTRA.REPUL>
0

>  <SCORE.INTRA.REPUL.0>
0

>  <SCORE.INTRA.SOLV>
-0.154342

>  <SCORE.INTRA.SOLV.lig_0>
-53.4755

>  <SCORE.INTRA.VDW>
-2.23692

>  <SCORE.INTRA.VDW.0>
2.32763

>  <SCORE.INTRA.norm>
-0.426992

>  <SCORE.RESTR>
0

>  <SCORE.RESTR.CAVITY>
0

>  <SCORE.RESTR.norm>
0

>  <SCORE.SYSTEM>
0

>  <SCORE.SYSTEM.CONST>
0

>  <SCORE.SYSTEM.DIHEDRAL>
0

>  <SCORE.SYSTEM.SOLV>
0

>  <SCORE.SYSTEM.norm>
0

>  <SCORE.heavy>
17

>  <SCORE.norm>
-0.926651

>  <RMSD>
34.201

$$$$
ligand
 OpenBabel11021811503D
libRbt.so/2013.1/901 2013/11/27
 17 18  0  0  0  0  0  0  0  0999 V2000
   -4.4498  -26.8247   30.6877 N   0  0  0  0  0  0  0  0  0  0  0  0
   -4.4359  -28.2239   30.7523 C   0  0  0  0  0  0  0  0  0  0  0  0
   -3.7524  -28.9750   29.7394 N   0  0  0  0  0  0  0  0  0  0  0  0
   -5.0600  -28.9016   31.7771 N   0  0  0  0  0  0  0  0  0  0  0  0
   -5.7275  -28.2227   32.7753 C   0  0  0  0  0  0  0  0  0  0  0  0
   -5.7795  -26.7936   32.7567 C   0  0  0  0  0  0  0  0  0  0  0  0
   -6.2738  -28.8381   33.6711 O   0  0  0  0  0  0  0  0  0  0  0  0
   -6.4806  -26.0394   33.7927 N   0  0  0  0  0  0  0  0  0  0  0  0
   -6.3451  -24.6276   33.8460 C   0  0  2  0  0  0  0  0  0  0  0  0
   -6.0865  -23.9758   32.4615 C   0  0  0  0  0  0  0  0  0  0  0  0
   -5.1218  -26.1102   31.6899 C   0  0  0  0  0  0  0  0  0  0  0  0
   -5.1589  -24.6366   31.6509 N   0  0  0  0  0  0  0  0  0  0  0  0
   -5.2836  -24.2954   34.8787 C   0  0  1  0  0  0  0  0  0  0  0  0
   -4.0993  -24.9404   34.5827 O   0  0  0  0  0  0  0  0  0  0  0  0
   -5.0700  -22.8128   34.9483 C   0  0  1  0  0  0  0  0  0  0  0  0
   -6.1828  -22.1932   35.3663 O   0  0  0  0  0  0  0  0  0  0  0  0
   -3.9278  -22.4602   35.9248 C   0  0  0  0  0  0  0  0  0  0  0  0
  1  2  2  0  0  0  0
  1 11  1  0  0  0  0
  2  3  1  0  0  0  0
  2  4  1  0  0  0  0
  4  5  1  0  0  0  0
  5  6  1  0  0  0  0
  5  7  2  0  0  0  0
  6  8  1  0  0  0  0
  6 11  2  0  0  0  0
  9  8  1  6  0  0  0
  9 10  1  0  0  0  0
  9 13  1  0  0  0  0
 10 12  1  0  0  0  0
 11 12  1  0  0  0  0
 13 14  1  6  0  0  0
 13 15  1  0  0  0  0
 15 16  1  1  0  0  0
 15 17  1  0  0  0  0
M  END
>  <CHROM.1>
55.82074713,63.60205594,-5.24568309,-25.76072170,33.08473280,-1.44170897
1.11018532,0.50137352

>  <Name>
ligand

>  <RI>
0

>  <Rbt.Current_Directory>
/home/itssahil/PROJECTS/Mol_Feturizer/New_Systems/rnas/4LVX

>  <Rbt.Executable>
rbdock ($Id: //depot/dev/client3/rdock/2013.1/src/exe/rbdock.cxx#4 $)

>  <Rbt.Library>
libRbt.so (2013.1, Build901 2013/11/27)

>  <Rbt.Parameter_File>
/export/apps/rDock/src/rDock_2013.1_src/data/scripts/dock_solv.prm

>  <Rbt.Receptor>
prm/blind_docking_100.prm

>  <SCORE>
-13.8855

>  <SCORE.INTER>
-7.05782

>  <SCORE.INTER.CONST>
1

>  <SCORE.INTER.POLAR>
0

>  <SCORE.INTER.ROT>
2

>  <SCORE.INTER.SOLV>
16.7632

>  <SCORE.INTER.VDW>
-15.2263

>  <SCORE.INTER.norm>
-0.415166

>  <SCORE.INTRA>
-6.82768

>  <SCORE.INTRA.DIHEDRAL>
-10.0678

>  <SCORE.INTRA.DIHEDRAL.0>
10.3255

>  <SCORE.INTRA.POLAR>
0

>  <SCORE.INTRA.POLAR.0>
0

>  <SCORE.INTRA.REPUL>
0

>  <SCORE.INTRA.REPUL.0>
0

>  <SCORE.INTRA.SOLV>
-0.130484

>  <SCORE.INTRA.SOLV.lig_0>
-53.4755

>  <SCORE.INTRA.VDW>
-1.72854

>  <SCORE.INTRA.VDW.0>
2.32763

>  <SCORE.INTRA.norm>
-0.401628

>  <SCORE.RESTR>
0

>  <SCORE.RESTR.CAVITY>
0

>  <SCORE.RESTR.norm>
0

>  <SCORE.SYSTEM>
0

>  <SCORE.SYSTEM.CONST>
0

>  <SCORE.SYSTEM.DIHEDRAL>
0

>  <SCORE.SYSTEM.SOLV>
0

>  <SCORE.SYSTEM.norm>
0

>  <SCORE.heavy>
17

>  <SCORE.norm>
-0.816794

>  <RMSD>
34.257

$$$$
ligand
 OpenBabel11021811503D
libRbt.so/2013.1/901 2013/11/27
 17 18  0  0  0  0  0  0  0  0999 V2000
   -4.4483  -26.8439   30.6957 N   0  0  0  0  0  0  0  0  0  0  0  0
   -4.4418  -28.2432   30.7597 C   0  0  0  0  0  0  0  0  0  0  0  0
   -3.7552  -28.9972   29.7510 N   0  0  0  0  0  0  0  0  0  0  0  0
   -5.0762  -28.9184   31.7799 N   0  0  0  0  0  0  0  0  0  0  0  0
   -5.7471  -28.2366   32.7739 C   0  0  0  0  0  0  0  0  0  0  0  0
   -5.7919  -26.8072   32.7556 C   0  0  0  0  0  0  0  0  0  0  0  0
   -6.3024  -28.8497   33.6656 O   0  0  0  0  0  0  0  0  0  0  0  0
   -6.4962  -26.0500   33.7873 N   0  0  0  0  0  0  0  0  0  0  0  0
   -6.3541  -24.6390   33.8422 C   0  0  2  0  0  0  0  0  0  0  0  0
   -6.0829  -23.9878   32.4598 C   0  0  0  0  0  0  0  0  0  0  0  0
   -5.1236  -26.1266   31.6936 C   0  0  0  0  0  0  0  0  0  0  0  0
   -5.1532  -24.6528   31.6552 N   0  0  0  0  0  0  0  0  0  0  0  0
   -5.2980  -24.3125   34.8823 C   0  0  1  0  0  0  0  0  0  0  0  0
   -4.1159  -24.9660   34.5958 O   0  0  0  0  0  0  0  0  0  0  0  0
   -5.0748  -22.8313   34.9513 C   0  0  1  0  0  0  0  0  0  0  0  0
   -6.1776  -22.2062   35.3873 O   0  0  0  0  0  0  0  0  0  0  0  0
   -3.9160  -22.4872   35.9111 C   0  0  0  0  0  0  0  0  0  0  0  0
  1  2  2  0  0  0  0
  1 11  1  0  0  0  0
  2  3  1  0  0  0  0
  2  4  1  0  0  0  0
  4  5  1  0  0  0  0
  5  6  1  0  0  0  0
  5  7  2  0  0  0  0
  6  8  1  0  0  0  0
  6 11  2  0  0  0  0
  9  8  1  6  0  0  0
  9 10  1  0  0  0  0
  9 13  1  0  0  0  0
 10 12  1  0  0  0  0
 11 12  1  0  0  0  0
 13 14  1  6  0  0  0
 13 15  1  0  0  0  0
 15 16  1  1  0  0  0
 15 17  1  0  0  0  0
M  END
>  <CHROM.1>
55.66571487,64.90833382,-5.25270361,-25.77754107,33.08758487,-1.44814561
1.09658087,0.50768831

>  <Name>
ligand

>  <RI>
0

>  <Rbt.Current_Directory>
/home/itssahil/PROJECTS/Mol_Feturizer/New_Systems/rnas/4LVX

>  <Rbt.Executable>
rbdock ($Id: //depot/dev/client3/rdock/2013.1/src/exe/rbdock.cxx#4 $)

>  <Rbt.Library>
libRbt.so (2013.1, Build901 2013/11/27)

>  <Rbt.Parameter_File>
/export/apps/rDock/src/rDock_2013.1_src/data/scripts/dock_solv.prm

>  <Rbt.Receptor>
prm/blind_docking_60.prm

>  <SCORE>
-13.8084

>  <SCORE.INTER>
-7.04887

>  <SCORE.INTER.CONST>
1

>  <SCORE.INTER.POLAR>
0

>  <SCORE.INTER.ROT>
2

>  <SCORE.INTER.SOLV>
16.8179

>  <SCORE.INTER.VDW>
-15.2385

>  <SCORE.INTER.norm>
-0.41464

>  <SCORE.INTRA>
-6.76077

>  <SCORE.INTRA.DIHEDRAL>
-10.0246

>  <SCORE.INTRA.DIHEDRAL.0>
10.3255

>  <SCORE.INTRA.POLAR>
0

>  <SCORE.INTRA.POLAR.0>
0

>  <SCORE.INTRA.REPUL>
0

>  <SCORE.INTRA.REPUL.0>
0

>  <SCORE.INTRA.SOLV>
-0.137228

>  <SCORE.INTRA.SOLV.lig_0>
-53.4755

>  <SCORE.INTRA.VDW>
-1.67984

>  <SCORE.INTRA.VDW.0>
2.32763

>  <SCORE.INTRA.norm>
-0.397692

>  <SCORE.RESTR>
0.00128392

>  <SCORE.RESTR.CAVITY>
0.00128392

>  <SCORE.RESTR.norm>
7.55249e-05

>  <SCORE.SYSTEM>
0

>  <SCORE.SYSTEM.CONST>
0

>  <SCORE.SYSTEM.DIHEDRAL>
0

>  <SCORE.SYSTEM.SOLV>
0

>  <SCORE.SYSTEM.norm>
0

>  <SCORE.heavy>
17

>  <SCORE.norm>
-0.812256

>  <RMSD>
34.275

$$$$
ligand
 OpenBabel11021811503D
libRbt.so/2013.1/901 2013/11/27
 17 18  0  0  0  0  0  0  0  0999 V2000
   -4.4995  -25.2854   34.8014 N   0  0  0  0  0  0  0  0  0  0  0  0
   -4.5371  -23.8852   34.7989 C   0  0  0  0  0  0  0  0  0  0  0  0
   -3.7703  -23.1523   35.7643 N   0  0  0  0  0  0  0  0  0  0  0  0
   -5.2917  -23.1888   33.8797 N   0  0  0  0  0  0  0  0  0  0  0  0
   -6.0434  -23.8498   32.9305 C   0  0  0  0  0  0  0  0  0  0  0  0
   -6.0476  -25.2793   32.8901 C   0  0  0  0  0  0  0  0  0  0  0  0
   -6.7043  -23.2181   32.1282 O   0  0  0  0  0  0  0  0  0  0  0  0
   -6.8344  -26.0151   31.9035 N   0  0  0  0  0  0  0  0  0  0  0  0
   -6.6610  -27.4176   31.7721 C   0  0  2  0  0  0  0  0  0  0  0  0
   -6.2307  -28.1163   33.0895 C   0  0  0  0  0  0  0  0  0  0  0  0
   -5.2549  -25.9818   33.8471 C   0  0  0  0  0  0  0  0  0  0  0  0
   -5.2408  -27.4562   33.8233 N   0  0  0  0  0  0  0  0  0  0  0  0
   -5.7098  -27.6678   30.6161 C   0  0  1  0  0  0  0  0  0  0  0  0
   -4.4321  -27.2574   30.9408 O   0  0  0  0  0  0  0  0  0  0  0  0
   -5.7149  -29.1199   30.2420 C   0  0  1  0  0  0  0  0  0  0  0  0
   -6.8902  -29.4642   29.6969 O   0  0  0  0  0  0  0  0  0  0  0  0
   -4.6008  -29.4356   29.2214 C   0  0  0  0  0  0  0  0  0  0  0  0
  1  2  2  0  0  0  0
  1 11  1  0  0  0  0
  2  3  1  0  0  0  0
  2  4  1  0  0  0  0
  4  5  1  0  0  0  0
  5  6  1  0  0  0  0
  5  7  2  0  0  0  0
  6  8  1  0  0  0  0
  6 11  2  0  0  0  0
  9  8  1  1  0  0  0
  9 10  1  0  0  0  0
  9 13  1  0  0  0  0
 10 12  1  0  0  0  0
 11 12  1  0  0  0  0
 13 14  1  1  0  0  0
 13 15  1  0  0  0  0
 15 16  1  6  0  0  0
 15 17  1  0  0  0  0
M  END
>  <CHROM.1>
69.51366973,68.59736274,-5.56104044,-26.27495630,32.41863500,-1.36479409
0.94975185,-2.62495037

>  <Name>
ligand

>  <RI>
0

>  <Rbt.Current_Directory>
/home/itssahil/PROJECTS/Mol_Feturizer/New_Systems/rnas/4LVX

>  <Rbt.Executable>
rbdock ($Id: //depot/dev/client3/rdock/2013.1/src/exe/rbdock.cxx#4 $)

>  <Rbt.Library>
libRbt.so (2013.1, Build901 2013/11/27)

>  <Rbt.Parameter_File>
/export/apps/rDock/src/rDock_2013.1_src/data/scripts/dock_solv.prm

>  <Rbt.Receptor>
prm/blind_docking_100.prm

>  <SCORE>
-15.5872

>  <SCORE.INTER>
-8.75376

>  <SCORE.INTER.CONST>
1

>  <SCORE.INTER.POLAR>
0

>  <SCORE.INTER.ROT>
2

>  <SCORE.INTER.SOLV>
16.7759

>  <SCORE.INTER.VDW>
-16.3611

>  <SCORE.INTER.norm>
-0.514927

>  <SCORE.INTRA>
-6.83341

>  <SCORE.INTRA.DIHEDRAL>
-9.61542

>  <SCORE.INTRA.DIHEDRAL.0>
10.3255

>  <SCORE.INTRA.POLAR>
0

>  <SCORE.INTRA.POLAR.0>
0

>  <SCORE.INTRA.REPUL>
0

>  <SCORE.INTRA.REPUL.0>
0

>  <SCORE.INTRA.SOLV>
-0.223795

>  <SCORE.INTRA.SOLV.lig_0>
-53.4755

>  <SCORE.INTRA.VDW>
-1.9138

>  <SCORE.INTRA.VDW.0>
2.32763

>  <SCORE.INTRA.norm>
-0.401965

>  <SCORE.RESTR>
0

>  <SCORE.RESTR.CAVITY>
0

>  <SCORE.RESTR.norm>
0

>  <SCORE.SYSTEM>
0

>  <SCORE.SYSTEM.CONST>
0

>  <SCORE.SYSTEM.DIHEDRAL>
0

>  <SCORE.SYSTEM.SOLV>
0

>  <SCORE.SYSTEM.norm>
0

>  <SCORE.heavy>
17

>  <SCORE.norm>
-0.916892

>  <RMSD>
34.293

$$$$
ligand
 OpenBabel11021811503D
libRbt.so/2013.1/901 2013/11/27
 17 18  0  0  0  0  0  0  0  0999 V2000
   -4.4916  -25.3063   34.7880 N   0  0  0  0  0  0  0  0  0  0  0  0
   -4.5131  -23.9058   34.7799 C   0  0  0  0  0  0  0  0  0  0  0  0
   -3.7410  -23.1779   35.7449 N   0  0  0  0  0  0  0  0  0  0  0  0
   -5.2568  -23.2044   33.8556 N   0  0  0  0  0  0  0  0  0  0  0  0
   -6.0130  -23.8605   32.9065 C   0  0  0  0  0  0  0  0  0  0  0  0
   -6.0335  -25.2900   32.8717 C   0  0  0  0  0  0  0  0  0  0  0  0
   -6.6640  -23.2244   32.0996 O   0  0  0  0  0  0  0  0  0  0  0  0
   -6.8255  -26.0206   31.8855 N   0  0  0  0  0  0  0  0  0  0  0  0
   -6.6678  -27.4255   31.7602 C   0  0  2  0  0  0  0  0  0  0  0  0
   -6.2497  -28.1239   33.0816 C   0  0  0  0  0  0  0  0  0  0  0  0
   -5.2519  -25.9978   33.8340 C   0  0  0  0  0  0  0  0  0  0  0  0
   -5.2547  -27.4723   33.8160 N   0  0  0  0  0  0  0  0  0  0  0  0
   -5.7159  -27.6912   30.6082 C   0  0  1  0  0  0  0  0  0  0  0  0
   -4.4362  -27.2869   30.9325 O   0  0  0  0  0  0  0  0  0  0  0  0
   -5.7300  -29.1461   30.2454 C   0  0  1  0  0  0  0  0  0  0  0  0
   -6.9099  -29.4890   29.7096 O   0  0  0  0  0  0  0  0  0  0  0  0
   -4.6231  -29.4751   29.2211 C   0  0  0  0  0  0  0  0  0  0  0  0
  1  2  2  0  0  0  0
  1 11  1  0  0  0  0
  2  3  1  0  0  0  0
  2  4  1  0  0  0  0
  4  5  1  0  0  0  0
  5  6  1  0  0  0  0
  5  7  2  0  0  0  0
  6  8  1  0  0  0  0
  6 11  2  0  0  0  0
  9  8  1  1  0  0  0
  9 10  1  0  0  0  0
  9 13  1  0  0  0  0
 10 12  1  0  0  0  0
 11 12  1  0  0  0  0
 13 14  1  1  0  0  0
 13 15  1  0  0  0  0
 15 16  1  6  0  0  0
 15 17  1  0  0  0  0
M  END
>  <CHROM.1>
69.15695756,68.14104415,-5.55636698,-26.29326717,32.40682852,-1.35013924
0.95993234,-2.64197023

>  <Name>
ligand

>  <RI>
0

>  <Rbt.Current_Directory>
/home/itssahil/PROJECTS/Mol_Feturizer/New_Systems/rnas/4LVX

>  <Rbt.Executable>
rbdock ($Id: //depot/dev/client3/rdock/2013.1/src/exe/rbdock.cxx#4 $)

>  <Rbt.Library>
libRbt.so (2013.1, Build901 2013/11/27)

>  <Rbt.Parameter_File>
/export/apps/rDock/src/rDock_2013.1_src/data/scripts/dock_solv.prm

>  <Rbt.Receptor>
prm/blind_docking_100.prm

>  <SCORE>
-15.58

>  <SCORE.INTER>
-8.70875

>  <SCORE.INTER.CONST>
1

>  <SCORE.INTER.POLAR>
0

>  <SCORE.INTER.ROT>
2

>  <SCORE.INTER.SOLV>
16.9174

>  <SCORE.INTER.VDW>
-16.3783

>  <SCORE.INTER.norm>
-0.512279

>  <SCORE.INTRA>
-6.87126

>  <SCORE.INTRA.DIHEDRAL>
-9.66419

>  <SCORE.INTRA.DIHEDRAL.0>
10.3255

>  <SCORE.INTRA.POLAR>
0

>  <SCORE.INTRA.POLAR.0>
0

>  <SCORE.INTRA.REPUL>
0

>  <SCORE.INTRA.REPUL.0>
0

>  <SCORE.INTRA.SOLV>
-0.219706

>  <SCORE.INTRA.SOLV.lig_0>
-53.4755

>  <SCORE.INTRA.VDW>
-1.92931

>  <SCORE.INTRA.VDW.0>
2.32763

>  <SCORE.INTRA.norm>
-0.404192

>  <SCORE.RESTR>
0

>  <SCORE.RESTR.CAVITY>
0

>  <SCORE.RESTR.norm>
0

>  <SCORE.SYSTEM>
0

>  <SCORE.SYSTEM.CONST>
0

>  <SCORE.SYSTEM.DIHEDRAL>
0

>  <SCORE.SYSTEM.SOLV>
0

>  <SCORE.SYSTEM.norm>
0

>  <SCORE.heavy>
17

>  <SCORE.norm>
-0.916471

>  <RMSD>
34.306

$$$$
ligand
 OpenBabel11021811503D
libRbt.so/2013.1/901 2013/11/27
 17 18  0  0  0  0  0  0  0  0999 V2000
  -10.3459  -27.0245   31.7908 N   0  0  0  0  0  0  0  0  0  0  0  0
   -9.9570  -27.3020   30.4741 C   0  0  0  0  0  0  0  0  0  0  0  0
  -10.9028  -27.8728   29.5593 N   0  0  0  0  0  0  0  0  0  0  0  0
   -8.6810  -27.0303   30.0298 N   0  0  0  0  0  0  0  0  0  0  0  0
   -7.7377  -26.4790   30.8719 C   0  0  0  0  0  0  0  0  0  0  0  0
   -8.0775  -26.1807   32.2287 C   0  0  0  0  0  0  0  0  0  0  0  0
   -6.6160  -26.2475   30.4623 O   0  0  0  0  0  0  0  0  0  0  0  0
   -7.1050  -25.6014   33.1519 N   0  0  0  0  0  0  0  0  0  0  0  0
   -7.5328  -25.1424   34.4249 C   0  0  2  0  0  0  0  0  0  0  0  0
   -8.7595  -25.9124   34.9826 C   0  0  0  0  0  0  0  0  0  0  0  0
   -9.4059  -26.4642   32.6675 C   0  0  0  0  0  0  0  0  0  0  0  0
   -9.7807  -26.1624   34.0614 N   0  0  0  0  0  0  0  0  0  0  0  0
   -7.7493  -23.6428   34.3361 C   0  0  1  0  0  0  0  0  0  0  0  0
   -8.0521  -23.1214   35.5783 O   0  0  0  0  0  0  0  0  0  0  0  0
   -6.5334  -22.9733   33.7687 C   0  0  1  0  0  0  0  0  0  0  0  0
   -6.7587  -21.6658   33.5774 O   0  0  0  0  0  0  0  0  0  0  0  0
   -5.3243  -23.1189   34.7171 C   0  0  0  0  0  0  0  0  0  0  0  0
  1  2  2  0  0  0  0
  1 11  1  0  0  0  0
  2  3  1  0  0  0  0
  2  4  1  0  0  0  0
  4  5  1  0  0  0  0
  5  6  1  0  0  0  0
  5  7  2  0  0  0  0
  6  8  1  0  0  0  0
  6 11  2  0  0  0  0
  9  8  1  6  0  0  0
  9 10  1  0  0  0  0
  9 13  1  0  0  0  0
 10 12  1  0  0  0  0
 11 12  1  0  0  0  0
 13 14  1  1  0  0  0
 13 15  1  0  0  0  0
 15 16  1  1  0  0  0
 15 17  1  0  0  0  0
M  END
>  <CHROM.1>
-174.65278106,174.56757007,-8.14708591,-25.33214915,32.78893780,2.11688688
-0.60447935,-2.04636478

>  <Name>
ligand

>  <RI>
0

>  <Rbt.Current_Directory>
/home/itssahil/PROJECTS/Mol_Feturizer/New_Systems/rnas/4LVX

>  <Rbt.Executable>
rbdock ($Id: //depot/dev/client3/rdock/2013.1/src/exe/rbdock.cxx#4 $)

>  <Rbt.Library>
libRbt.so (2013.1, Build901 2013/11/27)

>  <Rbt.Parameter_File>
/export/apps/rDock/src/rDock_2013.1_src/data/scripts/dock_solv.prm

>  <Rbt.Receptor>
prm/blind_docking_80.prm

>  <SCORE>
-13.9636

>  <SCORE.INTER>
-7.49414

>  <SCORE.INTER.CONST>
1

>  <SCORE.INTER.POLAR>
0

>  <SCORE.INTER.ROT>
2

>  <SCORE.INTER.SOLV>
6.17056

>  <SCORE.INTER.VDW>
-11.9863

>  <SCORE.INTER.norm>
-0.440832

>  <SCORE.INTRA>
-6.46947

>  <SCORE.INTRA.DIHEDRAL>
-9.96093

>  <SCORE.INTRA.DIHEDRAL.0>
10.3255

>  <SCORE.INTRA.POLAR>
0

>  <SCORE.INTRA.POLAR.0>
0

>  <SCORE.INTRA.REPUL>
0

>  <SCORE.INTRA.REPUL.0>
0

>  <SCORE.INTRA.SOLV>
-0.471303

>  <SCORE.INTRA.SOLV.lig_0>
-53.4755

>  <SCORE.INTRA.VDW>
-1.25336

>  <SCORE.INTRA.VDW.0>
2.32763

>  <SCORE.INTRA.norm>
-0.380557

>  <SCORE.RESTR>
0

>  <SCORE.RESTR.CAVITY>
0

>  <SCORE.RESTR.norm>
0

>  <SCORE.SYSTEM>
0

>  <SCORE.SYSTEM.CONST>
0

>  <SCORE.SYSTEM.DIHEDRAL>
0

>  <SCORE.SYSTEM.SOLV>
0

>  <SCORE.SYSTEM.norm>
0

>  <SCORE.heavy>
17

>  <SCORE.norm>
-0.821389

>  <RMSD>
34.306

$$$$
ligand
 OpenBabel11021811503D
libRbt.so/2013.1/901 2013/11/27
 17 18  0  0  0  0  0  0  0  0999 V2000
   -4.7356  -28.0122   30.5411 N   0  0  0  0  0  0  0  0  0  0  0  0
   -5.6056  -28.9343   29.9454 C   0  0  0  0  0  0  0  0  0  0  0  0
   -5.0807  -30.1438   29.3807 N   0  0  0  0  0  0  0  0  0  0  0  0
   -6.9646  -28.7107   29.8956 N   0  0  0  0  0  0  0  0  0  0  0  0
   -7.5160  -27.5636   30.4276 C   0  0  0  0  0  0  0  0  0  0  0  0
   -6.6745  -26.5843   31.0425 C   0  0  0  0  0  0  0  0  0  0  0  0
   -8.7176  -27.3829   30.3730 O   0  0  0  0  0  0  0  0  0  0  0  0
   -7.2202  -25.3550   31.6124 N   0  0  0  0  0  0  0  0  0  0  0  0
   -6.3825  -24.5057   32.3813 C   0  0  2  0  0  0  0  0  0  0  0  0
   -4.8888  -24.5636   31.9642 C   0  0  0  0  0  0  0  0  0  0  0  0
   -5.2704  -26.8375   31.0891 C   0  0  0  0  0  0  0  0  0  0  0  0
   -4.3828  -25.8438   31.7209 N   0  0  0  0  0  0  0  0  0  0  0  0
   -6.6135  -24.8195   33.8482 C   0  0  1  0  0  0  0  0  0  0  0  0
   -5.8747  -25.9212   34.2314 O   0  0  0  0  0  0  0  0  0  0  0  0
   -6.2643  -23.6332   34.6963 C   0  0  1  0  0  0  0  0  0  0  0  0
   -4.9873  -23.2737   34.5046 O   0  0  0  0  0  0  0  0  0  0  0  0
   -7.1605  -22.4232   34.3568 C   0  0  0  0  0  0  0  0  0  0  0  0
  1  2  2  0  0  0  0
  1 11  1  0  0  0  0
  2  3  1  0  0  0  0
  2  4  1  0  0  0  0
  4  5  1  0  0  0  0
  5  6  1  0  0  0  0
  5  7  2  0  0  0  0
  6  8  1  0  0  0  0
  6 11  2  0  0  0  0
  9  8  1  6  0  0  0
  9 10  1  0  0  0  0
  9 13  1  0  0  0  0
 10 12  1  0  0  0  0
 11 12  1  0  0  0  0
 13 14  1  1  0  0  0
 13 15  1  0  0  0  0
 15 16  1  6  0  0  0
 15 17  1  0  0  0  0
M  END
>  <CHROM.1>
82.22973206,-58.26561967,-6.14396372,-26.09290814,31.94390524,-1.58028370
-0.14582805,0.68844720

>  <Name>
ligand

>  <RI>
0

>  <Rbt.Current_Directory>
/home/itssahil/PROJECTS/Mol_Feturizer/New_Systems/rnas/4LVX

>  <Rbt.Executable>
rbdock ($Id: //depot/dev/client3/rdock/2013.1/src/exe/rbdock.cxx#4 $)

>  <Rbt.Library>
libRbt.so (2013.1, Build901 2013/11/27)

>  <Rbt.Parameter_File>
/export/apps/rDock/src/rDock_2013.1_src/data/scripts/dock_solv.prm

>  <Rbt.Receptor>
prm/blind_docking_60.prm

>  <SCORE>
-15.2682

>  <SCORE.INTER>
-9.82532

>  <SCORE.INTER.CONST>
1

>  <SCORE.INTER.POLAR>
0

>  <SCORE.INTER.ROT>
2

>  <SCORE.INTER.SOLV>
16.5933

>  <SCORE.INTER.VDW>
-17.0147

>  <SCORE.INTER.norm>
-0.57796

>  <SCORE.INTRA>
-5.4429

>  <SCORE.INTRA.DIHEDRAL>
-8.62949

>  <SCORE.INTRA.DIHEDRAL.0>
10.3255

>  <SCORE.INTRA.POLAR>
0

>  <SCORE.INTRA.POLAR.0>
0

>  <SCORE.INTRA.REPUL>
0

>  <SCORE.INTRA.REPUL.0>
0

>  <SCORE.INTRA.SOLV>
0.388983

>  <SCORE.INTRA.SOLV.lig_0>
-53.4755

>  <SCORE.INTRA.VDW>
-1.32265

>  <SCORE.INTRA.VDW.0>
2.32763

>  <SCORE.INTRA.norm>
-0.320171

>  <SCORE.RESTR>
0

>  <SCORE.RESTR.CAVITY>
0

>  <SCORE.RESTR.norm>
0

>  <SCORE.SYSTEM>
0

>  <SCORE.SYSTEM.CONST>
0

>  <SCORE.SYSTEM.DIHEDRAL>
0

>  <SCORE.SYSTEM.SOLV>
0

>  <SCORE.SYSTEM.norm>
0

>  <SCORE.heavy>
17

>  <SCORE.norm>
-0.898131

>  <RMSD>
34.403

$$$$
ligand
 OpenBabel11021811503D
libRbt.so/2013.1/901 2013/11/27
 17 18  0  0  0  0  0  0  0  0999 V2000
   -4.7373  -28.0187   30.5621 N   0  0  0  0  0  0  0  0  0  0  0  0
   -5.6066  -28.9406   29.9651 C   0  0  0  0  0  0  0  0  0  0  0  0
   -5.0816  -30.1521   29.4048 N   0  0  0  0  0  0  0  0  0  0  0  0
   -6.9650  -28.7149   29.9099 N   0  0  0  0  0  0  0  0  0  0  0  0
   -7.5166  -27.5659   30.4376 C   0  0  0  0  0  0  0  0  0  0  0  0
   -6.6757  -26.5867   31.0536 C   0  0  0  0  0  0  0  0  0  0  0  0
   -8.7177  -27.3834   30.3782 O   0  0  0  0  0  0  0  0  0  0  0  0
   -7.2216  -25.3554   31.6190 N   0  0  0  0  0  0  0  0  0  0  0  0
   -6.3853  -24.5058   32.3892 C   0  0  2  0  0  0  0  0  0  0  0  0
   -4.8901  -24.5670   31.9776 C   0  0  0  0  0  0  0  0  0  0  0  0
   -5.2722  -26.8420   31.1058 C   0  0  0  0  0  0  0  0  0  0  0  0
   -4.3853  -25.8484   31.7388 N   0  0  0  0  0  0  0  0  0  0  0  0
   -6.6222  -24.8162   33.8559 C   0  0  1  0  0  0  0  0  0  0  0  0
   -5.8879  -25.9194   34.2435 O   0  0  0  0  0  0  0  0  0  0  0  0
   -6.2723  -23.6294   34.7029 C   0  0  1  0  0  0  0  0  0  0  0  0
   -4.9942  -23.2724   34.5129 O   0  0  0  0  0  0  0  0  0  0  0  0
   -7.1657  -22.4183   34.3603 C   0  0  0  0  0  0  0  0  0  0  0  0
  1  2  2  0  0  0  0
  1 11  1  0  0  0  0
  2  3  1  0  0  0  0
  2  4  1  0  0  0  0
  4  5  1  0  0  0  0
  5  6  1  0  0  0  0
  5  7  2  0  0  0  0
  6  8  1  0  0  0  0
  6 11  2  0  0  0  0
  9  8  1  6  0  0  0
  9 10  1  0  0  0  0
  9 13  1  0  0  0  0
 10 12  1  0  0  0  0
 11 12  1  0  0  0  0
 13 14  1  1  0  0  0
 13 15  1  0  0  0  0
 15 16  1  6  0  0  0
 15 17  1  0  0  0  0
M  END
>  <CHROM.1>
82.14738370,-58.14239788,-6.14747774,-26.09446394,31.95587468,-1.57932668
-0.14928642,0.68659466

>  <Name>
ligand

>  <RI>
0

>  <Rbt.Current_Directory>
/home/itssahil/PROJECTS/Mol_Feturizer/New_Systems/rnas/4LVX

>  <Rbt.Executable>
rbdock ($Id: //depot/dev/client3/rdock/2013.1/src/exe/rbdock.cxx#4 $)

>  <Rbt.Library>
libRbt.so (2013.1, Build901 2013/11/27)

>  <Rbt.Parameter_File>
/export/apps/rDock/src/rDock_2013.1_src/data/scripts/dock_solv.prm

>  <Rbt.Receptor>
prm/blind_docking_80.prm

>  <SCORE>
-15.2598

>  <SCORE.INTER>
-9.81224

>  <SCORE.INTER.CONST>
1

>  <SCORE.INTER.POLAR>
0

>  <SCORE.INTER.ROT>
2

>  <SCORE.INTER.SOLV>
16.604

>  <SCORE.INTER.VDW>
-17.0095

>  <SCORE.INTER.norm>
-0.57719

>  <SCORE.INTRA>
-5.44752

>  <SCORE.INTRA.DIHEDRAL>
-8.63819

>  <SCORE.INTRA.DIHEDRAL.0>
10.3255

>  <SCORE.INTRA.POLAR>
0

>  <SCORE.INTRA.POLAR.0>
0

>  <SCORE.INTRA.REPUL>
0

>  <SCORE.INTRA.REPUL.0>
0

>  <SCORE.INTRA.SOLV>
0.390802

>  <SCORE.INTRA.SOLV.lig_0>
-53.4755

>  <SCORE.INTRA.VDW>
-1.32383

>  <SCORE.INTRA.VDW.0>
2.32763

>  <SCORE.INTRA.norm>
-0.320443

>  <SCORE.RESTR>
0

>  <SCORE.RESTR.CAVITY>
0

>  <SCORE.RESTR.norm>
0

>  <SCORE.SYSTEM>
0

>  <SCORE.SYSTEM.CONST>
0

>  <SCORE.SYSTEM.DIHEDRAL>
0

>  <SCORE.SYSTEM.SOLV>
0

>  <SCORE.SYSTEM.norm>
0

>  <SCORE.heavy>
17

>  <SCORE.norm>
-0.897633

>  <RMSD>
34.408

$$$$
ligand
 OpenBabel11021811503D
libRbt.so/2013.1/901 2013/11/27
 17 18  0  0  0  0  0  0  0  0999 V2000
   -4.4968  -25.4330   34.7825 N   0  0  0  0  0  0  0  0  0  0  0  0
   -4.5308  -24.0328   34.7739 C   0  0  0  0  0  0  0  0  0  0  0  0
   -3.7833  -23.2980   35.7530 N   0  0  0  0  0  0  0  0  0  0  0  0
   -5.2634  -23.3380   33.8358 N   0  0  0  0  0  0  0  0  0  0  0  0
   -5.9959  -24.0007   32.8729 C   0  0  0  0  0  0  0  0  0  0  0  0
   -6.0029  -25.4304   32.8379 C   0  0  0  0  0  0  0  0  0  0  0  0
   -6.6375  -23.3705   32.0540 O   0  0  0  0  0  0  0  0  0  0  0  0
   -6.7699  -26.1680   31.8372 N   0  0  0  0  0  0  0  0  0  0  0  0
   -6.5973  -27.5714   31.7149 C   0  0  2  0  0  0  0  0  0  0  0  0
   -6.1976  -28.2661   33.0440 C   0  0  0  0  0  0  0  0  0  0  0  0
   -5.2331  -26.1312   33.8146 C   0  0  0  0  0  0  0  0  0  0  0  0
   -5.2223  -27.6057   33.7967 N   0  0  0  0  0  0  0  0  0  0  0  0
   -5.6219  -27.8285   30.5809 C   0  0  1  0  0  0  0  0  0  0  0  0
   -4.3577  -27.3876   30.9183 O   0  0  0  0  0  0  0  0  0  0  0  0
   -5.5940  -29.2880   30.2381 C   0  0  1  0  0  0  0  0  0  0  0  0
   -6.7748  -29.6797   29.7390 O   0  0  0  0  0  0  0  0  0  0  0  0
   -4.5037  -29.5926   29.1888 C   0  0  0  0  0  0  0  0  0  0  0  0
  1  2  2  0  0  0  0
  1 11  1  0  0  0  0
  2  3  1  0  0  0  0
  2  4  1  0  0  0  0
  4  5  1  0  0  0  0
  5  6  1  0  0  0  0
  5  7  2  0  0  0  0
  6  8  1  0  0  0  0
  6 11  2  0  0  0  0
  9  8  1  1  0  0  0
  9 10  1  0  0  0  0
  9 13  1  0  0  0  0
 10 12  1  0  0  0  0
 11 12  1  0  0  0  0
 13 14  1  1  0  0  0
 13 15  1  0  0  0  0
 15 16  1  6  0  0  0
 15 17  1  0  0  0  0
M  END
>  <CHROM.1>
67.92371996,65.68622347,-5.50792790,-26.43013572,32.38615123,-1.37780113
0.98149279,-2.62346626

>  <Name>
ligand

>  <RI>
0

>  <Rbt.Current_Directory>
/home/itssahil/PROJECTS/Mol_Feturizer/New_Systems/rnas/4LVX

>  <Rbt.Executable>
rbdock ($Id: //depot/dev/client3/rdock/2013.1/src/exe/rbdock.cxx#4 $)

>  <Rbt.Library>
libRbt.so (2013.1, Build901 2013/11/27)

>  <Rbt.Parameter_File>
/export/apps/rDock/src/rDock_2013.1_src/data/scripts/dock_solv.prm

>  <Rbt.Receptor>
prm/blind_docking_60.prm

>  <SCORE>
-15.7019

>  <SCORE.INTER>
-8.66593

>  <SCORE.INTER.CONST>
1

>  <SCORE.INTER.POLAR>
0

>  <SCORE.INTER.ROT>
2

>  <SCORE.INTER.SOLV>
17.0939

>  <SCORE.INTER.VDW>
-16.4086

>  <SCORE.INTER.norm>
-0.509761

>  <SCORE.INTRA>
-7.03594

>  <SCORE.INTRA.DIHEDRAL>
-9.85319

>  <SCORE.INTRA.DIHEDRAL.0>
10.3255

>  <SCORE.INTRA.POLAR>
0

>  <SCORE.INTRA.POLAR.0>
0

>  <SCORE.INTRA.REPUL>
0

>  <SCORE.INTRA.REPUL.0>
0

>  <SCORE.INTRA.SOLV>
-0.200778

>  <SCORE.INTRA.SOLV.lig_0>
-53.4755

>  <SCORE.INTRA.VDW>
-2.00895

>  <SCORE.INTRA.VDW.0>
2.32763

>  <SCORE.INTRA.norm>
-0.413879

>  <SCORE.RESTR>
0

>  <SCORE.RESTR.CAVITY>
0

>  <SCORE.RESTR.norm>
0

>  <SCORE.SYSTEM>
0

>  <SCORE.SYSTEM.CONST>
0

>  <SCORE.SYSTEM.DIHEDRAL>
0

>  <SCORE.SYSTEM.SOLV>
0

>  <SCORE.SYSTEM.norm>
0

>  <SCORE.heavy>
17

>  <SCORE.norm>
-0.92364

>  <RMSD>
34.418

$$$$
ligand
 OpenBabel11021811503D
libRbt.so/2013.1/901 2013/11/27
 17 18  0  0  0  0  0  0  0  0999 V2000
  -10.5070  -27.1677   31.8445 N   0  0  0  0  0  0  0  0  0  0  0  0
  -10.1608  -27.4888   30.5258 C   0  0  0  0  0  0  0  0  0  0  0  0
  -11.1482  -28.0474   29.6481 N   0  0  0  0  0  0  0  0  0  0  0  0
   -8.8878  -27.2719   30.0445 N   0  0  0  0  0  0  0  0  0  0  0  0
   -7.9054  -26.7344   30.8501 C   0  0  0  0  0  0  0  0  0  0  0  0
   -8.2008  -26.3933   32.2071 C   0  0  0  0  0  0  0  0  0  0  0  0
   -6.7871  -26.5515   30.4081 O   0  0  0  0  0  0  0  0  0  0  0  0
   -7.1863  -25.8270   33.0925 N   0  0  0  0  0  0  0  0  0  0  0  0
   -7.5663  -25.3242   34.3641 C   0  0  2  0  0  0  0  0  0  0  0  0
   -8.8043  -26.0381   34.9696 C   0  0  0  0  0  0  0  0  0  0  0  0
   -9.5268  -26.6203   32.6846 C   0  0  0  0  0  0  0  0  0  0  0  0
   -9.8561  -26.2736   34.0796 N   0  0  0  0  0  0  0  0  0  0  0  0
   -7.7336  -23.8204   34.2448 C   0  0  1  0  0  0  0  0  0  0  0  0
   -7.9741  -23.2587   35.4830 O   0  0  0  0  0  0  0  0  0  0  0  0
   -6.5159  -23.2086   33.6191 C   0  0  1  0  0  0  0  0  0  0  0  0
   -6.7113  -21.9041   33.3798 O   0  0  0  0  0  0  0  0  0  0  0  0
   -5.2861  -23.3492   34.5412 C   0  0  0  0  0  0  0  0  0  0  0  0
  1  2  2  0  0  0  0
  1 11  1  0  0  0  0
  2  3  1  0  0  0  0
  2  4  1  0  0  0  0
  4  5  1  0  0  0  0
  5  6  1  0  0  0  0
  5  7  2  0  0  0  0
  6  8  1  0  0  0  0
  6 11  2  0  0  0  0
  9  8  1  6  0  0  0
  9 10  1  0  0  0  0
  9 13  1  0  0  0  0
 10 12  1  0  0  0  0
 11 12  1  0  0  0  0
 13 14  1  1  0  0  0
 13 15  1  0  0  0  0
 15 16  1  1  0  0  0
 15 17  1  0  0  0  0
M  END
>  <CHROM.1>
-174.05927041,173.42996823,-8.22808897,-25.52915310,32.74462880,2.16442142
-0.58932409,-2.04224527

>  <Name>
ligand

>  <RI>
0

>  <Rbt.Current_Directory>
/home/itssahil/PROJECTS/Mol_Feturizer/New_Systems/rnas/4LVX

>  <Rbt.Executable>
rbdock ($Id: //depot/dev/client3/rdock/2013.1/src/exe/rbdock.cxx#4 $)

>  <Rbt.Library>
libRbt.so (2013.1, Build901 2013/11/27)

>  <Rbt.Parameter_File>
/export/apps/rDock/src/rDock_2013.1_src/data/scripts/dock_solv.prm

>  <Rbt.Receptor>
prm/blind_docking_80.prm

>  <SCORE>
-13.8756

>  <SCORE.INTER>
-7.42631

>  <SCORE.INTER.CONST>
1

>  <SCORE.INTER.POLAR>
0

>  <SCORE.INTER.ROT>
2

>  <SCORE.INTER.SOLV>
5.44209

>  <SCORE.INTER.VDW>
-11.6982

>  <SCORE.INTER.norm>
-0.436842

>  <SCORE.INTRA>
-6.44925

>  <SCORE.INTRA.DIHEDRAL>
-9.88693

>  <SCORE.INTRA.DIHEDRAL.0>
10.3255

>  <SCORE.INTRA.POLAR>
0

>  <SCORE.INTRA.POLAR.0>
0

>  <SCORE.INTRA.REPUL>
0

>  <SCORE.INTRA.REPUL.0>
0

>  <SCORE.INTRA.SOLV>
-0.471443

>  <SCORE.INTRA.SOLV.lig_0>
-53.4755

>  <SCORE.INTRA.VDW>
-1.27006

>  <SCORE.INTRA.VDW.0>
2.32763

>  <SCORE.INTRA.norm>
-0.379367

>  <SCORE.RESTR>
0

>  <SCORE.RESTR.CAVITY>
0

>  <SCORE.RESTR.norm>
0

>  <SCORE.SYSTEM>
0

>  <SCORE.SYSTEM.CONST>
0

>  <SCORE.SYSTEM.DIHEDRAL>
0

>  <SCORE.SYSTEM.SOLV>
0

>  <SCORE.SYSTEM.norm>
0

>  <SCORE.heavy>
17

>  <SCORE.norm>
-0.816209

>  <RMSD>
34.487

$$$$
ligand
 OpenBabel11021811503D
libRbt.so/2013.1/901 2013/11/27
 17 18  0  0  0  0  0  0  0  0999 V2000
   -7.9978  -25.5308   34.4873 N   0  0  0  0  0  0  0  0  0  0  0  0
   -7.2111  -24.6306   35.2172 C   0  0  0  0  0  0  0  0  0  0  0  0
   -7.6040  -24.2590   36.5457 N   0  0  0  0  0  0  0  0  0  0  0  0
   -6.0556  -24.0955   34.6900 N   0  0  0  0  0  0  0  0  0  0  0  0
   -5.6358  -24.4251   33.4180 C   0  0  0  0  0  0  0  0  0  0  0  0
   -6.4033  -25.3346   32.6249 C   0  0  0  0  0  0  0  0  0  0  0  0
   -4.6139  -23.9416   32.9690 O   0  0  0  0  0  0  0  0  0  0  0  0
   -5.9942  -25.7040   31.2721 N   0  0  0  0  0  0  0  0  0  0  0  0
   -6.6720  -26.7514   30.5954 C   0  0  2  0  0  0  0  0  0  0  0  0
   -8.1568  -26.9062   31.0197 C   0  0  0  0  0  0  0  0  0  0  0  0
   -7.5936  -25.8822   33.1914 C   0  0  0  0  0  0  0  0  0  0  0  0
   -8.3999  -26.8246   32.3938 N   0  0  0  0  0  0  0  0  0  0  0  0
   -5.8596  -28.0225   30.7621 C   0  0  1  0  0  0  0  0  0  0  0  0
   -5.8387  -28.4155   32.0856 O   0  0  0  0  0  0  0  0  0  0  0  0
   -6.4178  -29.1148   29.8996 C   0  0  1  0  0  0  0  0  0  0  0  0
   -6.3343  -28.7837   28.6033 O   0  0  0  0  0  0  0  0  0  0  0  0
   -5.6490  -30.4368   30.1087 C   0  0  0  0  0  0  0  0  0  0  0  0
  1  2  2  0  0  0  0
  1 11  1  0  0  0  0
  2  3  1  0  0  0  0
  2  4  1  0  0  0  0
  4  5  1  0  0  0  0
  5  6  1  0  0  0  0
  5  7  2  0  0  0  0
  6  8  1  0  0  0  0
  6 11  2  0  0  0  0
  9  8  1  1  0  0  0
  9 10  1  0  0  0  0
  9 13  1  0  0  0  0
 10 12  1  0  0  0  0
 11 12  1  0  0  0  0
 13 14  1  1  0  0  0
 13 15  1  0  0  0  0
 15 16  1  6  0  0  0
 15 17  1  0  0  0  0
M  END
>  <CHROM.1>
65.90926526,62.68945346,-6.58433183,-26.47538248,32.28860271,1.66809101,0.58678687
0.77316049

>  <Name>
ligand

>  <RI>
0

>  <Rbt.Current_Directory>
/home/itssahil/PROJECTS/Mol_Feturizer/New_Systems/rnas/4LVX

>  <Rbt.Executable>
rbdock ($Id: //depot/dev/client3/rdock/2013.1/src/exe/rbdock.cxx#4 $)

>  <Rbt.Library>
libRbt.so (2013.1, Build901 2013/11/27)

>  <Rbt.Parameter_File>
/export/apps/rDock/src/rDock_2013.1_src/data/scripts/dock_solv.prm

>  <Rbt.Receptor>
prm/blind_docking_60.prm

>  <SCORE>
-15.2333

>  <SCORE.INTER>
-8.05921

>  <SCORE.INTER.CONST>
1

>  <SCORE.INTER.POLAR>
0

>  <SCORE.INTER.ROT>
2

>  <SCORE.INTER.SOLV>
10.3572

>  <SCORE.INTER.VDW>
-13.7585

>  <SCORE.INTER.norm>
-0.474071

>  <SCORE.INTRA>
-7.17406

>  <SCORE.INTRA.DIHEDRAL>
-10.0342

>  <SCORE.INTRA.DIHEDRAL.0>
10.3255

>  <SCORE.INTRA.POLAR>
0

>  <SCORE.INTRA.POLAR.0>
0

>  <SCORE.INTRA.REPUL>
0

>  <SCORE.INTRA.REPUL.0>
0

>  <SCORE.INTRA.SOLV>
-0.174977

>  <SCORE.INTRA.SOLV.lig_0>
-53.4755

>  <SCORE.INTRA.VDW>
-2.06949

>  <SCORE.INTRA.VDW.0>
2.32763

>  <SCORE.INTRA.norm>
-0.422004

>  <SCORE.RESTR>
0

>  <SCORE.RESTR.CAVITY>
0

>  <SCORE.RESTR.norm>
0

>  <SCORE.SYSTEM>
0

>  <SCORE.SYSTEM.CONST>
0

>  <SCORE.SYSTEM.DIHEDRAL>
0

>  <SCORE.SYSTEM.SOLV>
0

>  <SCORE.SYSTEM.norm>
0

>  <SCORE.heavy>
17

>  <SCORE.norm>
-0.896075

>  <RMSD>
34.534

$$$$
ligand
 OpenBabel11021811503D
libRbt.so/2013.1/901 2013/11/27
 17 18  0  0  0  0  0  0  0  0999 V2000
   -8.0341  -25.2735   33.5361 N   0  0  0  0  0  0  0  0  0  0  0  0
   -7.3743  -24.1540   34.0587 C   0  0  0  0  0  0  0  0  0  0  0  0
   -7.9641  -23.4239   35.1433 N   0  0  0  0  0  0  0  0  0  0  0  0
   -6.1592  -23.7382   33.5587 N   0  0  0  0  0  0  0  0  0  0  0  0
   -5.5516  -24.4099   32.5181 C   0  0  0  0  0  0  0  0  0  0  0  0
   -6.1829  -25.5562   31.9414 C   0  0  0  0  0  0  0  0  0  0  0  0
   -4.4797  -24.0273   32.0890 O   0  0  0  0  0  0  0  0  0  0  0  0
   -5.5736  -26.2906   30.8355 N   0  0  0  0  0  0  0  0  0  0  0  0
   -6.1320  -27.5284   30.4228 C   0  0  2  0  0  0  0  0  0  0  0  0
   -7.6616  -27.6310   30.6646 C   0  0  0  0  0  0  0  0  0  0  0  0
   -7.4382  -25.9740   32.4775 C   0  0  0  0  0  0  0  0  0  0  0  0
   -8.1070  -27.1552   31.9013 N   0  0  0  0  0  0  0  0  0  0  0  0
   -5.3397  -28.6442   31.0792 C   0  0  1  0  0  0  0  0  0  0  0  0
   -5.8424  -28.9233   32.3345 O   0  0  0  0  0  0  0  0  0  0  0  0
   -5.3611  -29.8734   30.2207 C   0  0  1  0  0  0  0  0  0  0  0  0
   -6.6110  -30.1524   29.8244 O   0  0  0  0  0  0  0  0  0  0  0  0
   -4.4877  -29.6882   28.9616 C   0  0  0  0  0  0  0  0  0  0  0  0
  1  2  2  0  0  0  0
  1 11  1  0  0  0  0
  2  3  1  0  0  0  0
  2  4  1  0  0  0  0
  4  5  1  0  0  0  0
  5  6  1  0  0  0  0
  5  7  2  0  0  0  0
  6  8  1  0  0  0  0
  6 11  2  0  0  0  0
  9  8  1  1  0  0  0
  9 10  1  0  0  0  0
  9 13  1  0  0  0  0
 10 12  1  0  0  0  0
 11 12  1  0  0  0  0
 13 14  1  1  0  0  0
 13 15  1  0  0  0  0
 15 16  1  6  0  0  0
 15 17  1  0  0  0  0
M  END
>  <CHROM.1>
86.53098179,-48.23507069,-6.34443330,-26.68373008,31.81866911,1.78043146
0.47031995,0.50068862

>  <Name>
ligand

>  <RI>
0

>  <Rbt.Current_Directory>
/home/itssahil/PROJECTS/Mol_Feturizer/New_Systems/rnas/4LVX

>  <Rbt.Executable>
rbdock ($Id: //depot/dev/client3/rdock/2013.1/src/exe/rbdock.cxx#4 $)

>  <Rbt.Library>
libRbt.so (2013.1, Build901 2013/11/27)

>  <Rbt.Parameter_File>
/export/apps/rDock/src/rDock_2013.1_src/data/scripts/dock_solv.prm

>  <Rbt.Receptor>
prm/blind_docking_100.prm

>  <SCORE>
-15.1931

>  <SCORE.INTER>
-9.98623

>  <SCORE.INTER.CONST>
1

>  <SCORE.INTER.POLAR>
0

>  <SCORE.INTER.ROT>
2

>  <SCORE.INTER.SOLV>
11.7095

>  <SCORE.INTER.VDW>
-15.494

>  <SCORE.INTER.norm>
-0.587425

>  <SCORE.INTRA>
-5.2071

>  <SCORE.INTRA.DIHEDRAL>
-7.61225

>  <SCORE.INTRA.DIHEDRAL.0>
10.3255

>  <SCORE.INTRA.POLAR>
0

>  <SCORE.INTRA.POLAR.0>
0

>  <SCORE.INTRA.REPUL>
0

>  <SCORE.INTRA.REPUL.0>
0

>  <SCORE.INTRA.SOLV>
0.326277

>  <SCORE.INTRA.SOLV.lig_0>
-53.4755

>  <SCORE.INTRA.VDW>
-1.56412

>  <SCORE.INTRA.VDW.0>
2.32763

>  <SCORE.INTRA.norm>
-0.3063

>  <SCORE.RESTR>
0.000181181

>  <SCORE.RESTR.CAVITY>
0.000181181

>  <SCORE.RESTR.norm>
1.06577e-05

>  <SCORE.SYSTEM>
0

>  <SCORE.SYSTEM.CONST>
0

>  <SCORE.SYSTEM.DIHEDRAL>
0

>  <SCORE.SYSTEM.SOLV>
0

>  <SCORE.SYSTEM.norm>
0

>  <SCORE.heavy>
17

>  <SCORE.norm>
-0.893715

>  <RMSD>
34.546

$$$$
ligand
 OpenBabel11021811503D
libRbt.so/2013.1/901 2013/11/27
 17 18  0  0  0  0  0  0  0  0999 V2000
   -4.6799  -28.0291   30.4378 N   0  0  0  0  0  0  0  0  0  0  0  0
   -5.5658  -28.9391   29.8470 C   0  0  0  0  0  0  0  0  0  0  0  0
   -5.0556  -30.1314   29.2343 N   0  0  0  0  0  0  0  0  0  0  0  0
   -6.9264  -28.7199   29.8471 N   0  0  0  0  0  0  0  0  0  0  0  0
   -7.4640  -27.5893   30.4263 C   0  0  0  0  0  0  0  0  0  0  0  0
   -6.6062  -26.6227   31.0388 C   0  0  0  0  0  0  0  0  0  0  0  0
   -8.6674  -27.4123   30.4155 O   0  0  0  0  0  0  0  0  0  0  0  0
   -7.1372  -25.4109   31.6579 N   0  0  0  0  0  0  0  0  0  0  0  0
   -6.2777  -24.5782   32.4209 C   0  0  2  0  0  0  0  0  0  0  0  0
   -4.7981  -24.6191   31.9542 C   0  0  0  0  0  0  0  0  0  0  0  0
   -5.2005  -26.8712   31.0332 C   0  0  0  0  0  0  0  0  0  0  0  0
   -4.2961  -25.8904   31.6615 N   0  0  0  0  0  0  0  0  0  0  0  0
   -6.4598  -24.9307   33.8859 C   0  0  1  0  0  0  0  0  0  0  0  0
   -6.0314  -26.2200   34.1321 O   0  0  0  0  0  0  0  0  0  0  0  0
   -5.7179  -23.9573   34.7523 C   0  0  1  0  0  0  0  0  0  0  0  0
   -6.1510  -22.7070   34.5378 O   0  0  0  0  0  0  0  0  0  0  0  0
   -5.9125  -24.2834   36.2484 C   0  0  0  0  0  0  0  0  0  0  0  0
  1  2  2  0  0  0  0
  1 11  1  0  0  0  0
  2  3  1  0  0  0  0
  2  4  1  0  0  0  0
  4  5  1  0  0  0  0
  5  6  1  0  0  0  0
  5  7  2  0  0  0  0
  6  8  1  0  0  0  0
  6 11  2  0  0  0  0
  9  8  1  6  0  0  0
  9 10  1  0  0  0  0
  9 13  1  0  0  0  0
 10 12  1  0  0  0  0
 11 12  1  0  0  0  0
 13 14  1  6  0  0  0
 13 15  1  0  0  0  0
 15 16  1  1  0  0  0
 15 17  1  0  0  0  0
M  END
>  <CHROM.1>
65.20757654,58.74453777,-6.07138122,-26.23979575,32.04370936,-1.59687040
-0.10693860,0.79518797

>  <Name>
ligand

>  <RI>
0

>  <Rbt.Current_Directory>
/home/itssahil/PROJECTS/Mol_Feturizer/New_Systems/rnas/4LVX

>  <Rbt.Executable>
rbdock ($Id: //depot/dev/client3/rdock/2013.1/src/exe/rbdock.cxx#4 $)

>  <Rbt.Library>
libRbt.so (2013.1, Build901 2013/11/27)

>  <Rbt.Parameter_File>
/export/apps/rDock/src/rDock_2013.1_src/data/scripts/dock_solv.prm

>  <Rbt.Receptor>
prm/blind_docking_60.prm

>  <SCORE>
-16.1539

>  <SCORE.INTER>
-8.89625

>  <SCORE.INTER.CONST>
1

>  <SCORE.INTER.POLAR>
0

>  <SCORE.INTER.ROT>
2

>  <SCORE.INTER.SOLV>
16.4268

>  <SCORE.INTER.VDW>
-16.3398

>  <SCORE.INTER.norm>
-0.523309

>  <SCORE.INTRA>
-7.25768

>  <SCORE.INTRA.DIHEDRAL>
-10.0749

>  <SCORE.INTRA.DIHEDRAL.0>
10.3255

>  <SCORE.INTRA.POLAR>
0

>  <SCORE.INTRA.POLAR.0>
0

>  <SCORE.INTRA.REPUL>
0

>  <SCORE.INTRA.REPUL.0>
0

>  <SCORE.INTRA.SOLV>
-0.150188

>  <SCORE.INTRA.SOLV.lig_0>
-53.4755

>  <SCORE.INTRA.VDW>
-2.14515

>  <SCORE.INTRA.VDW.0>
2.32763

>  <SCORE.INTRA.norm>
-0.426922

>  <SCORE.RESTR>
0

>  <SCORE.RESTR.CAVITY>
0

>  <SCORE.RESTR.norm>
0

>  <SCORE.SYSTEM>
0

>  <SCORE.SYSTEM.CONST>
0

>  <SCORE.SYSTEM.DIHEDRAL>
0

>  <SCORE.SYSTEM.SOLV>
0

>  <SCORE.SYSTEM.norm>
0

>  <SCORE.heavy>
17

>  <SCORE.norm>
-0.950231

>  <RMSD>
34.548

$$$$
ligand
 OpenBabel11021811503D
libRbt.so/2013.1/901 2013/11/27
 17 18  0  0  0  0  0  0  0  0999 V2000
  -10.6171  -27.1683   31.7647 N   0  0  0  0  0  0  0  0  0  0  0  0
  -10.2453  -27.4061   30.4354 C   0  0  0  0  0  0  0  0  0  0  0  0
  -11.2108  -27.9233   29.5093 N   0  0  0  0  0  0  0  0  0  0  0  0
   -8.9675  -27.1456   29.9895 N   0  0  0  0  0  0  0  0  0  0  0  0
   -8.0055  -26.6453   30.8422 C   0  0  0  0  0  0  0  0  0  0  0  0
   -8.3274  -26.3892   32.2119 C   0  0  0  0  0  0  0  0  0  0  0  0
   -6.8826  -26.4229   30.4309 O   0  0  0  0  0  0  0  0  0  0  0  0
   -7.3349  -25.8644   33.1464 N   0  0  0  0  0  0  0  0  0  0  0  0
   -7.7421  -25.4428   34.4390 C   0  0  2  0  0  0  0  0  0  0  0  0
   -8.9803  -26.2064   34.9799 C   0  0  0  0  0  0  0  0  0  0  0  0
   -9.6579  -26.6601   32.6524 C   0  0  0  0  0  0  0  0  0  0  0  0
  -10.0144  -26.4011   34.0597 N   0  0  0  0  0  0  0  0  0  0  0  0
   -7.9270  -23.9367   34.4063 C   0  0  1  0  0  0  0  0  0  0  0  0
   -8.3898  -23.4777   35.6235 O   0  0  0  0  0  0  0  0  0  0  0  0
   -6.6375  -23.2610   34.0470 C   0  0  1  0  0  0  0  0  0  0  0  0
   -6.2519  -23.6040   32.8099 O   0  0  0  0  0  0  0  0  0  0  0  0
   -6.7813  -21.7250   34.0972 C   0  0  0  0  0  0  0  0  0  0  0  0
  1  2  2  0  0  0  0
  1 11  1  0  0  0  0
  2  3  1  0  0  0  0
  2  4  1  0  0  0  0
  4  5  1  0  0  0  0
  5  6  1  0  0  0  0
  5  7  2  0  0  0  0
  6  8  1  0  0  0  0
  6 11  2  0  0  0  0
  9  8  1  6  0  0  0
  9 10  1  0  0  0  0
  9 13  1  0  0  0  0
 10 12  1  0  0  0  0
 11 12  1  0  0  0  0
 13 14  1  1  0  0  0
 13 15  1  0  0  0  0
 15 16  1  6  0  0  0
 15 17  1  0  0  0  0
M  END
>  <CHROM.1>
176.96756938,63.46831801,-8.42157994,-25.56117863,32.70510955,2.12088458
-0.63834820,-2.02105366

>  <Name>
ligand

>  <RI>
0

>  <Rbt.Current_Directory>
/home/itssahil/PROJECTS/Mol_Feturizer/New_Systems/rnas/4LVX

>  <Rbt.Executable>
rbdock ($Id: //depot/dev/client3/rdock/2013.1/src/exe/rbdock.cxx#4 $)

>  <Rbt.Library>
libRbt.so (2013.1, Build901 2013/11/27)

>  <Rbt.Parameter_File>
/export/apps/rDock/src/rDock_2013.1_src/data/scripts/dock_solv.prm

>  <Rbt.Receptor>
prm/blind_docking_80.prm

>  <SCORE>
-14.7534

>  <SCORE.INTER>
-8.05476

>  <SCORE.INTER.CONST>
1

>  <SCORE.INTER.POLAR>
0

>  <SCORE.INTER.ROT>
2

>  <SCORE.INTER.SOLV>
5.25171

>  <SCORE.INTER.VDW>
-12.0537

>  <SCORE.INTER.norm>
-0.473809

>  <SCORE.INTRA>
-6.6986

>  <SCORE.INTRA.DIHEDRAL>
-10.1008

>  <SCORE.INTRA.DIHEDRAL.0>
10.3255

>  <SCORE.INTRA.POLAR>
0

>  <SCORE.INTRA.POLAR.0>
0

>  <SCORE.INTRA.REPUL>
0

>  <SCORE.INTRA.REPUL.0>
0

>  <SCORE.INTRA.SOLV>
0.034974

>  <SCORE.INTRA.SOLV.lig_0>
-53.4755

>  <SCORE.INTRA.VDW>
-1.66571

>  <SCORE.INTRA.VDW.0>
2.32763

>  <SCORE.INTRA.norm>
-0.394035

>  <SCORE.RESTR>
0

>  <SCORE.RESTR.CAVITY>
0

>  <SCORE.RESTR.norm>
0

>  <SCORE.SYSTEM>
0

>  <SCORE.SYSTEM.CONST>
0

>  <SCORE.SYSTEM.DIHEDRAL>
0

>  <SCORE.SYSTEM.SOLV>
0

>  <SCORE.SYSTEM.norm>
0

>  <SCORE.heavy>
17

>  <SCORE.norm>
-0.867845

>  <RMSD>
34.549

$$$$
ligand
 OpenBabel11021811503D
libRbt.so/2013.1/901 2013/11/27
 17 18  0  0  0  0  0  0  0  0999 V2000
   -4.7461  -28.0053   30.4280 N   0  0  0  0  0  0  0  0  0  0  0  0
   -5.6240  -28.9142   29.8238 C   0  0  0  0  0  0  0  0  0  0  0  0
   -5.1043  -30.0982   29.2029 N   0  0  0  0  0  0  0  0  0  0  0  0
   -6.9857  -28.7019   29.8182 N   0  0  0  0  0  0  0  0  0  0  0  0
   -7.5324  -27.5794   30.4049 C   0  0  0  0  0  0  0  0  0  0  0  0
   -6.6829  -26.6143   31.0312 C   0  0  0  0  0  0  0  0  0  0  0  0
   -8.7365  -27.4084   30.3888 O   0  0  0  0  0  0  0  0  0  0  0  0
   -7.2235  -25.4110   31.6584 N   0  0  0  0  0  0  0  0  0  0  0  0
   -6.3727  -24.5812   32.4341 C   0  0  2  0  0  0  0  0  0  0  0  0
   -4.8903  -24.6102   31.9754 C   0  0  0  0  0  0  0  0  0  0  0  0
   -5.2760  -26.8557   31.0313 C   0  0  0  0  0  0  0  0  0  0  0  0
   -4.3802  -25.8763   31.6737 N   0  0  0  0  0  0  0  0  0  0  0  0
   -6.5612  -24.9483   33.8947 C   0  0  1  0  0  0  0  0  0  0  0  0
   -6.1819  -26.2567   34.1195 O   0  0  0  0  0  0  0  0  0  0  0  0
   -5.7780  -24.0174   34.7714 C   0  0  1  0  0  0  0  0  0  0  0  0
   -6.1404  -22.7452   34.5541 O   0  0  0  0  0  0  0  0  0  0  0  0
   -6.0073  -24.3342   36.2646 C   0  0  0  0  0  0  0  0  0  0  0  0
  1  2  2  0  0  0  0
  1 11  1  0  0  0  0
  2  3  1  0  0  0  0
  2  4  1  0  0  0  0
  4  5  1  0  0  0  0
  5  6  1  0  0  0  0
  5  7  2  0  0  0  0
  6  8  1  0  0  0  0
  6 11  2  0  0  0  0
  9  8  1  6  0  0  0
  9 10  1  0  0  0  0
  9 13  1  0  0  0  0
 10 12  1  0  0  0  0
 11 12  1  0  0  0  0
 13 14  1  6  0  0  0
 13 15  1  0  0  0  0
 15 16  1  1  0  0  0
 15 17  1  0  0  0  0
M  END
>  <CHROM.1>
62.60577991,57.23862527,-6.14643543,-26.24351589,32.04052233,-1.59711061
-0.09389740,0.80577060

>  <Name>
ligand

>  <RI>
0

>  <Rbt.Current_Directory>
/home/itssahil/PROJECTS/Mol_Feturizer/New_Systems/rnas/4LVX

>  <Rbt.Executable>
rbdock ($Id: //depot/dev/client3/rdock/2013.1/src/exe/rbdock.cxx#4 $)

>  <Rbt.Library>
libRbt.so (2013.1, Build901 2013/11/27)

>  <Rbt.Parameter_File>
/export/apps/rDock/src/rDock_2013.1_src/data/scripts/dock_solv.prm

>  <Rbt.Receptor>
prm/blind_docking_80.prm

>  <SCORE>
-16.0799

>  <SCORE.INTER>
-8.8394

>  <SCORE.INTER.CONST>
1

>  <SCORE.INTER.POLAR>
0

>  <SCORE.INTER.ROT>
2

>  <SCORE.INTER.SOLV>
16.1788

>  <SCORE.INTER.VDW>
-16.2192

>  <SCORE.INTER.norm>
-0.519965

>  <SCORE.INTRA>
-7.24102

>  <SCORE.INTRA.DIHEDRAL>
-10.1191

>  <SCORE.INTRA.DIHEDRAL.0>
10.3255

>  <SCORE.INTRA.POLAR>
0

>  <SCORE.INTRA.POLAR.0>
0

>  <SCORE.INTRA.REPUL>
0

>  <SCORE.INTRA.REPUL.0>
0

>  <SCORE.INTRA.SOLV>
-0.128858

>  <SCORE.INTRA.SOLV.lig_0>
-53.4755

>  <SCORE.INTRA.VDW>
-2.11702

>  <SCORE.INTRA.VDW.0>
2.32763

>  <SCORE.INTRA.norm>
-0.425942

>  <SCORE.RESTR>
0.000484858

>  <SCORE.RESTR.CAVITY>
0.000484858

>  <SCORE.RESTR.norm>
2.8521e-05

>  <SCORE.SYSTEM>
0

>  <SCORE.SYSTEM.CONST>
0

>  <SCORE.SYSTEM.DIHEDRAL>
0

>  <SCORE.SYSTEM.SOLV>
0

>  <SCORE.SYSTEM.norm>
0

>  <SCORE.heavy>
17

>  <SCORE.norm>
-0.945879

>  <RMSD>
34.563

$$$$
ligand
 OpenBabel11021811503D
libRbt.so/2013.1/901 2013/11/27
 17 18  0  0  0  0  0  0  0  0999 V2000
  -10.5659  -27.2299   31.7101 N   0  0  0  0  0  0  0  0  0  0  0  0
  -10.1870  -27.4560   30.3807 C   0  0  0  0  0  0  0  0  0  0  0  0
  -11.1433  -27.9797   29.4487 N   0  0  0  0  0  0  0  0  0  0  0  0
   -8.9111  -27.1777   29.9404 N   0  0  0  0  0  0  0  0  0  0  0  0
   -7.9578  -26.6705   30.7989 C   0  0  0  0  0  0  0  0  0  0  0  0
   -8.2872  -26.4257   32.1689 C   0  0  0  0  0  0  0  0  0  0  0  0
   -6.8364  -26.4324   30.3924 O   0  0  0  0  0  0  0  0  0  0  0  0
   -7.3041  -25.8941   33.1094 N   0  0  0  0  0  0  0  0  0  0  0  0
   -7.7204  -25.4845   34.4030 C   0  0  2  0  0  0  0  0  0  0  0  0
   -8.9511  -26.2658   34.9357 C   0  0  0  0  0  0  0  0  0  0  0  0
   -9.6157  -26.7150   32.6036 C   0  0  0  0  0  0  0  0  0  0  0  0
   -9.9797  -26.4680   34.0111 N   0  0  0  0  0  0  0  0  0  0  0  0
   -7.9233  -23.9806   34.3778 C   0  0  1  0  0  0  0  0  0  0  0  0
   -8.3879  -23.5327   35.5984 O   0  0  0  0  0  0  0  0  0  0  0  0
   -6.6431  -23.2878   34.0178 C   0  0  1  0  0  0  0  0  0  0  0  0
   -6.2521  -23.6280   32.7815 O   0  0  0  0  0  0  0  0  0  0  0  0
   -6.8080  -21.7539   34.0648 C   0  0  0  0  0  0  0  0  0  0  0  0
  1  2  2  0  0  0  0
  1 11  1  0  0  0  0
  2  3  1  0  0  0  0
  2  4  1  0  0  0  0
  4  5  1  0  0  0  0
  5  6  1  0  0  0  0
  5  7  2  0  0  0  0
  6  8  1  0  0  0  0
  6 11  2  0  0  0  0
  9  8  1  6  0  0  0
  9 10  1  0  0  0  0
  9 13  1  0  0  0  0
 10 12  1  0  0  0  0
 11 12  1  0  0  0  0
 13 14  1  1  0  0  0
 13 15  1  0  0  0  0
 15 16  1  6  0  0  0
 15 17  1  0  0  0  0
M  END
>  <CHROM.1>
177.32614871,63.02524801,-8.39311388,-25.60218346,32.66420805,2.11140462
-0.64919567,-2.02085367

>  <Name>
ligand

>  <RI>
0

>  <Rbt.Current_Directory>
/home/itssahil/PROJECTS/Mol_Feturizer/New_Systems/rnas/4LVX

>  <Rbt.Executable>
rbdock ($Id: //depot/dev/client3/rdock/2013.1/src/exe/rbdock.cxx#4 $)

>  <Rbt.Library>
libRbt.so (2013.1, Build901 2013/11/27)

>  <Rbt.Parameter_File>
/export/apps/rDock/src/rDock_2013.1_src/data/scripts/dock_solv.prm

>  <Rbt.Receptor>
prm/blind_docking_80.prm

>  <SCORE>
-14.7344

>  <SCORE.INTER>
-8.04699

>  <SCORE.INTER.CONST>
1

>  <SCORE.INTER.POLAR>
0

>  <SCORE.INTER.ROT>
2

>  <SCORE.INTER.SOLV>
5.43227

>  <SCORE.INTER.VDW>
-12.1087

>  <SCORE.INTER.norm>
-0.473352

>  <SCORE.INTRA>
-6.68741

>  <SCORE.INTRA.DIHEDRAL>
-10.118

>  <SCORE.INTRA.DIHEDRAL.0>
10.3255

>  <SCORE.INTRA.POLAR>
0

>  <SCORE.INTRA.POLAR.0>
0

>  <SCORE.INTRA.REPUL>
0

>  <SCORE.INTRA.REPUL.0>
0

>  <SCORE.INTRA.SOLV>
0.0442358

>  <SCORE.INTRA.SOLV.lig_0>
-53.4755

>  <SCORE.INTRA.VDW>
-1.65054

>  <SCORE.INTRA.VDW.0>
2.32763

>  <SCORE.INTRA.norm>
-0.393377

>  <SCORE.RESTR>
0

>  <SCORE.RESTR.CAVITY>
0

>  <SCORE.RESTR.norm>
0

>  <SCORE.SYSTEM>
0

>  <SCORE.SYSTEM.CONST>
0

>  <SCORE.SYSTEM.DIHEDRAL>
0

>  <SCORE.SYSTEM.SOLV>
0

>  <SCORE.SYSTEM.norm>
0

>  <SCORE.heavy>
17

>  <SCORE.norm>
-0.86673

>  <RMSD>
34.569

$$$$
ligand
 OpenBabel11021811503D
libRbt.so/2013.1/901 2013/11/27
 17 18  0  0  0  0  0  0  0  0999 V2000
   -5.2866  -26.4317   34.3017 N   0  0  0  0  0  0  0  0  0  0  0  0
   -5.2517  -25.0322   34.3480 C   0  0  0  0  0  0  0  0  0  0  0  0
   -5.2480  -24.3632   35.6167 N   0  0  0  0  0  0  0  0  0  0  0  0
   -5.2119  -24.2764   33.1962 N   0  0  0  0  0  0  0  0  0  0  0  0
   -5.2111  -24.8748   31.9532 C   0  0  0  0  0  0  0  0  0  0  0  0
   -5.2521  -26.3003   31.8458 C   0  0  0  0  0  0  0  0  0  0  0  0
   -5.1771  -24.1912   30.9477 O   0  0  0  0  0  0  0  0  0  0  0  0
   -5.2577  -26.9705   30.5479 N   0  0  0  0  0  0  0  0  0  0  0  0
   -5.1029  -28.3799   30.4852 C   0  0  2  0  0  0  0  0  0  0  0  0
   -5.6463  -29.1206   31.7361 C   0  0  0  0  0  0  0  0  0  0  0  0
   -5.2870  -27.0651   33.0506 C   0  0  0  0  0  0  0  0  0  0  0  0
   -5.3266  -28.5367   32.9653 N   0  0  0  0  0  0  0  0  0  0  0  0
   -3.6448  -28.6805   30.1902 C   0  0  1  0  0  0  0  0  0  0  0  0
   -3.3735  -30.0186   30.3959 O   0  0  0  0  0  0  0  0  0  0  0  0
   -3.3057  -28.2870   28.7835 C   0  0  1  0  0  0  0  0  0  0  0  0
   -2.0099  -27.9588   28.6829 O   0  0  0  0  0  0  0  0  0  0  0  0
   -3.5868  -29.4424   27.7993 C   0  0  0  0  0  0  0  0  0  0  0  0
  1  2  2  0  0  0  0
  1 11  1  0  0  0  0
  2  3  1  0  0  0  0
  2  4  1  0  0  0  0
  4  5  1  0  0  0  0
  5  6  1  0  0  0  0
  5  7  2  0  0  0  0
  6  8  1  0  0  0  0
  6 11  2  0  0  0  0
  9  8  1  1  0  0  0
  9 10  1  0  0  0  0
  9 13  1  0  0  0  0
 10 12  1  0  0  0  0
 11 12  1  0  0  0  0
 13 14  1  6  0  0  0
 13 15  1  0  0  0  0
 15 16  1  1  0  0  0
 15 17  1  0  0  0  0
M  END
>  <CHROM.1>
167.29583053,151.64891703,-4.61185839,-27.09840870,31.50319237,2.53087626
1.20229645,-0.04825924

>  <Name>
ligand

>  <RI>
0

>  <Rbt.Current_Directory>
/home/itssahil/PROJECTS/Mol_Feturizer/New_Systems/rnas/4LVX

>  <Rbt.Executable>
rbdock ($Id: //depot/dev/client3/rdock/2013.1/src/exe/rbdock.cxx#4 $)

>  <Rbt.Library>
libRbt.so (2013.1, Build901 2013/11/27)

>  <Rbt.Parameter_File>
/export/apps/rDock/src/rDock_2013.1_src/data/scripts/dock_solv.prm

>  <Rbt.Receptor>
prm/blind_docking_100.prm

>  <SCORE>
18.3499

>  <SCORE.INTER>
22.8358

>  <SCORE.INTER.CONST>
1

>  <SCORE.INTER.POLAR>
0

>  <SCORE.INTER.ROT>
2

>  <SCORE.INTER.SOLV>
17.6203

>  <SCORE.INTER.VDW>
4.41709

>  <SCORE.INTER.norm>
1.34328

>  <SCORE.INTRA>
-4.48587

>  <SCORE.INTRA.DIHEDRAL>
-7.13335

>  <SCORE.INTRA.DIHEDRAL.0>
10.3255

>  <SCORE.INTRA.POLAR>
0

>  <SCORE.INTRA.POLAR.0>
0

>  <SCORE.INTRA.REPUL>
0

>  <SCORE.INTRA.REPUL.0>
0

>  <SCORE.INTRA.SOLV>
-0.632194

>  <SCORE.INTRA.SOLV.lig_0>
-53.4755

>  <SCORE.INTRA.VDW>
-0.603099

>  <SCORE.INTRA.VDW.0>
2.32763

>  <SCORE.INTRA.norm>
-0.263875

>  <SCORE.RESTR>
0

>  <SCORE.RESTR.CAVITY>
0

>  <SCORE.RESTR.norm>
0

>  <SCORE.SYSTEM>
0

>  <SCORE.SYSTEM.CONST>
0

>  <SCORE.SYSTEM.DIHEDRAL>
0

>  <SCORE.SYSTEM.SOLV>
0

>  <SCORE.SYSTEM.norm>
0

>  <SCORE.heavy>
17

>  <SCORE.norm>
1.07941

>  <RMSD>
34.610

$$$$
ligand
 OpenBabel11021811503D
libRbt.so/2013.1/901 2013/11/27
 17 18  0  0  0  0  0  0  0  0999 V2000
   -9.6213  -26.5085   31.1952 N   0  0  0  0  0  0  0  0  0  0  0  0
   -9.4427  -27.1518   29.9638 C   0  0  0  0  0  0  0  0  0  0  0  0
  -10.5263  -27.2035   29.0255 N   0  0  0  0  0  0  0  0  0  0  0  0
   -8.2399  -27.7333   29.6253 N   0  0  0  0  0  0  0  0  0  0  0  0
   -7.1684  -27.7068   30.4936 C   0  0  0  0  0  0  0  0  0  0  0  0
   -7.2958  -27.0690   31.7673 C   0  0  0  0  0  0  0  0  0  0  0  0
   -6.1150  -28.2267   30.1780 O   0  0  0  0  0  0  0  0  0  0  0  0
   -6.1858  -27.0246   32.7158 N   0  0  0  0  0  0  0  0  0  0  0  0
   -6.2893  -26.2195   33.8800 C   0  0  2  0  0  0  0  0  0  0  0  0
   -7.7451  -26.0503   34.3906 C   0  0  0  0  0  0  0  0  0  0  0  0
   -8.5479  -26.4676   32.0964 C   0  0  0  0  0  0  0  0  0  0  0  0
   -8.7024  -25.8015   33.4029 N   0  0  0  0  0  0  0  0  0  0  0  0
   -5.5878  -24.9020   33.6049 C   0  0  1  0  0  0  0  0  0  0  0  0
   -6.3213  -24.1366   32.7202 O   0  0  0  0  0  0  0  0  0  0  0  0
   -5.3637  -24.1536   34.8848 C   0  0  1  0  0  0  0  0  0  0  0  0
   -4.6889  -24.9089   35.7630 O   0  0  0  0  0  0  0  0  0  0  0  0
   -4.5545  -22.8621   34.6401 C   0  0  0  0  0  0  0  0  0  0  0  0
  1  2  2  0  0  0  0
  1 11  1  0  0  0  0
  2  3  1  0  0  0  0
  2  4  1  0  0  0  0
  4  5  1  0  0  0  0
  5  6  1  0  0  0  0
  5  7  2  0  0  0  0
  6  8  1  0  0  0  0
  6 11  2  0  0  0  0
  9  8  1  6  0  0  0
  9 10  1  0  0  0  0
  9 13  1  0  0  0  0
 10 12  1  0  0  0  0
 11 12  1  0  0  0  0
 13 14  1  6  0  0  0
 13 15  1  0  0  0  0
 15 16  1  1  0  0  0
 15 17  1  0  0  0  0
M  END
>  <CHROM.1>
71.56427492,55.41289778,-7.13736972,-26.08123748,32.41855483,2.15520262,0.18025880
-2.26801017

>  <Name>
ligand

>  <RI>
0

>  <Rbt.Current_Directory>
/home/itssahil/PROJECTS/Mol_Feturizer/New_Systems/rnas/4LVX

>  <Rbt.Executable>
rbdock ($Id: //depot/dev/client3/rdock/2013.1/src/exe/rbdock.cxx#4 $)

>  <Rbt.Library>
libRbt.so (2013.1, Build901 2013/11/27)

>  <Rbt.Parameter_File>
/export/apps/rDock/src/rDock_2013.1_src/data/scripts/dock_solv.prm

>  <Rbt.Receptor>
prm/blind_docking_100.prm

>  <SCORE>
-14.3777

>  <SCORE.INTER>
-7.19129

>  <SCORE.INTER.CONST>
1

>  <SCORE.INTER.POLAR>
0

>  <SCORE.INTER.ROT>
2

>  <SCORE.INTER.SOLV>
8.29927

>  <SCORE.INTER.VDW>
-12.494

>  <SCORE.INTER.norm>
-0.423017

>  <SCORE.INTRA>
-7.18645

>  <SCORE.INTRA.DIHEDRAL>
-9.64135

>  <SCORE.INTRA.DIHEDRAL.0>
10.3255

>  <SCORE.INTRA.POLAR>
0

>  <SCORE.INTRA.POLAR.0>
0

>  <SCORE.INTRA.REPUL>
0

>  <SCORE.INTRA.REPUL.0>
0

>  <SCORE.INTRA.SOLV>
-0.16443

>  <SCORE.INTRA.SOLV.lig_0>
-53.4755

>  <SCORE.INTRA.VDW>
-2.28356

>  <SCORE.INTRA.VDW.0>
2.32763

>  <SCORE.INTRA.norm>
-0.422733

>  <SCORE.RESTR>
0

>  <SCORE.RESTR.CAVITY>
0

>  <SCORE.RESTR.norm>
0

>  <SCORE.SYSTEM>
0

>  <SCORE.SYSTEM.CONST>
0

>  <SCORE.SYSTEM.DIHEDRAL>
0

>  <SCORE.SYSTEM.SOLV>
0

>  <SCORE.SYSTEM.norm>
0

>  <SCORE.heavy>
17

>  <SCORE.norm>
-0.84575

>  <RMSD>
34.625

$$$$
ligand
 OpenBabel11021811503D
libRbt.so/2013.1/901 2013/11/27
 17 18  0  0  0  0  0  0  0  0999 V2000
   -8.0580  -25.5299   34.0131 N   0  0  0  0  0  0  0  0  0  0  0  0
   -7.4324  -24.5040   34.7330 C   0  0  0  0  0  0  0  0  0  0  0  0
   -8.0857  -23.9392   35.8781 N   0  0  0  0  0  0  0  0  0  0  0  0
   -6.1916  -24.0261   34.3707 N   0  0  0  0  0  0  0  0  0  0  0  0
   -5.5232  -24.5397   33.2787 C   0  0  0  0  0  0  0  0  0  0  0  0
   -6.1172  -25.5842   32.5032 C   0  0  0  0  0  0  0  0  0  0  0  0
   -4.4293  -24.1042   32.9733 O   0  0  0  0  0  0  0  0  0  0  0  0
   -5.4432  -26.1503   31.3374 N   0  0  0  0  0  0  0  0  0  0  0  0
   -5.9737  -27.3099   30.7144 C   0  0  2  0  0  0  0  0  0  0  0  0
   -7.5144  -27.4381   30.8501 C   0  0  0  0  0  0  0  0  0  0  0  0
   -7.4002  -26.0693   32.8984 C   0  0  0  0  0  0  0  0  0  0  0  0
   -8.0316  -27.1481   32.1160 N   0  0  0  0  0  0  0  0  0  0  0  0
   -5.2176  -28.5154   31.2425 C   0  0  1  0  0  0  0  0  0  0  0  0
   -5.7476  -28.9313   32.4478 O   0  0  0  0  0  0  0  0  0  0  0  0
   -5.2518  -29.6315   30.2418 C   0  0  1  0  0  0  0  0  0  0  0  0
   -6.5000  -29.8278   29.7940 O   0  0  0  0  0  0  0  0  0  0  0  0
   -4.3496  -29.3194   29.0289 C   0  0  0  0  0  0  0  0  0  0  0  0
  1  2  2  0  0  0  0
  1 11  1  0  0  0  0
  2  3  1  0  0  0  0
  2  4  1  0  0  0  0
  4  5  1  0  0  0  0
  5  6  1  0  0  0  0
  5  7  2  0  0  0  0
  6  8  1  0  0  0  0
  6 11  2  0  0  0  0
  9  8  1  1  0  0  0
  9 10  1  0  0  0  0
  9 13  1  0  0  0  0
 10 12  1  0  0  0  0
 11 12  1  0  0  0  0
 13 14  1  1  0  0  0
 13 15  1  0  0  0  0
 15 16  1  6  0  0  0
 15 17  1  0  0  0  0
M  END
>  <CHROM.1>
83.37681910,-48.04113192,-6.28213936,-26.68485478,32.21453164,1.80289739
0.41956311,0.63486775

>  <Name>
ligand

>  <RI>
0

>  <Rbt.Current_Directory>
/home/itssahil/PROJECTS/Mol_Feturizer/New_Systems/rnas/4LVX

>  <Rbt.Executable>
rbdock ($Id: //depot/dev/client3/rdock/2013.1/src/exe/rbdock.cxx#4 $)

>  <Rbt.Library>
libRbt.so (2013.1, Build901 2013/11/27)

>  <Rbt.Parameter_File>
/export/apps/rDock/src/rDock_2013.1_src/data/scripts/dock_solv.prm

>  <Rbt.Receptor>
prm/blind_docking_60.prm

>  <SCORE>
-16.1049

>  <SCORE.INTER>
-10.8346

>  <SCORE.INTER.CONST>
1

>  <SCORE.INTER.POLAR>
0

>  <SCORE.INTER.ROT>
2

>  <SCORE.INTER.SOLV>
9.53147

>  <SCORE.INTER.VDW>
-15.3336

>  <SCORE.INTER.norm>
-0.637331

>  <SCORE.INTRA>
-5.27025

>  <SCORE.INTRA.DIHEDRAL>
-8.00426

>  <SCORE.INTRA.DIHEDRAL.0>
10.3255

>  <SCORE.INTRA.POLAR>
0

>  <SCORE.INTRA.POLAR.0>
0

>  <SCORE.INTRA.REPUL>
0

>  <SCORE.INTRA.REPUL.0>
0

>  <SCORE.INTRA.SOLV>
0.382169

>  <SCORE.INTRA.SOLV.lig_0>
-53.4755

>  <SCORE.INTRA.VDW>
-1.45921

>  <SCORE.INTRA.VDW.0>
2.32763

>  <SCORE.INTRA.norm>
-0.310015

>  <SCORE.RESTR>
0

>  <SCORE.RESTR.CAVITY>
0

>  <SCORE.RESTR.norm>
0

>  <SCORE.SYSTEM>
0

>  <SCORE.SYSTEM.CONST>
0

>  <SCORE.SYSTEM.DIHEDRAL>
0

>  <SCORE.SYSTEM.SOLV>
0

>  <SCORE.SYSTEM.norm>
0

>  <SCORE.heavy>
17

>  <SCORE.norm>
-0.947346

>  <RMSD>
34.636

$$$$
ligand
 OpenBabel11021811503D
libRbt.so/2013.1/901 2013/11/27
 17 18  0  0  0  0  0  0  0  0999 V2000
   -8.3756  -25.8115   34.5161 N   0  0  0  0  0  0  0  0  0  0  0  0
   -7.6916  -24.8622   35.2861 C   0  0  0  0  0  0  0  0  0  0  0  0
   -8.1320  -24.5801   36.6217 N   0  0  0  0  0  0  0  0  0  0  0  0
   -6.5927  -24.1935   34.7917 N   0  0  0  0  0  0  0  0  0  0  0  0
   -6.1304  -24.4330   33.5143 C   0  0  0  0  0  0  0  0  0  0  0  0
   -6.7937  -25.3874   32.6810 C   0  0  0  0  0  0  0  0  0  0  0  0
   -5.1597  -23.8320   33.0947 O   0  0  0  0  0  0  0  0  0  0  0  0
   -6.3374  -25.6648   31.3214 N   0  0  0  0  0  0  0  0  0  0  0  0
   -6.8984  -26.7512   30.6008 C   0  0  2  0  0  0  0  0  0  0  0  0
   -8.3631  -27.0719   31.0014 C   0  0  0  0  0  0  0  0  0  0  0  0
   -7.9264  -26.0735   33.2138 C   0  0  0  0  0  0  0  0  0  0  0  0
   -8.6251  -27.0645   32.3745 N   0  0  0  0  0  0  0  0  0  0  0  0
   -5.9614  -27.9378   30.7335 C   0  0  1  0  0  0  0  0  0  0  0  0
   -5.8363  -28.3123   32.0566 O   0  0  0  0  0  0  0  0  0  0  0  0
   -6.4562  -29.0875   29.9077 C   0  0  1  0  0  0  0  0  0  0  0  0
   -6.5084  -28.7513   28.6111 O   0  0  0  0  0  0  0  0  0  0  0  0
   -5.5296  -30.3139   30.0494 C   0  0  0  0  0  0  0  0  0  0  0  0
  1  2  2  0  0  0  0
  1 11  1  0  0  0  0
  2  3  1  0  0  0  0
  2  4  1  0  0  0  0
  4  5  1  0  0  0  0
  5  6  1  0  0  0  0
  5  7  2  0  0  0  0
  6  8  1  0  0  0  0
  6 11  2  0  0  0  0
  9  8  1  1  0  0  0
  9 10  1  0  0  0  0
  9 13  1  0  0  0  0
 10 12  1  0  0  0  0
 11 12  1  0  0  0  0
 13 14  1  1  0  0  0
 13 15  1  0  0  0  0
 15 16  1  6  0  0  0
 15 17  1  0  0  0  0
M  END
>  <CHROM.1>
61.56263441,60.83592371,-6.86579679,-26.53309073,32.31664279,1.75264915,0.63218980
0.75390935

>  <Name>
ligand

>  <RI>
0

>  <Rbt.Current_Directory>
/home/itssahil/PROJECTS/Mol_Feturizer/New_Systems/rnas/4LVX

>  <Rbt.Executable>
rbdock ($Id: //depot/dev/client3/rdock/2013.1/src/exe/rbdock.cxx#4 $)

>  <Rbt.Library>
libRbt.so (2013.1, Build901 2013/11/27)

>  <Rbt.Parameter_File>
/export/apps/rDock/src/rDock_2013.1_src/data/scripts/dock_solv.prm

>  <Rbt.Receptor>
prm/blind_docking_100.prm

>  <SCORE>
-15.2799

>  <SCORE.INTER>
-8.12485

>  <SCORE.INTER.CONST>
1

>  <SCORE.INTER.POLAR>
0

>  <SCORE.INTER.ROT>
2

>  <SCORE.INTER.SOLV>
9.84745

>  <SCORE.INTER.VDW>
-13.6324

>  <SCORE.INTER.norm>
-0.477932

>  <SCORE.INTRA>
-7.15509

>  <SCORE.INTRA.DIHEDRAL>
-10.1651

>  <SCORE.INTRA.DIHEDRAL.0>
10.3255

>  <SCORE.INTRA.POLAR>
0

>  <SCORE.INTRA.POLAR.0>
0

>  <SCORE.INTRA.REPUL>
0

>  <SCORE.INTRA.REPUL.0>
0

>  <SCORE.INTRA.SOLV>
-0.143437

>  <SCORE.INTRA.SOLV.lig_0>
-53.4755

>  <SCORE.INTRA.VDW>
-2.00084

>  <SCORE.INTRA.VDW.0>
2.32763

>  <SCORE.INTRA.norm>
-0.420888

>  <SCORE.RESTR>
0

>  <SCORE.RESTR.CAVITY>
0

>  <SCORE.RESTR.norm>
0

>  <SCORE.SYSTEM>
0

>  <SCORE.SYSTEM.CONST>
0

>  <SCORE.SYSTEM.DIHEDRAL>
0

>  <SCORE.SYSTEM.SOLV>
0

>  <SCORE.SYSTEM.norm>
0

>  <SCORE.heavy>
17

>  <SCORE.norm>
-0.89882

>  <RMSD>
34.648

$$$$
ligand
 OpenBabel11021811503D
libRbt.so/2013.1/901 2013/11/27
 17 18  0  0  0  0  0  0  0  0999 V2000
   -8.3835  -25.8169   34.5064 N   0  0  0  0  0  0  0  0  0  0  0  0
   -7.7028  -24.8716   35.2843 C   0  0  0  0  0  0  0  0  0  0  0  0
   -8.1517  -24.5932   36.6178 N   0  0  0  0  0  0  0  0  0  0  0  0
   -6.5992  -24.2035   34.7997 N   0  0  0  0  0  0  0  0  0  0  0  0
   -6.1287  -24.4395   33.5246 C   0  0  0  0  0  0  0  0  0  0  0  0
   -6.7883  -25.3897   32.6836 C   0  0  0  0  0  0  0  0  0  0  0  0
   -5.1540  -23.8391   33.1137 O   0  0  0  0  0  0  0  0  0  0  0  0
   -6.3233  -25.6633   31.3261 N   0  0  0  0  0  0  0  0  0  0  0  0
   -6.8816  -26.7461   30.5980 C   0  0  2  0  0  0  0  0  0  0  0  0
   -8.3497  -27.0652   30.9876 C   0  0  0  0  0  0  0  0  0  0  0  0
   -7.9260  -26.0753   33.2063 C   0  0  0  0  0  0  0  0  0  0  0  0
   -8.6209  -27.0620   32.3589 N   0  0  0  0  0  0  0  0  0  0  0  0
   -5.9480  -27.9351   30.7329 C   0  0  1  0  0  0  0  0  0  0  0  0
   -5.8172  -28.3021   32.0576 O   0  0  0  0  0  0  0  0  0  0  0  0
   -6.4509  -29.0881   29.9167 C   0  0  1  0  0  0  0  0  0  0  0  0
   -6.5287  -28.7527   28.6212 O   0  0  0  0  0  0  0  0  0  0  0  0
   -5.5146  -30.3088   30.0418 C   0  0  0  0  0  0  0  0  0  0  0  0
  1  2  2  0  0  0  0
  1 11  1  0  0  0  0
  2  3  1  0  0  0  0
  2  4  1  0  0  0  0
  4  5  1  0  0  0  0
  5  6  1  0  0  0  0
  5  7  2  0  0  0  0
  6  8  1  0  0  0  0
  6 11  2  0  0  0  0
  9  8  1  1  0  0  0
  9 10  1  0  0  0  0
  9 13  1  0  0  0  0
 10 12  1  0  0  0  0
 11 12  1  0  0  0  0
 13 14  1  1  0  0  0
 13 15  1  0  0  0  0
 15 16  1  6  0  0  0
 15 17  1  0  0  0  0
M  END
>  <CHROM.1>
60.68418479,59.86259652,-6.86289572,-26.53434195,32.31689988,1.75303633,0.61937509
0.75681344

>  <Name>
ligand

>  <RI>
0

>  <Rbt.Current_Directory>
/home/itssahil/PROJECTS/Mol_Feturizer/New_Systems/rnas/4LVX

>  <Rbt.Executable>
rbdock ($Id: //depot/dev/client3/rdock/2013.1/src/exe/rbdock.cxx#4 $)

>  <Rbt.Library>
libRbt.so (2013.1, Build901 2013/11/27)

>  <Rbt.Parameter_File>
/export/apps/rDock/src/rDock_2013.1_src/data/scripts/dock_solv.prm

>  <Rbt.Receptor>
prm/blind_docking_100.prm

>  <SCORE>
-15.2898

>  <SCORE.INTER>
-8.12776

>  <SCORE.INTER.CONST>
1

>  <SCORE.INTER.POLAR>
0

>  <SCORE.INTER.ROT>
2

>  <SCORE.INTER.SOLV>
9.81952

>  <SCORE.INTER.VDW>
-13.625

>  <SCORE.INTER.norm>
-0.478104

>  <SCORE.INTRA>
-7.16206

>  <SCORE.INTRA.DIHEDRAL>
-10.1722

>  <SCORE.INTRA.DIHEDRAL.0>
10.3255

>  <SCORE.INTRA.POLAR>
0

>  <SCORE.INTRA.POLAR.0>
0

>  <SCORE.INTRA.REPUL>
0

>  <SCORE.INTRA.REPUL.0>
0

>  <SCORE.INTRA.SOLV>
-0.133621

>  <SCORE.INTRA.SOLV.lig_0>
-53.4755

>  <SCORE.INTRA.VDW>
-2.00915

>  <SCORE.INTRA.VDW.0>
2.32763

>  <SCORE.INTRA.norm>
-0.421298

>  <SCORE.RESTR>
0

>  <SCORE.RESTR.CAVITY>
0

>  <SCORE.RESTR.norm>
0

>  <SCORE.SYSTEM>
0

>  <SCORE.SYSTEM.CONST>
0

>  <SCORE.SYSTEM.DIHEDRAL>
0

>  <SCORE.SYSTEM.SOLV>
0

>  <SCORE.SYSTEM.norm>
0

>  <SCORE.heavy>
17

>  <SCORE.norm>
-0.899401

>  <RMSD>
34.649

$$$$
ligand
 OpenBabel11021811503D
libRbt.so/2013.1/901 2013/11/27
 17 18  0  0  0  0  0  0  0  0999 V2000
   -8.0657  -25.5490   34.0088 N   0  0  0  0  0  0  0  0  0  0  0  0
   -7.4372  -24.5394   34.7489 C   0  0  0  0  0  0  0  0  0  0  0  0
   -8.0965  -23.9836   35.8950 N   0  0  0  0  0  0  0  0  0  0  0  0
   -6.1880  -24.0692   34.4057 N   0  0  0  0  0  0  0  0  0  0  0  0
   -5.5137  -24.5747   33.3136 C   0  0  0  0  0  0  0  0  0  0  0  0
   -6.1102  -25.6025   32.5179 C   0  0  0  0  0  0  0  0  0  0  0  0
   -4.4125  -24.1462   33.0253 O   0  0  0  0  0  0  0  0  0  0  0  0
   -5.4300  -26.1594   31.3513 N   0  0  0  0  0  0  0  0  0  0  0  0
   -5.9656  -27.3051   30.7072 C   0  0  2  0  0  0  0  0  0  0  0  0
   -7.5089  -27.4195   30.8256 C   0  0  0  0  0  0  0  0  0  0  0  0
   -7.4019  -26.0799   32.8935 C   0  0  0  0  0  0  0  0  0  0  0  0
   -8.0360  -27.1415   32.0901 N   0  0  0  0  0  0  0  0  0  0  0  0
   -5.2271  -28.5252   31.2264 C   0  0  1  0  0  0  0  0  0  0  0  0
   -5.7375  -28.9188   32.4474 O   0  0  0  0  0  0  0  0  0  0  0  0
   -5.3135  -29.6475   30.2356 C   0  0  1  0  0  0  0  0  0  0  0  0
   -6.5723  -29.7986   29.8001 O   0  0  0  0  0  0  0  0  0  0  0  0
   -4.4104  -29.3810   29.0126 C   0  0  0  0  0  0  0  0  0  0  0  0
  1  2  2  0  0  0  0
  1 11  1  0  0  0  0
  2  3  1  0  0  0  0
  2  4  1  0  0  0  0
  4  5  1  0  0  0  0
  5  6  1  0  0  0  0
  5  7  2  0  0  0  0
  6  8  1  0  0  0  0
  6 11  2  0  0  0  0
  9  8  1  1  0  0  0
  9 10  1  0  0  0  0
  9 13  1  0  0  0  0
 10 12  1  0  0  0  0
 11 12  1  0  0  0  0
 13 14  1  1  0  0  0
 13 15  1  0  0  0  0
 15 16  1  6  0  0  0
 15 17  1  0  0  0  0
M  END
>  <CHROM.1>
80.89835048,-46.82517492,-6.29215902,-26.70050189,32.21954297,1.79362820
0.40119010,0.64930205

>  <Name>
ligand

>  <RI>
0

>  <Rbt.Current_Directory>
/home/itssahil/PROJECTS/Mol_Feturizer/New_Systems/rnas/4LVX

>  <Rbt.Executable>
rbdock ($Id: //depot/dev/client3/rdock/2013.1/src/exe/rbdock.cxx#4 $)

>  <Rbt.Library>
libRbt.so (2013.1, Build901 2013/11/27)

>  <Rbt.Parameter_File>
/export/apps/rDock/src/rDock_2013.1_src/data/scripts/dock_solv.prm

>  <Rbt.Receptor>
prm/blind_docking_60.prm

>  <SCORE>
-16.1437

>  <SCORE.INTER>
-10.9436

>  <SCORE.INTER.CONST>
1

>  <SCORE.INTER.POLAR>
0

>  <SCORE.INTER.ROT>
2

>  <SCORE.INTER.SOLV>
9.44378

>  <SCORE.INTER.VDW>
-15.377

>  <SCORE.INTER.norm>
-0.643739

>  <SCORE.INTRA>
-5.20011

>  <SCORE.INTRA.DIHEDRAL>
-8.2053

>  <SCORE.INTRA.DIHEDRAL.0>
10.3255

>  <SCORE.INTRA.POLAR>
0

>  <SCORE.INTRA.POLAR.0>
0

>  <SCORE.INTRA.REPUL>
0

>  <SCORE.INTRA.REPUL.0>
0

>  <SCORE.INTRA.SOLV>
0.426959

>  <SCORE.INTRA.SOLV.lig_0>
-53.4755

>  <SCORE.INTRA.VDW>
-1.31094

>  <SCORE.INTRA.VDW.0>
2.32763

>  <SCORE.INTRA.norm>
-0.305889

>  <SCORE.RESTR>
0

>  <SCORE.RESTR.CAVITY>
0

>  <SCORE.RESTR.norm>
0

>  <SCORE.SYSTEM>
0

>  <SCORE.SYSTEM.CONST>
0

>  <SCORE.SYSTEM.DIHEDRAL>
0

>  <SCORE.SYSTEM.SOLV>
0

>  <SCORE.SYSTEM.norm>
0

>  <SCORE.heavy>
17

>  <SCORE.norm>
-0.949628

>  <RMSD>
34.655

$$$$
ligand
 OpenBabel11021811503D
libRbt.so/2013.1/901 2013/11/27
 17 18  0  0  0  0  0  0  0  0999 V2000
   -8.1531  -25.5765   33.9643 N   0  0  0  0  0  0  0  0  0  0  0  0
   -7.5514  -24.5787   34.7417 C   0  0  0  0  0  0  0  0  0  0  0  0
   -8.2524  -24.0378   35.8701 N   0  0  0  0  0  0  0  0  0  0  0  0
   -6.2896  -24.1060   34.4522 N   0  0  0  0  0  0  0  0  0  0  0  0
   -5.5756  -24.5974   33.3790 C   0  0  0  0  0  0  0  0  0  0  0  0
   -6.1433  -25.6127   32.5470 C   0  0  0  0  0  0  0  0  0  0  0  0
   -4.4638  -24.1669   33.1382 O   0  0  0  0  0  0  0  0  0  0  0  0
   -5.4206  -26.1544   31.3989 N   0  0  0  0  0  0  0  0  0  0  0  0
   -5.9333  -27.2898   30.7191 C   0  0  2  0  0  0  0  0  0  0  0  0
   -7.4801  -27.4029   30.7780 C   0  0  0  0  0  0  0  0  0  0  0  0
   -7.4488  -26.0929   32.8672 C   0  0  0  0  0  0  0  0  0  0  0  0
   -8.0538  -27.1418   32.0257 N   0  0  0  0  0  0  0  0  0  0  0  0
   -5.2164  -28.5186   31.2481 C   0  0  1  0  0  0  0  0  0  0  0  0
   -5.7639  -28.9202   32.4504 O   0  0  0  0  0  0  0  0  0  0  0  0
   -5.2802  -29.6314   30.2451 C   0  0  1  0  0  0  0  0  0  0  0  0
   -6.5328  -29.7927   29.7959 O   0  0  0  0  0  0  0  0  0  0  0  0
   -4.3685  -29.3418   29.0338 C   0  0  0  0  0  0  0  0  0  0  0  0
  1  2  2  0  0  0  0
  1 11  1  0  0  0  0
  2  3  1  0  0  0  0
  2  4  1  0  0  0  0
  4  5  1  0  0  0  0
  5  6  1  0  0  0  0
  5  7  2  0  0  0  0
  6  8  1  0  0  0  0
  6 11  2  0  0  0  0
  9  8  1  1  0  0  0
  9 10  1  0  0  0  0
  9 13  1  0  0  0  0
 10 12  1  0  0  0  0
 11 12  1  0  0  0  0
 13 14  1  1  0  0  0
 13 15  1  0  0  0  0
 15 16  1  6  0  0  0
 15 17  1  0  0  0  0
M  END
>  <CHROM.1>
80.28522683,-48.29691157,-6.32039611,-26.70716120,32.22882475,1.81335875
0.37425243,0.65387822

>  <Name>
ligand

>  <RI>
0

>  <Rbt.Current_Directory>
/home/itssahil/PROJECTS/Mol_Feturizer/New_Systems/rnas/4LVX

>  <Rbt.Executable>
rbdock ($Id: //depot/dev/client3/rdock/2013.1/src/exe/rbdock.cxx#4 $)

>  <Rbt.Library>
libRbt.so (2013.1, Build901 2013/11/27)

>  <Rbt.Parameter_File>
/export/apps/rDock/src/rDock_2013.1_src/data/scripts/dock_solv.prm

>  <Rbt.Receptor>
prm/blind_docking_80.prm

>  <SCORE>
-16.1712

>  <SCORE.INTER>
-10.8981

>  <SCORE.INTER.CONST>
1

>  <SCORE.INTER.POLAR>
0

>  <SCORE.INTER.ROT>
2

>  <SCORE.INTER.SOLV>
9.33358

>  <SCORE.INTER.VDW>
-15.3099

>  <SCORE.INTER.norm>
-0.641065

>  <SCORE.INTRA>
-5.27305

>  <SCORE.INTRA.DIHEDRAL>
-8.40101

>  <SCORE.INTRA.DIHEDRAL.0>
10.3255

>  <SCORE.INTRA.POLAR>
0

>  <SCORE.INTRA.POLAR.0>
0

>  <SCORE.INTRA.REPUL>
0

>  <SCORE.INTRA.REPUL.0>
0

>  <SCORE.INTRA.SOLV>
0.438246

>  <SCORE.INTRA.SOLV.lig_0>
-53.4755

>  <SCORE.INTRA.VDW>
-1.29167

>  <SCORE.INTRA.VDW.0>
2.32763

>  <SCORE.INTRA.norm>
-0.310179

>  <SCORE.RESTR>
0

>  <SCORE.RESTR.CAVITY>
0

>  <SCORE.RESTR.norm>
0

>  <SCORE.SYSTEM>
0

>  <SCORE.SYSTEM.CONST>
0

>  <SCORE.SYSTEM.DIHEDRAL>
0

>  <SCORE.SYSTEM.SOLV>
0

>  <SCORE.SYSTEM.norm>
0

>  <SCORE.heavy>
17

>  <SCORE.norm>
-0.951245

>  <RMSD>
34.666

$$$$
ligand
 OpenBabel11021811503D
libRbt.so/2013.1/901 2013/11/27
 17 18  0  0  0  0  0  0  0  0999 V2000
   -9.3086  -26.6807   30.9769 N   0  0  0  0  0  0  0  0  0  0  0  0
   -9.0470  -27.3922   29.7991 C   0  0  0  0  0  0  0  0  0  0  0  0
  -10.0552  -27.4787   28.7826 N   0  0  0  0  0  0  0  0  0  0  0  0
   -7.8328  -28.0087   29.5873 N   0  0  0  0  0  0  0  0  0  0  0  0
   -6.8315  -27.9509   30.5345 C   0  0  0  0  0  0  0  0  0  0  0  0
   -7.0455  -27.2434   31.7588 C   0  0  0  0  0  0  0  0  0  0  0  0
   -5.7668  -28.5025   30.3304 O   0  0  0  0  0  0  0  0  0  0  0  0
   -6.0118  -27.1639   32.7878 N   0  0  0  0  0  0  0  0  0  0  0  0
   -6.1902  -26.2956   33.8962 C   0  0  2  0  0  0  0  0  0  0  0  0
   -7.6778  -26.0777   34.2812 C   0  0  0  0  0  0  0  0  0  0  0  0
   -8.3078  -26.6068   31.9563 C   0  0  0  0  0  0  0  0  0  0  0  0
   -8.5507  -25.8687   33.2096 N   0  0  0  0  0  0  0  0  0  0  0  0
   -5.4448  -25.0053   33.6078 C   0  0  1  0  0  0  0  0  0  0  0  0
   -6.0826  -24.2872   32.6158 O   0  0  0  0  0  0  0  0  0  0  0  0
   -5.3247  -24.1827   34.8558 C   0  0  1  0  0  0  0  0  0  0  0  0
   -4.7341  -24.8866   35.8318 O   0  0  0  0  0  0  0  0  0  0  0  0
   -4.4866  -22.9109   34.6056 C   0  0  0  0  0  0  0  0  0  0  0  0
  1  2  2  0  0  0  0
  1 11  1  0  0  0  0
  2  3  1  0  0  0  0
  2  4  1  0  0  0  0
  4  5  1  0  0  0  0
  5  6  1  0  0  0  0
  5  7  2  0  0  0  0
  6  8  1  0  0  0  0
  6 11  2  0  0  0  0
  9  8  1  6  0  0  0
  9 10  1  0  0  0  0
  9 13  1  0  0  0  0
 10 12  1  0  0  0  0
 11 12  1  0  0  0  0
 13 14  1  6  0  0  0
 13 15  1  0  0  0  0
 15 16  1  1  0  0  0
 15 17  1  0  0  0  0
M  END
>  <CHROM.1>
70.71831685,55.95450845,-6.92292154,-26.22173080,32.36613336,2.10352530,0.24444364
-2.31205206

>  <Name>
ligand

>  <RI>
0

>  <Rbt.Current_Directory>
/home/itssahil/PROJECTS/Mol_Feturizer/New_Systems/rnas/4LVX

>  <Rbt.Executable>
rbdock ($Id: //depot/dev/client3/rdock/2013.1/src/exe/rbdock.cxx#4 $)

>  <Rbt.Library>
libRbt.so (2013.1, Build901 2013/11/27)

>  <Rbt.Parameter_File>
/export/apps/rDock/src/rDock_2013.1_src/data/scripts/dock_solv.prm

>  <Rbt.Receptor>
prm/blind_docking_60.prm

>  <SCORE>
-14.5166

>  <SCORE.INTER>
-7.30296

>  <SCORE.INTER.CONST>
1

>  <SCORE.INTER.POLAR>
0

>  <SCORE.INTER.ROT>
2

>  <SCORE.INTER.SOLV>
9.07459

>  <SCORE.INTER.VDW>
-12.8268

>  <SCORE.INTER.norm>
-0.429586

>  <SCORE.INTRA>
-7.21363

>  <SCORE.INTRA.DIHEDRAL>
-9.72131

>  <SCORE.INTRA.DIHEDRAL.0>
10.3255

>  <SCORE.INTRA.POLAR>
0

>  <SCORE.INTRA.POLAR.0>
0

>  <SCORE.INTRA.REPUL>
0

>  <SCORE.INTRA.REPUL.0>
0

>  <SCORE.INTRA.SOLV>
-0.162988

>  <SCORE.INTRA.SOLV.lig_0>
-53.4755

>  <SCORE.INTRA.VDW>
-2.27148

>  <SCORE.INTRA.VDW.0>
2.32763

>  <SCORE.INTRA.norm>
-0.424331

>  <SCORE.RESTR>
2.7887e-05

>  <SCORE.RESTR.CAVITY>
2.7887e-05

>  <SCORE.RESTR.norm>
1.64041e-06

>  <SCORE.SYSTEM>
0

>  <SCORE.SYSTEM.CONST>
0

>  <SCORE.SYSTEM.DIHEDRAL>
0

>  <SCORE.SYSTEM.SOLV>
0

>  <SCORE.SYSTEM.norm>
0

>  <SCORE.heavy>
17

>  <SCORE.norm>
-0.853915

>  <RMSD>
34.705

$$$$
ligand
 OpenBabel11021811503D
libRbt.so/2013.1/901 2013/11/27
 17 18  0  0  0  0  0  0  0  0999 V2000
   -9.3230  -26.6761   30.9841 N   0  0  0  0  0  0  0  0  0  0  0  0
   -9.0580  -27.3929   29.8102 C   0  0  0  0  0  0  0  0  0  0  0  0
  -10.0625  -27.4823   28.7903 N   0  0  0  0  0  0  0  0  0  0  0  0
   -7.8438  -28.0121   29.6056 N   0  0  0  0  0  0  0  0  0  0  0  0
   -6.8461  -27.9517   30.5563 C   0  0  0  0  0  0  0  0  0  0  0  0
   -7.0636  -27.2387   31.7768 C   0  0  0  0  0  0  0  0  0  0  0  0
   -5.7814  -28.5057   30.3586 O   0  0  0  0  0  0  0  0  0  0  0  0
   -6.0337  -27.1564   32.8094 N   0  0  0  0  0  0  0  0  0  0  0  0
   -6.2150  -26.2831   33.9134 C   0  0  2  0  0  0  0  0  0  0  0  0
   -7.7038  -26.0614   34.2919 C   0  0  0  0  0  0  0  0  0  0  0  0
   -8.3257  -26.5995   31.9669 C   0  0  0  0  0  0  0  0  0  0  0  0
   -8.5723  -25.8557   33.2161 N   0  0  0  0  0  0  0  0  0  0  0  0
   -5.4667  -24.9951   33.6224 C   0  0  1  0  0  0  0  0  0  0  0  0
   -6.1104  -24.2710   32.6386 O   0  0  0  0  0  0  0  0  0  0  0  0
   -5.3315  -24.1772   34.8719 C   0  0  1  0  0  0  0  0  0  0  0  0
   -4.7398  -24.8887   35.8418 O   0  0  0  0  0  0  0  0  0  0  0  0
   -4.4849  -22.9114   34.6196 C   0  0  0  0  0  0  0  0  0  0  0  0
  1  2  2  0  0  0  0
  1 11  1  0  0  0  0
  2  3  1  0  0  0  0
  2  4  1  0  0  0  0
  4  5  1  0  0  0  0
  5  6  1  0  0  0  0
  5  7  2  0  0  0  0
  6  8  1  0  0  0  0
  6 11  2  0  0  0  0
  9  8  1  6  0  0  0
  9 10  1  0  0  0  0
  9 13  1  0  0  0  0
 10 12  1  0  0  0  0
 11 12  1  0  0  0  0
 13 14  1  6  0  0  0
 13 15  1  0  0  0  0
 15 16  1  1  0  0  0
 15 17  1  0  0  0  0
M  END
>  <CHROM.1>
71.59455891,55.70533838,-6.93832780,-26.21684347,32.38130921,2.10465248,0.24897032
-2.31589650

>  <Name>
ligand

>  <RI>
0

>  <Rbt.Current_Directory>
/home/itssahil/PROJECTS/Mol_Feturizer/New_Systems/rnas/4LVX

>  <Rbt.Executable>
rbdock ($Id: //depot/dev/client3/rdock/2013.1/src/exe/rbdock.cxx#4 $)

>  <Rbt.Library>
libRbt.so (2013.1, Build901 2013/11/27)

>  <Rbt.Parameter_File>
/export/apps/rDock/src/rDock_2013.1_src/data/scripts/dock_solv.prm

>  <Rbt.Receptor>
prm/blind_docking_100.prm

>  <SCORE>
-14.5626

>  <SCORE.INTER>
-7.37432

>  <SCORE.INTER.CONST>
1

>  <SCORE.INTER.POLAR>
0

>  <SCORE.INTER.ROT>
2

>  <SCORE.INTER.SOLV>
9.00499

>  <SCORE.INTER.VDW>
-12.8512

>  <SCORE.INTER.norm>
-0.433784

>  <SCORE.INTRA>
-7.18827

>  <SCORE.INTRA.DIHEDRAL>
-9.64901

>  <SCORE.INTRA.DIHEDRAL.0>
10.3255

>  <SCORE.INTRA.POLAR>
0

>  <SCORE.INTRA.POLAR.0>
0

>  <SCORE.INTRA.REPUL>
0

>  <SCORE.INTRA.REPUL.0>
0

>  <SCORE.INTRA.SOLV>
-0.166073

>  <SCORE.INTRA.SOLV.lig_0>
-53.4755

>  <SCORE.INTRA.VDW>
-2.28074

>  <SCORE.INTRA.VDW.0>
2.32763

>  <SCORE.INTRA.norm>
-0.42284

>  <SCORE.RESTR>
0

>  <SCORE.RESTR.CAVITY>
0

>  <SCORE.RESTR.norm>
0

>  <SCORE.SYSTEM>
0

>  <SCORE.SYSTEM.CONST>
0

>  <SCORE.SYSTEM.DIHEDRAL>
0

>  <SCORE.SYSTEM.SOLV>
0

>  <SCORE.SYSTEM.norm>
0

>  <SCORE.heavy>
17

>  <SCORE.norm>
-0.856624

>  <RMSD>
34.708

$$$$
ligand
 OpenBabel11021811503D
libRbt.so/2013.1/901 2013/11/27
 17 18  0  0  0  0  0  0  0  0999 V2000
   -5.4049  -28.4530   30.1330 N   0  0  0  0  0  0  0  0  0  0  0  0
   -6.5003  -29.1306   29.5827 C   0  0  0  0  0  0  0  0  0  0  0  0
   -6.2973  -30.3811   28.9103 N   0  0  0  0  0  0  0  0  0  0  0  0
   -7.7791  -28.6260   29.6792 N   0  0  0  0  0  0  0  0  0  0  0  0
   -8.0242  -27.4285   30.3187 C   0  0  0  0  0  0  0  0  0  0  0  0
   -6.9426  -26.6905   30.8939 C   0  0  0  0  0  0  0  0  0  0  0  0
   -9.1595  -26.9982   30.3927 O   0  0  0  0  0  0  0  0  0  0  0  0
   -7.1613  -25.4166   31.5744 N   0  0  0  0  0  0  0  0  0  0  0  0
   -6.0978  -24.8152   32.2967 C   0  0  2  0  0  0  0  0  0  0  0  0
   -4.6930  -25.1542   31.7307 C   0  0  0  0  0  0  0  0  0  0  0  0
   -5.6265  -27.2331   30.7882 C   0  0  0  0  0  0  0  0  0  0  0  0
   -4.4955  -26.4918   31.3762 N   0  0  0  0  0  0  0  0  0  0  0  0
   -6.2622  -25.1740   33.7622 C   0  0  1  0  0  0  0  0  0  0  0  0
   -6.1962  -26.5420   33.9377 O   0  0  0  0  0  0  0  0  0  0  0  0
   -5.2145  -24.4885   34.5874 C   0  0  1  0  0  0  0  0  0  0  0  0
   -5.2373  -23.1648   34.3769 O   0  0  0  0  0  0  0  0  0  0  0  0
   -5.4397  -24.7397   36.0935 C   0  0  0  0  0  0  0  0  0  0  0  0
  1  2  2  0  0  0  0
  1 11  1  0  0  0  0
  2  3  1  0  0  0  0
  2  4  1  0  0  0  0
  4  5  1  0  0  0  0
  5  6  1  0  0  0  0
  5  7  2  0  0  0  0
  6  8  1  0  0  0  0
  6 11  2  0  0  0  0
  9  8  1  6  0  0  0
  9 10  1  0  0  0  0
  9 13  1  0  0  0  0
 10 12  1  0  0  0  0
 11 12  1  0  0  0  0
 13 14  1  6  0  0  0
 13 15  1  0  0  0  0
 15 16  1  1  0  0  0
 15 17  1  0  0  0  0
M  END
>  <CHROM.1>
61.22289007,54.78042536,-6.26597049,-26.47694005,31.86282266,-1.80775707
-0.18861847,0.79857567

>  <Name>
ligand

>  <RI>
0

>  <Rbt.Current_Directory>
/home/itssahil/PROJECTS/Mol_Feturizer/New_Systems/rnas/4LVX

>  <Rbt.Executable>
rbdock ($Id: //depot/dev/client3/rdock/2013.1/src/exe/rbdock.cxx#4 $)

>  <Rbt.Library>
libRbt.so (2013.1, Build901 2013/11/27)

>  <Rbt.Parameter_File>
/export/apps/rDock/src/rDock_2013.1_src/data/scripts/dock_solv.prm

>  <Rbt.Receptor>
prm/blind_docking_80.prm

>  <SCORE>
-16.4528

>  <SCORE.INTER>
-9.27062

>  <SCORE.INTER.CONST>
1

>  <SCORE.INTER.POLAR>
0

>  <SCORE.INTER.ROT>
2

>  <SCORE.INTER.SOLV>
18.8003

>  <SCORE.INTER.VDW>
-17.3805

>  <SCORE.INTER.norm>
-0.545331

>  <SCORE.INTRA>
-7.18221

>  <SCORE.INTRA.DIHEDRAL>
-10.061

>  <SCORE.INTRA.DIHEDRAL.0>
10.3255

>  <SCORE.INTRA.POLAR>
0

>  <SCORE.INTRA.POLAR.0>
0

>  <SCORE.INTRA.REPUL>
0

>  <SCORE.INTRA.REPUL.0>
0

>  <SCORE.INTRA.SOLV>
-0.108225

>  <SCORE.INTRA.SOLV.lig_0>
-53.4755

>  <SCORE.INTRA.VDW>
-2.09758

>  <SCORE.INTRA.VDW.0>
2.32763

>  <SCORE.INTRA.norm>
-0.422483

>  <SCORE.RESTR>
0

>  <SCORE.RESTR.CAVITY>
0

>  <SCORE.RESTR.norm>
0

>  <SCORE.SYSTEM>
0

>  <SCORE.SYSTEM.CONST>
0

>  <SCORE.SYSTEM.DIHEDRAL>
0

>  <SCORE.SYSTEM.SOLV>
0

>  <SCORE.SYSTEM.norm>
0

>  <SCORE.heavy>
17

>  <SCORE.norm>
-0.967814

>  <RMSD>
34.723

$$$$
ligand
 OpenBabel11021811503D
libRbt.so/2013.1/901 2013/11/27
 17 18  0  0  0  0  0  0  0  0999 V2000
   -7.8342  -25.4729   34.4350 N   0  0  0  0  0  0  0  0  0  0  0  0
   -7.2691  -25.0791   35.6547 C   0  0  0  0  0  0  0  0  0  0  0  0
   -8.1226  -24.7296   36.7531 N   0  0  0  0  0  0  0  0  0  0  0  0
   -5.9031  -25.0268   35.8295 N   0  0  0  0  0  0  0  0  0  0  0  0
   -5.0421  -25.3562   34.8033 C   0  0  0  0  0  0  0  0  0  0  0  0
   -5.5636  -25.7594   33.5341 C   0  0  0  0  0  0  0  0  0  0  0  0
   -3.8393  -25.3027   34.9759 O   0  0  0  0  0  0  0  0  0  0  0  0
   -4.6844  -26.1109   32.4218 N   0  0  0  0  0  0  0  0  0  0  0  0
   -5.2344  -26.6891   31.2482 C   0  0  2  0  0  0  0  0  0  0  0  0
   -6.6953  -26.2486   30.9648 C   0  0  0  0  0  0  0  0  0  0  0  0
   -6.9812  -25.8126   33.3752 C   0  0  0  0  0  0  0  0  0  0  0  0
   -7.5424  -26.2284   32.0765 N   0  0  0  0  0  0  0  0  0  0  0  0
   -5.0637  -28.1944   31.3407 C   0  0  1  0  0  0  0  0  0  0  0  0
   -5.8749  -28.7153   32.3291 O   0  0  0  0  0  0  0  0  0  0  0  0
   -5.3687  -28.8357   30.0200 C   0  0  1  0  0  0  0  0  0  0  0  0
   -4.3375  -28.6936   29.1754 O   0  0  0  0  0  0  0  0  0  0  0  0
   -5.6499  -30.3444   30.1857 C   0  0  0  0  0  0  0  0  0  0  0  0
  1  2  2  0  0  0  0
  1 11  1  0  0  0  0
  2  3  1  0  0  0  0
  2  4  1  0  0  0  0
  4  5  1  0  0  0  0
  5  6  1  0  0  0  0
  5  7  2  0  0  0  0
  6  8  1  0  0  0  0
  6 11  2  0  0  0  0
  9  8  1  1  0  0  0
  9 10  1  0  0  0  0
  9 13  1  0  0  0  0
 10 12  1  0  0  0  0
 11 12  1  0  0  0  0
 13 14  1  1  0  0  0
 13 15  1  0  0  0  0
 15 16  1  6  0  0  0
 15 17  1  0  0  0  0
M  END
>  <CHROM.1>
68.95115042,78.17057130,-5.90804893,-26.68598699,32.83498065,1.78631228,0.01772448
0.95012152

>  <Name>
ligand

>  <RI>
0

>  <Rbt.Current_Directory>
/home/itssahil/PROJECTS/Mol_Feturizer/New_Systems/rnas/4LVX

>  <Rbt.Executable>
rbdock ($Id: //depot/dev/client3/rdock/2013.1/src/exe/rbdock.cxx#4 $)

>  <Rbt.Library>
libRbt.so (2013.1, Build901 2013/11/27)

>  <Rbt.Parameter_File>
/export/apps/rDock/src/rDock_2013.1_src/data/scripts/dock_solv.prm

>  <Rbt.Receptor>
prm/blind_docking_100.prm

>  <SCORE>
-16.7103

>  <SCORE.INTER>
-10.7896

>  <SCORE.INTER.CONST>
1

>  <SCORE.INTER.POLAR>
0

>  <SCORE.INTER.ROT>
2

>  <SCORE.INTER.SOLV>
10.1425

>  <SCORE.INTER.VDW>
-15.5072

>  <SCORE.INTER.norm>
-0.634681

>  <SCORE.INTRA>
-5.92076

>  <SCORE.INTRA.DIHEDRAL>
-8.80364

>  <SCORE.INTRA.DIHEDRAL.0>
10.3255

>  <SCORE.INTRA.POLAR>
0

>  <SCORE.INTRA.POLAR.0>
0

>  <SCORE.INTRA.REPUL>
0

>  <SCORE.INTRA.REPUL.0>
0

>  <SCORE.INTRA.SOLV>
-0.272296

>  <SCORE.INTRA.SOLV.lig_0>
-53.4755

>  <SCORE.INTRA.VDW>
-1.38279

>  <SCORE.INTRA.VDW.0>
2.32763

>  <SCORE.INTRA.norm>
-0.34828

>  <SCORE.RESTR>
0

>  <SCORE.RESTR.CAVITY>
0

>  <SCORE.RESTR.norm>
0

>  <SCORE.SYSTEM>
0

>  <SCORE.SYSTEM.CONST>
0

>  <SCORE.SYSTEM.DIHEDRAL>
0

>  <SCORE.SYSTEM.SOLV>
0

>  <SCORE.SYSTEM.norm>
0

>  <SCORE.heavy>
17

>  <SCORE.norm>
-0.98296

>  <RMSD>
34.741

$$$$
ligand
 OpenBabel11021811503D
libRbt.so/2013.1/901 2013/11/27
 17 18  0  0  0  0  0  0  0  0999 V2000
   -5.3739  -28.4698   30.0959 N   0  0  0  0  0  0  0  0  0  0  0  0
   -6.4631  -29.1576   29.5458 C   0  0  0  0  0  0  0  0  0  0  0  0
   -6.2482  -30.4049   28.8710 N   0  0  0  0  0  0  0  0  0  0  0  0
   -7.7468  -28.6663   29.6449 N   0  0  0  0  0  0  0  0  0  0  0  0
   -8.0033  -27.4725   30.2867 C   0  0  0  0  0  0  0  0  0  0  0  0
   -6.9285  -26.7245   30.8618 C   0  0  0  0  0  0  0  0  0  0  0  0
   -9.1428  -27.0539   30.3630 O   0  0  0  0  0  0  0  0  0  0  0  0
   -7.1593  -25.4541   31.5448 N   0  0  0  0  0  0  0  0  0  0  0  0
   -6.1011  -24.8431   32.2667 C   0  0  2  0  0  0  0  0  0  0  0  0
   -4.6936  -25.1667   31.6984 C   0  0  0  0  0  0  0  0  0  0  0  0
   -5.6071  -27.2534   30.7534 C   0  0  0  0  0  0  0  0  0  0  0  0
   -4.4830  -26.5016   31.3413 N   0  0  0  0  0  0  0  0  0  0  0  0
   -6.2599  -25.2060   33.7319 C   0  0  1  0  0  0  0  0  0  0  0  0
   -6.1615  -26.5720   33.9073 O   0  0  0  0  0  0  0  0  0  0  0  0
   -5.2307  -24.4957   34.5593 C   0  0  1  0  0  0  0  0  0  0  0  0
   -5.3226  -23.1688   34.3925 O   0  0  0  0  0  0  0  0  0  0  0  0
   -5.4130  -24.8053   36.0605 C   0  0  0  0  0  0  0  0  0  0  0  0
  1  2  2  0  0  0  0
  1 11  1  0  0  0  0
  2  3  1  0  0  0  0
  2  4  1  0  0  0  0
  4  5  1  0  0  0  0
  5  6  1  0  0  0  0
  5  7  2  0  0  0  0
  6  8  1  0  0  0  0
  6 11  2  0  0  0  0
  9  8  1  6  0  0  0
  9 10  1  0  0  0  0
  9 13  1  0  0  0  0
 10 12  1  0  0  0  0
 11 12  1  0  0  0  0
 13 14  1  6  0  0  0
 13 15  1  0  0  0  0
 15 16  1  1  0  0  0
 15 17  1  0  0  0  0
M  END
>  <CHROM.1>
62.04284949,57.41616631,-6.25528400,-26.50585289,31.83335760,-1.79976286
-0.19461648,0.79959655

>  <Name>
ligand

>  <RI>
0

>  <Rbt.Current_Directory>
/home/itssahil/PROJECTS/Mol_Feturizer/New_Systems/rnas/4LVX

>  <Rbt.Executable>
rbdock ($Id: //depot/dev/client3/rdock/2013.1/src/exe/rbdock.cxx#4 $)

>  <Rbt.Library>
libRbt.so (2013.1, Build901 2013/11/27)

>  <Rbt.Parameter_File>
/export/apps/rDock/src/rDock_2013.1_src/data/scripts/dock_solv.prm

>  <Rbt.Receptor>
prm/blind_docking_100.prm

>  <SCORE>
-16.5162

>  <SCORE.INTER>
-9.28976

>  <SCORE.INTER.CONST>
1

>  <SCORE.INTER.POLAR>
0

>  <SCORE.INTER.ROT>
2

>  <SCORE.INTER.SOLV>
18.882

>  <SCORE.INTER.VDW>
-17.4205

>  <SCORE.INTER.norm>
-0.546456

>  <SCORE.INTRA>
-7.22641

>  <SCORE.INTRA.DIHEDRAL>
-10.1317

>  <SCORE.INTRA.DIHEDRAL.0>
10.3255

>  <SCORE.INTRA.POLAR>
0

>  <SCORE.INTRA.POLAR.0>
0

>  <SCORE.INTRA.REPUL>
0

>  <SCORE.INTRA.REPUL.0>
0

>  <SCORE.INTRA.SOLV>
-0.126959

>  <SCORE.INTRA.SOLV.lig_0>
-53.4755

>  <SCORE.INTRA.VDW>
-2.0971

>  <SCORE.INTRA.VDW.0>
2.32763

>  <SCORE.INTRA.norm>
-0.425083

>  <SCORE.RESTR>
0

>  <SCORE.RESTR.CAVITY>
0

>  <SCORE.RESTR.norm>
0

>  <SCORE.SYSTEM>
0

>  <SCORE.SYSTEM.CONST>
0

>  <SCORE.SYSTEM.DIHEDRAL>
0

>  <SCORE.SYSTEM.SOLV>
0

>  <SCORE.SYSTEM.norm>
0

>  <SCORE.heavy>
17

>  <SCORE.norm>
-0.971539

>  <RMSD>
34.742

$$$$
ligand
 OpenBabel11021811503D
libRbt.so/2013.1/901 2013/11/27
 17 18  0  0  0  0  0  0  0  0999 V2000
   -5.3698  -28.4672   30.0916 N   0  0  0  0  0  0  0  0  0  0  0  0
   -6.4582  -29.1556   29.5406 C   0  0  0  0  0  0  0  0  0  0  0  0
   -6.2416  -30.4007   28.8623 N   0  0  0  0  0  0  0  0  0  0  0  0
   -7.7429  -28.6670   29.6422 N   0  0  0  0  0  0  0  0  0  0  0  0
   -8.0010  -27.4754   30.2875 C   0  0  0  0  0  0  0  0  0  0  0  0
   -6.9271  -26.7269   30.8636 C   0  0  0  0  0  0  0  0  0  0  0  0
   -9.1412  -27.0593   30.3660 O   0  0  0  0  0  0  0  0  0  0  0  0
   -7.1597  -25.4588   31.5502 N   0  0  0  0  0  0  0  0  0  0  0  0
   -6.1019  -24.8477   32.2727 C   0  0  2  0  0  0  0  0  0  0  0  0
   -4.6944  -25.1671   31.7022 C   0  0  0  0  0  0  0  0  0  0  0  0
   -5.6048  -27.2531   30.7526 C   0  0  0  0  0  0  0  0  0  0  0  0
   -4.4815  -26.5007   31.3414 N   0  0  0  0  0  0  0  0  0  0  0  0
   -6.2586  -25.2149   33.7371 C   0  0  1  0  0  0  0  0  0  0  0  0
   -6.1970  -26.5841   33.9037 O   0  0  0  0  0  0  0  0  0  0  0  0
   -5.2031  -24.5386   34.5598 C   0  0  1  0  0  0  0  0  0  0  0  0
   -5.2563  -23.2089   34.3980 O   0  0  0  0  0  0  0  0  0  0  0  0
   -5.3846  -24.8478   36.0612 C   0  0  0  0  0  0  0  0  0  0  0  0
  1  2  2  0  0  0  0
  1 11  1  0  0  0  0
  2  3  1  0  0  0  0
  2  4  1  0  0  0  0
  4  5  1  0  0  0  0
  5  6  1  0  0  0  0
  5  7  2  0  0  0  0
  6  8  1  0  0  0  0
  6 11  2  0  0  0  0
  9  8  1  6  0  0  0
  9 10  1  0  0  0  0
  9 13  1  0  0  0  0
 10 12  1  0  0  0  0
 11 12  1  0  0  0  0
 13 14  1  6  0  0  0
 13 15  1  0  0  0  0
 15 16  1  1  0  0  0
 15 17  1  0  0  0  0
M  END
>  <CHROM.1>
60.26737636,57.20896115,-6.24822062,-26.51568095,31.83383663,-1.80422833
-0.18715654,0.80462525

>  <Name>
ligand

>  <RI>
0

>  <Rbt.Current_Directory>
/home/itssahil/PROJECTS/Mol_Feturizer/New_Systems/rnas/4LVX

>  <Rbt.Executable>
rbdock ($Id: //depot/dev/client3/rdock/2013.1/src/exe/rbdock.cxx#4 $)

>  <Rbt.Library>
libRbt.so (2013.1, Build901 2013/11/27)

>  <Rbt.Parameter_File>
/export/apps/rDock/src/rDock_2013.1_src/data/scripts/dock_solv.prm

>  <Rbt.Receptor>
prm/blind_docking_100.prm

>  <SCORE>
-16.5197

>  <SCORE.INTER>
-9.35254

>  <SCORE.INTER.CONST>
1

>  <SCORE.INTER.POLAR>
0

>  <SCORE.INTER.ROT>
2

>  <SCORE.INTER.SOLV>
18.8878

>  <SCORE.INTER.VDW>
-17.4643

>  <SCORE.INTER.norm>
-0.550149

>  <SCORE.INTRA>
-7.16721

>  <SCORE.INTRA.DIHEDRAL>
-10.1403

>  <SCORE.INTRA.DIHEDRAL.0>
10.3255

>  <SCORE.INTRA.POLAR>
0

>  <SCORE.INTRA.POLAR.0>
0

>  <SCORE.INTRA.REPUL>
0

>  <SCORE.INTRA.REPUL.0>
0

>  <SCORE.INTRA.SOLV>
-0.116712

>  <SCORE.INTRA.SOLV.lig_0>
-53.4755

>  <SCORE.INTRA.VDW>
-2.03869

>  <SCORE.INTRA.VDW.0>
2.32763

>  <SCORE.INTRA.norm>
-0.4216

>  <SCORE.RESTR>
0

>  <SCORE.RESTR.CAVITY>
0

>  <SCORE.RESTR.norm>
0

>  <SCORE.SYSTEM>
0

>  <SCORE.SYSTEM.CONST>
0

>  <SCORE.SYSTEM.DIHEDRAL>
0

>  <SCORE.SYSTEM.SOLV>
0

>  <SCORE.SYSTEM.norm>
0

>  <SCORE.heavy>
17

>  <SCORE.norm>
-0.97175

>  <RMSD>
34.749

$$$$
ligand
 OpenBabel11021811503D
libRbt.so/2013.1/901 2013/11/27
 17 18  0  0  0  0  0  0  0  0999 V2000
   -7.8759  -25.4889   34.4189 N   0  0  0  0  0  0  0  0  0  0  0  0
   -7.3010  -25.0805   35.6291 C   0  0  0  0  0  0  0  0  0  0  0  0
   -8.1456  -24.7256   36.7327 N   0  0  0  0  0  0  0  0  0  0  0  0
   -5.9336  -25.0186   35.7898 N   0  0  0  0  0  0  0  0  0  0  0  0
   -5.0810  -25.3526   34.7581 C   0  0  0  0  0  0  0  0  0  0  0  0
   -5.6126  -25.7707   33.4980 C   0  0  0  0  0  0  0  0  0  0  0  0
   -3.8768  -25.2905   34.9182 O   0  0  0  0  0  0  0  0  0  0  0  0
   -4.7425  -26.1275   32.3803 N   0  0  0  0  0  0  0  0  0  0  0  0
   -5.3007  -26.7199   31.2177 C   0  0  2  0  0  0  0  0  0  0  0  0
   -6.7669  -26.2905   30.9448 C   0  0  0  0  0  0  0  0  0  0  0  0
   -7.0314  -25.8336   33.3538 C   0  0  0  0  0  0  0  0  0  0  0  0
   -7.6031  -26.2649   32.0647 N   0  0  0  0  0  0  0  0  0  0  0  0
   -5.1202  -28.2233   31.3225 C   0  0  1  0  0  0  0  0  0  0  0  0
   -5.8939  -28.7351   32.3452 O   0  0  0  0  0  0  0  0  0  0  0  0
   -5.4686  -28.8821   30.0213 C   0  0  1  0  0  0  0  0  0  0  0  0
   -4.4819  -28.7185   29.1288 O   0  0  0  0  0  0  0  0  0  0  0  0
   -5.7010  -30.3964   30.2089 C   0  0  0  0  0  0  0  0  0  0  0  0
  1  2  2  0  0  0  0
  1 11  1  0  0  0  0
  2  3  1  0  0  0  0
  2  4  1  0  0  0  0
  4  5  1  0  0  0  0
  5  6  1  0  0  0  0
  5  7  2  0  0  0  0
  6  8  1  0  0  0  0
  6 11  2  0  0  0  0
  9  8  1  1  0  0  0
  9 10  1  0  0  0  0
  9 13  1  0  0  0  0
 10 12  1  0  0  0  0
 11 12  1  0  0  0  0
 13 14  1  1  0  0  0
 13 15  1  0  0  0  0
 15 16  1  6  0  0  0
 15 17  1  0  0  0  0
M  END
>  <CHROM.1>
67.49435196,76.68149832,-5.96323640,-26.70491635,32.81231238,1.77799115,0.02457693
0.94238274

>  <Name>
ligand

>  <RI>
0

>  <Rbt.Current_Directory>
/home/itssahil/PROJECTS/Mol_Feturizer/New_Systems/rnas/4LVX

>  <Rbt.Executable>
rbdock ($Id: //depot/dev/client3/rdock/2013.1/src/exe/rbdock.cxx#4 $)

>  <Rbt.Library>
libRbt.so (2013.1, Build901 2013/11/27)

>  <Rbt.Parameter_File>
/export/apps/rDock/src/rDock_2013.1_src/data/scripts/dock_solv.prm

>  <Rbt.Receptor>
prm/blind_docking_80.prm

>  <SCORE>
-16.7053

>  <SCORE.INTER>
-10.5951

>  <SCORE.INTER.CONST>
1

>  <SCORE.INTER.POLAR>
0

>  <SCORE.INTER.ROT>
2

>  <SCORE.INTER.SOLV>
10.0749

>  <SCORE.INTER.VDW>
-15.3551

>  <SCORE.INTER.norm>
-0.623243

>  <SCORE.INTRA>
-6.11021

>  <SCORE.INTRA.DIHEDRAL>
-9.04823

>  <SCORE.INTRA.DIHEDRAL.0>
10.3255

>  <SCORE.INTRA.POLAR>
0

>  <SCORE.INTRA.POLAR.0>
0

>  <SCORE.INTRA.REPUL>
0

>  <SCORE.INTRA.REPUL.0>
0

>  <SCORE.INTRA.SOLV>
-0.257866

>  <SCORE.INTRA.SOLV.lig_0>
-53.4755

>  <SCORE.INTRA.VDW>
-1.45716

>  <SCORE.INTRA.VDW.0>
2.32763

>  <SCORE.INTRA.norm>
-0.359424

>  <SCORE.RESTR>
0

>  <SCORE.RESTR.CAVITY>
0

>  <SCORE.RESTR.norm>
0

>  <SCORE.SYSTEM>
0

>  <SCORE.SYSTEM.CONST>
0

>  <SCORE.SYSTEM.DIHEDRAL>
0

>  <SCORE.SYSTEM.SOLV>
0

>  <SCORE.SYSTEM.norm>
0

>  <SCORE.heavy>
17

>  <SCORE.norm>
-0.982667

>  <RMSD>
34.763

$$$$
ligand
 OpenBabel11021811503D
libRbt.so/2013.1/901 2013/11/27
 17 18  0  0  0  0  0  0  0  0999 V2000
  -10.4556  -26.9063   31.1074 N   0  0  0  0  0  0  0  0  0  0  0  0
  -10.2406  -27.5295   29.8715 C   0  0  0  0  0  0  0  0  0  0  0  0
  -11.3529  -27.7903   29.0043 N   0  0  0  0  0  0  0  0  0  0  0  0
   -8.9763  -27.8934   29.4611 N   0  0  0  0  0  0  0  0  0  0  0  0
   -7.8755  -27.6607   30.2594 C   0  0  0  0  0  0  0  0  0  0  0  0
   -8.0367  -27.0331   31.5343 C   0  0  0  0  0  0  0  0  0  0  0  0
   -6.7675  -27.9903   29.8809 O   0  0  0  0  0  0  0  0  0  0  0  0
   -6.8964  -26.7745   32.4099 N   0  0  0  0  0  0  0  0  0  0  0  0
   -7.0707  -25.9799   33.5729 C   0  0  2  0  0  0  0  0  0  0  0  0
   -8.4992  -26.0636   34.1739 C   0  0  0  0  0  0  0  0  0  0  0  0
   -9.3535  -26.6586   31.9383 C   0  0  0  0  0  0  0  0  0  0  0  0
   -9.5443  -26.0072   33.2474 N   0  0  0  0  0  0  0  0  0  0  0  0
   -6.6345  -24.5637   33.2449 C   0  0  1  0  0  0  0  0  0  0  0  0
   -6.9311  -23.7100   34.2888 O   0  0  0  0  0  0  0  0  0  0  0  0
   -5.1670  -24.5279   32.9391 C   0  0  1  0  0  0  0  0  0  0  0  0
   -4.4891  -25.3243   33.7776 O   0  0  0  0  0  0  0  0  0  0  0  0
   -4.8873  -24.9998   31.4963 C   0  0  0  0  0  0  0  0  0  0  0  0
  1  2  2  0  0  0  0
  1 11  1  0  0  0  0
  2  3  1  0  0  0  0
  2  4  1  0  0  0  0
  4  5  1  0  0  0  0
  5  6  1  0  0  0  0
  5  7  2  0  0  0  0
  6  8  1  0  0  0  0
  6 11  2  0  0  0  0
  9  8  1  6  0  0  0
  9 10  1  0  0  0  0
  9 13  1  0  0  0  0
 10 12  1  0  0  0  0
 11 12  1  0  0  0  0
 13 14  1  1  0  0  0
 13 15  1  0  0  0  0
 15 16  1  1  0  0  0
 15 17  1  0  0  0  0
M  END
>  <CHROM.1>
172.82661345,-40.50054330,-7.75991187,-26.28180231,31.92898345,2.32282013
-0.13177913,-2.12051646

>  <Name>
ligand

>  <RI>
0

>  <Rbt.Current_Directory>
/home/itssahil/PROJECTS/Mol_Feturizer/New_Systems/rnas/4LVX

>  <Rbt.Executable>
rbdock ($Id: //depot/dev/client3/rdock/2013.1/src/exe/rbdock.cxx#4 $)

>  <Rbt.Library>
libRbt.so (2013.1, Build901 2013/11/27)

>  <Rbt.Parameter_File>
/export/apps/rDock/src/rDock_2013.1_src/data/scripts/dock_solv.prm

>  <Rbt.Receptor>
prm/blind_docking_80.prm

>  <SCORE>
-16.2608

>  <SCORE.INTER>
-10.7298

>  <SCORE.INTER.CONST>
1

>  <SCORE.INTER.POLAR>
0

>  <SCORE.INTER.ROT>
2

>  <SCORE.INTER.SOLV>
7.00758

>  <SCORE.INTER.VDW>
-14.4224

>  <SCORE.INTER.norm>
-0.631162

>  <SCORE.INTRA>
-5.53109

>  <SCORE.INTRA.DIHEDRAL>
-8.73514

>  <SCORE.INTRA.DIHEDRAL.0>
10.3255

>  <SCORE.INTRA.POLAR>
0

>  <SCORE.INTRA.POLAR.0>
0

>  <SCORE.INTRA.REPUL>
0

>  <SCORE.INTRA.REPUL.0>
0

>  <SCORE.INTRA.SOLV>
0.399196

>  <SCORE.INTRA.SOLV.lig_0>
-53.4755

>  <SCORE.INTRA.VDW>
-1.36313

>  <SCORE.INTRA.VDW.0>
2.32763

>  <SCORE.INTRA.norm>
-0.325359

>  <SCORE.RESTR>
0

>  <SCORE.RESTR.CAVITY>
0

>  <SCORE.RESTR.norm>
0

>  <SCORE.SYSTEM>
0

>  <SCORE.SYSTEM.CONST>
0

>  <SCORE.SYSTEM.DIHEDRAL>
0

>  <SCORE.SYSTEM.SOLV>
0

>  <SCORE.SYSTEM.norm>
0

>  <SCORE.heavy>
17

>  <SCORE.norm>
-0.95652

>  <RMSD>
34.767

$$$$
ligand
 OpenBabel11021811503D
libRbt.so/2013.1/901 2013/11/27
 17 18  0  0  0  0  0  0  0  0999 V2000
  -10.4682  -26.9419   31.1146 N   0  0  0  0  0  0  0  0  0  0  0  0
  -10.2640  -27.5840   29.8865 C   0  0  0  0  0  0  0  0  0  0  0  0
  -11.3831  -27.8523   29.0304 N   0  0  0  0  0  0  0  0  0  0  0  0
   -9.0040  -27.9598   29.4735 N   0  0  0  0  0  0  0  0  0  0  0  0
   -7.8971  -27.7206   30.2612 C   0  0  0  0  0  0  0  0  0  0  0  0
   -8.0471  -27.0738   31.5278 C   0  0  0  0  0  0  0  0  0  0  0  0
   -6.7931  -28.0608   29.8805 O   0  0  0  0  0  0  0  0  0  0  0  0
   -6.9001  -26.8078   32.3923 N   0  0  0  0  0  0  0  0  0  0  0  0
   -7.0632  -25.9955   33.5446 C   0  0  2  0  0  0  0  0  0  0  0  0
   -8.4882  -26.0638   34.1559 C   0  0  0  0  0  0  0  0  0  0  0  0
   -9.3596  -26.6873   31.9347 C   0  0  0  0  0  0  0  0  0  0  0  0
   -9.5390  -26.0160   33.2353 N   0  0  0  0  0  0  0  0  0  0  0  0
   -6.6227  -24.5862   33.1932 C   0  0  1  0  0  0  0  0  0  0  0  0
   -6.9217  -23.7135   34.2205 O   0  0  0  0  0  0  0  0  0  0  0  0
   -5.1539  -24.5589   32.8928 C   0  0  1  0  0  0  0  0  0  0  0  0
   -4.4782  -25.3210   33.7643 O   0  0  0  0  0  0  0  0  0  0  0  0
   -4.8668  -25.0853   31.4705 C   0  0  0  0  0  0  0  0  0  0  0  0
  1  2  2  0  0  0  0
  1 11  1  0  0  0  0
  2  3  1  0  0  0  0
  2  4  1  0  0  0  0
  4  5  1  0  0  0  0
  5  6  1  0  0  0  0
  5  7  2  0  0  0  0
  6  8  1  0  0  0  0
  6 11  2  0  0  0  0
  9  8  1  6  0  0  0
  9 10  1  0  0  0  0
  9 13  1  0  0  0  0
 10 12  1  0  0  0  0
 11 12  1  0  0  0  0
 13 14  1  1  0  0  0
 13 15  1  0  0  0  0
 15 16  1  1  0  0  0
 15 17  1  0  0  0  0
M  END
>  <CHROM.1>
172.18336794,-41.70817500,-7.76376019,-26.31774074,31.91492755,2.32954010
-0.12790880,-2.13583539

>  <Name>
ligand

>  <RI>
0

>  <Rbt.Current_Directory>
/home/itssahil/PROJECTS/Mol_Feturizer/New_Systems/rnas/4LVX

>  <Rbt.Executable>
rbdock ($Id: //depot/dev/client3/rdock/2013.1/src/exe/rbdock.cxx#4 $)

>  <Rbt.Library>
libRbt.so (2013.1, Build901 2013/11/27)

>  <Rbt.Parameter_File>
/export/apps/rDock/src/rDock_2013.1_src/data/scripts/dock_solv.prm

>  <Rbt.Receptor>
prm/blind_docking_80.prm

>  <SCORE>
-16.2681

>  <SCORE.INTER>
-10.7418

>  <SCORE.INTER.CONST>
1

>  <SCORE.INTER.POLAR>
0

>  <SCORE.INTER.ROT>
2

>  <SCORE.INTER.SOLV>
7.03704

>  <SCORE.INTER.VDW>
-14.4402

>  <SCORE.INTER.norm>
-0.631872

>  <SCORE.INTRA>
-5.52626

>  <SCORE.INTRA.DIHEDRAL>
-8.84239

>  <SCORE.INTRA.DIHEDRAL.0>
10.3255

>  <SCORE.INTRA.POLAR>
0

>  <SCORE.INTRA.POLAR.0>
0

>  <SCORE.INTRA.REPUL>
0

>  <SCORE.INTRA.REPUL.0>
0

>  <SCORE.INTRA.SOLV>
0.395287

>  <SCORE.INTRA.SOLV.lig_0>
-53.4755

>  <SCORE.INTRA.VDW>
-1.30271

>  <SCORE.INTRA.VDW.0>
2.32763

>  <SCORE.INTRA.norm>
-0.325074

>  <SCORE.RESTR>
0

>  <SCORE.RESTR.CAVITY>
0

>  <SCORE.RESTR.norm>
0

>  <SCORE.SYSTEM>
0

>  <SCORE.SYSTEM.CONST>
0

>  <SCORE.SYSTEM.DIHEDRAL>
0

>  <SCORE.SYSTEM.SOLV>
0

>  <SCORE.SYSTEM.norm>
0

>  <SCORE.heavy>
17

>  <SCORE.norm>
-0.956946

>  <RMSD>
34.797

$$$$
ligand
 OpenBabel11021811503D
libRbt.so/2013.1/901 2013/11/27
 17 18  0  0  0  0  0  0  0  0999 V2000
   -9.2410  -27.0507   30.5594 N   0  0  0  0  0  0  0  0  0  0  0  0
   -9.0887  -27.8794   29.4404 C   0  0  0  0  0  0  0  0  0  0  0  0
  -10.1779  -28.0387   28.5209 N   0  0  0  0  0  0  0  0  0  0  0  0
   -7.9066  -28.5440   29.1946 N   0  0  0  0  0  0  0  0  0  0  0  0
   -6.8306  -28.4198   30.0488 C   0  0  0  0  0  0  0  0  0  0  0  0
   -6.9317  -27.5917   31.2105 C   0  0  0  0  0  0  0  0  0  0  0  0
   -5.7958  -29.0151   29.8162 O   0  0  0  0  0  0  0  0  0  0  0  0
   -5.8163  -27.4389   32.1412 N   0  0  0  0  0  0  0  0  0  0  0  0
   -5.8886  -26.4630   33.1691 C   0  0  2  0  0  0  0  0  0  0  0  0
   -7.3359  -26.1714   33.6478 C   0  0  0  0  0  0  0  0  0  0  0  0
   -8.1625  -26.9075   31.4440 C   0  0  0  0  0  0  0  0  0  0  0  0
   -8.2896  -26.0455   32.6336 N   0  0  0  0  0  0  0  0  0  0  0  0
   -5.1471  -25.2259   32.6965 C   0  0  1  0  0  0  0  0  0  0  0  0
   -5.8370  -24.6076   31.6726 O   0  0  0  0  0  0  0  0  0  0  0  0
   -4.9390  -24.2753   33.8374 C   0  0  1  0  0  0  0  0  0  0  0  0
   -6.1117  -23.7906   34.2696 O   0  0  0  0  0  0  0  0  0  0  0  0
   -4.2410  -24.9738   35.0236 C   0  0  0  0  0  0  0  0  0  0  0  0
  1  2  2  0  0  0  0
  1 11  1  0  0  0  0
  2  3  1  0  0  0  0
  2  4  1  0  0  0  0
  4  5  1  0  0  0  0
  5  6  1  0  0  0  0
  5  7  2  0  0  0  0
  6  8  1  0  0  0  0
  6 11  2  0  0  0  0
  9  8  1  6  0  0  0
  9 10  1  0  0  0  0
  9 13  1  0  0  0  0
 10 12  1  0  0  0  0
 11 12  1  0  0  0  0
 13 14  1  6  0  0  0
 13 15  1  0  0  0  0
 15 16  1  1  0  0  0
 15 17  1  0  0  0  0
M  END
>  <CHROM.1>
69.42754356,-66.06587624,-6.88042795,-26.56551319,31.76611134,2.10356469
0.26330778,-2.37733660

>  <Name>
ligand

>  <RI>
0

>  <Rbt.Current_Directory>
/home/itssahil/PROJECTS/Mol_Feturizer/New_Systems/rnas/4LVX

>  <Rbt.Executable>
rbdock ($Id: //depot/dev/client3/rdock/2013.1/src/exe/rbdock.cxx#4 $)

>  <Rbt.Library>
libRbt.so (2013.1, Build901 2013/11/27)

>  <Rbt.Parameter_File>
/export/apps/rDock/src/rDock_2013.1_src/data/scripts/dock_solv.prm

>  <Rbt.Receptor>
prm/blind_docking_80.prm

>  <SCORE>
-16.4771

>  <SCORE.INTER>
-11.4945

>  <SCORE.INTER.CONST>
1

>  <SCORE.INTER.POLAR>
0

>  <SCORE.INTER.ROT>
2

>  <SCORE.INTER.SOLV>
10.4741

>  <SCORE.INTER.VDW>
-16.0877

>  <SCORE.INTER.norm>
-0.676146

>  <SCORE.INTRA>
-4.98258

>  <SCORE.INTRA.DIHEDRAL>
-9.73013

>  <SCORE.INTRA.DIHEDRAL.0>
10.3255

>  <SCORE.INTRA.POLAR>
0

>  <SCORE.INTRA.POLAR.0>
0

>  <SCORE.INTRA.REPUL>
0

>  <SCORE.INTRA.REPUL.0>
0

>  <SCORE.INTRA.SOLV>
0.602378

>  <SCORE.INTRA.SOLV.lig_0>
-53.4755

>  <SCORE.INTRA.VDW>
-0.418705

>  <SCORE.INTRA.VDW.0>
2.32763

>  <SCORE.INTRA.norm>
-0.293093

>  <SCORE.RESTR>
0

>  <SCORE.RESTR.CAVITY>
0

>  <SCORE.RESTR.norm>
0

>  <SCORE.SYSTEM>
0

>  <SCORE.SYSTEM.CONST>
0

>  <SCORE.SYSTEM.DIHEDRAL>
0

>  <SCORE.SYSTEM.SOLV>
0

>  <SCORE.SYSTEM.norm>
0

>  <SCORE.heavy>
17

>  <SCORE.norm>
-0.969239

>  <RMSD>
34.847

$$$$
ligand
 OpenBabel11021811503D
libRbt.so/2013.1/901 2013/11/27
 17 18  0  0  0  0  0  0  0  0999 V2000
   -7.9511  -25.7816   34.2248 N   0  0  0  0  0  0  0  0  0  0  0  0
   -7.3841  -25.1472   35.3375 C   0  0  0  0  0  0  0  0  0  0  0  0
   -8.2236  -24.7369   36.4257 N   0  0  0  0  0  0  0  0  0  0  0  0
   -6.0283  -24.9131   35.4170 N   0  0  0  0  0  0  0  0  0  0  0  0
   -5.1806  -25.2919   34.3967 C   0  0  0  0  0  0  0  0  0  0  0  0
   -5.7055  -25.9379   33.2338 C   0  0  0  0  0  0  0  0  0  0  0  0
   -3.9869  -25.0757   34.4841 O   0  0  0  0  0  0  0  0  0  0  0  0
   -4.8409  -26.3493   32.1306 N   0  0  0  0  0  0  0  0  0  0  0  0
   -5.3683  -27.1561   31.0889 C   0  0  2  0  0  0  0  0  0  0  0  0
   -6.8835  -26.9334   30.8374 C   0  0  0  0  0  0  0  0  0  0  0  0
   -7.1116  -26.1764   33.1734 C   0  0  0  0  0  0  0  0  0  0  0  0
   -7.6756  -26.8439   31.9856 N   0  0  0  0  0  0  0  0  0  0  0  0
   -5.0104  -28.6009   31.3857 C   0  0  1  0  0  0  0  0  0  0  0  0
   -5.7955  -29.0956   32.4081 O   0  0  0  0  0  0  0  0  0  0  0  0
   -5.1654  -29.4402   30.1527 C   0  0  1  0  0  0  0  0  0  0  0  0
   -6.3621  -29.2322   29.5858 O   0  0  0  0  0  0  0  0  0  0  0  0
   -4.0758  -29.1063   29.1117 C   0  0  0  0  0  0  0  0  0  0  0  0
  1  2  2  0  0  0  0
  1 11  1  0  0  0  0
  2  3  1  0  0  0  0
  2  4  1  0  0  0  0
  4  5  1  0  0  0  0
  5  6  1  0  0  0  0
  5  7  2  0  0  0  0
  6  8  1  0  0  0  0
  6 11  2  0  0  0  0
  9  8  1  1  0  0  0
  9 10  1  0  0  0  0
  9 13  1  0  0  0  0
 10 12  1  0  0  0  0
 11 12  1  0  0  0  0
 13 14  1  1  0  0  0
 13 15  1  0  0  0  0
 15 16  1  6  0  0  0
 15 17  1  0  0  0  0
M  END
>  <CHROM.1>
74.51548398,-50.01904884,-6.01922711,-26.86812627,32.61671839,1.79757415
0.08678255,0.90779643

>  <Name>
ligand

>  <RI>
0

>  <Rbt.Current_Directory>
/home/itssahil/PROJECTS/Mol_Feturizer/New_Systems/rnas/4LVX

>  <Rbt.Executable>
rbdock ($Id: //depot/dev/client3/rdock/2013.1/src/exe/rbdock.cxx#4 $)

>  <Rbt.Library>
libRbt.so (2013.1, Build901 2013/11/27)

>  <Rbt.Parameter_File>
/export/apps/rDock/src/rDock_2013.1_src/data/scripts/dock_solv.prm

>  <Rbt.Receptor>
prm/blind_docking_80.prm

>  <SCORE>
-16.2596

>  <SCORE.INTER>
-11.1433

>  <SCORE.INTER.CONST>
1

>  <SCORE.INTER.POLAR>
0

>  <SCORE.INTER.ROT>
2

>  <SCORE.INTER.SOLV>
9.02859

>  <SCORE.INTER.VDW>
-15.3717

>  <SCORE.INTER.norm>
-0.655488

>  <SCORE.INTRA>
-5.11632

>  <SCORE.INTRA.DIHEDRAL>
-9.13568

>  <SCORE.INTRA.DIHEDRAL.0>
10.3255

>  <SCORE.INTRA.POLAR>
0

>  <SCORE.INTRA.POLAR.0>
0

>  <SCORE.INTRA.REPUL>
0

>  <SCORE.INTRA.REPUL.0>
0

>  <SCORE.INTRA.SOLV>
0.545719

>  <SCORE.INTRA.SOLV.lig_0>
-53.4755

>  <SCORE.INTRA.VDW>
-0.821335

>  <SCORE.INTRA.VDW.0>
2.32763

>  <SCORE.INTRA.norm>
-0.30096

>  <SCORE.RESTR>
0

>  <SCORE.RESTR.CAVITY>
0

>  <SCORE.RESTR.norm>
0

>  <SCORE.SYSTEM>
0

>  <SCORE.SYSTEM.CONST>
0

>  <SCORE.SYSTEM.DIHEDRAL>
0

>  <SCORE.SYSTEM.SOLV>
0

>  <SCORE.SYSTEM.norm>
0

>  <SCORE.heavy>
17

>  <SCORE.norm>
-0.956448

>  <RMSD>
34.870

$$$$
ligand
 OpenBabel11021811503D
libRbt.so/2013.1/901 2013/11/27
 17 18  0  0  0  0  0  0  0  0999 V2000
   -7.8347  -25.7134   34.6978 N   0  0  0  0  0  0  0  0  0  0  0  0
   -7.1869  -25.1046   35.7802 C   0  0  0  0  0  0  0  0  0  0  0  0
   -7.9483  -24.6944   36.9245 N   0  0  0  0  0  0  0  0  0  0  0  0
   -5.8246  -24.8960   35.7768 N   0  0  0  0  0  0  0  0  0  0  0  0
   -5.0502  -25.2758   34.7003 C   0  0  0  0  0  0  0  0  0  0  0  0
   -5.6592  -25.8964   33.5648 C   0  0  0  0  0  0  0  0  0  0  0  0
   -3.8494  -25.0823   34.7147 O   0  0  0  0  0  0  0  0  0  0  0  0
   -4.8737  -26.3079   32.4041 N   0  0  0  0  0  0  0  0  0  0  0  0
   -5.4808  -27.0909   31.3878 C   0  0  2  0  0  0  0  0  0  0  0  0
   -7.0043  -26.8376   31.2354 C   0  0  0  0  0  0  0  0  0  0  0  0
   -7.0706  -26.1088   33.5905 C   0  0  0  0  0  0  0  0  0  0  0  0
   -7.7208  -26.7497   32.4325 N   0  0  0  0  0  0  0  0  0  0  0  0
   -5.1320  -28.5458   31.6432 C   0  0  1  0  0  0  0  0  0  0  0  0
   -5.8832  -29.0494   32.6865 O   0  0  0  0  0  0  0  0  0  0  0  0
   -5.3473  -29.3590   30.4019 C   0  0  1  0  0  0  0  0  0  0  0  0
   -6.5235  -29.0554   29.8350 O   0  0  0  0  0  0  0  0  0  0  0  0
   -4.2330  -29.0990   29.3659 C   0  0  0  0  0  0  0  0  0  0  0  0
  1  2  2  0  0  0  0
  1 11  1  0  0  0  0
  2  3  1  0  0  0  0
  2  4  1  0  0  0  0
  4  5  1  0  0  0  0
  5  6  1  0  0  0  0
  5  7  2  0  0  0  0
  6  8  1  0  0  0  0
  6 11  2  0  0  0  0
  9  8  1  1  0  0  0
  9 10  1  0  0  0  0
  9 13  1  0  0  0  0
 10 12  1  0  0  0  0
 11 12  1  0  0  0  0
 13 14  1  1  0  0  0
 13 15  1  0  0  0  0
 15 16  1  6  0  0  0
 15 17  1  0  0  0  0
M  END
>  <CHROM.1>
75.93509601,-45.70014305,-6.01507776,-26.81156567,32.95282649,1.74521132
0.09943247,0.92870415

>  <Name>
ligand

>  <RI>
0

>  <Rbt.Current_Directory>
/home/itssahil/PROJECTS/Mol_Feturizer/New_Systems/rnas/4LVX

>  <Rbt.Executable>
rbdock ($Id: //depot/dev/client3/rdock/2013.1/src/exe/rbdock.cxx#4 $)

>  <Rbt.Library>
libRbt.so (2013.1, Build901 2013/11/27)

>  <Rbt.Parameter_File>
/export/apps/rDock/src/rDock_2013.1_src/data/scripts/dock_solv.prm

>  <Rbt.Receptor>
prm/blind_docking_80.prm

>  <SCORE>
-16.3097

>  <SCORE.INTER>
-11.4003

>  <SCORE.INTER.CONST>
1

>  <SCORE.INTER.POLAR>
0

>  <SCORE.INTER.ROT>
2

>  <SCORE.INTER.SOLV>
9.18185

>  <SCORE.INTER.VDW>
-15.5942

>  <SCORE.INTER.norm>
-0.670606

>  <SCORE.INTRA>
-4.90938

>  <SCORE.INTRA.DIHEDRAL>
-8.64628

>  <SCORE.INTRA.DIHEDRAL.0>
10.3255

>  <SCORE.INTRA.POLAR>
0

>  <SCORE.INTRA.POLAR.0>
0

>  <SCORE.INTRA.REPUL>
0

>  <SCORE.INTRA.REPUL.0>
0

>  <SCORE.INTRA.SOLV>
0.518575

>  <SCORE.INTRA.SOLV.lig_0>
-53.4755

>  <SCORE.INTRA.VDW>
-0.845527

>  <SCORE.INTRA.VDW.0>
2.32763

>  <SCORE.INTRA.norm>
-0.288787

>  <SCORE.RESTR>
0

>  <SCORE.RESTR.CAVITY>
0

>  <SCORE.RESTR.norm>
0

>  <SCORE.SYSTEM>
0

>  <SCORE.SYSTEM.CONST>
0

>  <SCORE.SYSTEM.DIHEDRAL>
0

>  <SCORE.SYSTEM.SOLV>
0

>  <SCORE.SYSTEM.norm>
0

>  <SCORE.heavy>
17

>  <SCORE.norm>
-0.959393

>  <RMSD>
34.920

$$$$
ligand
 OpenBabel11021811503D
libRbt.so/2013.1/901 2013/11/27
 17 18  0  0  0  0  0  0  0  0999 V2000
   -7.9565  -25.7881   34.3426 N   0  0  0  0  0  0  0  0  0  0  0  0
   -7.3628  -25.1444   35.4358 C   0  0  0  0  0  0  0  0  0  0  0  0
   -8.1754  -24.7263   36.5413 N   0  0  0  0  0  0  0  0  0  0  0  0
   -6.0056  -24.9084   35.4798 N   0  0  0  0  0  0  0  0  0  0  0  0
   -5.1831  -25.2945   34.4419 C   0  0  0  0  0  0  0  0  0  0  0  0
   -5.7359  -25.9502   33.2974 C   0  0  0  0  0  0  0  0  0  0  0  0
   -3.9878  -25.0765   34.4979 O   0  0  0  0  0  0  0  0  0  0  0  0
   -4.8985  -26.3695   32.1764 N   0  0  0  0  0  0  0  0  0  0  0  0
   -5.4507  -27.1851   31.1545 C   0  0  2  0  0  0  0  0  0  0  0  0
   -6.9719  -26.9657   30.9389 C   0  0  0  0  0  0  0  0  0  0  0  0
   -7.1428  -26.1905   33.2738 C   0  0  0  0  0  0  0  0  0  0  0  0
   -7.7354  -26.8679   32.1057 N   0  0  0  0  0  0  0  0  0  0  0  0
   -5.0839  -28.6271   31.4538 C   0  0  1  0  0  0  0  0  0  0  0  0
   -5.8280  -29.1078   32.5128 O   0  0  0  0  0  0  0  0  0  0  0  0
   -5.2901  -29.4804   30.2381 C   0  0  1  0  0  0  0  0  0  0  0  0
   -6.5046  -29.2688   29.7116 O   0  0  0  0  0  0  0  0  0  0  0  0
   -4.2356  -29.1696   29.1546 C   0  0  0  0  0  0  0  0  0  0  0  0
  1  2  2  0  0  0  0
  1 11  1  0  0  0  0
  2  3  1  0  0  0  0
  2  4  1  0  0  0  0
  4  5  1  0  0  0  0
  5  6  1  0  0  0  0
  5  7  2  0  0  0  0
  6  8  1  0  0  0  0
  6 11  2  0  0  0  0
  9  8  1  1  0  0  0
  9 10  1  0  0  0  0
  9 13  1  0  0  0  0
 10 12  1  0  0  0  0
 11 12  1  0  0  0  0
 13 14  1  1  0  0  0
 13 15  1  0  0  0  0
 15 16  1  6  0  0  0
 15 17  1  0  0  0  0
M  END
>  <CHROM.1>
73.57961245,-49.54987602,-6.06771763,-26.88629538,32.69783031,1.77600377
0.10103429,0.90153994

>  <Name>
ligand

>  <RI>
0

>  <Rbt.Current_Directory>
/home/itssahil/PROJECTS/Mol_Feturizer/New_Systems/rnas/4LVX

>  <Rbt.Executable>
rbdock ($Id: //depot/dev/client3/rdock/2013.1/src/exe/rbdock.cxx#4 $)

>  <Rbt.Library>
libRbt.so (2013.1, Build901 2013/11/27)

>  <Rbt.Parameter_File>
/export/apps/rDock/src/rDock_2013.1_src/data/scripts/dock_solv.prm

>  <Rbt.Receptor>
prm/blind_docking_100.prm

>  <SCORE>
-16.2817

>  <SCORE.INTER>
-11.281

>  <SCORE.INTER.CONST>
1

>  <SCORE.INTER.POLAR>
0

>  <SCORE.INTER.ROT>
2

>  <SCORE.INTER.SOLV>
9.05309

>  <SCORE.INTER.VDW>
-15.4717

>  <SCORE.INTER.norm>
-0.663588

>  <SCORE.INTRA>
-5.00066

>  <SCORE.INTRA.DIHEDRAL>
-9.1865

>  <SCORE.INTRA.DIHEDRAL.0>
10.3255

>  <SCORE.INTRA.POLAR>
0

>  <SCORE.INTRA.POLAR.0>
0

>  <SCORE.INTRA.REPUL>
0

>  <SCORE.INTRA.REPUL.0>
0

>  <SCORE.INTRA.SOLV>
0.56379

>  <SCORE.INTRA.SOLV.lig_0>
-53.4755

>  <SCORE.INTRA.VDW>
-0.689302

>  <SCORE.INTRA.VDW.0>
2.32763

>  <SCORE.INTRA.norm>
-0.294156

>  <SCORE.RESTR>
0

>  <SCORE.RESTR.CAVITY>
0

>  <SCORE.RESTR.norm>
0

>  <SCORE.SYSTEM>
0

>  <SCORE.SYSTEM.CONST>
0

>  <SCORE.SYSTEM.DIHEDRAL>
0

>  <SCORE.SYSTEM.SOLV>
0

>  <SCORE.SYSTEM.norm>
0

>  <SCORE.heavy>
17

>  <SCORE.norm>
-0.957744

>  <RMSD>
34.921

$$$$
ligand
 OpenBabel11021811503D
libRbt.so/2013.1/901 2013/11/27
 17 18  0  0  0  0  0  0  0  0999 V2000
   -8.9557  -26.9063   33.9261 N   0  0  0  0  0  0  0  0  0  0  0  0
   -8.7226  -26.2974   35.1658 C   0  0  0  0  0  0  0  0  0  0  0  0
   -9.7185  -26.3771   36.1949 N   0  0  0  0  0  0  0  0  0  0  0  0
   -7.5477  -25.6256   35.4262 N   0  0  0  0  0  0  0  0  0  0  0  0
   -6.5596  -25.5246   34.4690 C   0  0  0  0  0  0  0  0  0  0  0  0
   -6.7461  -26.1219   33.1830 C   0  0  0  0  0  0  0  0  0  0  0  0
   -5.5299  -24.9265   34.7166 O   0  0  0  0  0  0  0  0  0  0  0  0
   -5.7255  -26.0322   32.1418 N   0  0  0  0  0  0  0  0  0  0  0  0
   -5.8644  -26.7983   30.9552 C   0  0  2  0  0  0  0  0  0  0  0  0
   -7.3405  -27.0753   30.5640 C   0  0  0  0  0  0  0  0  0  0  0  0
   -7.9674  -26.8181   32.9352 C   0  0  0  0  0  0  0  0  0  0  0  0
   -8.1814  -27.4449   31.6177 N   0  0  0  0  0  0  0  0  0  0  0  0
   -5.0326  -28.0585   31.1085 C   0  0  1  0  0  0  0  0  0  0  0  0
   -5.6146  -28.9167   32.0202 O   0  0  0  0  0  0  0  0  0  0  0  0
   -4.8655  -28.7374   29.7820 C   0  0  1  0  0  0  0  0  0  0  0  0
   -3.7105  -29.4165   29.7398 O   0  0  0  0  0  0  0  0  0  0  0  0
   -6.0169  -29.7304   29.5161 C   0  0  0  0  0  0  0  0  0  0  0  0
  1  2  2  0  0  0  0
  1 11  1  0  0  0  0
  2  3  1  0  0  0  0
  2  4  1  0  0  0  0
  4  5  1  0  0  0  0
  5  6  1  0  0  0  0
  5  7  2  0  0  0  0
  6  8  1  0  0  0  0
  6 11  2  0  0  0  0
  9  8  1  1  0  0  0
  9 10  1  0  0  0  0
  9 13  1  0  0  0  0
 10 12  1  0  0  0  0
 11 12  1  0  0  0  0
 13 14  1  1  0  0  0
 13 15  1  0  0  0  0
 15 16  1  1  0  0  0
 15 17  1  0  0  0  0
M  END
>  <CHROM.1>
71.36311278,150.95234035,-6.65541954,-27.15598031,32.51039058,2.07755411
0.26460054,0.89935132

>  <Name>
ligand

>  <RI>
0

>  <Rbt.Current_Directory>
/home/itssahil/PROJECTS/Mol_Feturizer/New_Systems/rnas/4LVX

>  <Rbt.Executable>
rbdock ($Id: //depot/dev/client3/rdock/2013.1/src/exe/rbdock.cxx#4 $)

>  <Rbt.Library>
libRbt.so (2013.1, Build901 2013/11/27)

>  <Rbt.Parameter_File>
/export/apps/rDock/src/rDock_2013.1_src/data/scripts/dock_solv.prm

>  <Rbt.Receptor>
prm/blind_docking_100.prm

>  <SCORE>
-13.6791

>  <SCORE.INTER>
-9.94598

>  <SCORE.INTER.CONST>
1

>  <SCORE.INTER.POLAR>
0

>  <SCORE.INTER.ROT>
2

>  <SCORE.INTER.SOLV>
8.19164

>  <SCORE.INTER.VDW>
-14.2945

>  <SCORE.INTER.norm>
-0.585058

>  <SCORE.INTRA>
-3.73316

>  <SCORE.INTRA.DIHEDRAL>
-7.1585

>  <SCORE.INTRA.DIHEDRAL.0>
10.3255

>  <SCORE.INTRA.POLAR>
0

>  <SCORE.INTRA.POLAR.0>
0

>  <SCORE.INTRA.REPUL>
0

>  <SCORE.INTRA.REPUL.0>
0

>  <SCORE.INTRA.SOLV>
0.131973

>  <SCORE.INTRA.SOLV.lig_0>
-53.4755

>  <SCORE.INTRA.VDW>
-0.2199

>  <SCORE.INTRA.VDW.0>
2.32763

>  <SCORE.INTRA.norm>
-0.219598

>  <SCORE.RESTR>
0

>  <SCORE.RESTR.CAVITY>
0

>  <SCORE.RESTR.norm>
0

>  <SCORE.SYSTEM>
0

>  <SCORE.SYSTEM.CONST>
0

>  <SCORE.SYSTEM.DIHEDRAL>
0

>  <SCORE.SYSTEM.SOLV>
0

>  <SCORE.SYSTEM.norm>
0

>  <SCORE.heavy>
17

>  <SCORE.norm>
-0.804655

>  <RMSD>
35.214

$$$$
ligand
 OpenBabel11021811503D
libRbt.so/2013.1/901 2013/11/27
 17 18  0  0  0  0  0  0  0  0999 V2000
   -4.9182  -30.4281   27.6877 N   0  0  0  0  0  0  0  0  0  0  0  0
   -3.8764  -30.2951   26.7609 C   0  0  0  0  0  0  0  0  0  0  0  0
   -3.9000  -31.0642   25.5504 N   0  0  0  0  0  0  0  0  0  0  0  0
   -2.8257  -29.4308   26.9808 N   0  0  0  0  0  0  0  0  0  0  0  0
   -2.7609  -28.6685   28.1286 C   0  0  0  0  0  0  0  0  0  0  0  0
   -3.7939  -28.7682   29.1125 C   0  0  0  0  0  0  0  0  0  0  0  0
   -1.8249  -27.9122   28.3059 O   0  0  0  0  0  0  0  0  0  0  0  0
   -3.7581  -27.9814   30.3427 N   0  0  0  0  0  0  0  0  0  0  0  0
   -4.8910  -27.9632   31.1974 C   0  0  2  0  0  0  0  0  0  0  0  0
   -5.7319  -29.2664   31.1416 C   0  0  0  0  0  0  0  0  0  0  0  0
   -4.8763  -29.6647   28.8632 C   0  0  0  0  0  0  0  0  0  0  0  0
   -5.9549  -29.7825   29.8618 N   0  0  0  0  0  0  0  0  0  0  0  0
   -5.6931  -26.7121   30.8890 C   0  0  1  0  0  0  0  0  0  0  0  0
   -6.9149  -26.7480   31.5312 O   0  0  0  0  0  0  0  0  0  0  0  0
   -4.9253  -25.4884   31.2909 C   0  0  1  0  0  0  0  0  0  0  0  0
   -5.4977  -24.3846   30.7901 O   0  0  0  0  0  0  0  0  0  0  0  0
   -4.8690  -25.3462   32.8268 C   0  0  0  0  0  0  0  0  0  0  0  0
  1  2  2  0  0  0  0
  1 11  1  0  0  0  0
  2  3  1  0  0  0  0
  2  4  1  0  0  0  0
  4  5  1  0  0  0  0
  5  6  1  0  0  0  0
  5  7  2  0  0  0  0
  6  8  1  0  0  0  0
  6 11  2  0  0  0  0
  9  8  1  6  0  0  0
  9 10  1  0  0  0  0
  9 13  1  0  0  0  0
 10 12  1  0  0  0  0
 11 12  1  0  0  0  0
 13 14  1  1  0  0  0
 13 15  1  0  0  0  0
 15 16  1  6  0  0  0
 15 17  1  0  0  0  0
M  END
>  <CHROM.1>
170.22356546,167.85069507,-4.55310465,-28.15001092,29.54177281,1.21167485
-0.60298839,-2.52009997

>  <Name>
ligand

>  <RI>
0

>  <Rbt.Current_Directory>
/home/itssahil/PROJECTS/Mol_Feturizer/New_Systems/rnas/4LVX

>  <Rbt.Executable>
rbdock ($Id: //depot/dev/client3/rdock/2013.1/src/exe/rbdock.cxx#4 $)

>  <Rbt.Library>
libRbt.so (2013.1, Build901 2013/11/27)

>  <Rbt.Parameter_File>
/export/apps/rDock/src/rDock_2013.1_src/data/scripts/dock_solv.prm

>  <Rbt.Receptor>
prm/blind_docking_60.prm

>  <SCORE>
-11.6058

>  <SCORE.INTER>
-5.41276

>  <SCORE.INTER.CONST>
1

>  <SCORE.INTER.POLAR>
0

>  <SCORE.INTER.ROT>
2

>  <SCORE.INTER.SOLV>
27.335

>  <SCORE.INTER.VDW>
-17.6535

>  <SCORE.INTER.norm>
-0.318398

>  <SCORE.INTRA>
-6.2121

>  <SCORE.INTRA.DIHEDRAL>
-9.29392

>  <SCORE.INTRA.DIHEDRAL.0>
10.3255

>  <SCORE.INTRA.POLAR>
0

>  <SCORE.INTRA.POLAR.0>
0

>  <SCORE.INTRA.REPUL>
0

>  <SCORE.INTRA.REPUL.0>
0

>  <SCORE.INTRA.SOLV>
-0.59503

>  <SCORE.INTRA.SOLV.lig_0>
-53.4755

>  <SCORE.INTRA.VDW>
-1.26763

>  <SCORE.INTRA.VDW.0>
2.32763

>  <SCORE.INTRA.norm>
-0.365418

>  <SCORE.RESTR>
0.0190745

>  <SCORE.RESTR.CAVITY>
0.0190745

>  <SCORE.RESTR.norm>
0.00112203

>  <SCORE.SYSTEM>
0

>  <SCORE.SYSTEM.CONST>
0

>  <SCORE.SYSTEM.DIHEDRAL>
0

>  <SCORE.SYSTEM.SOLV>
0

>  <SCORE.SYSTEM.norm>
0

>  <SCORE.heavy>
17

>  <SCORE.norm>
-0.682693

>  <RMSD>
35.567

$$$$
ligand
 OpenBabel11021811503D
libRbt.so/2013.1/901 2013/11/27
 17 18  0  0  0  0  0  0  0  0999 V2000
   -6.4058  -27.5382   32.8670 N   0  0  0  0  0  0  0  0  0  0  0  0
   -7.2301  -26.4062   32.9020 C   0  0  0  0  0  0  0  0  0  0  0  0
   -7.3673  -25.6648   34.1221 N   0  0  0  0  0  0  0  0  0  0  0  0
   -7.9112  -25.9790   31.7826 N   0  0  0  0  0  0  0  0  0  0  0  0
   -7.8085  -26.6578   30.5861 C   0  0  0  0  0  0  0  0  0  0  0  0
   -6.9859  -27.8241   30.4939 C   0  0  0  0  0  0  0  0  0  0  0  0
   -8.4182  -26.2666   29.6090 O   0  0  0  0  0  0  0  0  0  0  0  0
   -6.8556  -28.5725   29.2463 N   0  0  0  0  0  0  0  0  0  0  0  0
   -5.8847  -29.6026   29.1440 C   0  0  2  0  0  0  0  0  0  0  0  0
   -5.5739  -30.2995   30.4955 C   0  0  0  0  0  0  0  0  0  0  0  0
   -6.2842  -28.2467   31.6630 C   0  0  0  0  0  0  0  0  0  0  0  0
   -5.4274  -29.4447   31.5917 N   0  0  0  0  0  0  0  0  0  0  0  0
   -4.6563  -29.0258   28.4643 C   0  0  1  0  0  0  0  0  0  0  0  0
   -3.8565  -28.3718   29.3803 O   0  0  0  0  0  0  0  0  0  0  0  0
   -3.8844  -30.1108   27.7747 C   0  0  1  0  0  0  0  0  0  0  0  0
   -4.6077  -30.6491   26.7827 O   0  0  0  0  0  0  0  0  0  0  0  0
   -2.5733  -29.5636   27.1714 C   0  0  0  0  0  0  0  0  0  0  0  0
  1  2  2  0  0  0  0
  1 11  1  0  0  0  0
  2  3  1  0  0  0  0
  2  4  1  0  0  0  0
  4  5  1  0  0  0  0
  5  6  1  0  0  0  0
  5  7  2  0  0  0  0
  6  8  1  0  0  0  0
  6 11  2  0  0  0  0
  9  8  1  1  0  0  0
  9 10  1  0  0  0  0
  9 13  1  0  0  0  0
 10 12  1  0  0  0  0
 11 12  1  0  0  0  0
 13 14  1  1  0  0  0
 13 15  1  0  0  0  0
 15 16  1  6  0  0  0
 15 17  1  0  0  0  0
M  END
>  <CHROM.1>
83.26071580,64.28149163,-5.93769449,-28.27505463,30.16682815,-2.28576596
0.66519504,-1.72451769

>  <Name>
ligand

>  <RI>
0

>  <Rbt.Current_Directory>
/home/itssahil/PROJECTS/Mol_Feturizer/New_Systems/rnas/4LVX

>  <Rbt.Executable>
rbdock ($Id: //depot/dev/client3/rdock/2013.1/src/exe/rbdock.cxx#4 $)

>  <Rbt.Library>
libRbt.so (2013.1, Build901 2013/11/27)

>  <Rbt.Parameter_File>
/export/apps/rDock/src/rDock_2013.1_src/data/scripts/dock_solv.prm

>  <Rbt.Receptor>
prm/blind_docking_80.prm

>  <SCORE>
-13.2928

>  <SCORE.INTER>
-6.96619

>  <SCORE.INTER.CONST>
1

>  <SCORE.INTER.POLAR>
0

>  <SCORE.INTER.ROT>
2

>  <SCORE.INTER.SOLV>
16.7903

>  <SCORE.INTER.VDW>
-15.1742

>  <SCORE.INTER.norm>
-0.409776

>  <SCORE.INTRA>
-6.37496

>  <SCORE.INTRA.DIHEDRAL>
-8.44937

>  <SCORE.INTRA.DIHEDRAL.0>
10.3255

>  <SCORE.INTRA.POLAR>
0

>  <SCORE.INTRA.POLAR.0>
0

>  <SCORE.INTRA.REPUL>
0

>  <SCORE.INTRA.REPUL.0>
0

>  <SCORE.INTRA.SOLV>
-0.263811

>  <SCORE.INTRA.SOLV.lig_0>
-53.4755

>  <SCORE.INTRA.VDW>
-2.01837

>  <SCORE.INTRA.VDW.0>
2.32763

>  <SCORE.INTRA.norm>
-0.374998

>  <SCORE.RESTR>
0.0483558

>  <SCORE.RESTR.CAVITY>
0.0483558

>  <SCORE.RESTR.norm>
0.00284446

>  <SCORE.SYSTEM>
0

>  <SCORE.SYSTEM.CONST>
0

>  <SCORE.SYSTEM.DIHEDRAL>
0

>  <SCORE.SYSTEM.SOLV>
0

>  <SCORE.SYSTEM.norm>
0

>  <SCORE.heavy>
17

>  <SCORE.norm>
-0.781929

>  <RMSD>
35.652

$$$$
ligand
 OpenBabel11021811503D
libRbt.so/2013.1/901 2013/11/27
 17 18  0  0  0  0  0  0  0  0999 V2000
   -6.3641  -27.5398   32.8811 N   0  0  0  0  0  0  0  0  0  0  0  0
   -7.1867  -26.4068   32.9225 C   0  0  0  0  0  0  0  0  0  0  0  0
   -7.3119  -25.6640   34.1431 N   0  0  0  0  0  0  0  0  0  0  0  0
   -7.8773  -25.9798   31.8090 N   0  0  0  0  0  0  0  0  0  0  0  0
   -7.7863  -26.6598   30.6122 C   0  0  0  0  0  0  0  0  0  0  0  0
   -6.9660  -27.8271   30.5137 C   0  0  0  0  0  0  0  0  0  0  0  0
   -8.4044  -26.2687   29.6404 O   0  0  0  0  0  0  0  0  0  0  0  0
   -6.8480  -28.5768   29.2656 N   0  0  0  0  0  0  0  0  0  0  0  0
   -5.8794  -29.6083   29.1555 C   0  0  2  0  0  0  0  0  0  0  0  0
   -5.5572  -30.3043   30.5047 C   0  0  0  0  0  0  0  0  0  0  0  0
   -6.2543  -28.2495   31.6768 C   0  0  0  0  0  0  0  0  0  0  0  0
   -5.3997  -29.4487   31.5988 N   0  0  0  0  0  0  0  0  0  0  0  0
   -4.6565  -29.0336   28.4641 C   0  0  1  0  0  0  0  0  0  0  0  0
   -3.8508  -28.3743   29.3711 O   0  0  0  0  0  0  0  0  0  0  0  0
   -3.8884  -30.1212   27.7744 C   0  0  1  0  0  0  0  0  0  0  0  0
   -4.6035  -30.6392   26.7658 O   0  0  0  0  0  0  0  0  0  0  0  0
   -2.5612  -29.5850   27.1969 C   0  0  0  0  0  0  0  0  0  0  0  0
  1  2  2  0  0  0  0
  1 11  1  0  0  0  0
  2  3  1  0  0  0  0
  2  4  1  0  0  0  0
  4  5  1  0  0  0  0
  5  6  1  0  0  0  0
  5  7  2  0  0  0  0
  6  8  1  0  0  0  0
  6 11  2  0  0  0  0
  9  8  1  1  0  0  0
  9 10  1  0  0  0  0
  9 13  1  0  0  0  0
 10 12  1  0  0  0  0
 11 12  1  0  0  0  0
 13 14  1  1  0  0  0
 13 15  1  0  0  0  0
 15 16  1  6  0  0  0
 15 17  1  0  0  0  0
M  END
>  <CHROM.1>
82.97373150,66.04419094,-5.91835839,-28.27871004,30.17935993,-2.27464169
0.66112136,-1.73491478

>  <Name>
ligand

>  <RI>
0

>  <Rbt.Current_Directory>
/home/itssahil/PROJECTS/Mol_Feturizer/New_Systems/rnas/4LVX

>  <Rbt.Executable>
rbdock ($Id: //depot/dev/client3/rdock/2013.1/src/exe/rbdock.cxx#4 $)

>  <Rbt.Library>
libRbt.so (2013.1, Build901 2013/11/27)

>  <Rbt.Parameter_File>
/export/apps/rDock/src/rDock_2013.1_src/data/scripts/dock_solv.prm

>  <Rbt.Receptor>
prm/blind_docking_60.prm

>  <SCORE>
-13.3895

>  <SCORE.INTER>
-7.08446

>  <SCORE.INTER.CONST>
1

>  <SCORE.INTER.POLAR>
0

>  <SCORE.INTER.ROT>
2

>  <SCORE.INTER.SOLV>
16.7611

>  <SCORE.INTER.VDW>
-15.2433

>  <SCORE.INTER.norm>
-0.416733

>  <SCORE.INTRA>
-6.30853

>  <SCORE.INTRA.DIHEDRAL>
-8.42204

>  <SCORE.INTRA.DIHEDRAL.0>
10.3255

>  <SCORE.INTRA.POLAR>
0

>  <SCORE.INTRA.POLAR.0>
0

>  <SCORE.INTRA.REPUL>
0

>  <SCORE.INTRA.REPUL.0>
0

>  <SCORE.INTRA.SOLV>
-0.271336

>  <SCORE.INTRA.SOLV.lig_0>
-53.4755

>  <SCORE.INTRA.VDW>
-1.96184

>  <SCORE.INTRA.VDW.0>
2.32763

>  <SCORE.INTRA.norm>
-0.37109

>  <SCORE.RESTR>
0.00347754

>  <SCORE.RESTR.CAVITY>
0.00347754

>  <SCORE.RESTR.norm>
0.000204561

>  <SCORE.SYSTEM>
0

>  <SCORE.SYSTEM.CONST>
0

>  <SCORE.SYSTEM.DIHEDRAL>
0

>  <SCORE.SYSTEM.SOLV>
0

>  <SCORE.SYSTEM.norm>
0

>  <SCORE.heavy>
17

>  <SCORE.norm>
-0.787618

>  <RMSD>
35.655

$$$$
ligand
 OpenBabel11021811503D
libRbt.so/2013.1/901 2013/11/27
 17 18  0  0  0  0  0  0  0  0999 V2000
   -6.3825  -27.5499   32.8834 N   0  0  0  0  0  0  0  0  0  0  0  0
   -7.2015  -26.4144   32.9250 C   0  0  0  0  0  0  0  0  0  0  0  0
   -7.3310  -25.6763   34.1479 N   0  0  0  0  0  0  0  0  0  0  0  0
   -7.8845  -25.9805   31.8094 N   0  0  0  0  0  0  0  0  0  0  0  0
   -7.7891  -26.6558   30.6103 C   0  0  0  0  0  0  0  0  0  0  0  0
   -6.9722  -27.8255   30.5115 C   0  0  0  0  0  0  0  0  0  0  0  0
   -8.4005  -26.2586   29.6367 O   0  0  0  0  0  0  0  0  0  0  0  0
   -6.8497  -28.5704   29.2610 N   0  0  0  0  0  0  0  0  0  0  0  0
   -5.8839  -29.6047   29.1519 C   0  0  2  0  0  0  0  0  0  0  0  0
   -5.5715  -30.3073   30.5000 C   0  0  0  0  0  0  0  0  0  0  0  0
   -6.2684  -28.2551   31.6767 C   0  0  0  0  0  0  0  0  0  0  0  0
   -5.4173  -29.4567   31.5985 N   0  0  0  0  0  0  0  0  0  0  0  0
   -4.6553  -29.0312   28.4698 C   0  0  1  0  0  0  0  0  0  0  0  0
   -3.8529  -28.3776   29.3838 O   0  0  0  0  0  0  0  0  0  0  0  0
   -3.8865  -30.1186   27.7805 C   0  0  1  0  0  0  0  0  0  0  0  0
   -4.6056  -30.6451   26.7791 O   0  0  0  0  0  0  0  0  0  0  0  0
   -2.5656  -29.5791   27.1919 C   0  0  0  0  0  0  0  0  0  0  0  0
  1  2  2  0  0  0  0
  1 11  1  0  0  0  0
  2  3  1  0  0  0  0
  2  4  1  0  0  0  0
  4  5  1  0  0  0  0
  5  6  1  0  0  0  0
  5  7  2  0  0  0  0
  6  8  1  0  0  0  0
  6 11  2  0  0  0  0
  9  8  1  1  0  0  0
  9 10  1  0  0  0  0
  9 13  1  0  0  0  0
 10 12  1  0  0  0  0
 11 12  1  0  0  0  0
 13 14  1  1  0  0  0
 13 15  1  0  0  0  0
 15 16  1  6  0  0  0
 15 17  1  0  0  0  0
M  END
>  <CHROM.1>
82.93600269,65.08123995,-5.92537351,-28.27984496,30.18081049,-2.28121534
0.66737648,-1.72572349

>  <Name>
ligand

>  <RI>
0

>  <Rbt.Current_Directory>
/home/itssahil/PROJECTS/Mol_Feturizer/New_Systems/rnas/4LVX

>  <Rbt.Executable>
rbdock ($Id: //depot/dev/client3/rdock/2013.1/src/exe/rbdock.cxx#4 $)

>  <Rbt.Library>
libRbt.so (2013.1, Build901 2013/11/27)

>  <Rbt.Parameter_File>
/export/apps/rDock/src/rDock_2013.1_src/data/scripts/dock_solv.prm

>  <Rbt.Receptor>
prm/blind_docking_100.prm

>  <SCORE>
-13.3976

>  <SCORE.INTER>
-7.0916

>  <SCORE.INTER.CONST>
1

>  <SCORE.INTER.POLAR>
0

>  <SCORE.INTER.ROT>
2

>  <SCORE.INTER.SOLV>
16.8179

>  <SCORE.INTER.VDW>
-15.267

>  <SCORE.INTER.norm>
-0.417153

>  <SCORE.INTRA>
-6.3623

>  <SCORE.INTRA.DIHEDRAL>
-8.46408

>  <SCORE.INTRA.DIHEDRAL.0>
10.3255

>  <SCORE.INTRA.POLAR>
0

>  <SCORE.INTRA.POLAR.0>
0

>  <SCORE.INTRA.REPUL>
0

>  <SCORE.INTRA.REPUL.0>
0

>  <SCORE.INTRA.SOLV>
-0.266356

>  <SCORE.INTRA.SOLV.lig_0>
-53.4755

>  <SCORE.INTRA.VDW>
-1.99709

>  <SCORE.INTRA.VDW.0>
2.32763

>  <SCORE.INTRA.norm>
-0.374253

>  <SCORE.RESTR>
0.0562565

>  <SCORE.RESTR.CAVITY>
0.0562565

>  <SCORE.RESTR.norm>
0.00330921

>  <SCORE.SYSTEM>
0

>  <SCORE.SYSTEM.CONST>
0

>  <SCORE.SYSTEM.DIHEDRAL>
0

>  <SCORE.SYSTEM.SOLV>
0

>  <SCORE.SYSTEM.norm>
0

>  <SCORE.heavy>
17

>  <SCORE.norm>
-0.788097

>  <RMSD>
35.658

$$$$
ligand
 OpenBabel11021811503D
libRbt.so/2013.1/901 2013/11/27
 17 18  0  0  0  0  0  0  0  0999 V2000
   -6.3614  -27.5538   32.8905 N   0  0  0  0  0  0  0  0  0  0  0  0
   -7.1845  -26.4214   32.9360 C   0  0  0  0  0  0  0  0  0  0  0  0
   -7.3099  -25.6830   34.1593 N   0  0  0  0  0  0  0  0  0  0  0  0
   -7.8754  -25.9907   31.8241 N   0  0  0  0  0  0  0  0  0  0  0  0
   -7.7842  -26.6664   30.6249 C   0  0  0  0  0  0  0  0  0  0  0  0
   -6.9634  -27.8330   30.5221 C   0  0  0  0  0  0  0  0  0  0  0  0
   -8.4026  -26.2721   29.6545 O   0  0  0  0  0  0  0  0  0  0  0  0
   -6.8452  -28.5783   29.2714 N   0  0  0  0  0  0  0  0  0  0  0  0
   -5.8761  -29.6089   29.1575 C   0  0  2  0  0  0  0  0  0  0  0  0
   -5.5535  -30.3096   30.5042 C   0  0  0  0  0  0  0  0  0  0  0  0
   -6.2514  -28.2593   31.6836 C   0  0  0  0  0  0  0  0  0  0  0  0
   -5.3962  -29.4577   31.6013 N   0  0  0  0  0  0  0  0  0  0  0  0
   -4.6536  -29.0312   28.4681 C   0  0  1  0  0  0  0  0  0  0  0  0
   -3.8516  -28.3688   29.3761 O   0  0  0  0  0  0  0  0  0  0  0  0
   -3.8810  -30.1171   27.7806 C   0  0  1  0  0  0  0  0  0  0  0  0
   -4.5996  -30.6503   26.7825 O   0  0  0  0  0  0  0  0  0  0  0  0
   -2.5640  -29.5730   27.1874 C   0  0  0  0  0  0  0  0  0  0  0  0
  1  2  2  0  0  0  0
  1 11  1  0  0  0  0
  2  3  1  0  0  0  0
  2  4  1  0  0  0  0
  4  5  1  0  0  0  0
  5  6  1  0  0  0  0
  5  7  2  0  0  0  0
  6  8  1  0  0  0  0
  6 11  2  0  0  0  0
  9  8  1  1  0  0  0
  9 10  1  0  0  0  0
  9 13  1  0  0  0  0
 10 12  1  0  0  0  0
 11 12  1  0  0  0  0
 13 14  1  1  0  0  0
 13 15  1  0  0  0  0
 15 16  1  6  0  0  0
 15 17  1  0  0  0  0
M  END
>  <CHROM.1>
82.66448040,65.21308586,-5.91595286,-28.28368921,30.18688646,-2.27566860
0.66246416,-1.73046672

>  <Name>
ligand

>  <RI>
0

>  <Rbt.Current_Directory>
/home/itssahil/PROJECTS/Mol_Feturizer/New_Systems/rnas/4LVX

>  <Rbt.Executable>
rbdock ($Id: //depot/dev/client3/rdock/2013.1/src/exe/rbdock.cxx#4 $)

>  <Rbt.Library>
libRbt.so (2013.1, Build901 2013/11/27)

>  <Rbt.Parameter_File>
/export/apps/rDock/src/rDock_2013.1_src/data/scripts/dock_solv.prm

>  <Rbt.Receptor>
prm/blind_docking_60.prm

>  <SCORE>
-13.4884

>  <SCORE.INTER>
-7.11181

>  <SCORE.INTER.CONST>
1

>  <SCORE.INTER.POLAR>
0

>  <SCORE.INTER.ROT>
2

>  <SCORE.INTER.SOLV>
16.7913

>  <SCORE.INTER.VDW>
-15.2716

>  <SCORE.INTER.norm>
-0.418342

>  <SCORE.INTRA>
-6.37658

>  <SCORE.INTRA.DIHEDRAL>
-8.49317

>  <SCORE.INTRA.DIHEDRAL.0>
10.3255

>  <SCORE.INTRA.POLAR>
0

>  <SCORE.INTRA.POLAR.0>
0

>  <SCORE.INTRA.REPUL>
0

>  <SCORE.INTRA.REPUL.0>
0

>  <SCORE.INTRA.SOLV>
-0.265815

>  <SCORE.INTRA.SOLV.lig_0>
-53.4755

>  <SCORE.INTRA.VDW>
-1.99709

>  <SCORE.INTRA.VDW.0>
2.32763

>  <SCORE.INTRA.norm>
-0.375093

>  <SCORE.RESTR>
0

>  <SCORE.RESTR.CAVITY>
0

>  <SCORE.RESTR.norm>
0

>  <SCORE.SYSTEM>
0

>  <SCORE.SYSTEM.CONST>
0

>  <SCORE.SYSTEM.DIHEDRAL>
0

>  <SCORE.SYSTEM.SOLV>
0

>  <SCORE.SYSTEM.norm>
0

>  <SCORE.heavy>
17

>  <SCORE.norm>
-0.793435

>  <RMSD>
35.661

$$$$
ligand
 OpenBabel11021811503D
libRbt.so/2013.1/901 2013/11/27
 17 18  0  0  0  0  0  0  0  0999 V2000
   -4.8611  -27.3872   31.3496 N   0  0  0  0  0  0  0  0  0  0  0  0
   -6.2007  -26.9942   31.4638 C   0  0  0  0  0  0  0  0  0  0  0  0
   -6.5838  -26.0654   32.4874 N   0  0  0  0  0  0  0  0  0  0  0  0
   -7.1658  -27.4750   30.6054 N   0  0  0  0  0  0  0  0  0  0  0  0
   -6.8450  -28.3679   29.6039 C   0  0  0  0  0  0  0  0  0  0  0  0
   -5.4938  -28.8085   29.4446 C   0  0  0  0  0  0  0  0  0  0  0  0
   -7.7106  -28.7824   28.8566 O   0  0  0  0  0  0  0  0  0  0  0  0
   -5.1159  -29.7568   28.3997 N   0  0  0  0  0  0  0  0  0  0  0  0
   -3.7430  -30.0177   28.1520 C   0  0  2  0  0  0  0  0  0  0  0  0
   -2.8440  -29.8566   29.4068 C   0  0  0  0  0  0  0  0  0  0  0  0
   -4.5083  -28.2943   30.3402 C   0  0  0  0  0  0  0  0  0  0  0  0
   -3.1077  -28.7318   30.1937 N   0  0  0  0  0  0  0  0  0  0  0  0
   -3.3048  -29.1590   26.9797 C   0  0  1  0  0  0  0  0  0  0  0  0
   -3.0452  -27.8677   27.3939 O   0  0  0  0  0  0  0  0  0  0  0  0
   -2.0944  -29.7522   26.3228 C   0  0  1  0  0  0  0  0  0  0  0  0
   -1.0731  -29.8233   27.1880 O   0  0  0  0  0  0  0  0  0  0  0  0
   -2.3847  -31.1766   25.8038 C   0  0  0  0  0  0  0  0  0  0  0  0
  1  2  2  0  0  0  0
  1 11  1  0  0  0  0
  2  3  1  0  0  0  0
  2  4  1  0  0  0  0
  4  5  1  0  0  0  0
  5  6  1  0  0  0  0
  5  7  2  0  0  0  0
  6  8  1  0  0  0  0
  6 11  2  0  0  0  0
  9  8  1  1  0  0  0
  9 10  1  0  0  0  0
  9 13  1  0  0  0  0
 10 12  1  0  0  0  0
 11 12  1  0  0  0  0
 13 14  1  1  0  0  0
 13 15  1  0  0  0  0
 15 16  1  1  0  0  0
 15 17  1  0  0  0  0
M  END
>  <CHROM.1>
80.20114006,-60.54774724,-4.42670868,-28.74702487,28.99706497,-2.28169832
0.01421388,-2.12197339

>  <Name>
ligand

>  <RI>
0

>  <Rbt.Current_Directory>
/home/itssahil/PROJECTS/Mol_Feturizer/New_Systems/rnas/4LVX

>  <Rbt.Executable>
rbdock ($Id: //depot/dev/client3/rdock/2013.1/src/exe/rbdock.cxx#4 $)

>  <Rbt.Library>
libRbt.so (2013.1, Build901 2013/11/27)

>  <Rbt.Parameter_File>
/export/apps/rDock/src/rDock_2013.1_src/data/scripts/dock_solv.prm

>  <Rbt.Receptor>
prm/blind_docking_60.prm

>  <SCORE>
-2.46767

>  <SCORE.INTER>
2.92251

>  <SCORE.INTER.CONST>
1

>  <SCORE.INTER.POLAR>
0

>  <SCORE.INTER.ROT>
2

>  <SCORE.INTER.SOLV>
17.276

>  <SCORE.INTER.VDW>
-8.74365

>  <SCORE.INTER.norm>
0.171912

>  <SCORE.INTRA>
-5.41713

>  <SCORE.INTRA.DIHEDRAL>
-8.87884

>  <SCORE.INTRA.DIHEDRAL.0>
10.3255

>  <SCORE.INTRA.POLAR>
0

>  <SCORE.INTRA.POLAR.0>
0

>  <SCORE.INTRA.REPUL>
0

>  <SCORE.INTRA.REPUL.0>
0

>  <SCORE.INTRA.SOLV>
0.4197

>  <SCORE.INTRA.SOLV.lig_0>
-53.4755

>  <SCORE.INTRA.VDW>
-1.18756

>  <SCORE.INTRA.VDW.0>
2.32763

>  <SCORE.INTRA.norm>
-0.318655

>  <SCORE.RESTR>
0.0269547

>  <SCORE.RESTR.CAVITY>
0.0269547

>  <SCORE.RESTR.norm>
0.00158557

>  <SCORE.SYSTEM>
0

>  <SCORE.SYSTEM.CONST>
0

>  <SCORE.SYSTEM.DIHEDRAL>
0

>  <SCORE.SYSTEM.SOLV>
0

>  <SCORE.SYSTEM.norm>
0

>  <SCORE.heavy>
17

>  <SCORE.norm>
-0.145157

>  <RMSD>
35.662

$$$$
ligand
 OpenBabel11021811503D
libRbt.so/2013.1/901 2013/11/27
 17 18  0  0  0  0  0  0  0  0999 V2000
   -6.3635  -27.5644   32.8919 N   0  0  0  0  0  0  0  0  0  0  0  0
   -7.1834  -26.4297   32.9397 C   0  0  0  0  0  0  0  0  0  0  0  0
   -7.3091  -25.6951   34.1652 N   0  0  0  0  0  0  0  0  0  0  0  0
   -7.8710  -25.9933   31.8278 N   0  0  0  0  0  0  0  0  0  0  0  0
   -7.7794  -26.6652   30.6266 C   0  0  0  0  0  0  0  0  0  0  0  0
   -6.9617  -27.8339   30.5215 C   0  0  0  0  0  0  0  0  0  0  0  0
   -8.3948  -26.2659   29.6563 O   0  0  0  0  0  0  0  0  0  0  0  0
   -6.8432  -28.5752   29.2684 N   0  0  0  0  0  0  0  0  0  0  0  0
   -5.8769  -29.6082   29.1529 C   0  0  2  0  0  0  0  0  0  0  0  0
   -5.5589  -30.3144   30.4979 C   0  0  0  0  0  0  0  0  0  0  0  0
   -6.2532  -28.2660   31.6829 C   0  0  0  0  0  0  0  0  0  0  0  0
   -5.4014  -29.4667   31.5982 N   0  0  0  0  0  0  0  0  0  0  0  0
   -4.6514  -29.0318   28.4678 C   0  0  1  0  0  0  0  0  0  0  0  0
   -3.8495  -28.3743   29.3795 O   0  0  0  0  0  0  0  0  0  0  0  0
   -3.8803  -30.1176   27.7786 C   0  0  1  0  0  0  0  0  0  0  0  0
   -4.6008  -30.6501   26.7815 O   0  0  0  0  0  0  0  0  0  0  0  0
   -2.5641  -29.5738   27.1835 C   0  0  0  0  0  0  0  0  0  0  0  0
  1  2  2  0  0  0  0
  1 11  1  0  0  0  0
  2  3  1  0  0  0  0
  2  4  1  0  0  0  0
  4  5  1  0  0  0  0
  5  6  1  0  0  0  0
  5  7  2  0  0  0  0
  6  8  1  0  0  0  0
  6 11  2  0  0  0  0
  9  8  1  1  0  0  0
  9 10  1  0  0  0  0
  9 13  1  0  0  0  0
 10 12  1  0  0  0  0
 11 12  1  0  0  0  0
 13 14  1  1  0  0  0
 13 15  1  0  0  0  0
 15 16  1  6  0  0  0
 15 17  1  0  0  0  0
M  END
>  <CHROM.1>
82.64349756,64.91946211,-5.91527966,-28.28661325,30.18667710,-2.27765824
0.66626618,-1.72557012

>  <Name>
ligand

>  <RI>
0

>  <Rbt.Current_Directory>
/home/itssahil/PROJECTS/Mol_Feturizer/New_Systems/rnas/4LVX

>  <Rbt.Executable>
rbdock ($Id: //depot/dev/client3/rdock/2013.1/src/exe/rbdock.cxx#4 $)

>  <Rbt.Library>
libRbt.so (2013.1, Build901 2013/11/27)

>  <Rbt.Parameter_File>
/export/apps/rDock/src/rDock_2013.1_src/data/scripts/dock_solv.prm

>  <Rbt.Receptor>
prm/blind_docking_60.prm

>  <SCORE>
-13.502

>  <SCORE.INTER>
-7.11

>  <SCORE.INTER.CONST>
1

>  <SCORE.INTER.POLAR>
0

>  <SCORE.INTER.ROT>
2

>  <SCORE.INTER.SOLV>
16.8324

>  <SCORE.INTER.VDW>
-15.2841

>  <SCORE.INTER.norm>
-0.418235

>  <SCORE.INTRA>
-6.39281

>  <SCORE.INTRA.DIHEDRAL>
-8.50612

>  <SCORE.INTRA.DIHEDRAL.0>
10.3255

>  <SCORE.INTRA.POLAR>
0

>  <SCORE.INTRA.POLAR.0>
0

>  <SCORE.INTRA.REPUL>
0

>  <SCORE.INTRA.REPUL.0>
0

>  <SCORE.INTRA.SOLV>
-0.264256

>  <SCORE.INTRA.SOLV.lig_0>
-53.4755

>  <SCORE.INTRA.VDW>
-2.00763

>  <SCORE.INTRA.VDW.0>
2.32763

>  <SCORE.INTRA.norm>
-0.376048

>  <SCORE.RESTR>
0.000781278

>  <SCORE.RESTR.CAVITY>
0.000781278

>  <SCORE.RESTR.norm>
4.59575e-05

>  <SCORE.SYSTEM>
0

>  <SCORE.SYSTEM.CONST>
0

>  <SCORE.SYSTEM.DIHEDRAL>
0

>  <SCORE.SYSTEM.SOLV>
0

>  <SCORE.SYSTEM.norm>
0

>  <SCORE.heavy>
17

>  <SCORE.norm>
-0.794237

>  <RMSD>
35.664

$$$$
ligand
 OpenBabel11021811503D
libRbt.so/2013.1/901 2013/11/27
 17 18  0  0  0  0  0  0  0  0999 V2000
   -6.3647  -27.5706   32.8908 N   0  0  0  0  0  0  0  0  0  0  0  0
   -7.1837  -26.4353   32.9397 C   0  0  0  0  0  0  0  0  0  0  0  0
   -7.3100  -25.7027   34.1664 N   0  0  0  0  0  0  0  0  0  0  0  0
   -7.8697  -25.9964   31.8279 N   0  0  0  0  0  0  0  0  0  0  0  0
   -7.7774  -26.6663   30.6256 C   0  0  0  0  0  0  0  0  0  0  0  0
   -6.9606  -27.8354   30.5193 C   0  0  0  0  0  0  0  0  0  0  0  0
   -8.3914  -26.2647   29.6554 O   0  0  0  0  0  0  0  0  0  0  0  0
   -6.8415  -28.5747   29.2651 N   0  0  0  0  0  0  0  0  0  0  0  0
   -5.8759  -29.6083   29.1488 C   0  0  2  0  0  0  0  0  0  0  0  0
   -5.5598  -30.3170   30.4928 C   0  0  0  0  0  0  0  0  0  0  0  0
   -6.2537  -28.2702   31.6807 C   0  0  0  0  0  0  0  0  0  0  0  0
   -5.4027  -29.4714   31.5948 N   0  0  0  0  0  0  0  0  0  0  0  0
   -4.6491  -29.0316   28.4660 C   0  0  1  0  0  0  0  0  0  0  0  0
   -3.8486  -28.3748   29.3793 O   0  0  0  0  0  0  0  0  0  0  0  0
   -3.8771  -30.1172   27.7775 C   0  0  1  0  0  0  0  0  0  0  0  0
   -4.5984  -30.6532   26.7827 O   0  0  0  0  0  0  0  0  0  0  0  0
   -2.5632  -29.5719   27.1787 C   0  0  0  0  0  0  0  0  0  0  0  0
  1  2  2  0  0  0  0
  1 11  1  0  0  0  0
  2  3  1  0  0  0  0
  2  4  1  0  0  0  0
  4  5  1  0  0  0  0
  5  6  1  0  0  0  0
  5  7  2  0  0  0  0
  6  8  1  0  0  0  0
  6 11  2  0  0  0  0
  9  8  1  1  0  0  0
  9 10  1  0  0  0  0
  9 13  1  0  0  0  0
 10 12  1  0  0  0  0
 11 12  1  0  0  0  0
 13 14  1  1  0  0  0
 13 15  1  0  0  0  0
 15 16  1  6  0  0  0
 15 17  1  0  0  0  0
M  END
>  <CHROM.1>
82.55706683,64.64098571,-5.91437333,-28.28867862,30.18501604,-2.27913980
0.66788528,-1.72276845

>  <Name>
ligand

>  <RI>
0

>  <Rbt.Current_Directory>
/home/itssahil/PROJECTS/Mol_Feturizer/New_Systems/rnas/4LVX

>  <Rbt.Executable>
rbdock ($Id: //depot/dev/client3/rdock/2013.1/src/exe/rbdock.cxx#4 $)

>  <Rbt.Library>
libRbt.so (2013.1, Build901 2013/11/27)

>  <Rbt.Parameter_File>
/export/apps/rDock/src/rDock_2013.1_src/data/scripts/dock_solv.prm

>  <Rbt.Receptor>
prm/blind_docking_60.prm

>  <SCORE>
-13.4977

>  <SCORE.INTER>
-7.08491

>  <SCORE.INTER.CONST>
1

>  <SCORE.INTER.POLAR>
0

>  <SCORE.INTER.ROT>
2

>  <SCORE.INTER.SOLV>
16.8533

>  <SCORE.INTER.VDW>
-15.2744

>  <SCORE.INTER.norm>
-0.416759

>  <SCORE.INTRA>
-6.4128

>  <SCORE.INTRA.DIHEDRAL>
-8.52608

>  <SCORE.INTRA.DIHEDRAL.0>
10.3255

>  <SCORE.INTRA.POLAR>
0

>  <SCORE.INTRA.POLAR.0>
0

>  <SCORE.INTRA.REPUL>
0

>  <SCORE.INTRA.REPUL.0>
0

>  <SCORE.INTRA.SOLV>
-0.262484

>  <SCORE.INTRA.SOLV.lig_0>
-53.4755

>  <SCORE.INTRA.VDW>
-2.01852

>  <SCORE.INTRA.VDW.0>
2.32763

>  <SCORE.INTRA.norm>
-0.377223

>  <SCORE.RESTR>
0

>  <SCORE.RESTR.CAVITY>
0

>  <SCORE.RESTR.norm>
0

>  <SCORE.SYSTEM>
0

>  <SCORE.SYSTEM.CONST>
0

>  <SCORE.SYSTEM.DIHEDRAL>
0

>  <SCORE.SYSTEM.SOLV>
0

>  <SCORE.SYSTEM.norm>
0

>  <SCORE.heavy>
17

>  <SCORE.norm>
-0.793983

>  <RMSD>
35.665

$$$$
ligand
 OpenBabel11021811503D
libRbt.so/2013.1/901 2013/11/27
 17 18  0  0  0  0  0  0  0  0999 V2000
   -6.3923  -27.5785   32.8852 N   0  0  0  0  0  0  0  0  0  0  0  0
   -7.2062  -26.4396   32.9322 C   0  0  0  0  0  0  0  0  0  0  0  0
   -7.3383  -25.7110   34.1606 N   0  0  0  0  0  0  0  0  0  0  0  0
   -7.8818  -25.9932   31.8169 N   0  0  0  0  0  0  0  0  0  0  0  0
   -7.7836  -26.6590   30.6128 C   0  0  0  0  0  0  0  0  0  0  0  0
   -6.9716  -27.8316   30.5082 C   0  0  0  0  0  0  0  0  0  0  0  0
   -8.3884  -26.2509   29.6396 O   0  0  0  0  0  0  0  0  0  0  0  0
   -6.8464  -28.5667   29.2521 N   0  0  0  0  0  0  0  0  0  0  0  0
   -5.8849  -29.6045   29.1392 C   0  0  2  0  0  0  0  0  0  0  0  0
   -5.5824  -30.3198   30.4829 C   0  0  0  0  0  0  0  0  0  0  0  0
   -6.2755  -28.2742   31.6732 C   0  0  0  0  0  0  0  0  0  0  0  0
   -5.4296  -29.4791   31.5892 N   0  0  0  0  0  0  0  0  0  0  0  0
   -4.6504  -29.0312   28.4678 C   0  0  1  0  0  0  0  0  0  0  0  0
   -3.8518  -28.3848   29.3903 O   0  0  0  0  0  0  0  0  0  0  0  0
   -3.8805  -30.1172   27.7776 C   0  0  1  0  0  0  0  0  0  0  0  0
   -4.6016  -30.6480   26.7800 O   0  0  0  0  0  0  0  0  0  0  0  0
   -2.5637  -29.5743   27.1829 C   0  0  0  0  0  0  0  0  0  0  0  0
  1  2  2  0  0  0  0
  1 11  1  0  0  0  0
  2  3  1  0  0  0  0
  2  4  1  0  0  0  0
  4  5  1  0  0  0  0
  5  6  1  0  0  0  0
  5  7  2  0  0  0  0
  6  8  1  0  0  0  0
  6 11  2  0  0  0  0
  9  8  1  1  0  0  0
  9 10  1  0  0  0  0
  9 13  1  0  0  0  0
 10 12  1  0  0  0  0
 11 12  1  0  0  0  0
 13 14  1  1  0  0  0
 13 15  1  0  0  0  0
 15 16  1  6  0  0  0
 15 17  1  0  0  0  0
M  END
>  <CHROM.1>
82.72428282,64.28230647,-5.92585660,-28.28878221,30.17930063,-2.28736009
0.67450319,-1.71310369

>  <Name>
ligand

>  <RI>
0

>  <Rbt.Current_Directory>
/home/itssahil/PROJECTS/Mol_Feturizer/New_Systems/rnas/4LVX

>  <Rbt.Executable>
rbdock ($Id: //depot/dev/client3/rdock/2013.1/src/exe/rbdock.cxx#4 $)

>  <Rbt.Library>
libRbt.so (2013.1, Build901 2013/11/27)

>  <Rbt.Parameter_File>
/export/apps/rDock/src/rDock_2013.1_src/data/scripts/dock_solv.prm

>  <Rbt.Receptor>
prm/blind_docking_80.prm

>  <SCORE>
-13.3419

>  <SCORE.INTER>
-6.9733

>  <SCORE.INTER.CONST>
1

>  <SCORE.INTER.POLAR>
0

>  <SCORE.INTER.ROT>
2

>  <SCORE.INTER.SOLV>
16.9222

>  <SCORE.INTER.VDW>
-15.2229

>  <SCORE.INTER.norm>
-0.410194

>  <SCORE.INTRA>
-6.41654

>  <SCORE.INTRA.DIHEDRAL>
-8.51641

>  <SCORE.INTRA.DIHEDRAL.0>
10.3255

>  <SCORE.INTRA.POLAR>
0

>  <SCORE.INTRA.POLAR.0>
0

>  <SCORE.INTRA.REPUL>
0

>  <SCORE.INTRA.REPUL.0>
0

>  <SCORE.INTRA.SOLV>
-0.261439

>  <SCORE.INTRA.SOLV.lig_0>
-53.4755

>  <SCORE.INTRA.VDW>
-2.02761

>  <SCORE.INTRA.VDW.0>
2.32763

>  <SCORE.INTRA.norm>
-0.377444

>  <SCORE.RESTR>
0.0479352

>  <SCORE.RESTR.CAVITY>
0.0479352

>  <SCORE.RESTR.norm>
0.00281972

>  <SCORE.SYSTEM>
0

>  <SCORE.SYSTEM.CONST>
0

>  <SCORE.SYSTEM.DIHEDRAL>
0

>  <SCORE.SYSTEM.SOLV>
0

>  <SCORE.SYSTEM.norm>
0

>  <SCORE.heavy>
17

>  <SCORE.norm>
-0.784818

>  <RMSD>
35.666

$$$$
ligand
 OpenBabel11021811503D
libRbt.so/2013.1/901 2013/11/27
 17 18  0  0  0  0  0  0  0  0999 V2000
   -4.8656  -27.4037   31.3579 N   0  0  0  0  0  0  0  0  0  0  0  0
   -6.2039  -27.0061   31.4703 C   0  0  0  0  0  0  0  0  0  0  0  0
   -6.5864  -26.0814   32.4979 N   0  0  0  0  0  0  0  0  0  0  0  0
   -7.1683  -27.4782   30.6064 N   0  0  0  0  0  0  0  0  0  0  0  0
   -6.8482  -28.3668   29.6009 C   0  0  0  0  0  0  0  0  0  0  0  0
   -5.4983  -28.8120   29.4432 C   0  0  0  0  0  0  0  0  0  0  0  0
   -7.7132  -28.7737   28.8488 O   0  0  0  0  0  0  0  0  0  0  0  0
   -5.1210  -29.7558   28.3941 N   0  0  0  0  0  0  0  0  0  0  0  0
   -3.7484  -30.0209   28.1490 C   0  0  2  0  0  0  0  0  0  0  0  0
   -2.8525  -29.8704   29.4073 C   0  0  0  0  0  0  0  0  0  0  0  0
   -4.5134  -28.3067   30.3445 C   0  0  0  0  0  0  0  0  0  0  0  0
   -3.1141  -28.7488   30.1996 N   0  0  0  0  0  0  0  0  0  0  0  0
   -3.3034  -29.1574   26.9828 C   0  0  1  0  0  0  0  0  0  0  0  0
   -3.0178  -27.8755   27.4088 O   0  0  0  0  0  0  0  0  0  0  0  0
   -2.1085  -29.7649   26.3107 C   0  0  1  0  0  0  0  0  0  0  0  0
   -1.0837  -29.8672   27.1687 O   0  0  0  0  0  0  0  0  0  0  0  0
   -2.4292  -31.1763   25.7745 C   0  0  0  0  0  0  0  0  0  0  0  0
  1  2  2  0  0  0  0
  1 11  1  0  0  0  0
  2  3  1  0  0  0  0
  2  4  1  0  0  0  0
  4  5  1  0  0  0  0
  5  6  1  0  0  0  0
  5  7  2  0  0  0  0
  6  8  1  0  0  0  0
  6 11  2  0  0  0  0
  9  8  1  1  0  0  0
  9 10  1  0  0  0  0
  9 13  1  0  0  0  0
 10 12  1  0  0  0  0
 11 12  1  0  0  0  0
 13 14  1  1  0  0  0
 13 15  1  0  0  0  0
 15 16  1  1  0  0  0
 15 17  1  0  0  0  0
M  END
>  <CHROM.1>
81.22813586,-60.35820679,-4.43220465,-28.75603709,28.99523970,-2.27843113
0.01939631,-2.11650890

>  <Name>
ligand

>  <RI>
0

>  <Rbt.Current_Directory>
/home/itssahil/PROJECTS/Mol_Feturizer/New_Systems/rnas/4LVX

>  <Rbt.Executable>
rbdock ($Id: //depot/dev/client3/rdock/2013.1/src/exe/rbdock.cxx#4 $)

>  <Rbt.Library>
libRbt.so (2013.1, Build901 2013/11/27)

>  <Rbt.Parameter_File>
/export/apps/rDock/src/rDock_2013.1_src/data/scripts/dock_solv.prm

>  <Rbt.Receptor>
prm/blind_docking_60.prm

>  <SCORE>
-2.50799

>  <SCORE.INTER>
2.87623

>  <SCORE.INTER.CONST>
1

>  <SCORE.INTER.POLAR>
0

>  <SCORE.INTER.ROT>
2

>  <SCORE.INTER.SOLV>
17.2862

>  <SCORE.INTER.VDW>
-8.77793

>  <SCORE.INTER.norm>
0.16919

>  <SCORE.INTRA>
-5.40436

>  <SCORE.INTRA.DIHEDRAL>
-8.75829

>  <SCORE.INTRA.DIHEDRAL.0>
10.3255

>  <SCORE.INTRA.POLAR>
0

>  <SCORE.INTRA.POLAR.0>
0

>  <SCORE.INTRA.REPUL>
0

>  <SCORE.INTRA.REPUL.0>
0

>  <SCORE.INTRA.SOLV>
0.401373

>  <SCORE.INTRA.SOLV.lig_0>
-53.4755

>  <SCORE.INTRA.VDW>
-1.2259

>  <SCORE.INTRA.VDW.0>
2.32763

>  <SCORE.INTRA.norm>
-0.317904

>  <SCORE.RESTR>
0.0201388

>  <SCORE.RESTR.CAVITY>
0.0201388

>  <SCORE.RESTR.norm>
0.00118464

>  <SCORE.SYSTEM>
0

>  <SCORE.SYSTEM.CONST>
0

>  <SCORE.SYSTEM.DIHEDRAL>
0

>  <SCORE.SYSTEM.SOLV>
0

>  <SCORE.SYSTEM.norm>
0

>  <SCORE.heavy>
17

>  <SCORE.norm>
-0.147529

>  <RMSD>
35.671

$$$$
ligand
 OpenBabel11021811503D
libRbt.so/2013.1/901 2013/11/27
 17 18  0  0  0  0  0  0  0  0999 V2000
   -4.8496  -27.4025   31.3674 N   0  0  0  0  0  0  0  0  0  0  0  0
   -6.1887  -27.0098   31.4879 C   0  0  0  0  0  0  0  0  0  0  0  0
   -6.5683  -26.0859   32.5173 N   0  0  0  0  0  0  0  0  0  0  0  0
   -7.1567  -27.4861   30.6302 N   0  0  0  0  0  0  0  0  0  0  0  0
   -6.8394  -28.3740   29.6233 C   0  0  0  0  0  0  0  0  0  0  0  0
   -5.4889  -28.8142   29.4575 C   0  0  0  0  0  0  0  0  0  0  0  0
   -7.7075  -28.7847   28.8769 O   0  0  0  0  0  0  0  0  0  0  0  0
   -5.1146  -29.7573   28.4066 N   0  0  0  0  0  0  0  0  0  0  0  0
   -3.7426  -30.0174   28.1532 C   0  0  2  0  0  0  0  0  0  0  0  0
   -2.8394  -29.8627   29.4058 C   0  0  0  0  0  0  0  0  0  0  0  0
   -4.5003  -28.3047   30.3524 C   0  0  0  0  0  0  0  0  0  0  0  0
   -3.1003  -28.7417   30.1991 N   0  0  0  0  0  0  0  0  0  0  0  0
   -3.3080  -29.1530   26.9837 C   0  0  1  0  0  0  0  0  0  0  0  0
   -3.0175  -27.8717   27.4084 O   0  0  0  0  0  0  0  0  0  0  0  0
   -2.1200  -29.7605   26.2996 C   0  0  1  0  0  0  0  0  0  0  0  0
   -1.0800  -29.8433   27.1414 O   0  0  0  0  0  0  0  0  0  0  0  0
   -2.4388  -31.1816   25.7881 C   0  0  0  0  0  0  0  0  0  0  0  0
  1  2  2  0  0  0  0
  1 11  1  0  0  0  0
  2  3  1  0  0  0  0
  2  4  1  0  0  0  0
  4  5  1  0  0  0  0
  5  6  1  0  0  0  0
  5  7  2  0  0  0  0
  6  8  1  0  0  0  0
  6 11  2  0  0  0  0
  9  8  1  1  0  0  0
  9 10  1  0  0  0  0
  9 13  1  0  0  0  0
 10 12  1  0  0  0  0
 11 12  1  0  0  0  0
 13 14  1  1  0  0  0
 13 15  1  0  0  0  0
 15 16  1  1  0  0  0
 15 17  1  0  0  0  0
M  END
>  <CHROM.1>
81.56054937,-61.41946065,-4.42561183,-28.75498878,29.00277699,-2.27515243
0.01076789,-2.11913561

>  <Name>
ligand

>  <RI>
0

>  <Rbt.Current_Directory>
/home/itssahil/PROJECTS/Mol_Feturizer/New_Systems/rnas/4LVX

>  <Rbt.Executable>
rbdock ($Id: //depot/dev/client3/rdock/2013.1/src/exe/rbdock.cxx#4 $)

>  <Rbt.Library>
libRbt.so (2013.1, Build901 2013/11/27)

>  <Rbt.Parameter_File>
/export/apps/rDock/src/rDock_2013.1_src/data/scripts/dock_solv.prm

>  <Rbt.Receptor>
prm/blind_docking_60.prm

>  <SCORE>
-2.51451

>  <SCORE.INTER>
2.8061

>  <SCORE.INTER.CONST>
1

>  <SCORE.INTER.POLAR>
0

>  <SCORE.INTER.ROT>
2

>  <SCORE.INTER.SOLV>
17.2494

>  <SCORE.INTER.VDW>
-8.81239

>  <SCORE.INTER.norm>
0.165065

>  <SCORE.INTRA>
-5.35095

>  <SCORE.INTRA.DIHEDRAL>
-8.70952

>  <SCORE.INTRA.DIHEDRAL.0>
10.3255

>  <SCORE.INTRA.POLAR>
0

>  <SCORE.INTRA.POLAR.0>
0

>  <SCORE.INTRA.REPUL>
0

>  <SCORE.INTRA.REPUL.0>
0

>  <SCORE.INTRA.SOLV>
0.391867

>  <SCORE.INTRA.SOLV.lig_0>
-53.4755

>  <SCORE.INTRA.VDW>
-1.19212

>  <SCORE.INTRA.VDW.0>
2.32763

>  <SCORE.INTRA.norm>
-0.314762

>  <SCORE.RESTR>
0.0303346

>  <SCORE.RESTR.CAVITY>
0.0303346

>  <SCORE.RESTR.norm>
0.00178439

>  <SCORE.SYSTEM>
0

>  <SCORE.SYSTEM.CONST>
0

>  <SCORE.SYSTEM.DIHEDRAL>
0

>  <SCORE.SYSTEM.SOLV>
0

>  <SCORE.SYSTEM.norm>
0

>  <SCORE.heavy>
17

>  <SCORE.norm>
-0.147912

>  <RMSD>
35.671

$$$$
ligand
 OpenBabel11021811503D
libRbt.so/2013.1/901 2013/11/27
 17 18  0  0  0  0  0  0  0  0999 V2000
   -4.1986  -28.1066   30.3659 N   0  0  0  0  0  0  0  0  0  0  0  0
   -4.5196  -29.1524   29.4912 C   0  0  0  0  0  0  0  0  0  0  0  0
   -3.4728  -29.9594   28.9342 N   0  0  0  0  0  0  0  0  0  0  0  0
   -5.8268  -29.4329   29.1564 N   0  0  0  0  0  0  0  0  0  0  0  0
   -6.8675  -28.6864   29.6689 C   0  0  0  0  0  0  0  0  0  0  0  0
   -6.5979  -27.6024   30.5619 C   0  0  0  0  0  0  0  0  0  0  0  0
   -8.0147  -28.9480   29.3609 O   0  0  0  0  0  0  0  0  0  0  0  0
   -7.6724  -26.7859   31.1212 N   0  0  0  0  0  0  0  0  0  0  0  0
   -7.3811  -25.8508   32.1483 C   0  0  2  0  0  0  0  0  0  0  0  0
   -5.9385  -25.2824   32.0800 C   0  0  0  0  0  0  0  0  0  0  0  0
   -5.2379  -27.3319   30.9007 C   0  0  0  0  0  0  0  0  0  0  0  0
   -4.9353  -26.2211   31.8221 N   0  0  0  0  0  0  0  0  0  0  0  0
   -7.7144  -26.4963   33.4809 C   0  0  1  0  0  0  0  0  0  0  0  0
   -7.3404  -25.6747   34.5257 O   0  0  0  0  0  0  0  0  0  0  0  0
   -9.1792  -26.8078   33.5573 C   0  0  1  0  0  0  0  0  0  0  0  0
   -9.5274  -27.6835   32.6040 O   0  0  0  0  0  0  0  0  0  0  0  0
   -9.5481  -27.4164   34.9270 C   0  0  0  0  0  0  0  0  0  0  0  0
  1  2  2  0  0  0  0
  1 11  1  0  0  0  0
  2  3  1  0  0  0  0
  2  4  1  0  0  0  0
  4  5  1  0  0  0  0
  5  6  1  0  0  0  0
  5  7  2  0  0  0  0
  6  8  1  0  0  0  0
  6 11  2  0  0  0  0
  9  8  1  6  0  0  0
  9 10  1  0  0  0  0
  9 13  1  0  0  0  0
 10 12  1  0  0  0  0
 11 12  1  0  0  0  0
 13 14  1  1  0  0  0
 13 15  1  0  0  0  0
 15 16  1  6  0  0  0
 15 17  1  0  0  0  0
M  END
>  <CHROM.1>
174.72751095,61.96666734,-6.77036004,-27.48461257,31.51065009,-0.90481841
0.29820463,0.83338166

>  <Name>
ligand

>  <RI>
0

>  <Rbt.Current_Directory>
/home/itssahil/PROJECTS/Mol_Feturizer/New_Systems/rnas/4LVX

>  <Rbt.Executable>
rbdock ($Id: //depot/dev/client3/rdock/2013.1/src/exe/rbdock.cxx#4 $)

>  <Rbt.Library>
libRbt.so (2013.1, Build901 2013/11/27)

>  <Rbt.Parameter_File>
/export/apps/rDock/src/rDock_2013.1_src/data/scripts/dock_solv.prm

>  <Rbt.Receptor>
prm/blind_docking_100.prm

>  <SCORE>
-16.32

>  <SCORE.INTER>
-9.58454

>  <SCORE.INTER.CONST>
1

>  <SCORE.INTER.POLAR>
0

>  <SCORE.INTER.ROT>
2

>  <SCORE.INTER.SOLV>
18.3024

>  <SCORE.INTER.VDW>
-17.4238

>  <SCORE.INTER.norm>
-0.563796

>  <SCORE.INTRA>
-6.73551

>  <SCORE.INTRA.DIHEDRAL>
-10.0617

>  <SCORE.INTRA.DIHEDRAL.0>
10.3255

>  <SCORE.INTRA.POLAR>
0

>  <SCORE.INTRA.POLAR.0>
0

>  <SCORE.INTRA.REPUL>
0

>  <SCORE.INTRA.REPUL.0>
0

>  <SCORE.INTRA.SOLV>
0.0206551

>  <SCORE.INTRA.SOLV.lig_0>
-53.4755

>  <SCORE.INTRA.VDW>
-1.71497

>  <SCORE.INTRA.VDW.0>
2.32763

>  <SCORE.INTRA.norm>
-0.396206

>  <SCORE.RESTR>
0

>  <SCORE.RESTR.CAVITY>
0

>  <SCORE.RESTR.norm>
0

>  <SCORE.SYSTEM>
0

>  <SCORE.SYSTEM.CONST>
0

>  <SCORE.SYSTEM.DIHEDRAL>
0

>  <SCORE.SYSTEM.SOLV>
0

>  <SCORE.SYSTEM.norm>
0

>  <SCORE.heavy>
17

>  <SCORE.norm>
-0.960003

>  <RMSD>
35.727

$$$$
ligand
 OpenBabel11021811503D
libRbt.so/2013.1/901 2013/11/27
 17 18  0  0  0  0  0  0  0  0999 V2000
   -4.1012  -28.1157   30.3623 N   0  0  0  0  0  0  0  0  0  0  0  0
   -4.4112  -29.1646   29.4872 C   0  0  0  0  0  0  0  0  0  0  0  0
   -3.3562  -29.9632   28.9335 N   0  0  0  0  0  0  0  0  0  0  0  0
   -5.7151  -29.4560   29.1490 N   0  0  0  0  0  0  0  0  0  0  0  0
   -6.7633  -28.7179   29.6582 C   0  0  0  0  0  0  0  0  0  0  0  0
   -6.5051  -27.6313   30.5515 C   0  0  0  0  0  0  0  0  0  0  0  0
   -7.9075  -28.9890   29.3472 O   0  0  0  0  0  0  0  0  0  0  0  0
   -7.5878  -26.8234   31.1075 N   0  0  0  0  0  0  0  0  0  0  0  0
   -7.3071  -25.8854   32.1349 C   0  0  2  0  0  0  0  0  0  0  0  0
   -5.8691  -25.3053   32.0703 C   0  0  0  0  0  0  0  0  0  0  0  0
   -5.1483  -27.3494   30.8939 C   0  0  0  0  0  0  0  0  0  0  0  0
   -4.8575  -26.2357   31.8156 N   0  0  0  0  0  0  0  0  0  0  0  0
   -7.6387  -26.5331   33.4669 C   0  0  1  0  0  0  0  0  0  0  0  0
   -7.2324  -25.7284   34.5127 O   0  0  0  0  0  0  0  0  0  0  0  0
   -9.1094  -26.8107   33.5596 C   0  0  1  0  0  0  0  0  0  0  0  0
   -9.4952  -27.6488   32.5872 O   0  0  0  0  0  0  0  0  0  0  0  0
   -9.4704  -27.4507   34.9171 C   0  0  0  0  0  0  0  0  0  0  0  0
  1  2  2  0  0  0  0
  1 11  1  0  0  0  0
  2  3  1  0  0  0  0
  2  4  1  0  0  0  0
  4  5  1  0  0  0  0
  5  6  1  0  0  0  0
  5  7  2  0  0  0  0
  6  8  1  0  0  0  0
  6 11  2  0  0  0  0
  9  8  1  6  0  0  0
  9 10  1  0  0  0  0
  9 13  1  0  0  0  0
 10 12  1  0  0  0  0
 11 12  1  0  0  0  0
 13 14  1  1  0  0  0
 13 15  1  0  0  0  0
 15 16  1  6  0  0  0
 15 17  1  0  0  0  0
M  END
>  <CHROM.1>
172.65858448,60.66873713,-6.68265090,-27.50632316,31.50150352,-0.89835494
0.29226657,0.83642799

>  <Name>
ligand

>  <RI>
0

>  <Rbt.Current_Directory>
/home/itssahil/PROJECTS/Mol_Feturizer/New_Systems/rnas/4LVX

>  <Rbt.Executable>
rbdock ($Id: //depot/dev/client3/rdock/2013.1/src/exe/rbdock.cxx#4 $)

>  <Rbt.Library>
libRbt.so (2013.1, Build901 2013/11/27)

>  <Rbt.Parameter_File>
/export/apps/rDock/src/rDock_2013.1_src/data/scripts/dock_solv.prm

>  <Rbt.Receptor>
prm/blind_docking_100.prm

>  <SCORE>
-16.3441

>  <SCORE.INTER>
-9.60134

>  <SCORE.INTER.CONST>
1

>  <SCORE.INTER.POLAR>
0

>  <SCORE.INTER.ROT>
2

>  <SCORE.INTER.SOLV>
18.6964

>  <SCORE.INTER.VDW>
-17.5664

>  <SCORE.INTER.norm>
-0.564784

>  <SCORE.INTRA>
-6.7428

>  <SCORE.INTRA.DIHEDRAL>
-9.98066

>  <SCORE.INTRA.DIHEDRAL.0>
10.3255

>  <SCORE.INTRA.POLAR>
0

>  <SCORE.INTRA.POLAR.0>
0

>  <SCORE.INTRA.REPUL>
0

>  <SCORE.INTRA.REPUL.0>
0

>  <SCORE.INTRA.SOLV>
0.00477946

>  <SCORE.INTRA.SOLV.lig_0>
-53.4755

>  <SCORE.INTRA.VDW>
-1.75486

>  <SCORE.INTRA.VDW.0>
2.32763

>  <SCORE.INTRA.norm>
-0.396635

>  <SCORE.RESTR>
0

>  <SCORE.RESTR.CAVITY>
0

>  <SCORE.RESTR.norm>
0

>  <SCORE.SYSTEM>
0

>  <SCORE.SYSTEM.CONST>
0

>  <SCORE.SYSTEM.DIHEDRAL>
0

>  <SCORE.SYSTEM.SOLV>
0

>  <SCORE.SYSTEM.norm>
0

>  <SCORE.heavy>
17

>  <SCORE.norm>
-0.96142

>  <RMSD>
35.729

$$$$
ligand
 OpenBabel11021811503D
libRbt.so/2013.1/901 2013/11/27
 17 18  0  0  0  0  0  0  0  0999 V2000
   -4.1856  -30.5162   27.3075 N   0  0  0  0  0  0  0  0  0  0  0  0
   -3.0834  -30.0843   26.5588 C   0  0  0  0  0  0  0  0  0  0  0  0
   -2.7577  -30.7450   25.3281 N   0  0  0  0  0  0  0  0  0  0  0  0
   -2.3033  -29.0268   26.9740 N   0  0  0  0  0  0  0  0  0  0  0  0
   -2.5789  -28.3586   28.1489 C   0  0  0  0  0  0  0  0  0  0  0  0
   -3.6884  -28.7606   28.9568 C   0  0  0  0  0  0  0  0  0  0  0  0
   -1.8782  -27.4284   28.4999 O   0  0  0  0  0  0  0  0  0  0  0  0
   -4.0092  -28.0814   30.2096 N   0  0  0  0  0  0  0  0  0  0  0  0
   -5.2240  -28.3812   30.8793 C   0  0  2  0  0  0  0  0  0  0  0  0
   -5.7236  -29.8310   30.6401 C   0  0  0  0  0  0  0  0  0  0  0  0
   -4.4875  -29.8543   28.5062 C   0  0  0  0  0  0  0  0  0  0  0  0
   -5.6388  -30.2850   29.3208 N   0  0  0  0  0  0  0  0  0  0  0  0
   -6.2428  -27.3207   30.5035 C   0  0  1  0  0  0  0  0  0  0  0  0
   -7.5109  -27.8640   30.4467 O   0  0  0  0  0  0  0  0  0  0  0  0
   -6.2014  -26.1874   31.4845 C   0  0  1  0  0  0  0  0  0  0  0  0
   -6.2125  -26.6496   32.7427 O   0  0  0  0  0  0  0  0  0  0  0  0
   -4.9283  -25.3350   31.2968 C   0  0  0  0  0  0  0  0  0  0  0  0
  1  2  2  0  0  0  0
  1 11  1  0  0  0  0
  2  3  1  0  0  0  0
  2  4  1  0  0  0  0
  4  5  1  0  0  0  0
  5  6  1  0  0  0  0
  5  7  2  0  0  0  0
  6  8  1  0  0  0  0
  6 11  2  0  0  0  0
  9  8  1  6  0  0  0
  9 10  1  0  0  0  0
  9 13  1  0  0  0  0
 10 12  1  0  0  0  0
 11 12  1  0  0  0  0
 13 14  1  1  0  0  0
 13 15  1  0  0  0  0
 15 16  1  1  0  0  0
 15 17  1  0  0  0  0
M  END
>  <CHROM.1>
146.34292835,-47.68675669,-4.54698915,-28.45764450,29.34533975,0.94639139
-0.54472511,-2.49042046

>  <Name>
ligand

>  <RI>
0

>  <Rbt.Current_Directory>
/home/itssahil/PROJECTS/Mol_Feturizer/New_Systems/rnas/4LVX

>  <Rbt.Executable>
rbdock ($Id: //depot/dev/client3/rdock/2013.1/src/exe/rbdock.cxx#4 $)

>  <Rbt.Library>
libRbt.so (2013.1, Build901 2013/11/27)

>  <Rbt.Parameter_File>
/export/apps/rDock/src/rDock_2013.1_src/data/scripts/dock_solv.prm

>  <Rbt.Receptor>
prm/blind_docking_100.prm

>  <SCORE>
-13.7082

>  <SCORE.INTER>
-9.40154

>  <SCORE.INTER.CONST>
1

>  <SCORE.INTER.POLAR>
0

>  <SCORE.INTER.ROT>
2

>  <SCORE.INTER.SOLV>
26.7922

>  <SCORE.INTER.VDW>
-20.1318

>  <SCORE.INTER.norm>
-0.553032

>  <SCORE.INTRA>
-4.38985

>  <SCORE.INTRA.DIHEDRAL>
-6.58843

>  <SCORE.INTRA.DIHEDRAL.0>
10.3255

>  <SCORE.INTRA.POLAR>
0

>  <SCORE.INTRA.POLAR.0>
0

>  <SCORE.INTRA.REPUL>
0

>  <SCORE.INTRA.REPUL.0>
0

>  <SCORE.INTRA.SOLV>
0.126682

>  <SCORE.INTRA.SOLV.lig_0>
-53.4755

>  <SCORE.INTRA.VDW>
-1.15898

>  <SCORE.INTRA.VDW.0>
2.32763

>  <SCORE.INTRA.norm>
-0.258227

>  <SCORE.RESTR>
0.0832132

>  <SCORE.RESTR.CAVITY>
0.0832132

>  <SCORE.RESTR.norm>
0.00489489

>  <SCORE.SYSTEM>
0

>  <SCORE.SYSTEM.CONST>
0

>  <SCORE.SYSTEM.DIHEDRAL>
0

>  <SCORE.SYSTEM.SOLV>
0

>  <SCORE.SYSTEM.norm>
0

>  <SCORE.heavy>
17

>  <SCORE.norm>
-0.806364

>  <RMSD>
35.808

$$$$
ligand
 OpenBabel11021811503D
libRbt.so/2013.1/901 2013/11/27
 17 18  0  0  0  0  0  0  0  0999 V2000
   -4.2025  -30.5342   27.3188 N   0  0  0  0  0  0  0  0  0  0  0  0
   -3.0990  -30.1114   26.5667 C   0  0  0  0  0  0  0  0  0  0  0  0
   -2.7805  -30.7769   25.3368 N   0  0  0  0  0  0  0  0  0  0  0  0
   -2.3107  -29.0584   26.9780 N   0  0  0  0  0  0  0  0  0  0  0  0
   -2.5791  -28.3859   28.1522 C   0  0  0  0  0  0  0  0  0  0  0  0
   -3.6896  -28.7786   28.9633 C   0  0  0  0  0  0  0  0  0  0  0  0
   -1.8713  -27.4598   28.4997 O   0  0  0  0  0  0  0  0  0  0  0  0
   -4.0029  -28.0946   30.2154 N   0  0  0  0  0  0  0  0  0  0  0  0
   -5.2183  -28.3848   30.8885 C   0  0  2  0  0  0  0  0  0  0  0  0
   -5.7283  -29.8316   30.6534 C   0  0  0  0  0  0  0  0  0  0  0  0
   -4.4971  -29.8678   28.5169 C   0  0  0  0  0  0  0  0  0  0  0  0
   -5.6495  -30.2889   29.3348 N   0  0  0  0  0  0  0  0  0  0  0  0
   -6.2306  -27.3181   30.5127 C   0  0  1  0  0  0  0  0  0  0  0  0
   -7.4990  -27.8580   30.4357 O   0  0  0  0  0  0  0  0  0  0  0  0
   -6.1980  -26.1955   31.5063 C   0  0  1  0  0  0  0  0  0  0  0  0
   -6.2050  -26.6719   32.7593 O   0  0  0  0  0  0  0  0  0  0  0  0
   -4.9318  -25.3309   31.3279 C   0  0  0  0  0  0  0  0  0  0  0  0
  1  2  2  0  0  0  0
  1 11  1  0  0  0  0
  2  3  1  0  0  0  0
  2  4  1  0  0  0  0
  4  5  1  0  0  0  0
  5  6  1  0  0  0  0
  5  7  2  0  0  0  0
  6  8  1  0  0  0  0
  6 11  2  0  0  0  0
  9  8  1  6  0  0  0
  9 10  1  0  0  0  0
  9 13  1  0  0  0  0
 10 12  1  0  0  0  0
 11 12  1  0  0  0  0
 13 14  1  1  0  0  0
 13 15  1  0  0  0  0
 15 16  1  1  0  0  0
 15 17  1  0  0  0  0
M  END
>  <CHROM.1>
145.23891446,-46.80808371,-4.54897793,-28.47149488,29.35483337,0.95342568
-0.54155235,-2.48710321

>  <Name>
ligand

>  <RI>
0

>  <Rbt.Current_Directory>
/home/itssahil/PROJECTS/Mol_Feturizer/New_Systems/rnas/4LVX

>  <Rbt.Executable>
rbdock ($Id: //depot/dev/client3/rdock/2013.1/src/exe/rbdock.cxx#4 $)

>  <Rbt.Library>
libRbt.so (2013.1, Build901 2013/11/27)

>  <Rbt.Parameter_File>
/export/apps/rDock/src/rDock_2013.1_src/data/scripts/dock_solv.prm

>  <Rbt.Receptor>
prm/blind_docking_60.prm

>  <SCORE>
-13.5672

>  <SCORE.INTER>
-9.34078

>  <SCORE.INTER.CONST>
1

>  <SCORE.INTER.POLAR>
0

>  <SCORE.INTER.ROT>
2

>  <SCORE.INTER.SOLV>
26.7852

>  <SCORE.INTER.VDW>
-20.0889

>  <SCORE.INTER.norm>
-0.549457

>  <SCORE.INTRA>
-4.2892

>  <SCORE.INTRA.DIHEDRAL>
-6.36871

>  <SCORE.INTRA.DIHEDRAL.0>
10.3255

>  <SCORE.INTRA.POLAR>
0

>  <SCORE.INTRA.POLAR.0>
0

>  <SCORE.INTRA.REPUL>
0

>  <SCORE.INTRA.REPUL.0>
0

>  <SCORE.INTRA.SOLV>
0.115364

>  <SCORE.INTRA.SOLV.lig_0>
-53.4755

>  <SCORE.INTRA.VDW>
-1.16252

>  <SCORE.INTRA.VDW.0>
2.32763

>  <SCORE.INTRA.norm>
-0.252306

>  <SCORE.RESTR>
0.0628197

>  <SCORE.RESTR.CAVITY>
0.0628197

>  <SCORE.RESTR.norm>
0.00369528

>  <SCORE.SYSTEM>
0

>  <SCORE.SYSTEM.CONST>
0

>  <SCORE.SYSTEM.DIHEDRAL>
0

>  <SCORE.SYSTEM.SOLV>
0

>  <SCORE.SYSTEM.norm>
0

>  <SCORE.heavy>
17

>  <SCORE.norm>
-0.798068

>  <RMSD>
35.823

$$$$
ligand
 OpenBabel11021811503D
libRbt.so/2013.1/901 2013/11/27
 17 18  0  0  0  0  0  0  0  0999 V2000
   -4.1742  -30.5409   27.2750 N   0  0  0  0  0  0  0  0  0  0  0  0
   -3.0678  -30.0984   26.5386 C   0  0  0  0  0  0  0  0  0  0  0  0
   -2.7341  -30.7429   25.3015 N   0  0  0  0  0  0  0  0  0  0  0  0
   -2.2911  -29.0459   26.9723 N   0  0  0  0  0  0  0  0  0  0  0  0
   -2.5743  -28.3932   28.1541 C   0  0  0  0  0  0  0  0  0  0  0  0
   -3.6884  -28.8066   28.9500 C   0  0  0  0  0  0  0  0  0  0  0  0
   -1.8765  -27.4671   28.5214 O   0  0  0  0  0  0  0  0  0  0  0  0
   -4.0173  -28.1439   30.2095 N   0  0  0  0  0  0  0  0  0  0  0  0
   -5.2359  -28.4534   30.8680 C   0  0  2  0  0  0  0  0  0  0  0  0
   -5.7327  -29.9004   30.6069 C   0  0  0  0  0  0  0  0  0  0  0  0
   -4.4838  -29.8949   28.4804 C   0  0  0  0  0  0  0  0  0  0  0  0
   -5.6396  -30.3371   29.2823 N   0  0  0  0  0  0  0  0  0  0  0  0
   -6.2532  -27.3889   30.4999 C   0  0  1  0  0  0  0  0  0  0  0  0
   -7.5197  -27.9333   30.4232 O   0  0  0  0  0  0  0  0  0  0  0  0
   -6.2226  -26.2710   31.4989 C   0  0  1  0  0  0  0  0  0  0  0  0
   -6.2274  -26.7535   32.7495 O   0  0  0  0  0  0  0  0  0  0  0  0
   -4.9588  -25.4024   31.3236 C   0  0  0  0  0  0  0  0  0  0  0  0
  1  2  2  0  0  0  0
  1 11  1  0  0  0  0
  2  3  1  0  0  0  0
  2  4  1  0  0  0  0
  4  5  1  0  0  0  0
  5  6  1  0  0  0  0
  5  7  2  0  0  0  0
  6  8  1  0  0  0  0
  6 11  2  0  0  0  0
  9  8  1  6  0  0  0
  9 10  1  0  0  0  0
  9 13  1  0  0  0  0
 10 12  1  0  0  0  0
 11 12  1  0  0  0  0
 13 14  1  1  0  0  0
 13 15  1  0  0  0  0
 15 16  1  1  0  0  0
 15 17  1  0  0  0  0
M  END
>  <CHROM.1>
146.11032263,-46.92566719,-4.54990554,-28.50935090,29.33698838,0.94120938
-0.54100795,-2.48062627

>  <Name>
ligand

>  <RI>
0

>  <Rbt.Current_Directory>
/home/itssahil/PROJECTS/Mol_Feturizer/New_Systems/rnas/4LVX

>  <Rbt.Executable>
rbdock ($Id: //depot/dev/client3/rdock/2013.1/src/exe/rbdock.cxx#4 $)

>  <Rbt.Library>
libRbt.so (2013.1, Build901 2013/11/27)

>  <Rbt.Parameter_File>
/export/apps/rDock/src/rDock_2013.1_src/data/scripts/dock_solv.prm

>  <Rbt.Receptor>
prm/blind_docking_80.prm

>  <SCORE>
-13.5713

>  <SCORE.INTER>
-9.28391

>  <SCORE.INTER.CONST>
1

>  <SCORE.INTER.POLAR>
0

>  <SCORE.INTER.ROT>
2

>  <SCORE.INTER.SOLV>
26.9172

>  <SCORE.INTER.VDW>
-20.095

>  <SCORE.INTER.norm>
-0.546112

>  <SCORE.INTRA>
-4.35669

>  <SCORE.INTRA.DIHEDRAL>
-6.49287

>  <SCORE.INTRA.DIHEDRAL.0>
10.3255

>  <SCORE.INTRA.POLAR>
0

>  <SCORE.INTRA.POLAR.0>
0

>  <SCORE.INTRA.REPUL>
0

>  <SCORE.INTRA.REPUL.0>
0

>  <SCORE.INTRA.SOLV>
0.124588

>  <SCORE.INTRA.SOLV.lig_0>
-53.4755

>  <SCORE.INTRA.VDW>
-1.17255

>  <SCORE.INTRA.VDW.0>
2.32763

>  <SCORE.INTRA.norm>
-0.256276

>  <SCORE.RESTR>
0.0692585

>  <SCORE.RESTR.CAVITY>
0.0692585

>  <SCORE.RESTR.norm>
0.00407403

>  <SCORE.SYSTEM>
0

>  <SCORE.SYSTEM.CONST>
0

>  <SCORE.SYSTEM.DIHEDRAL>
0

>  <SCORE.SYSTEM.SOLV>
0

>  <SCORE.SYSTEM.norm>
0

>  <SCORE.heavy>
17

>  <SCORE.norm>
-0.798314

>  <RMSD>
35.856

$$$$
ligand
 OpenBabel11021811503D
libRbt.so/2013.1/901 2013/11/27
 17 18  0  0  0  0  0  0  0  0999 V2000
   -4.2622  -30.5292   27.2021 N   0  0  0  0  0  0  0  0  0  0  0  0
   -3.0558  -30.2718   26.5385 C   0  0  0  0  0  0  0  0  0  0  0  0
   -2.8292  -30.8270   25.2356 N   0  0  0  0  0  0  0  0  0  0  0  0
   -2.0772  -29.4855   27.1071 N   0  0  0  0  0  0  0  0  0  0  0  0
   -2.2506  -28.9276   28.3567 C   0  0  0  0  0  0  0  0  0  0  0  0
   -3.4602  -29.1620   29.0828 C   0  0  0  0  0  0  0  0  0  0  0  0
   -1.3750  -28.2374   28.8430 O   0  0  0  0  0  0  0  0  0  0  0  0
   -3.6789  -28.5930   30.4103 N   0  0  0  0  0  0  0  0  0  0  0  0
   -4.9611  -28.6869   31.0115 C   0  0  2  0  0  0  0  0  0  0  0  0
   -5.7643  -29.9390   30.5691 C   0  0  0  0  0  0  0  0  0  0  0  0
   -4.4638  -29.9744   28.4740 C   0  0  0  0  0  0  0  0  0  0  0  0
   -5.7209  -30.2277   29.2020 N   0  0  0  0  0  0  0  0  0  0  0  0
   -5.6932  -27.3804   30.7650 C   0  0  1  0  0  0  0  0  0  0  0  0
   -7.0172  -27.4870   31.1421 O   0  0  0  0  0  0  0  0  0  0  0  0
   -5.0255  -26.2608   31.5061 C   0  0  1  0  0  0  0  0  0  0  0  0
   -3.9463  -25.8287   30.8388 O   0  0  0  0  0  0  0  0  0  0  0  0
   -5.9854  -25.0666   31.6928 C   0  0  0  0  0  0  0  0  0  0  0  0
  1  2  2  0  0  0  0
  1 11  1  0  0  0  0
  2  3  1  0  0  0  0
  2  4  1  0  0  0  0
  4  5  1  0  0  0  0
  5  6  1  0  0  0  0
  5  7  2  0  0  0  0
  6  8  1  0  0  0  0
  6 11  2  0  0  0  0
  9  8  1  6  0  0  0
  9 10  1  0  0  0  0
  9 13  1  0  0  0  0
 10 12  1  0  0  0  0
 11 12  1  0  0  0  0
 13 14  1  1  0  0  0
 13 15  1  0  0  0  0
 15 16  1  6  0  0  0
 15 17  1  0  0  0  0
M  END
>  <CHROM.1>
170.59908471,79.96916221,-4.23315697,-28.57053771,29.34592006,1.06618210
-0.44712598,-2.47761453

>  <Name>
ligand

>  <RI>
0

>  <Rbt.Current_Directory>
/home/itssahil/PROJECTS/Mol_Feturizer/New_Systems/rnas/4LVX

>  <Rbt.Executable>
rbdock ($Id: //depot/dev/client3/rdock/2013.1/src/exe/rbdock.cxx#4 $)

>  <Rbt.Library>
libRbt.so (2013.1, Build901 2013/11/27)

>  <Rbt.Parameter_File>
/export/apps/rDock/src/rDock_2013.1_src/data/scripts/dock_solv.prm

>  <Rbt.Receptor>
prm/blind_docking_100.prm

>  <SCORE>
-12.0796

>  <SCORE.INTER>
-6.69065

>  <SCORE.INTER.CONST>
1

>  <SCORE.INTER.POLAR>
0

>  <SCORE.INTER.ROT>
2

>  <SCORE.INTER.SOLV>
28.6971

>  <SCORE.INTER.VDW>
-18.9595

>  <SCORE.INTER.norm>
-0.393568

>  <SCORE.INTRA>
-5.55149

>  <SCORE.INTRA.DIHEDRAL>
-8.55168

>  <SCORE.INTRA.DIHEDRAL.0>
10.3255

>  <SCORE.INTRA.POLAR>
0

>  <SCORE.INTRA.POLAR.0>
0

>  <SCORE.INTRA.REPUL>
0

>  <SCORE.INTRA.REPUL.0>
0

>  <SCORE.INTRA.SOLV>
-0.235932

>  <SCORE.INTRA.SOLV.lig_0>
-53.4755

>  <SCORE.INTRA.VDW>
-1.15769

>  <SCORE.INTRA.VDW.0>
2.32763

>  <SCORE.INTRA.norm>
-0.326558

>  <SCORE.RESTR>
0.162567

>  <SCORE.RESTR.CAVITY>
0.162567

>  <SCORE.RESTR.norm>
0.00956274

>  <SCORE.SYSTEM>
0

>  <SCORE.SYSTEM.CONST>
0

>  <SCORE.SYSTEM.DIHEDRAL>
0

>  <SCORE.SYSTEM.SOLV>
0

>  <SCORE.SYSTEM.norm>
0

>  <SCORE.heavy>
17

>  <SCORE.norm>
-0.710564

>  <RMSD>
35.884

$$$$
ligand
 OpenBabel11021811503D
libRbt.so/2013.1/901 2013/11/27
 17 18  0  0  0  0  0  0  0  0999 V2000
   -4.3567  -30.2376   29.1253 N   0  0  0  0  0  0  0  0  0  0  0  0
   -4.6043  -29.1822   30.0123 C   0  0  0  0  0  0  0  0  0  0  0  0
   -5.6071  -29.3277   31.0274 N   0  0  0  0  0  0  0  0  0  0  0  0
   -3.8971  -28.0015   29.9388 N   0  0  0  0  0  0  0  0  0  0  0  0
   -2.9214  -27.8160   28.9815 C   0  0  0  0  0  0  0  0  0  0  0  0
   -2.6306  -28.8575   28.0456 C   0  0  0  0  0  0  0  0  0  0  0  0
   -2.3086  -26.7665   28.9311 O   0  0  0  0  0  0  0  0  0  0  0  0
   -1.6084  -28.6970   27.0145 N   0  0  0  0  0  0  0  0  0  0  0  0
   -1.2165  -29.8161   26.2346 C   0  0  2  0  0  0  0  0  0  0  0  0
   -2.3439  -30.8655   26.0438 C   0  0  0  0  0  0  0  0  0  0  0  0
   -3.3701  -30.0747   28.1422 C   0  0  0  0  0  0  0  0  0  0  0  0
   -3.0859  -31.1643   27.1901 N   0  0  0  0  0  0  0  0  0  0  0  0
    0.0498  -30.3922   26.8413 C   0  0  1  0  0  0  0  0  0  0  0  0
    0.2842  -31.6645   26.3588 O   0  0  0  0  0  0  0  0  0  0  0  0
    1.2191  -29.4987   26.5535 C   0  0  1  0  0  0  0  0  0  0  0  0
    1.1752  -28.3999   27.3201 O   0  0  0  0  0  0  0  0  0  0  0  0
    2.5541  -30.2232   26.8277 C   0  0  0  0  0  0  0  0  0  0  0  0
  1  2  2  0  0  0  0
  1 11  1  0  0  0  0
  2  3  1  0  0  0  0
  2  4  1  0  0  0  0
  4  5  1  0  0  0  0
  5  6  1  0  0  0  0
  5  7  2  0  0  0  0
  6  8  1  0  0  0  0
  6 11  2  0  0  0  0
  9  8  1  1  0  0  0
  9 10  1  0  0  0  0
  9 13  1  0  0  0  0
 10 12  1  0  0  0  0
 11 12  1  0  0  0  0
 13 14  1  6  0  0  0
 13 15  1  0  0  0  0
 15 16  1  1  0  0  0
 15 17  1  0  0  0  0
M  END
>  <CHROM.1>
164.22180341,74.62656104,-1.83497997,-29.47084854,27.88975738,2.71608165
0.38359956,0.52426460

>  <Name>
ligand

>  <RI>
0

>  <Rbt.Current_Directory>
/home/itssahil/PROJECTS/Mol_Feturizer/New_Systems/rnas/4LVX

>  <Rbt.Executable>
rbdock ($Id: //depot/dev/client3/rdock/2013.1/src/exe/rbdock.cxx#4 $)

>  <Rbt.Library>
libRbt.so (2013.1, Build901 2013/11/27)

>  <Rbt.Parameter_File>
/export/apps/rDock/src/rDock_2013.1_src/data/scripts/dock_solv.prm

>  <Rbt.Receptor>
prm/blind_docking_60.prm

>  <SCORE>
4.85108

>  <SCORE.INTER>
9.4894

>  <SCORE.INTER.CONST>
1

>  <SCORE.INTER.POLAR>
0

>  <SCORE.INTER.ROT>
2

>  <SCORE.INTER.SOLV>
24.4918

>  <SCORE.INTER.VDW>
-6.77099

>  <SCORE.INTER.norm>
0.5582

>  <SCORE.INTRA>
-5.76179

>  <SCORE.INTRA.DIHEDRAL>
-8.60953

>  <SCORE.INTRA.DIHEDRAL.0>
10.3255

>  <SCORE.INTRA.POLAR>
0

>  <SCORE.INTRA.POLAR.0>
0

>  <SCORE.INTRA.REPUL>
0

>  <SCORE.INTRA.REPUL.0>
0

>  <SCORE.INTRA.SOLV>
-0.259641

>  <SCORE.INTRA.SOLV.lig_0>
-53.4755

>  <SCORE.INTRA.VDW>
-1.3272

>  <SCORE.INTRA.VDW.0>
2.32763

>  <SCORE.INTRA.norm>
-0.338929

>  <SCORE.RESTR>
1.12346

>  <SCORE.RESTR.CAVITY>
1.12346

>  <SCORE.RESTR.norm>
0.066086

>  <SCORE.SYSTEM>
0

>  <SCORE.SYSTEM.CONST>
0

>  <SCORE.SYSTEM.DIHEDRAL>
0

>  <SCORE.SYSTEM.SOLV>
0

>  <SCORE.SYSTEM.norm>
0

>  <SCORE.heavy>
17

>  <SCORE.norm>
0.285357

>  <RMSD>
35.893

$$$$
ligand
 OpenBabel11021811503D
libRbt.so/2013.1/901 2013/11/27
 17 18  0  0  0  0  0  0  0  0999 V2000
   -4.2291  -30.5631   27.1168 N   0  0  0  0  0  0  0  0  0  0  0  0
   -2.9933  -30.3136   26.5063 C   0  0  0  0  0  0  0  0  0  0  0  0
   -2.7110  -30.8766   25.2178 N   0  0  0  0  0  0  0  0  0  0  0  0
   -2.0380  -29.5276   27.1139 N   0  0  0  0  0  0  0  0  0  0  0  0
   -2.2649  -28.9624   28.3516 C   0  0  0  0  0  0  0  0  0  0  0  0
   -3.5065  -29.1886   29.0242 C   0  0  0  0  0  0  0  0  0  0  0  0
   -1.4092  -28.2727   28.8728 O   0  0  0  0  0  0  0  0  0  0  0  0
   -3.7820  -28.6117   30.3376 N   0  0  0  0  0  0  0  0  0  0  0  0
   -5.0900  -28.6978   30.8816 C   0  0  2  0  0  0  0  0  0  0  0  0
   -5.8774  -29.9494   30.4104 C   0  0  0  0  0  0  0  0  0  0  0  0
   -4.4850  -30.0007   28.3756 C   0  0  0  0  0  0  0  0  0  0  0  0
   -5.7742  -30.2456   29.0482 N   0  0  0  0  0  0  0  0  0  0  0  0
   -5.8055  -27.3901   30.5959 C   0  0  1  0  0  0  0  0  0  0  0  0
   -7.1469  -27.4924   30.9067 O   0  0  0  0  0  0  0  0  0  0  0  0
   -5.1726  -26.2704   31.3668 C   0  0  1  0  0  0  0  0  0  0  0  0
   -5.6033  -25.0833   30.9171 O   0  0  0  0  0  0  0  0  0  0  0  0
   -5.5126  -26.3673   32.8693 C   0  0  0  0  0  0  0  0  0  0  0  0
  1  2  2  0  0  0  0
  1 11  1  0  0  0  0
  2  3  1  0  0  0  0
  2  4  1  0  0  0  0
  4  5  1  0  0  0  0
  5  6  1  0  0  0  0
  5  7  2  0  0  0  0
  6  8  1  0  0  0  0
  6 11  2  0  0  0  0
  9  8  1  6  0  0  0
  9 10  1  0  0  0  0
  9 13  1  0  0  0  0
 10 12  1  0  0  0  0
 11 12  1  0  0  0  0
 13 14  1  1  0  0  0
 13 15  1  0  0  0  0
 15 16  1  6  0  0  0
 15 17  1  0  0  0  0
M  END
>  <CHROM.1>
170.24616326,167.02883616,-4.35450806,-28.62453802,29.34961579,1.04567672
-0.40301231,-2.43628952

>  <Name>
ligand

>  <RI>
0

>  <Rbt.Current_Directory>
/home/itssahil/PROJECTS/Mol_Feturizer/New_Systems/rnas/4LVX

>  <Rbt.Executable>
rbdock ($Id: //depot/dev/client3/rdock/2013.1/src/exe/rbdock.cxx#4 $)

>  <Rbt.Library>
libRbt.so (2013.1, Build901 2013/11/27)

>  <Rbt.Parameter_File>
/export/apps/rDock/src/rDock_2013.1_src/data/scripts/dock_solv.prm

>  <Rbt.Receptor>
prm/blind_docking_60.prm

>  <SCORE>
-13.4416

>  <SCORE.INTER>
-7.39872

>  <SCORE.INTER.CONST>
1

>  <SCORE.INTER.POLAR>
0

>  <SCORE.INTER.ROT>
2

>  <SCORE.INTER.SOLV>
28.3372

>  <SCORE.INTER.VDW>
-19.3116

>  <SCORE.INTER.norm>
-0.435219

>  <SCORE.INTRA>
-6.17014

>  <SCORE.INTRA.DIHEDRAL>
-9.22372

>  <SCORE.INTRA.DIHEDRAL.0>
10.3255

>  <SCORE.INTRA.POLAR>
0

>  <SCORE.INTRA.POLAR.0>
0

>  <SCORE.INTRA.REPUL>
0

>  <SCORE.INTRA.REPUL.0>
0

>  <SCORE.INTRA.SOLV>
-0.597211

>  <SCORE.INTRA.SOLV.lig_0>
-53.4755

>  <SCORE.INTRA.VDW>
-1.25967

>  <SCORE.INTRA.VDW.0>
2.32763

>  <SCORE.INTRA.norm>
-0.362949

>  <SCORE.RESTR>
0.127287

>  <SCORE.RESTR.CAVITY>
0.127287

>  <SCORE.RESTR.norm>
0.00748748

>  <SCORE.SYSTEM>
0

>  <SCORE.SYSTEM.CONST>
0

>  <SCORE.SYSTEM.DIHEDRAL>
0

>  <SCORE.SYSTEM.SOLV>
0

>  <SCORE.SYSTEM.norm>
0

>  <SCORE.heavy>
17

>  <SCORE.norm>
-0.790681

>  <RMSD>
35.962

$$$$
ligand
 OpenBabel11021811503D
libRbt.so/2013.1/901 2013/11/27
 17 18  0  0  0  0  0  0  0  0999 V2000
   -4.2344  -30.5577   27.0961 N   0  0  0  0  0  0  0  0  0  0  0  0
   -2.9977  -30.3116   26.4860 C   0  0  0  0  0  0  0  0  0  0  0  0
   -2.7193  -30.8696   25.1944 N   0  0  0  0  0  0  0  0  0  0  0  0
   -2.0379  -29.5338   27.0968 N   0  0  0  0  0  0  0  0  0  0  0  0
   -2.2609  -28.9736   28.3375 C   0  0  0  0  0  0  0  0  0  0  0  0
   -3.5032  -29.1966   29.0099 C   0  0  0  0  0  0  0  0  0  0  0  0
   -1.4012  -28.2911   28.8615 O   0  0  0  0  0  0  0  0  0  0  0  0
   -3.7747  -28.6249   30.3264 N   0  0  0  0  0  0  0  0  0  0  0  0
   -5.0828  -28.7068   30.8709 C   0  0  2  0  0  0  0  0  0  0  0  0
   -5.8771  -29.9519   30.3939 C   0  0  0  0  0  0  0  0  0  0  0  0
   -4.4864  -30.0003   28.3579 C   0  0  0  0  0  0  0  0  0  0  0  0
   -5.7764  -30.2418   29.0302 N   0  0  0  0  0  0  0  0  0  0  0  0
   -5.7916  -27.3939   30.5923 C   0  0  1  0  0  0  0  0  0  0  0  0
   -7.1376  -27.4977   30.8820 O   0  0  0  0  0  0  0  0  0  0  0  0
   -5.1680  -26.2860   31.3873 C   0  0  1  0  0  0  0  0  0  0  0  0
   -5.5946  -25.0923   30.9513 O   0  0  0  0  0  0  0  0  0  0  0  0
   -5.5244  -26.4064   32.8843 C   0  0  0  0  0  0  0  0  0  0  0  0
  1  2  2  0  0  0  0
  1 11  1  0  0  0  0
  2  3  1  0  0  0  0
  2  4  1  0  0  0  0
  4  5  1  0  0  0  0
  5  6  1  0  0  0  0
  5  7  2  0  0  0  0
  6  8  1  0  0  0  0
  6 11  2  0  0  0  0
  9  8  1  6  0  0  0
  9 10  1  0  0  0  0
  9 13  1  0  0  0  0
 10 12  1  0  0  0  0
 11 12  1  0  0  0  0
 13 14  1  1  0  0  0
 13 15  1  0  0  0  0
 15 16  1  6  0  0  0
 15 17  1  0  0  0  0
M  END
>  <CHROM.1>
169.22414375,167.31388342,-4.35248144,-28.63205563,29.34099984,1.04911418
-0.39757550,-2.42712351

>  <Name>
ligand

>  <RI>
0

>  <Rbt.Current_Directory>
/home/itssahil/PROJECTS/Mol_Feturizer/New_Systems/rnas/4LVX

>  <Rbt.Executable>
rbdock ($Id: //depot/dev/client3/rdock/2013.1/src/exe/rbdock.cxx#4 $)

>  <Rbt.Library>
libRbt.so (2013.1, Build901 2013/11/27)

>  <Rbt.Parameter_File>
/export/apps/rDock/src/rDock_2013.1_src/data/scripts/dock_solv.prm

>  <Rbt.Receptor>
prm/blind_docking_60.prm

>  <SCORE>
-13.3576

>  <SCORE.INTER>
-7.33016

>  <SCORE.INTER.CONST>
1

>  <SCORE.INTER.POLAR>
0

>  <SCORE.INTER.ROT>
2

>  <SCORE.INTER.SOLV>
28.3742

>  <SCORE.INTER.VDW>
-19.2782

>  <SCORE.INTER.norm>
-0.431186

>  <SCORE.INTRA>
-6.13634

>  <SCORE.INTRA.DIHEDRAL>
-9.17814

>  <SCORE.INTRA.DIHEDRAL.0>
10.3255

>  <SCORE.INTRA.POLAR>
0

>  <SCORE.INTRA.POLAR.0>
0

>  <SCORE.INTRA.REPUL>
0

>  <SCORE.INTRA.REPUL.0>
0

>  <SCORE.INTRA.SOLV>
-0.601275

>  <SCORE.INTRA.SOLV.lig_0>
-53.4755

>  <SCORE.INTRA.VDW>
-1.24663

>  <SCORE.INTRA.VDW.0>
2.32763

>  <SCORE.INTRA.norm>
-0.360961

>  <SCORE.RESTR>
0.108936

>  <SCORE.RESTR.CAVITY>
0.108936

>  <SCORE.RESTR.norm>
0.00640802

>  <SCORE.SYSTEM>
0

>  <SCORE.SYSTEM.CONST>
0

>  <SCORE.SYSTEM.DIHEDRAL>
0

>  <SCORE.SYSTEM.SOLV>
0

>  <SCORE.SYSTEM.norm>
0

>  <SCORE.heavy>
17

>  <SCORE.norm>
-0.785739

>  <RMSD>
35.967

$$$$
ligand
 OpenBabel11021811503D
libRbt.so/2013.1/901 2013/11/27
 17 18  0  0  0  0  0  0  0  0999 V2000
   -4.2047  -30.5696   27.0815 N   0  0  0  0  0  0  0  0  0  0  0  0
   -2.9621  -30.3264   26.4825 C   0  0  0  0  0  0  0  0  0  0  0  0
   -2.6738  -30.8840   25.1928 N   0  0  0  0  0  0  0  0  0  0  0  0
   -2.0055  -29.5517   27.1023 N   0  0  0  0  0  0  0  0  0  0  0  0
   -2.2379  -28.9920   28.3415 C   0  0  0  0  0  0  0  0  0  0  0  0
   -3.4867  -29.2123   29.0028 C   0  0  0  0  0  0  0  0  0  0  0  0
   -1.3810  -28.3123   28.8737 O   0  0  0  0  0  0  0  0  0  0  0  0
   -3.7681  -28.6409   30.3174 N   0  0  0  0  0  0  0  0  0  0  0  0
   -5.0811  -28.7198   30.8504 C   0  0  2  0  0  0  0  0  0  0  0  0
   -5.8747  -29.9623   30.3653 C   0  0  0  0  0  0  0  0  0  0  0  0
   -4.4663  -30.0127   28.3415 C   0  0  0  0  0  0  0  0  0  0  0  0
   -5.7628  -30.2513   29.0023 N   0  0  0  0  0  0  0  0  0  0  0  0
   -5.7839  -27.4048   30.5668 C   0  0  1  0  0  0  0  0  0  0  0  0
   -7.1318  -27.5036   30.8493 O   0  0  0  0  0  0  0  0  0  0  0  0
   -5.1608  -26.2982   31.3641 C   0  0  1  0  0  0  0  0  0  0  0  0
   -5.5861  -25.1037   30.9291 O   0  0  0  0  0  0  0  0  0  0  0  0
   -5.5193  -26.4204   32.8605 C   0  0  0  0  0  0  0  0  0  0  0  0
  1  2  2  0  0  0  0
  1 11  1  0  0  0  0
  2  3  1  0  0  0  0
  2  4  1  0  0  0  0
  4  5  1  0  0  0  0
  5  6  1  0  0  0  0
  5  7  2  0  0  0  0
  6  8  1  0  0  0  0
  6 11  2  0  0  0  0
  9  8  1  6  0  0  0
  9 10  1  0  0  0  0
  9 13  1  0  0  0  0
 10 12  1  0  0  0  0
 11 12  1  0  0  0  0
 13 14  1  1  0  0  0
 13 15  1  0  0  0  0
 15 16  1  6  0  0  0
 15 17  1  0  0  0  0
M  END
>  <CHROM.1>
169.44869497,167.62477011,-4.33619603,-28.64553793,29.32697542,1.04570595
-0.38904272,-2.42754368

>  <Name>
ligand

>  <RI>
0

>  <Rbt.Current_Directory>
/home/itssahil/PROJECTS/Mol_Feturizer/New_Systems/rnas/4LVX

>  <Rbt.Executable>
rbdock ($Id: //depot/dev/client3/rdock/2013.1/src/exe/rbdock.cxx#4 $)

>  <Rbt.Library>
libRbt.so (2013.1, Build901 2013/11/27)

>  <Rbt.Parameter_File>
/export/apps/rDock/src/rDock_2013.1_src/data/scripts/dock_solv.prm

>  <Rbt.Receptor>
prm/blind_docking_60.prm

>  <SCORE>
-13.3264

>  <SCORE.INTER>
-7.25035

>  <SCORE.INTER.CONST>
1

>  <SCORE.INTER.POLAR>
0

>  <SCORE.INTER.ROT>
2

>  <SCORE.INTER.SOLV>
28.4112

>  <SCORE.INTER.VDW>
-19.2373

>  <SCORE.INTER.norm>
-0.426491

>  <SCORE.INTRA>
-6.16377

>  <SCORE.INTRA.DIHEDRAL>
-9.22132

>  <SCORE.INTRA.DIHEDRAL.0>
10.3255

>  <SCORE.INTRA.POLAR>
0

>  <SCORE.INTRA.POLAR.0>
0

>  <SCORE.INTRA.REPUL>
0

>  <SCORE.INTRA.REPUL.0>
0

>  <SCORE.INTRA.SOLV>
-0.599359

>  <SCORE.INTRA.SOLV.lig_0>
-53.4755

>  <SCORE.INTRA.VDW>
-1.25343

>  <SCORE.INTRA.VDW.0>
2.32763

>  <SCORE.INTRA.norm>
-0.362575

>  <SCORE.RESTR>
0.0877017

>  <SCORE.RESTR.CAVITY>
0.0877017

>  <SCORE.RESTR.norm>
0.00515892

>  <SCORE.SYSTEM>
0

>  <SCORE.SYSTEM.CONST>
0

>  <SCORE.SYSTEM.DIHEDRAL>
0

>  <SCORE.SYSTEM.SOLV>
0

>  <SCORE.SYSTEM.norm>
0

>  <SCORE.heavy>
17

>  <SCORE.norm>
-0.783907

>  <RMSD>
35.975

$$$$
ligand
 OpenBabel11021811503D
libRbt.so/2013.1/901 2013/11/27
 17 18  0  0  0  0  0  0  0  0999 V2000
    0.5957  -30.0045   27.0160 N   0  0  0  0  0  0  0  0  0  0  0  0
    0.7314  -31.0447   26.0878 C   0  0  0  0  0  0  0  0  0  0  0  0
    2.0326  -31.5755   25.8008 N   0  0  0  0  0  0  0  0  0  0  0  0
   -0.3634  -31.5805   25.4447 N   0  0  0  0  0  0  0  0  0  0  0  0
   -1.6349  -31.1048   25.6899 C   0  0  0  0  0  0  0  0  0  0  0  0
   -1.8321  -30.0396   26.6235 C   0  0  0  0  0  0  0  0  0  0  0  0
   -2.5890  -31.5894   25.1117 O   0  0  0  0  0  0  0  0  0  0  0  0
   -3.1620  -29.5055   26.9060 N   0  0  0  0  0  0  0  0  0  0  0  0
   -3.3374  -28.5881   27.9746 C   0  0  2  0  0  0  0  0  0  0  0  0
   -2.0829  -27.7201   28.2601 C   0  0  0  0  0  0  0  0  0  0  0  0
   -0.6859  -29.5023   27.2833 C   0  0  0  0  0  0  0  0  0  0  0  0
   -0.8646  -28.4053   28.2524 N   0  0  0  0  0  0  0  0  0  0  0  0
   -3.8248  -29.3633   29.1851 C   0  0  1  0  0  0  0  0  0  0  0  0
   -3.5863  -28.6531   30.3449 O   0  0  0  0  0  0  0  0  0  0  0  0
   -5.2858  -29.6737   29.0515 C   0  0  1  0  0  0  0  0  0  0  0  0
   -5.5181  -30.3897   27.9423 O   0  0  0  0  0  0  0  0  0  0  0  0
   -5.7955  -30.4841   30.2623 C   0  0  0  0  0  0  0  0  0  0  0  0
  1  2  2  0  0  0  0
  1 11  1  0  0  0  0
  2  3  1  0  0  0  0
  2  4  1  0  0  0  0
  4  5  1  0  0  0  0
  5  6  1  0  0  0  0
  5  7  2  0  0  0  0
  6  8  1  0  0  0  0
  6 11  2  0  0  0  0
  9  8  1  6  0  0  0
  9 10  1  0  0  0  0
  9 13  1  0  0  0  0
 10 12  1  0  0  0  0
 11 12  1  0  0  0  0
 13 14  1  1  0  0  0
 13 15  1  0  0  0  0
 15 16  1  6  0  0  0
 15 17  1  0  0  0  0
M  END
>  <CHROM.1>
159.66813859,58.81512010,-2.26849394,-29.95651791,27.52522504,-0.57968448
0.23387770,0.82253529

>  <Name>
ligand

>  <RI>
0

>  <Rbt.Current_Directory>
/home/itssahil/PROJECTS/Mol_Feturizer/New_Systems/rnas/4LVX

>  <Rbt.Executable>
rbdock ($Id: //depot/dev/client3/rdock/2013.1/src/exe/rbdock.cxx#4 $)

>  <Rbt.Library>
libRbt.so (2013.1, Build901 2013/11/27)

>  <Rbt.Parameter_File>
/export/apps/rDock/src/rDock_2013.1_src/data/scripts/dock_solv.prm

>  <Rbt.Receptor>
prm/blind_docking_100.prm

>  <SCORE>
-15.7072

>  <SCORE.INTER>
-9.45527

>  <SCORE.INTER.CONST>
1

>  <SCORE.INTER.POLAR>
0

>  <SCORE.INTER.ROT>
2

>  <SCORE.INTER.SOLV>
21.9537

>  <SCORE.INTER.VDW>
-18.5547

>  <SCORE.INTER.norm>
-0.556192

>  <SCORE.INTRA>
-6.25193

>  <SCORE.INTRA.DIHEDRAL>
-8.83339

>  <SCORE.INTRA.DIHEDRAL.0>
10.3255

>  <SCORE.INTRA.POLAR>
0

>  <SCORE.INTRA.POLAR.0>
0

>  <SCORE.INTRA.REPUL>
0

>  <SCORE.INTRA.REPUL.0>
0

>  <SCORE.INTRA.SOLV>
-0.1662

>  <SCORE.INTRA.SOLV.lig_0>
-53.4755

>  <SCORE.INTRA.VDW>
-1.75214

>  <SCORE.INTRA.VDW.0>
2.32763

>  <SCORE.INTRA.norm>
-0.367761

>  <SCORE.RESTR>
0

>  <SCORE.RESTR.CAVITY>
0

>  <SCORE.RESTR.norm>
0

>  <SCORE.SYSTEM>
0

>  <SCORE.SYSTEM.CONST>
0

>  <SCORE.SYSTEM.DIHEDRAL>
0

>  <SCORE.SYSTEM.SOLV>
0

>  <SCORE.SYSTEM.norm>
0

>  <SCORE.heavy>
17

>  <SCORE.norm>
-0.923953

>  <RMSD>
36.757

$$$$
ligand
 OpenBabel11021811503D
libRbt.so/2013.1/901 2013/11/27
 17 18  0  0  0  0  0  0  0  0999 V2000
    0.5975  -30.0569   27.0094 N   0  0  0  0  0  0  0  0  0  0  0  0
    0.7176  -31.0916   26.0729 C   0  0  0  0  0  0  0  0  0  0  0  0
    2.0108  -31.6392   25.7812 N   0  0  0  0  0  0  0  0  0  0  0  0
   -0.3852  -31.6063   25.4261 N   0  0  0  0  0  0  0  0  0  0  0  0
   -1.6494  -31.1139   25.6756 C   0  0  0  0  0  0  0  0  0  0  0  0
   -1.8306  -30.0533   26.6176 C   0  0  0  0  0  0  0  0  0  0  0  0
   -2.6107  -31.5798   25.0940 O   0  0  0  0  0  0  0  0  0  0  0  0
   -3.1525  -29.5020   26.9050 N   0  0  0  0  0  0  0  0  0  0  0  0
   -3.3141  -28.5906   27.9809 C   0  0  2  0  0  0  0  0  0  0  0  0
   -2.0469  -27.7434   28.2727 C   0  0  0  0  0  0  0  0  0  0  0  0
   -0.6765  -29.5381   27.2812 C   0  0  0  0  0  0  0  0  0  0  0  0
   -0.8387  -28.4463   28.2590 N   0  0  0  0  0  0  0  0  0  0  0  0
   -3.8124  -29.3681   29.1854 C   0  0  1  0  0  0  0  0  0  0  0  0
   -3.5797  -28.6624   30.3491 O   0  0  0  0  0  0  0  0  0  0  0  0
   -5.2734  -29.6734   29.0406 C   0  0  1  0  0  0  0  0  0  0  0  0
   -5.4999  -30.3874   27.9289 O   0  0  0  0  0  0  0  0  0  0  0  0
   -5.7949  -30.4832   30.2467 C   0  0  0  0  0  0  0  0  0  0  0  0
  1  2  2  0  0  0  0
  1 11  1  0  0  0  0
  2  3  1  0  0  0  0
  2  4  1  0  0  0  0
  4  5  1  0  0  0  0
  5  6  1  0  0  0  0
  5  7  2  0  0  0  0
  6  8  1  0  0  0  0
  6 11  2  0  0  0  0
  9  8  1  6  0  0  0
  9 10  1  0  0  0  0
  9 13  1  0  0  0  0
 10 12  1  0  0  0  0
 11 12  1  0  0  0  0
 13 14  1  1  0  0  0
 13 15  1  0  0  0  0
 15 16  1  6  0  0  0
 15 17  1  0  0  0  0
M  END
>  <CHROM.1>
160.49441863,58.94270485,-2.26469798,-29.97420638,27.51865589,-0.58897220
0.22623335,0.82975107

>  <Name>
ligand

>  <RI>
0

>  <Rbt.Current_Directory>
/home/itssahil/PROJECTS/Mol_Feturizer/New_Systems/rnas/4LVX

>  <Rbt.Executable>
rbdock ($Id: //depot/dev/client3/rdock/2013.1/src/exe/rbdock.cxx#4 $)

>  <Rbt.Library>
libRbt.so (2013.1, Build901 2013/11/27)

>  <Rbt.Parameter_File>
/export/apps/rDock/src/rDock_2013.1_src/data/scripts/dock_solv.prm

>  <Rbt.Receptor>
prm/blind_docking_100.prm

>  <SCORE>
-15.7694

>  <SCORE.INTER>
-9.46098

>  <SCORE.INTER.CONST>
1

>  <SCORE.INTER.POLAR>
0

>  <SCORE.INTER.ROT>
2

>  <SCORE.INTER.SOLV>
22.0023

>  <SCORE.INTER.VDW>
-18.5748

>  <SCORE.INTER.norm>
-0.556528

>  <SCORE.INTRA>
-6.30842

>  <SCORE.INTRA.DIHEDRAL>
-8.93078

>  <SCORE.INTRA.DIHEDRAL.0>
10.3255

>  <SCORE.INTRA.POLAR>
0

>  <SCORE.INTRA.POLAR.0>
0

>  <SCORE.INTRA.REPUL>
0

>  <SCORE.INTRA.REPUL.0>
0

>  <SCORE.INTRA.SOLV>
-0.162201

>  <SCORE.INTRA.SOLV.lig_0>
-53.4755

>  <SCORE.INTRA.VDW>
-1.76193

>  <SCORE.INTRA.VDW.0>
2.32763

>  <SCORE.INTRA.norm>
-0.371083

>  <SCORE.RESTR>
0

>  <SCORE.RESTR.CAVITY>
0

>  <SCORE.RESTR.norm>
0

>  <SCORE.SYSTEM>
0

>  <SCORE.SYSTEM.CONST>
0

>  <SCORE.SYSTEM.DIHEDRAL>
0

>  <SCORE.SYSTEM.SOLV>
0

>  <SCORE.SYSTEM.norm>
0

>  <SCORE.heavy>
17

>  <SCORE.norm>
-0.927612

>  <RMSD>
36.774

$$$$
