@<TRIPOS>MOLECULE
4LVX_rdock.pdb
 1913 2142 0 0 0
SMALL
GASTEIGER

@<TRIPOS>ATOM
      1  P         11.2470  -45.3050   26.0510 P.3     1  G1          0.1280
      2  C5'       13.1090  -44.1740   24.5630 C.3     1  G1          0.1795
      3  O5'       11.7540  -44.5770   24.7210 O.3     1  G1         -0.3259
      4  C4'       13.6660  -44.5770   23.2140 C.3     1  G1          0.1772
      5  O4'       13.1100  -45.8610   22.8190 O.3     1  G1         -0.3307
      6  C3'       13.3490  -43.6520   22.0430 C.3     1  G1          0.1860
      7  O3'       14.2420  -42.5570   21.9520 O.3     1  G1         -0.3112
      8  C2'       13.4310  -44.5870   20.8450 C.3     1  G1          0.2309
      9  O2'       14.7860  -44.8170   20.4870 O.3     1  G1         -0.2156
     10  C1'       12.8600  -45.8760   21.4320 C.3     1  G1          0.2408
     11  N1         8.9250  -45.9190   18.1860 N.ar    1  G1         -0.1709
     12  C2        10.2670  -45.7880   17.9170 C.ar    1  G1          0.2606
     13  N2        10.6140  -45.6550   16.6270 N.pl3   1  G1         -0.0859
     14  N3        11.2120  -45.7880   18.8400 N.ar    1  G1         -0.1918
     15  C4        10.6910  -45.9340   20.0750 C.ar    1  G1          0.1723
     16  C5         9.3690  -46.0710   20.4470 C.ar    1  G1          0.1748
     17  C6         8.3680  -46.0600   19.4490 C.ar    1  G1          0.3023
     18  O6         7.1430  -46.1770   19.5840 O.2     1  G1         -0.2633
     19  N7         9.2530  -46.1920   21.8260 N.ar    1  G1         -0.2173
     20  C8        10.4830  -46.1310   22.2590 C.ar    1  G1          0.1817
     21  N9        11.4020  -45.9710   21.2500 N.ar    1  G1         -0.2693
     22  OP1       12.4190  -45.5860   26.9150 O.3     1  G1         -0.1955
     23  OP2       10.0970  -44.5360   26.5930 O.co2   1  G1         -0.7863
     24  P         13.6850  -41.0850   21.6200 P.3     2  G2          0.2141
     25  C5'       14.3430  -41.4610   19.1090 C.3     2  G2          0.1812
     26  O5'       13.3470  -41.1330   20.0660 O.3     2  G2         -0.3114
     27  C4'       13.7670  -41.4530   17.7190 C.3     2  G2          0.1773
     28  O4'       12.9010  -42.6020   17.5500 O.3     2  G2         -0.3307
     29  C3'       12.8710  -40.2660   17.4010 C.3     2  G2          0.1860
     30  O3'       13.5970  -39.1080   17.0250 O.3     2  G2         -0.3112
     31  C2'       11.9700  -40.8110   16.3030 C.3     2  G2          0.2309
     32  O2'       12.6530  -40.8330   15.0620 O.3     2  G2         -0.2156
     33  C1'       11.7770  -42.2490   16.7680 C.3     2  G2          0.2408
     34  N1         6.7370  -42.7980   16.7850 N.ar    2  G2         -0.1709
     35  C2         7.6010  -42.6600   15.7230 C.ar    2  G2          0.2606
     36  N2         7.0420  -42.6790   14.5030 N.pl3   2  G2         -0.0859
     37  N3         8.9120  -42.5170   15.8490 N.ar    2  G2         -0.1918
     38  C4         9.2890  -42.5250   17.1460 C.ar    2  G2          0.1723
     39  C5         8.5080  -42.6560   18.2770 C.ar    2  G2          0.1748
     40  C6         7.1040  -42.8040   18.1280 C.ar    2  G2          0.3023
     41  O6         6.2330  -42.9420   18.9940 O.2     2  G2         -0.2633
     42  N7         9.2970  -42.6150   19.4150 N.ar    2  G2         -0.2173
     43  C8        10.5160  -42.4600   18.9700 C.ar    2  G2          0.1817
     44  N9        10.5750  -42.3980   17.6010 N.ar    2  G2         -0.2693
     45  OP1       14.7940  -40.1070   21.7880 O.2     2  G2         -0.5172
     46  OP2       12.4060  -40.9340   22.3590 O.co2   2  G2         -0.4373
     47  P         12.9750  -37.6430   17.2620 P.3     3  A3          0.2141
     48  C5'       11.7520  -37.4710   14.9590 C.3     3  A3          0.1812
     49  O5'       11.6540  -37.6190   16.3670 O.3     3  A3         -0.3114
     50  C4'       10.4270  -37.6460   14.2540 C.3     3  A3          0.1773
     51  O4'        9.8090  -38.9120   14.6170 O.3     3  A3         -0.3307
     52  C3'        9.3350  -36.6360   14.5550 C.3     3  A3          0.1860
     53  O3'        9.5280  -35.3620   13.9600 O.3     3  A3         -0.3112
     54  C2'        8.0980  -37.3660   14.0560 C.3     3  A3          0.2309
     55  O2'        8.0650  -37.3700   12.6370 O.3     3  A3         -0.2156
     56  C1'        8.3990  -38.7900   14.5230 C.3     3  A3          0.2408
     57  N1         4.0560  -40.0130   17.0080 N.ar    3  A3         -0.2040
     58  C2         4.3450  -39.8350   15.7070 C.ar    3  A3          0.2016
     59  N3         5.5050  -39.5190   15.1270 N.ar    3  A3         -0.2048
     60  C4         6.4660  -39.3710   16.0590 C.ar    3  A3          0.1692
     61  C5         6.3220  -39.5110   17.4330 C.ar    3  A3          0.1518
     62  C6         5.0460  -39.8520   17.9180 C.ar    3  A3          0.1919
     63  N6         4.7560  -40.0200   19.2120 N.pl3   3  A3         -0.1054
     64  N7         7.5280  -39.2800   18.0740 N.ar    3  A3         -0.2193
     65  C8         8.3570  -39.0050   17.0870 C.ar    3  A3          0.1816
     66  N9         7.7860  -39.0550   15.8400 N.ar    3  A3         -0.2693
     67  OP1       13.9510  -36.7070   16.6480 O.2     3  A3         -0.5172
     68  OP2       12.5970  -37.4900   18.6940 O.co2   3  A3         -0.4373
     69  P          8.9200  -34.0570   14.6820 P.3     4  G4          0.2141
     70  C5'        6.7140  -34.1840   13.2930 C.3     4  G4          0.1812
     71  O5'        7.3380  -34.2440   14.5640 O.3     4  G4         -0.3114
     72  C4'        5.3080  -34.7340   13.3000 C.3     4  G4          0.1773
     73  O4'        5.2350  -35.9750   14.0450 O.3     4  G4         -0.3307
     74  C3'        4.2310  -33.8750   13.9370 C.3     4  G4          0.1860
     75  O3'        3.8270  -32.8100   13.0970 O.3     4  G4         -0.3112
     76  C2'        3.1230  -34.8880   14.1890 C.3     4  G4          0.2309
     77  O2'        2.4280  -35.1780   12.9860 O.3     4  G4         -0.2156
     78  C1'        3.9310  -36.1300   14.5740 C.3     4  G4          0.2408
     79  N1         1.4750  -37.5190   18.8340 N.ar    4  G4         -0.1709
     80  C2         1.0140  -37.4460   17.5390 C.ar    4  G4          0.2606
     81  N2        -0.2710  -37.8030   17.3840 N.pl3   4  G4         -0.0859
     82  N3         1.7410  -37.0590   16.4930 N.ar    4  G4         -0.1918
     83  C4         3.0030  -36.7510   16.8620 C.ar    4  G4          0.1723
     84  C5         3.5600  -36.7980   18.1250 C.ar    4  G4          0.1748
     85  C6         2.7680  -37.2040   19.2260 C.ar    4  G4          0.3023
     86  O6         3.0960  -37.3010   20.4150 O.2     4  G4         -0.2633
     87  N7         4.8890  -36.3980   18.0970 N.ar    4  G4         -0.2173
     88  C8         5.1160  -36.1310   16.8360 C.ar    4  G4          0.1817
     89  N9         4.0140  -36.3220   16.0360 N.ar    4  G4         -0.2693
     90  OP1        9.2840  -32.8700   13.8660 O.2     4  G4         -0.5172
     91  OP2        9.3050  -34.1180   16.1190 O.co2   4  G4         -0.4373
     92  P          3.2230  -31.4560   13.7190 P.3     5  A5          0.2141
     93  C5'        0.8460  -32.2670   12.9350 C.3     5  A5          0.1812
     94  O5'        1.6860  -31.7920   13.9740 O.3     5  A5         -0.3114
     95  C4'       -0.4860  -32.6890   13.4990 C.3     5  A5          0.1773
     96  O4'       -0.2870  -33.8110   14.3900 O.3     5  A5         -0.3307
     97  C3'       -1.1860  -31.6390   14.3510 C.3     5  A5          0.1860
     98  O3'       -1.9840  -30.7740   13.5620 O.3     5  A5         -0.3112
     99  C2'       -2.0080  -32.4630   15.3330 C.3     5  A5          0.2309
    100  O2'       -3.2480  -32.8310   14.7520 O.3     5  A5         -0.2156
    101  C1'       -1.1560  -33.7220   15.4930 C.3     5  A5          0.2408
    102  N1        -0.9090  -35.1360   20.4300 N.ar    5  A5         -0.2040
    103  C2        -1.8930  -35.2090   19.5300 C.ar    5  A5          0.2016
    104  N3        -1.8950  -34.8150   18.2630 N.ar    5  A5         -0.2048
    105  C4        -0.7070  -34.2800   17.9330 C.ar    5  A5          0.1692
    106  C5         0.3980  -34.1410   18.7490 C.ar    5  A5          0.1518
    107  C6         0.2740  -34.6020   20.0660 C.ar    5  A5          0.1919
    108  N6         1.2640  -34.5260   20.9620 N.pl3   5  A5         -0.1054
    109  N7         1.4530  -33.5440   18.0760 N.ar    5  A5         -0.2193
    110  C8         0.9680  -33.3480   16.8680 C.ar    5  A5          0.1816
    111  N9        -0.3370  -33.7520   16.7200 N.ar    5  A5         -0.2693
    112  OP1        3.3550  -30.4320   12.6550 O.2     5  A5         -0.5172
    113  OP2        3.8210  -31.2020   15.0510 O.co2   5  A5         -0.4373
    114  P         -1.8930  -29.1820   13.7390 P.3     6  G6          0.2141
    115  C5'       -4.0400  -29.3090   15.2440 C.3     6  G6          0.1812
    116  O5'       -2.6910  -28.9030   15.0860 O.3     6  G6         -0.3114
    117  C4'       -4.3480  -29.4880   16.7050 C.3     6  G6          0.1773
    118  O4'       -3.5790  -30.6090   17.2140 O.3     6  G6         -0.3307
    119  C3'       -3.9370  -28.3340   17.6080 C.3     6  G6          0.1860
    120  O3'       -4.8500  -27.2490   17.5900 O.3     6  G6         -0.3112
    121  C2'       -3.8050  -29.0150   18.9650 C.3     6  G6          0.2309
    122  O2'       -5.0870  -29.2300   19.5360 O.3     6  G6         -0.2156
    123  C1'       -3.2230  -30.3750   18.5590 C.3     6  G6          0.2408
    124  N1         0.5610  -31.7890   21.5950 N.ar    6  G6         -0.1709
    125  C2        -0.8020  -31.9490   21.7340 C.ar    6  G6          0.2606
    126  N2        -1.2330  -32.5750   22.8460 N.pl3   6  G6         -0.0859
    127  N3        -1.6830  -31.5220   20.8400 N.ar    6  G6         -0.1918
    128  C4        -1.0890  -30.9200   19.7820 C.ar    6  G6          0.1723
    129  C5         0.2580  -30.7110   19.5440 C.ar    6  G6          0.1748
    130  C6         1.1990  -31.1780   20.5120 C.ar    6  G6          0.3023
    131  O6         2.4380  -31.1010   20.5040 O.2     6  G6         -0.2633
    132  N7         0.4300  -30.0490   18.3280 N.ar    6  G6         -0.2173
    133  C8        -0.7860  -29.8820   17.8620 C.ar    6  G6          0.1817
    134  N9        -1.7530  -30.3970   18.6930 N.ar    6  G6         -0.2693
    135  OP1       -2.6700  -28.5550   12.6340 O.2     6  G6         -0.5172
    136  OP2       -0.4680  -28.7960   13.9520 O.co2   6  G6         -0.4373
    137  P         -4.3290  -25.7420   17.8230 P.3     7  U7          0.2141
    138  C5'       -5.5810  -25.7110   20.1450 C.3     7  U7          0.1812
    139  O5'       -4.3700  -25.5610   19.4190 O.3     7  U7         -0.3114
    140  C4'       -5.5080  -25.0930   21.5250 C.3     7  U7          0.1773
    141  O4'       -4.2850  -25.4880   22.2100 O.3     7  U7         -0.3307
    142  C3'       -5.4740  -23.5770   21.6090 C.3     7  U7          0.1860
    143  O3'       -6.7230  -22.9700   21.3700 O.3     7  U7         -0.3112
    144  C2'       -4.9560  -23.3630   23.0220 C.3     7  U7          0.2309
    145  O2'       -5.9700  -23.7020   23.9600 O.3     7  U7         -0.2156
    146  C1'       -3.8780  -24.4450   23.0860 C.3     7  U7          0.2420
    147  N1        -2.5690  -23.9080   22.6400 N.ar    7  U7         -0.2534
    148  C2        -1.8780  -23.1170   23.5400 C.ar    7  U7          0.3546
    149  O2        -2.2740  -22.8600   24.6640 O.2     7  U7         -0.2443
    150  N3        -0.6840  -22.6280   23.0920 N.ar    7  U7         -0.1530
    151  C4        -0.1060  -22.8270   21.8580 C.ar    7  U7          0.2846
    152  O4         0.9890  -22.2980   21.6370 O.2     7  U7         -0.2650
    153  C5        -0.8750  -23.6430   20.9670 C.ar    7  U7          0.0814
    154  C6        -2.0510  -24.1420   21.3800 C.ar    7  U7          0.0870
    155  OP1       -5.2790  -24.7890   17.1820 O.2     7  U7         -0.5172
    156  OP2       -2.9040  -25.6630   17.4000 O.co2   7  U7         -0.4373
    157  P         -6.7640  -21.4640   20.8340 P.3     8  A8          0.2141
    158  C5'       -6.8820  -20.4340   23.2330 C.3     8  A8          0.1812
    159  O5'       -6.1550  -20.6150   22.0310 O.3     8  A8         -0.3114
    160  C4'       -6.1120  -19.5770   24.2000 C.3     8  A8          0.1773
    161  O4'       -4.7960  -20.1480   24.4190 O.3     8  A8         -0.3307
    162  C3'       -5.8200  -18.1680   23.7390 C.3     8  A8          0.1860
    163  O3'       -6.9250  -17.3020   23.9100 O.3     8  A8         -0.3112
    164  C2'       -4.6120  -17.7920   24.5820 C.3     8  A8          0.2309
    165  O2'       -5.0110  -17.4940   25.9130 O.3     8  A8         -0.2156
    166  C1'       -3.8530  -19.1170   24.6100 C.3     8  A8          0.2408
    167  N1         0.9020  -17.8290   23.1940 N.ar    8  A8         -0.2040
    168  C2         0.2000  -17.6060   24.3130 C.ar    8  A8          0.2016
    169  N3        -1.0450  -17.9730   24.6080 N.ar    8  A8         -0.2048
    170  C4        -1.5870  -18.6620   23.5920 C.ar    8  A8          0.1692
    171  C5        -0.9980  -18.9760   22.3810 C.ar    8  A8          0.1518
    172  C6         0.3240  -18.5320   22.1880 C.ar    8  A8          0.1919
    173  N6         1.0310  -18.7660   21.0720 N.pl3   8  A8         -0.1054
    174  N7        -1.8760  -19.7050   21.5800 N.ar    8  A8         -0.2193
    175  C8        -2.9590  -19.8050   22.3140 C.ar    8  A8          0.1816
    176  N9        -2.8450  -19.1950   23.5420 N.ar    8  A8         -0.2693
    177  OP1       -8.1940  -21.0950   20.6480 O.3     8  A8         -0.4373
    178  OP2       -5.7710  -21.3230   19.7370 O.co2   8  A8         -0.5172
    179  P         -7.2100  -16.1590   22.8200 P.3     9  G9          0.2141
    180  C5'       -5.4080  -14.4830   21.9390 C.3     9  G9          0.1812
    181  O5'       -6.0210  -15.1300   23.0390 O.3     9  G9         -0.3114
    182  C4'       -3.9140  -14.4400   22.1090 C.3     9  G9          0.1773
    183  O4'       -3.3810  -15.7900   22.0470 O.3     9  G9         -0.3307
    184  C3'       -3.1550  -13.6940   21.0300 C.3     9  G9          0.1860
    185  O3'       -3.1370  -12.2990   21.2430 O.3     9  G9         -0.3112
    186  C2'       -1.7800  -14.3420   21.0850 C.3     9  G9          0.2309
    187  O2'       -1.0390  -13.8690   22.1990 O.3     9  G9         -0.2156
    188  C1'       -2.1550  -15.7910   21.3470 C.3     9  G9          0.2408
    189  N1        -0.0120  -17.5680   17.0700 N.ar    9  G9         -0.1709
    190  C2         0.5550  -16.8550   18.0970 C.ar    9  G9          0.2606
    191  N2         1.8600  -16.5830   17.9650 N.pl3   9  G9         -0.0859
    192  N3        -0.0990  -16.4260   19.1700 N.ar    9  G9         -0.1918
    193  C4        -1.3970  -16.7940   19.1300 C.ar    9  G9          0.1723
    194  C5        -2.0590  -17.5060   18.1550 C.ar    9  G9          0.1748
    195  C6        -1.3490  -17.9480   17.0130 C.ar    9  G9          0.3023
    196  O6        -1.7870  -18.5860   16.0500 O.2     9  G9         -0.2633
    197  N7        -3.3930  -17.6810   18.4860 N.ar    9  G9         -0.2173
    198  C8        -3.5220  -17.0760   19.6380 C.ar    9  G9          0.1817
    199  N9        -2.3500  -16.5270   20.0860 N.ar    9  G9         -0.2693
    200  OP1       -8.4870  -15.4710   23.1460 O.3     9  G9         -0.4373
    201  OP2       -7.0240  -16.7900   21.4890 O.co2   9  G9         -0.5172
    202  P         -3.1230  -11.3000   19.9910 P.3    10  A10         0.2141
    203  C5'       -0.5010  -11.2740   20.0180 C.3    10  A10         0.1812
    204  O5'       -1.7060  -11.5750   19.3310 O.3    10  A10        -0.3114
    205  C4'        0.6730  -11.5310   19.1200 C.3    10  A10         0.1773
    206  O4'        0.7450  -12.9500   18.8200 O.3    10  A10        -0.3307
    207  C3'        0.5650  -10.8690   17.7590 C.3    10  A10         0.1860
    208  O3'        1.0000   -9.5270   17.7900 O.3    10  A10        -0.3112
    209  C2'        1.4020  -11.7770   16.8690 C.3    10  A10         0.2309
    210  O2'        2.7800  -11.5170   17.0710 O.3    10  A10        -0.2156
    211  C1'        1.0900  -13.1440   17.4650 C.3    10  A10         0.2408
    212  N1        -0.4600  -15.8650   13.3710 N.ar   10  A10        -0.2040
    213  C2         0.7260  -15.3470   13.7130 C.ar   10  A10         0.2016
    214  N3         1.0620  -14.6430   14.7860 N.ar   10  A10        -0.2048
    215  C4        -0.0000  -14.4860   15.5900 C.ar   10  A10         0.1692
    216  C5        -1.2820  -14.9620   15.3770 C.ar   10  A10         0.1518
    217  C6        -1.5150  -15.6910   14.1940 C.ar   10  A10         0.1919
    218  N6        -2.7010  -16.2170   13.8470 N.pl3  10  A10        -0.1054
    219  N7        -2.1140  -14.5990   16.4260 N.ar   10  A10        -0.2193
    220  C8        -1.3290  -13.9290   17.2330 C.ar   10  A10         0.1816
    221  N9        -0.0370  -13.8170   16.7900 N.ar   10  A10        -0.2693
    222  OP1       -3.1290   -9.9180   20.5200 O.3    10  A10        -0.4373
    223  OP2       -4.1600  -11.7450   19.0290 O.co2  10  A10        -0.5172
    224  P          0.2550   -8.4240   16.8930 P.3    11  U11         0.2141
    225  C5'        2.1610   -8.3550   15.1060 C.3    11  U11         0.1812
    226  O5'        0.8220   -8.6880   15.4290 O.3    11  U11        -0.3114
    227  C4'        2.5740   -8.9820   13.8030 C.3    11  U11         0.1773
    228  O4'        2.3770  -10.4170   13.8640 O.3    11  U11        -0.3307
    229  C3'        1.7680   -8.5720   12.5880 C.3    11  U11         0.1860
    230  O3'        2.1040   -7.2940   12.0890 O.3    11  U11        -0.3112
    231  C2'        2.0490   -9.7090   11.6240 C.3    11  U11         0.2309
    232  O2'        3.3580   -9.5870   11.0930 O.3    11  U11        -0.2156
    233  C1'        2.0310  -10.9030   12.5800 C.3    11  U11         0.2420
    234  N1         0.6870  -11.5180   12.6410 N.ar   11  U11        -0.2534
    235  C2         0.3300  -12.3350   11.5980 C.ar   11  U11         0.3546
    236  O2         1.0800  -12.5700   10.6670 O.2    11  U11        -0.2443
    237  N3        -0.9270  -12.8780   11.6790 N.ar   11  U11        -0.1530
    238  C4        -1.8480  -12.6730   12.6810 C.ar   11  U11         0.2846
    239  O4        -2.9410  -13.2340   12.6200 O.2    11  U11        -0.2650
    240  C5        -1.4080  -11.8110   13.7260 C.ar   11  U11         0.0814
    241  C6        -0.1870  -11.2720   13.6690 C.ar   11  U11         0.0870
    242  OP1        0.7320   -7.1110   17.3610 O.3    11  U11        -0.4373
    243  OP2       -1.1940   -8.7590   16.8080 O.co2  11  U11        -0.5172
    244  P          0.9360   -6.3460   11.5310 P.3    12  G12         0.2141
    245  C5'        1.6250   -7.0250    9.0900 C.3    12  G12         0.1812
    246  O5'        0.6180   -6.9540   10.0890 O.3    12  G12        -0.3114
    247  C4'        1.2360   -7.9470    7.9610 C.3    12  G12         0.1773
    248  O4'        1.0010   -9.2800    8.4730 O.3    12  G12        -0.3307
    249  C3'       -0.0480   -7.6200    7.2190 C.3    12  G12         0.1860
    250  O3'        0.0990   -6.5690    6.2820 O.3    12  G12        -0.3112
    251  C2'       -0.4050   -8.9570    6.5860 C.3    12  G12         0.2309
    252  O2'        0.3990   -9.1980    5.4430 O.3    12  G12        -0.2156
    253  C1'        0.0200   -9.9270    7.6870 C.3    12  G12         0.2408
    254  N1        -4.3500  -12.4510    8.0700 N.ar   12  G12        -0.1709
    255  C2        -3.5060  -12.3520    6.9950 C.ar   12  G12         0.2606
    256  N2        -3.9020  -13.0210    5.9020 N.pl3  12  G12        -0.0859
    257  N3        -2.3780  -11.6600    7.0040 N.ar   12  G12        -0.1918
    258  C4        -2.1750  -11.0730    8.2060 C.ar   12  G12         0.1723
    259  C5        -2.9570  -11.1160    9.3400 C.ar   12  G12         0.1748
    260  C6        -4.1560  -11.8620    9.3130 C.ar   12  G12         0.3023
    261  O6        -4.9880  -12.0250   10.2150 O.2    12  G12        -0.2633
    262  N7        -2.3950  -10.3740   10.3670 N.ar   12  G12        -0.2173
    263  C8        -1.2980   -9.8950    9.8550 C.ar   12  G12         0.1817
    264  N9        -1.1090  -10.2880    8.5540 N.ar   12  G12        -0.2693
    265  OP1        1.4770   -4.9680   11.4340 O.2    12  G12        -0.5172
    266  OP2       -0.2750   -6.5780   12.3570 O.co2  12  G12        -0.4373
    267  P         -1.1520   -5.6230    5.9380 P.3    13  A13         0.2141
    268  C5'       -1.6060   -7.0780    3.7980 C.3    13  A13         0.1812
    269  O5'       -2.0880   -6.5330    5.0200 O.3    13  A13        -0.3114
    270  C4'       -2.6210   -7.9840    3.1420 C.3    13  A13         0.1773
    271  O4'       -2.8230   -9.1800    3.9410 O.3    13  A13        -0.3307
    272  C3'       -4.0190   -7.4140    2.9740 C.3    13  A13         0.1860
    273  O3'       -4.1280   -6.5370    1.8630 O.3    13  A13        -0.3112
    274  C2'       -4.8730   -8.6700    2.8560 C.3    13  A13         0.2309
    275  O2'       -4.7650   -9.2260    1.5550 O.3    13  A13        -0.2156
    276  C1'       -4.1690   -9.6080    3.8390 C.3    13  A13         0.2408
    277  N1        -7.7890  -11.2820    7.2530 N.ar   13  A13        -0.2040
    278  C2        -7.5760  -11.6050    5.9680 C.ar   13  A13         0.2016
    279  N3        -6.6410  -11.1550    5.1230 N.ar   13  A13        -0.2048
    280  C4        -5.8360  -10.2480    5.7210 C.ar   13  A13         0.1692
    281  C5        -5.9370   -9.8210    7.0400 C.ar   13  A13         0.1518
    282  C6        -6.9670  -10.3720    7.8310 C.ar   13  A13         0.1919
    283  N6        -7.1680  -10.0450    9.1110 N.pl3  13  A13        -0.1054
    284  N7        -4.9510   -8.8910    7.3320 N.ar   13  A13        -0.2193
    285  C8        -4.2860   -8.7730    6.2120 C.ar   13  A13         0.1816
    286  N9        -4.7600   -9.5550    5.1910 N.ar   13  A13        -0.2693
    287  OP1       -0.6400   -4.4920    5.1300 O.2    13  A13        -0.5172
    288  OP2       -1.8770   -5.3420    7.2040 O.co2  13  A13        -0.4373
    289  P         -5.1480   -5.2900    1.8930 P.3    14  U14         0.2141
    290  C5'       -6.9300   -6.7080    0.6270 C.3    14  U14         0.1812
    291  O5'       -6.5820   -5.9740    1.7860 O.3    14  U14        -0.3114
    292  C4'       -8.1530   -7.5600    0.8420 C.3    14  U14         0.1773
    293  O4'       -7.9160   -8.5300    1.8960 O.3    14  U14        -0.3307
    294  C3'       -9.4050   -6.8390    1.3020 C.3    14  U14         0.1860
    295  O3'      -10.0650   -6.1380    0.2660 O.3    14  U14        -0.3112
    296  C2'      -10.2190   -7.9750    1.8980 C.3    14  U14         0.2309
    297  O2'      -10.7680   -8.7890    0.8700 O.3    14  U14        -0.2156
    298  C1'       -9.1210   -8.7760    2.5940 C.3    14  U14         0.2420
    299  N1        -8.9470   -8.3600    4.0070 N.ar   14  U14        -0.2534
    300  C2        -9.8870   -8.8130    4.9100 C.ar   14  U14         0.3546
    301  O2       -10.8220   -9.5230    4.5790 O.2    14  U14        -0.2443
    302  N3        -9.6920   -8.4040    6.2130 N.ar   14  U14        -0.1530
    303  C4        -8.6700   -7.6090    6.6850 C.ar   14  U14         0.2846
    304  O4        -8.6380   -7.3370    7.8830 O.2    14  U14        -0.2650
    305  C5        -7.7330   -7.1710    5.6950 C.ar   14  U14         0.0814
    306  C6        -7.9020   -7.5590    4.4220 C.ar   14  U14         0.0870
    307  OP1       -4.9150   -4.5040    0.6560 O.2    14  U14        -0.5172
    308  OP2       -5.0540   -4.5910    3.1950 O.co2  14  U14        -0.4373
    309  P        -10.7850   -4.7400    0.5860 P.3    15  U15         0.2141
    310  C5'      -13.0370   -6.0400    0.8230 C.3    15  U15         0.1812
    311  O5'      -12.0830   -5.1660    1.4000 O.3    15  U15        -0.3114
    312  C4'      -13.9690   -6.6180    1.8570 C.3    15  U15         0.1773
    313  O4'      -13.2160   -7.3630    2.8490 O.3    15  U15        -0.3307
    314  C3'      -14.7610   -5.6210    2.6850 C.3    15  U15         0.1860
    315  O3'      -15.8830   -5.0960    2.0000 O.3    15  U15        -0.3112
    316  C2'      -15.1240   -6.4400    3.9140 C.3    15  U15         0.2309
    317  O2'      -16.1730   -7.3480    3.6120 O.3    15  U15        -0.2156
    318  C1'      -13.8470   -7.2540    4.1090 C.3    15  U15         0.2420
    319  N1       -12.9120   -6.6100    5.0610 N.ar   15  U15        -0.2534
    320  C2       -13.1660   -6.7790    6.4100 C.ar   15  U15         0.3546
    321  O2       -14.1170   -7.4180    6.8310 O.2    15  U15        -0.2443
    322  N3       -12.2650   -6.1750    7.2550 N.ar   15  U15        -0.1530
    323  C4       -11.1590   -5.4470    6.8830 C.ar   15  U15         0.2846
    324  O4       -10.4360   -4.9660    7.7550 O.2    15  U15        -0.2650
    325  C5       -10.9610   -5.3210    5.4690 C.ar   15  U15         0.0814
    326  C6       -11.8220   -5.8960    4.6280 C.ar   15  U15         0.0870
    327  OP1      -11.2270   -4.1560   -0.7060 O.2    15  U15        -0.5172
    328  OP2       -9.8930   -3.9320    1.4600 O.co2  15  U15        -0.4373
    329  P        -16.2880   -3.5540    2.1880 P.3    16  C16         0.2141
    330  C5'      -18.3920   -4.1090    3.6550 C.3    16  C16         0.1812
    331  O5'      -17.0960   -3.5330    3.5630 O.3    16  C16        -0.3114
    332  C4'      -18.7580   -4.4520    5.0800 C.3    16  C16         0.1773
    333  O4'      -17.6930   -5.2250    5.6920 O.3    16  C16        -0.3307
    334  C3'      -18.9560   -3.2810    6.0310 C.3    16  C16         0.1860
    335  O3'      -20.2410   -2.6970    5.9160 O.3    16  C16        -0.3112
    336  C2'      -18.7160   -3.9140    7.3900 C.3    16  C16         0.2309
    337  O2'      -19.8620   -4.6440    7.7970 O.3    16  C16        -0.2156
    338  C1'      -17.6060   -4.9140    7.0680 C.3    16  C16         0.2420
    339  N1       -16.2610   -4.3630    7.3490 N.ar   16  C16        -0.2535
    340  C2       -15.8020   -4.3820    8.6690 C.ar   16  C16         0.3532
    341  O2       -16.5340   -4.8630    9.5520 O.2    16  C16        -0.2443
    342  N3       -14.5720   -3.8820    8.9440 N.ar   16  C16        -0.1739
    343  C4       -13.8160   -3.3860    7.9640 C.ar   16  C16         0.1759
    344  N4       -12.6100   -2.9080    8.2860 N.pl3  16  C16        -0.1070
    345  C5       -14.2600   -3.3520    6.6110 C.ar   16  C16         0.0566
    346  C6       -15.4780   -3.8450    6.3540 C.ar   16  C16         0.0850
    347  OP1      -17.2570   -3.2020    1.1170 O.2    16  C16        -0.5172
    348  OP2      -15.0280   -2.7760    2.3280 O.co2  16  C16        -0.4373
    349  P        -20.4640   -1.1370    6.2340 P.3    17  G17         0.2141
    350  C5'      -19.6310   -0.2310    8.5350 C.3    17  G17         0.1812
    351  O5'      -20.5100   -1.0790    7.8220 O.3    17  G17        -0.3114
    352  C4'      -19.3580   -0.7760    9.9070 C.3    17  G17         0.1773
    353  O4'      -18.1820   -1.6220    9.8820 O.3    17  G17        -0.3307
    354  C3'      -19.0450    0.2580   10.9720 C.3    17  G17         0.1860
    355  O3'      -20.2220    0.8380   11.4930 O.3    17  G17        -0.3112
    356  C2'      -18.2780   -0.5540   12.0000 C.3    17  G17         0.2309
    357  O2'      -19.1880   -1.3360   12.7590 O.3    17  G17        -0.2156
    358  C1'      -17.4790   -1.4970   11.1000 C.3    17  G17         0.2408
    359  N1       -12.9400   -0.2310   13.0190 N.ar   17  G17        -0.1709
    360  C2       -14.0680   -0.6950   13.6570 C.ar   17  G17         0.2606
    361  N2       -13.9880   -0.8420   14.9900 N.pl3  17  G17        -0.0859
    362  N3       -15.1990   -0.9950   13.0350 N.ar   17  G17        -0.1918
    363  C4       -15.1150   -0.7870   11.7070 C.ar   17  G17         0.1723
    364  C5       -14.0440   -0.3320   10.9670 C.ar   17  G17         0.1748
    365  C6       -12.8320   -0.0180   11.6440 C.ar   17  G17         0.3023
    366  O6       -11.7630    0.3970   11.1610 O.2    17  G17        -0.2633
    367  N7       -14.3720   -0.2660    9.6100 N.ar   17  G17        -0.2173
    368  C8       -15.6160   -0.6670    9.5670 C.ar   17  G17         0.1817
    369  N9       -16.1250   -0.9940   10.8020 N.ar   17  G17        -0.2693
    370  OP1      -21.8230   -0.7860    5.7480 O.2    17  G17        -0.5172
    371  OP2      -19.2830   -0.3670    5.7730 O.co2  17  G17        -0.4373
    372  P        -20.2600    2.3850   11.8910 P.3    18  C18         0.2141
    373  C5'      -19.6410    1.8790   14.3880 C.3    18  C18         0.1812
    374  O5'      -19.2980    2.4860   13.1530 O.3    18  C18        -0.3114
    375  C4'      -18.5290    2.0350   15.3900 C.3    18  C18         0.1773
    376  O4'      -17.3660    1.2960   14.9330 O.3    18  C18        -0.3307
    377  C3'      -18.0040    3.4490   15.5830 C.3    18  C18         0.1860
    378  O3'      -18.8090    4.2300   16.4470 O.3    18  C18        -0.3112
    379  C2'      -16.6080    3.2000   16.1270 C.3    18  C18         0.2309
    380  O2'      -16.6800    2.8140   17.4970 O.3    18  C18        -0.2156
    381  C1'      -16.1870    1.9830   15.3060 C.3    18  C18         0.2420
    382  N1       -15.4480    2.3660   14.0760 N.ar   18  C18        -0.2535
    383  C2       -14.0940    2.6790   14.1960 C.ar   18  C18         0.3532
    384  O2       -13.5620    2.6400   15.3160 O.2    18  C18        -0.2443
    385  N3       -13.3920    3.0280   13.1000 N.ar   18  C18        -0.1739
    386  C4       -13.9900    3.0720   11.9070 C.ar   18  C18         0.1759
    387  N4       -13.2330    3.4150   10.8630 N.pl3  18  C18        -0.1070
    388  C5       -15.3720    2.7540   11.7420 C.ar   18  C18         0.0566
    389  C6       -16.0530    2.4100   12.8470 C.ar   18  C18         0.0850
    390  OP1      -21.6430    2.6460   12.3630 O.3    18  C18        -0.4373
    391  OP2      -19.6400    3.1700   10.7920 O.co2  18  C18        -0.5172
    392  P        -18.9660    5.8040   16.2020 P.3    19  G19         0.2141
    393  C5'      -17.1290    6.1450   18.0400 C.3    19  G19         0.1812
    394  O5'      -17.6040    6.4290   16.7390 O.3    19  G19        -0.3114
    395  C4'      -15.7030    6.6000   18.2000 C.3    19  G19         0.1773
    396  O4'      -14.8240    5.7730   17.3940 O.3    19  G19        -0.3307
    397  C3'      -15.4110    8.0070   17.7210 C.3    19  G19         0.1860
    398  O3'      -15.7960    8.9950   18.6530 O.3    19  G19        -0.3112
    399  C2'      -13.9150    7.9630   17.4730 C.3    19  G19         0.2309
    400  O2'      -13.2260    7.9830   18.7170 O.3    19  G19        -0.2156
    401  C1'      -13.7630    6.5630   16.8880 C.3    19  G19         0.2408
    402  N1       -11.1820    7.3700   12.5680 N.ar   19  G19        -0.1709
    403  C2       -10.8100    7.5970   13.8700 C.ar   19  G19         0.2606
    404  N2        -9.5780    8.0830   14.0520 N.pl3  19  G19        -0.0859
    405  N3       -11.5760    7.3420   14.9210 N.ar   19  G19        -0.1918
    406  C4       -12.7760    6.8510   14.5520 C.ar   19  G19         0.1723
    407  C5       -13.2490    6.6050   13.2830 C.ar   19  G19         0.1748
    408  C6       -12.4180    6.8610   12.1690 C.ar   19  G19         0.3023
    409  O6       -12.6790    6.6770   10.9680 O.2    19  G19        -0.2633
    410  N7       -14.5380    6.1050   13.3200 N.ar   19  G19        -0.2173
    411  C8       -14.8130    6.0730   14.6020 C.ar   19  G19         0.1817
    412  N9       -13.8010    6.5210   15.4080 N.ar   19  G19        -0.2693
    413  OP1      -20.0420    6.2590   17.1170 O.3    19  G19        -0.4373
    414  OP2      -19.0380    6.0360   14.7360 O.co2  19  G19        -0.5172
    415  P        -16.3650   10.3960   18.1300 P.3    20  U20         0.2141
    416  C5'      -13.9920   11.5160   18.1530 C.3    20  U20         0.1812
    417  O5'      -15.1200   11.0770   17.4040 O.3    20  U20        -0.3114
    418  C4'      -12.8490   11.9410   17.2600 C.3    20  U20         0.1773
    419  O4'      -12.4150   10.8210   16.4360 O.3    20  U20        -0.3307
    420  C3'      -13.1700   13.0270   16.2500 C.3    20  U20         0.1860
    421  O3'      -13.1570   14.3200   16.8250 O.3    20  U20        -0.3112
    422  C2'      -12.0900   12.8190   15.1970 C.3    20  U20         0.2309
    423  O2'      -10.8500   13.3080   15.6820 O.3    20  U20        -0.2156
    424  C1'      -11.9950   11.2940   15.1700 C.3    20  U20         0.2420
    425  N1       -12.8480   10.6870   14.1280 N.ar   20  U20        -0.2534
    426  C2       -12.2940   10.5800   12.8830 C.ar   20  U20         0.3546
    427  O2       -11.1690   10.9730   12.6510 O.2    20  U20        -0.2443
    428  N3       -13.0920    9.9960   11.9350 N.ar   20  U20        -0.1530
    429  C4       -14.3730    9.5220   12.1110 C.ar   20  U20         0.2846
    430  O4       -14.9700    9.0270   11.1580 O.2    20  U20        -0.2650
    431  C5       -14.8870    9.6690   13.4370 C.ar   20  U20         0.0814
    432  C6       -14.1220   10.2360   14.3720 C.ar   20  U20         0.0870
    433  OP1      -16.6540   11.1620   19.3770 O.3    20  U20        -0.4373
    434  OP2      -17.4110   10.1630   17.1020 O.co2  20  U20        -0.5172
    435  P        -14.3150   15.3770   16.4880 P.3    21  U21         0.2141
    436  C5'      -14.6670   16.3000   18.9350 C.3    21  U21         0.1812
    437  O5'      -15.1360   15.5110   17.8490 O.3    21  U21        -0.3114
    438  C4'      -15.5280   16.0870   20.1580 C.3    21  U21         0.1773
    439  O4'      -16.8740   16.5590   19.8660 O.3    21  U21        -0.3307
    440  C3'      -15.6750   14.6230   20.5730 C.3    21  U21         0.1860
    441  O3'      -15.7960   14.5240   21.9920 O.3    21  U21        -0.3112
    442  C2'      -16.9890   14.2210   19.9110 C.3    21  U21         0.2309
    443  O2'      -17.6440   13.1260   20.5090 O.3    21  U21        -0.2156
    444  C1'      -17.8000   15.5090   20.0290 C.3    21  U21         0.2420
    445  N1       -18.8460   15.6430   19.0010 N.ar   21  U21        -0.2534
    446  C2       -20.1570   15.6080   19.4400 C.ar   21  U21         0.3546
    447  O2       -20.4410   15.5030   20.6220 O.2    21  U21        -0.2443
    448  N3       -21.1220   15.7060   18.4670 N.ar   21  U21        -0.1530
    449  C4       -20.9110   15.8400   17.1090 C.ar   21  U21         0.2846
    450  O4       -21.8810   15.9210   16.3500 O.2    21  U21        -0.2650
    451  C5       -19.5290   15.8530   16.7220 C.ar   21  U21         0.0814
    452  C6       -18.5660   15.7480   17.6570 C.ar   21  U21         0.0870
    453  OP1      -15.2940   14.8740   15.5010 O.2    21  U21        -0.5172
    454  OP2      -13.5840   16.6450   16.2680 O.co2  21  U21        -0.4373
    455  P        -14.4790   14.4580   22.9170 P.3    22  A22         0.2141
    456  C5'      -14.3450   11.9240   22.2260 C.3    22  A22         0.1812
    457  O5'      -13.6950   13.1730   22.3870 O.3    22  A22        -0.3114
    458  C4'      -13.3620   10.7790   22.2740 C.3    22  A22         0.1773
    459  O4'      -12.5920   10.7250   21.0360 O.3    22  A22        -0.3307
    460  C3'      -12.3350   10.8240   23.4170 C.3    22  A22         0.1860
    461  O3'      -12.1510    9.5020   23.9280 O.3    22  A22        -0.3112
    462  C2'      -11.0550   11.2460   22.7010 C.3    22  A22         0.2309
    463  O2'       -9.8630   10.8200   23.3250 O.3    22  A22        -0.2156
    464  C1'      -11.2350   10.5560   21.3600 C.3    22  A22         0.2408
    465  N1        -9.3430    9.3570   16.7590 N.ar   22  A22        -0.2040
    466  C2       -10.2270    8.7530   17.5640 C.ar   22  A22         0.2016
    467  N3       -10.6690    9.1450   18.7590 N.ar   22  A22        -0.2048
    468  C4       -10.1140   10.3110   19.1240 C.ar   22  A22         0.1692
    469  C5        -9.2030   11.0530   18.4060 C.ar   22  A22         0.1518
    470  C6        -8.8100   10.5310   17.1580 C.ar   22  A22         0.1919
    471  N6        -7.9330   11.1310   16.3550 N.pl3  22  A22        -0.1054
    472  N7        -8.8590   12.2080   19.1030 N.ar   22  A22        -0.2193
    473  C8        -9.5610   12.1310   20.2170 C.ar   22  A22         0.1816
    474  N9       -10.3620   11.0230   20.2810 N.ar   22  A22        -0.2693
    475  OP1      -14.8960   14.1930   24.3180 O.3    22  A22        -0.4373
    476  OP2      -13.6150   15.6230   22.6290 O.co2  22  A22        -0.5172
    477  P        -12.0430    9.2240   25.5100 P.3    23  A23         0.2141
    478  C5'      -13.3370    6.9840   25.9640 C.3    23  A23         0.1812
    479  O5'      -12.1350    7.6280   25.5770 O.3    23  A23        -0.3114
    480  C4'      -13.9000    6.1060   24.8770 C.3    23  A23         0.1773
    481  O4'      -13.8400    6.7770   23.5930 O.3    23  A23        -0.3307
    482  C3'      -13.1780    4.7970   24.6220 C.3    23  A23         0.1860
    483  O3'      -13.4500    3.8070   25.5960 O.3    23  A23        -0.3112
    484  C2'      -13.6620    4.4350   23.2280 C.3    23  A23         0.2309
    485  O2'      -14.9860    3.9340   23.2820 O.3    23  A23        -0.2156
    486  C1'      -13.7020    5.8110   22.5640 C.3    23  A23         0.2408
    487  N1       -11.0500    4.6040   18.3280 N.ar   23  A23        -0.2040
    488  C2       -12.2130    4.1660   18.8230 C.ar   23  A23         0.2016
    489  N3       -12.8330    4.5400   19.9420 N.ar   23  A23        -0.2048
    490  C4       -12.1350    5.4720   20.6000 C.ar   23  A23         0.1692
    491  C5       -10.9240    6.0180   20.2230 C.ar   23  A23         0.1518
    492  C6       -10.3700    5.5560   19.0200 C.ar   23  A23         0.1919
    493  N6        -9.2020    5.9990   18.5420 N.pl3  23  A23        -0.1054
    494  N7       -10.4980    6.9640   21.1500 N.ar   23  A23        -0.2193
    495  C8       -11.4540    6.9560   22.0550 C.ar   23  A23         0.1816
    496  N9       -12.4740    6.0820   21.7870 N.ar   23  A23        -0.2693
    497  OP1      -13.2310    9.8480   26.1440 O.3    23  A23        -0.4373
    498  OP2      -10.7020    9.6180   26.0110 O.co2  23  A23        -0.5172
    499  P        -12.2300    2.9920   26.2400 P.3    24  G24         0.2141
    500  C5'      -12.2590    1.2760   24.2510 C.3    24  G24         0.1812
    501  O5'      -11.5550    2.2580   24.9960 O.3    24  G24        -0.3114
    502  C4'      -11.5820    0.9910   22.9300 C.3    24  G24         0.1773
    503  O4'      -11.4930    2.2110   22.1370 O.3    24  G24        -0.3307
    504  C3'      -10.1440    0.5080   22.9980 C.3    24  G24         0.1860
    505  O3'      -10.0310   -0.8630   23.3400 O.3    24  G24        -0.3112
    506  C2'       -9.6430    0.8370   21.5990 C.3    24  G24         0.2309
    507  O2'      -10.2000   -0.0700   20.6610 O.3    24  G24        -0.2156
    508  C1'      -10.2950    2.2000   21.3810 C.3    24  G24         0.2408
    509  N1        -6.2350    5.0420   20.2750 N.ar   24  G24        -0.1709
    510  C2        -6.8500    4.0660   19.5270 C.ar   24  G24         0.2606
    511  N2        -6.2990    3.8250   18.3200 N.pl3  24  G24        -0.0859
    512  N3        -7.9190    3.3890   19.9350 N.ar   24  G24        -0.1918
    513  C4        -8.3260    3.7820   21.1740 C.ar   24  G24         0.1723
    514  C5        -7.7830    4.7510   21.9980 C.ar   24  G24         0.1748
    515  C6        -6.6340    5.4670   21.5440 C.ar   24  G24         0.3023
    516  O6        -5.9960    6.3680   22.1130 O.2    24  G24        -0.2633
    517  N7        -8.5070    4.8520   23.1950 N.ar   24  G24        -0.2173
    518  C8        -9.4540    3.9520   23.0660 C.ar   24  G24         0.1817
    519  N9        -9.4080    3.2800   21.8640 N.ar   24  G24        -0.2693
    520  OP1      -12.8020    1.9230   27.1180 O.3    24  G24        -0.4373
    521  OP2      -11.2400    3.9550   26.7310 O.co2  24  G24        -0.5172
    522  P         -8.7590   -1.3740   24.1770 P.3    25  U25         0.2141
    523  C5'       -7.1840   -1.5730   22.0920 C.3    25  U25         0.1812
    524  O5'       -7.5200   -0.8970   23.2960 O.3    25  U25        -0.3114
    525  C4'       -5.9460   -0.9850   21.4750 C.3    25  U25         0.1773
    526  O4'       -6.1670    0.4220   21.1830 O.3    25  U25        -0.3307
    527  C3'       -4.7190   -0.9720   22.3660 C.3    25  U25         0.1860
    528  O3'       -4.0560   -2.2130   22.4310 O.3    25  U25        -0.3112
    529  C2'       -3.8840    0.1410   21.7540 C.3    25  U25         0.2309
    530  O2'       -3.2530   -0.2950   20.5610 O.3    25  U25        -0.2156
    531  C1'       -4.9680    1.1440   21.3840 C.3    25  U25         0.2420
    532  N1        -5.1700    2.1070   22.4810 N.ar   25  U25        -0.2534
    533  C2        -4.2470    3.1250   22.5480 C.ar   25  U25         0.3546
    534  O2        -3.3400    3.2110   21.7370 O.2    25  U25        -0.2443
    535  N3        -4.4330    4.0180   23.5750 N.ar   25  U25        -0.1530
    536  C4        -5.4280    3.9760   24.5290 C.ar   25  U25         0.2846
    537  O4        -5.4640    4.8430   25.4020 O.2    25  U25        -0.2650
    538  C5        -6.3330    2.8750   24.4040 C.ar   25  U25         0.0814
    539  C6        -6.1820    2.0010   23.4050 C.ar   25  U25         0.0870
    540  OP1       -8.8210   -2.8680   24.1540 O.2    25  U25        -0.5172
    541  OP2       -8.6750   -0.6450   25.4660 O.co2  25  U25        -0.4373
    542  P         -3.4320   -2.6700   23.8330 P.3    26  G26         0.2141
    543  C5'       -1.1480   -1.6320   23.0890 C.3    26  G26         0.1812
    544  O5'       -2.2060   -1.6760   24.0340 O.3    26  G26        -0.3114
    545  C4'       -0.1840   -0.5210   23.4050 C.3    26  G26         0.1773
    546  O4'       -0.8280    0.7620   23.1920 O.3    26  G26        -0.3307
    547  C3'        0.3000   -0.4430   24.8490 C.3    26  G26         0.1860
    548  O3'        1.3180   -1.3770   25.1650 O.3    26  G26        -0.3112
    549  C2'        0.7430    1.0070   24.9510 C.3    26  G26         0.2309
    550  O2'        1.9800    1.2000   24.2820 O.3    26  G26        -0.2156
    551  C1'       -0.3550    1.6970   24.1450 C.3    26  G26         0.2408
    552  N1        -1.6000    4.7850   27.9120 N.ar   26  G26        -0.1709
    553  C2        -0.4350    4.6560   27.1910 C.ar   26  G26         0.2606
    554  N2         0.5810    5.4620   27.5130 N.pl3  26  G26        -0.0859
    555  N3        -0.2630    3.7900   26.2120 N.ar   26  G26        -0.1918
    556  C4        -1.3560    3.0430   26.0020 C.ar   26  G26         0.1723
    557  C5        -2.5660    3.0760   26.6500 C.ar   26  G26         0.1748
    558  C6        -2.7420    4.0180   27.7050 C.ar   26  G26         0.3023
    559  O6        -3.7380    4.2210   28.4110 O.2    26  G26        -0.2633
    560  N7        -3.4270    2.1290   26.0990 N.ar   26  G26        -0.2173
    561  C8        -2.7260    1.5480   25.1550 C.ar   26  G26         0.1817
    562  N9        -1.4610    2.0770   25.0360 N.ar   26  G26        -0.2693
    563  OP1       -2.9300   -4.0540   23.6570 O.2    26  G26        -0.5172
    564  OP2       -4.4230   -2.3070   24.8840 O.co2  26  G26        -0.4373
    565  P          1.3870   -2.0380   26.6380 P.3    27  U27         0.2141
    566  C5'        3.0980   -0.1940   27.3700 C.3    27  U27         0.1812
    567  O5'        1.8560   -0.8490   27.5730 O.3    27  U27        -0.3114
    568  C4'        3.3440    0.8410   28.4380 C.3    27  U27         0.1773
    569  O4'        2.3840    1.9230   28.3170 O.3    27  U27        -0.3307
    570  C3'        3.1650    0.3690   29.8720 C.3    27  U27         0.1860
    571  O3'        4.2580   -0.3790   30.3600 O.3    27  U27        -0.3112
    572  C2'        2.9310    1.6730   30.6090 C.3    27  U27         0.2309
    573  O2'        4.1510    2.3880   30.7280 O.3    27  U27        -0.2156
    574  C1'        2.0540    2.4140   29.6010 C.3    27  U27         0.2420
    575  N1         0.6070    2.1920   29.8450 N.ar   27  U27        -0.2534
    576  C2         0.0420    2.9390   30.8590 C.ar   27  U27         0.3546
    577  O2         0.6780    3.7410   31.5320 O.2    27  U27        -0.2443
    578  N3        -1.2970    2.7280   31.0560 N.ar   27  U27        -0.1530
    579  C4        -2.1190    1.8760   30.3670 C.ar   27  U27         0.2846
    580  O4        -3.3040    1.8260   30.6950 O.2    27  U27        -0.2650
    581  C5        -1.4710    1.1180   29.3330 C.ar   27  U27         0.0814
    582  C6        -0.1590    1.3120   29.1150 C.ar   27  U27         0.0870
    583  OP1        2.4050   -3.1200   26.5790 O.2    27  U27        -0.5172
    584  OP2        0.0050   -2.3780   27.0590 O.co2  27  U27        -0.4373
    585  P          4.0030   -1.5040   31.4710 P.3    28  G28         0.2141
    586  C5'        4.7000    0.1940   33.3320 C.3    28  G28         0.1812
    587  O5'        3.7150   -0.6620   32.7840 O.3    28  G28        -0.3114
    588  C4'        4.2080    0.8420   34.6000 C.3    28  G28         0.1773
    589  O4'        3.1270    1.7550   34.2990 O.3    28  G28        -0.3307
    590  C3'        3.6130   -0.0910   35.6380 C.3    28  G28         0.1860
    591  O3'        4.6010   -0.7680   36.3890 O.3    28  G28        -0.3112
    592  C2'        2.7360    0.8480   36.4560 C.3    28  G28         0.2309
    593  O2'        3.5210    1.6500   37.3220 O.3    28  G28        -0.2156
    594  C1'        2.1950    1.7610   35.3610 C.3    28  G28         0.2408
    595  N1        -2.7960    1.5560   36.1610 N.ar   28  G28        -0.1709
    596  C2        -1.8010    2.0930   36.9410 C.ar   28  G28         0.2606
    597  N2        -2.2000    2.6720   38.0880 N.pl3  28  G28        -0.0859
    598  N3        -0.5160    2.0830   36.6170 N.ar   28  G28        -0.1918
    599  C4        -0.3120    1.4740   35.4380 C.ar   28  G28         0.1723
    600  C5        -1.2240    0.8890   34.5840 C.ar   28  G28         0.1748
    601  C6        -2.5960    0.9180   34.9410 C.ar   28  G28         0.3023
    602  O6        -3.5650    0.4670   34.3170 O.2    28  G28        -0.2633
    603  N7        -0.5840    0.3490   33.4660 N.ar   28  G28        -0.2173
    604  C8         0.6800    0.6180   33.6610 C.ar   28  G28         0.1817
    605  N9         0.9040    1.2960   34.8390 N.ar   28  G28        -0.2693
    606  OP1        5.2410   -2.3110   31.6060 O.3    28  G28        -0.4373
    607  OP2        2.7270   -2.2080   31.1750 O.co2  28  G28        -0.5172
    608  P          4.3380   -2.2560   36.9100 P.3    29  U29         0.2141
    609  C5'        3.6780   -1.4070   39.2820 C.3    29  U29         0.1812
    610  O5'        3.2810   -2.0600   38.0830 O.3    29  U29        -0.3114
    611  C4'        2.5140   -1.1820   40.2100 C.3    29  U29         0.1773
    612  O4'        1.5570   -0.2810   39.5950 O.3    29  U29        -0.3307
    613  C3'        1.6840   -2.4040   40.5540 C.3    29  U29         0.1860
    614  O3'        2.2870   -3.2250   41.5370 O.3    29  U29        -0.3112
    615  C2'        0.3770   -1.7700   40.9980 C.3    29  U29         0.2309
    616  O2'        0.5390   -1.1680   42.2740 O.3    29  U29        -0.2156
    617  C1'        0.2470   -0.6490   39.9740 C.3    29  U29         0.2420
    618  N1        -0.5000   -1.1040   38.7770 N.ar   29  U29        -0.2534
    619  C2        -1.8740   -1.1190   38.8950 C.ar   29  U29         0.3546
    620  O2        -2.4480   -0.7770   39.9120 O.2    29  U29        -0.2443
    621  N3        -2.5630   -1.5450   37.7920 N.ar   29  U29        -0.1530
    622  C4        -2.0260   -1.9620   36.5950 C.ar   29  U29         0.2846
    623  O4        -2.7990   -2.3080   35.7010 O.2    29  U29        -0.2650
    624  C5        -0.5920   -1.9330   36.5390 C.ar   29  U29         0.0814
    625  C6         0.1080   -1.5110   37.6070 C.ar   29  U29         0.0870
    626  OP1        5.6130   -2.7050   37.5270 O.3    29  U29        -0.4373
    627  OP2        3.6590   -3.0900   35.8910 O.co2  29  U29        -0.5172
    628  P          1.9650   -4.7970   41.5990 P.3    30  G30         0.2141
    629  C5'        0.0210   -4.3580   43.2660 C.3    30  G30         0.1812
    630  O5'        0.4350   -4.8630   42.0080 O.3    30  G30        -0.3114
    631  C4'       -1.4760   -4.3750   43.3810 C.3    30  G30         0.1773
    632  O4'       -2.0430   -3.4690   42.4050 O.3    30  G30        -0.3307
    633  C3'       -2.1540   -5.7060   43.0810 C.3    30  G30         0.1860
    634  O3'       -2.1040   -6.6160   44.1740 O.3    30  G30        -0.3112
    635  C2'       -3.5570   -5.2650   42.7090 C.3    30  G30         0.2309
    636  O2'       -4.2830   -4.8790   43.8680 O.3    30  G30        -0.2156
    637  C1'       -3.2600   -3.9940   41.9210 C.3    30  G30         0.2408
    638  N1        -5.9200   -5.0850   37.8550 N.ar   30  G30        -0.1709
    639  C2        -6.3190   -4.8260   39.1470 C.ar   30  G30         0.2606
    640  N2        -7.6360   -4.8520   39.3990 N.pl3  30  G30        -0.0859
    641  N3        -5.4810   -4.5460   40.1260 N.ar   30  G30        -0.1918
    642  C4        -4.2030   -4.5580   39.6950 C.ar   30  G30         0.1723
    643  C5        -3.6920   -4.8100   38.4390 C.ar   30  G30         0.1748
    644  C6        -4.5970   -5.0920   37.3920 C.ar   30  G30         0.3023
    645  O6        -4.3390   -5.3390   36.1980 O.2    30  G30        -0.2633
    646  N7        -2.3070   -4.7040   38.4440 N.ar   30  G30        -0.2173
    647  C8        -2.0110   -4.4050   39.6920 C.ar   30  G30         0.1817
    648  N9        -3.1250   -4.2930   40.4860 N.ar   30  G30        -0.2693
    649  OP1        2.7770   -5.3360   42.7190 O.3    30  G30        -0.4373
    650  OP2        2.0850   -5.3620   40.2410 O.co2  30  G30        -0.5172
    651  P         -2.1810   -8.2040   43.9270 P.3    31  U31         0.2141
    652  C5'       -4.7090   -8.0680   44.5420 C.3    31  U31         0.1812
    653  O5'       -3.7170   -8.4500   43.6060 O.3    31  U31        -0.3114
    654  C4'       -6.0850   -8.2570   43.9730 C.3    31  U31         0.1773
    655  O4'       -6.2610   -7.4010   42.8240 O.3    31  U31        -0.3307
    656  C3'       -6.3770   -9.6500   43.4460 C.3    31  U31         0.1860
    657  O3'       -6.7250  -10.5440   44.4890 O.3    31  U31        -0.3112
    658  C2'       -7.4900   -9.3960   42.4420 C.3    31  U31         0.2309
    659  O2'       -8.7260   -9.2140   43.1150 O.3    31  U31        -0.2156
    660  C1'       -7.0730   -8.0410   41.8650 C.3    31  U31         0.2420
    661  N1        -6.3030   -8.1460   40.5990 N.ar   31  U31        -0.2534
    662  C2        -6.9830   -8.2450   39.3960 C.ar   31  U31         0.3546
    663  O2        -8.1990   -8.2970   39.3300 O.2    31  U31        -0.2443
    664  N3        -6.1920   -8.3020   38.2650 N.ar   31  U31        -0.1530
    665  C4        -4.8140   -8.2710   38.2260 C.ar   31  U31         0.2846
    666  O4        -4.2190   -8.3440   37.1470 O.2    31  U31        -0.2650
    667  C5        -4.1820   -8.1580   39.5080 C.ar   31  U31         0.0814
    668  C6        -4.9320   -8.1010   40.6150 C.ar   31  U31         0.0870
    669  OP1       -1.8630   -8.8780   45.2090 O.3    31  U31        -0.4373
    670  OP2       -1.4110   -8.5450   42.7020 O.co2  31  U31        -0.5172
    671  P         -6.6620  -12.1330   44.2600 P.3    32  G32         0.2141
    672  C5'       -7.8390  -13.2970   42.2580 C.3    32  G32         0.1812
    673  O5'       -7.9070  -12.3680   43.3100 O.3    32  G32        -0.3114
    674  C4'       -8.8790  -12.9920   41.2250 C.3    32  G32         0.1773
    675  O4'       -8.5790  -11.7220   40.5900 O.3    32  G32        -0.3307
    676  C3'       -8.9340  -13.9870   40.0820 C.3    32  G32         0.1860
    677  O3'       -9.7060  -15.1210   40.4240 O.3    32  G32        -0.3112
    678  C2'       -9.4950  -13.1570   38.9400 C.3    32  G32         0.2309
    679  O2'      -10.8970  -13.0000   39.0840 O.3    32  G32        -0.2156
    680  C1'       -8.8350  -11.8010   39.2070 C.3    32  G32         0.2408
    681  N1        -6.4510  -11.5760   34.7410 N.ar   32  G32        -0.1709
    682  C2        -7.7900  -11.7210   35.0080 C.ar   32  G32         0.2606
    683  N2        -8.6050  -11.8110   33.9470 N.pl3  32  G32        -0.0859
    684  N3        -8.2980  -11.7720   36.2280 N.ar   32  G32        -0.1918
    685  C4        -7.3330  -11.6590   37.1660 C.ar   32  G32         0.1723
    686  C5        -5.9690  -11.5150   37.0070 C.ar   32  G32         0.1748
    687  C6        -5.4410  -11.4680   35.6930 C.ar   32  G32         0.3023
    688  O6        -4.2560  -11.3350   35.3410 O.2    32  G32        -0.2633
    689  N7        -5.3300  -11.4380   38.2320 N.ar   32  G32        -0.2173
    690  C8        -6.3030  -11.5340   39.1030 C.ar   32  G32         0.1817
    691  N9        -7.5410  -11.6680   38.5200 N.ar   32  G32        -0.2693
    692  OP1       -6.9500  -12.8250   45.5470 O.3    32  G32        -0.4373
    693  OP2       -5.4200  -12.4700   43.5270 O.co2  32  G32        -0.5172
    694  P         -9.3160  -16.5760   39.8740 P.3    33  A33         0.2141
    695  C5'      -11.1170  -16.2870   38.0130 C.3    33  A33         0.1812
    696  O5'       -9.7640  -16.5280   38.3570 O.3    33  A33        -0.3114
    697  C4'      -11.2660  -16.1720   36.5220 C.3    33  A33         0.1773
    698  O4'      -10.5220  -15.0260   36.0460 O.3    33  A33        -0.3307
    699  C3'      -10.6870  -17.3300   35.7370 C.3    33  A33         0.1860
    700  O3'      -11.5680  -18.4290   35.6960 O.3    33  A33        -0.3112
    701  C2'      -10.4220  -16.7060   34.3800 C.3    33  A33         0.2309
    702  O2'      -11.6380  -16.5560   33.6640 O.3    33  A33        -0.2156
    703  C1'       -9.9540  -15.3140   34.7840 C.3    33  A33         0.2408
    704  N1        -5.4500  -14.6690   32.3100 N.ar   33  A33        -0.2040
    705  C2        -6.7090  -14.7880   31.8610 C.ar   33  A33         0.2016
    706  N3        -7.8350  -14.9620   32.5550 N.ar   33  A33        -0.2048
    707  C4        -7.5820  -15.0180   33.8730 C.ar   33  A33         0.1692
    708  C5        -6.3470  -14.9210   34.4790 C.ar   33  A33         0.1518
    709  C6        -5.2310  -14.7350   33.6450 C.ar   33  A33         0.1919
    710  N6        -3.9780  -14.6380   34.1150 N.pl3  33  A33        -0.1054
    711  N7        -6.4600  -15.0300   35.8560 N.ar   33  A33        -0.2193
    712  C8        -7.7470  -15.1820   36.0510 C.ar   33  A33         0.1816
    713  N9        -8.4850  -15.1950   34.8960 N.ar   33  A33        -0.2693
    714  OP1      -10.2100  -17.5050   40.5950 O.3    33  A33        -0.4373
    715  OP2       -7.8470  -16.7920   39.8690 O.co2  33  A33        -0.5172
    716  P        -10.9930  -19.9100   35.5110 P.3    34  A34         0.2141
    717  C5'      -11.7160  -19.7920   33.0200 C.3    34  A34         0.1812
    718  O5'      -10.6820  -19.9950   33.9620 O.3    34  A34        -0.3114
    719  C4'      -11.1490  -19.6010   31.6440 C.3    34  A34         0.1773
    720  O4'      -10.3200  -18.4100   31.6100 O.3    34  A34        -0.3307
    721  C3'      -10.2210  -20.7000   31.1640 C.3    34  A34         0.1860
    722  O3'      -10.9240  -21.8330   30.7010 O.3    34  A34        -0.3112
    723  C2'       -9.4120  -19.9950   30.0870 C.3    34  A34         0.2309
    724  O2'      -10.1810  -19.8730   28.9040 O.3    34  A34        -0.2156
    725  C1'       -9.2520  -18.6010   30.7020 C.3    34  A34         0.2408
    726  N1        -4.2800  -17.4340   30.3450 N.ar   34  A34        -0.2040
    727  C2        -5.2650  -17.4840   29.4380 C.ar   34  A34         0.2016
    728  N3        -6.5450  -17.8010   29.6100 N.ar   34  A34        -0.2048
    729  C4        -6.7840  -18.1000   30.8990 C.ar   34  A34         0.1692
    730  C5        -5.8820  -18.1020   31.9430 C.ar   34  A34         0.1518
    731  C6        -4.5540  -17.7440   31.6320 C.ar   34  A34         0.1919
    732  N6        -3.5490  -17.6920   32.5190 N.pl3  34  A34        -0.1054
    733  N7        -6.5150  -18.4720   33.1200 N.ar   34  A34        -0.2193
    734  C8        -7.7610  -18.6940   32.7680 C.ar   34  A34         0.1816
    735  N9        -7.9850  -18.4690   31.4400 N.ar   34  A34        -0.2693
    736  OP1      -12.1520  -20.7880   35.8160 O.2    34  A34        -0.5172
    737  OP2       -9.7070  -20.0960   36.2340 O.co2  34  A34        -0.4373
    738  P        -10.1920  -23.2550   30.6250 P.3    35  U35         0.2141
    739  C5'       -7.8520  -23.4570   29.4790 C.3    35  U35         0.1812
    740  O5'       -9.2110  -23.0680   29.3940 O.3    35  U35        -0.3114
    741  C4'       -7.0360  -22.7950   28.3960 C.3    35  U35         0.1773
    742  O4'       -6.5830  -21.4860   28.8440 O.3    35  U35        -0.3307
    743  C3'       -5.7680  -23.5270   27.9940 C.3    35  U35         0.1860
    744  O3'       -6.0410  -24.5200   27.0150 O.3    35  U35        -0.3112
    745  C2'       -4.8910  -22.4070   27.4530 C.3    35  U35         0.2309
    746  O2'       -5.2720  -22.1160   26.1180 O.3    35  U35        -0.2156
    747  C1'       -5.2920  -21.2280   28.3520 C.3    35  U35         0.2420
    748  N1        -4.3970  -21.0710   29.5200 N.ar   35  U35        -0.2534
    749  C2        -3.1240  -20.5710   29.3230 C.ar   35  U35         0.3546
    750  O2        -2.6960  -20.2560   28.2240 O.2    35  U35        -0.2443
    751  N3        -2.3630  -20.4560   30.4600 N.ar   35  U35        -0.1530
    752  C4        -2.7410  -20.7820   31.7510 C.ar   35  U35         0.2846
    753  O4        -1.9440  -20.6320   32.6820 O.2    35  U35        -0.2650
    754  C5        -4.0760  -21.2800   31.8670 C.ar   35  U35         0.0814
    755  C6        -4.8370  -21.3990   30.7770 C.ar   35  U35         0.0870
    756  OP1      -11.2390  -24.2370   30.2490 O.2    35  U35        -0.5172
    757  OP2       -9.3760  -23.5050   31.8490 O.co2  35  U35        -0.4373
    758  P         -5.9290  -26.0910   27.3350 P.3    36  G36         0.2141
    759  C5'       -5.3920  -28.0340   25.5940 C.3    36  G36         0.1812
    760  O5'       -5.3200  -26.6600   25.9720 O.3    36  G36        -0.3114
    761  C4'       -5.1750  -28.1500   24.1050 C.3    36  G36         0.1773
    762  O4'       -3.8290  -27.7190   23.7650 O.3    36  G36        -0.3307
    763  C3'       -5.3800  -29.5220   23.4490 C.3    36  G36         0.1860
    764  O3'       -6.2380  -29.3700   22.3170 O.3    36  G36        -0.3112
    765  C2'       -3.9750  -29.9120   22.9700 C.3    36  G36         0.2309
    766  O2'       -3.9580  -30.6760   21.7780 O.3    36  G36        -0.2156
    767  C1'       -3.3230  -28.5520   22.7470 C.3    36  G36         0.2408
    768  N1         0.9460  -27.2380   20.3170 N.ar   36  G36        -0.1709
    769  C2        -0.3660  -27.0070   19.9680 C.ar   36  G36         0.2606
    770  N2        -0.5640  -26.3340   18.8130 N.pl3  36  G36        -0.0859
    771  N3        -1.4020  -27.4010   20.7010 N.ar   36  G36        -0.1918
    772  C4        -1.0140  -28.0550   21.8230 C.ar   36  G36         0.1723
    773  C5         0.2710  -28.3410   22.2560 C.ar   36  G36         0.1748
    774  C6         1.3740  -27.9160   21.4620 C.ar   36  G36         0.3023
    775  O6         2.5890  -28.0660   21.6760 O.2    36  G36        -0.2633
    776  N7         0.2400  -29.0350   23.4610 N.ar   36  G36        -0.2173
    777  C8        -1.0360  -29.1650   23.7330 C.ar   36  G36         0.1817
    778  N9        -1.8550  -28.5750   22.7870 N.ar   36  G36        -0.2693
    779  OP1       -7.3100  -26.6020   27.5630 O.2    36  G36        -0.5172
    780  OP2       -4.8830  -26.3260   28.3610 O.co2  36  G36        -0.4373
    781  P         -7.8170  -29.6320   22.4840 P.3    37  G37         0.2141
    782  C5'       -9.0960  -31.8060   23.2080 C.3    37  G37         0.1812
    783  O5'       -7.8880  -31.0600   23.1880 O.3    37  G37        -0.3114
    784  C4'       -8.9860  -33.0420   24.0660 C.3    37  G37         0.1773
    785  O4'       -7.9610  -33.9280   23.5440 O.3    37  G37        -0.3307
    786  C3'       -8.5760  -32.8160   25.5120 C.3    37  G37         0.1860
    787  O3'       -9.6580  -32.4110   26.3260 O.3    37  G37        -0.3112
    788  C2'       -8.0020  -34.1690   25.9060 C.3    37  G37         0.2309
    789  O2'       -9.0500  -35.0860   26.1840 O.3    37  G37        -0.2156
    790  C1'       -7.3200  -34.6000   24.6080 C.3    37  G37         0.2408
    791  N1        -2.7720  -35.2160   26.8110 N.ar   37  G37        -0.1709
    792  C2        -3.9850  -35.7510   27.1650 C.ar   37  G37         0.2606
    793  N2        -3.9800  -36.5510   28.2490 N.pl3  37  G37        -0.0859
    794  N3        -5.1120  -35.5190   26.5110 N.ar   37  G37        -0.1918
    795  C4        -4.9150  -34.6990   25.4600 C.ar   37  G37         0.1723
    796  C5        -3.7410  -34.1150   25.0280 C.ar   37  G37         0.1748
    797  C6        -2.5380  -34.3750   25.7290 C.ar   37  G37         0.3023
    798  O6        -1.3950  -33.9510   25.4990 O.2    37  G37        -0.2633
    799  N7        -3.9660  -33.3220   23.9120 N.ar   37  G37        -0.2173
    800  C8        -5.2480  -33.4410   23.6850 C.ar   37  G37         0.1817
    801  N9        -5.8870  -34.2540   24.5910 N.ar   37  G37        -0.2693
    802  OP1       -8.4320  -29.7480   21.1360 O.2    37  G37        -0.5172
    803  OP2       -8.3170  -28.5910   23.4350 O.co2  37  G37        -0.4373
    804  P         -9.3980  -31.4420   27.5880 P.3    38  G38         0.2141
    805  C5'       -9.4370  -33.4410   29.2980 C.3    38  G38         0.1812
    806  O5'       -8.7140  -32.4000   28.6650 O.3    38  G38        -0.3114
    807  C4'       -8.6360  -34.0470   30.4240 C.3    38  G38         0.1773
    808  O4'       -7.5290  -34.8170   29.8810 O.3    38  G38        -0.3307
    809  C3'       -7.9560  -33.0620   31.3650 C.3    38  G38         0.1860
    810  O3'       -8.8200  -32.4930   32.3350 O.3    38  G38        -0.3112
    811  C2'       -6.8310  -33.9050   31.9490 C.3    38  G38         0.2309
    812  O2'       -7.3490  -34.8440   32.8780 O.3    38  G38        -0.2156
    813  C1'       -6.3940  -34.6820   30.7150 C.3    38  G38         0.2408
    814  N1        -1.4320  -33.4930   30.4340 N.ar   38  G38        -0.1709
    815  C2        -2.1070  -34.2190   31.3800 C.ar   38  G38         0.2606
    816  N2        -1.3470  -34.6850   32.3780 N.pl3  38  G38        -0.0859
    817  N3        -3.4080  -34.4730   31.3540 N.ar   38  G38        -0.1918
    818  C4        -3.9910  -33.9130   30.2820 C.ar   38  G38         0.1723
    819  C5        -3.4010  -33.1670   29.2760 C.ar   38  G38         0.1748
    820  C6        -2.0090  -32.9180   29.3140 C.ar   38  G38         0.3023
    821  O6        -1.3020  -32.2950   28.5100 O.2    38  G38        -0.2633
    822  N7        -4.3420  -32.7720   28.3410 N.ar   38  G38        -0.2173
    823  C8        -5.4630  -33.2800   28.7910 C.ar   38  G38         0.1817
    824  N9        -5.3290  -33.9840   29.9650 N.ar   38  G38        -0.2693
    825  OP1      -10.7250  -31.0170   28.1060 O.3    38  G38        -0.4373
    826  OP2       -8.3560  -30.4690   27.2150 O.co2  38  G38        -0.5172
    827  P         -8.4680  -31.0520   32.9720 P.3    39  A39         0.2141
    828  C5'       -7.2050  -32.1570   34.9820 C.3    39  A39         0.1812
    829  O5'       -7.1580  -31.3270   33.8320 O.3    39  A39        -0.3114
    830  C4'       -5.8690  -32.2100   35.6780 C.3    39  A39         0.1773
    831  O4'       -4.8890  -32.8740   34.8360 O.3    39  A39        -0.3307
    832  C3'       -5.2110  -30.8770   36.0030 C.3    39  A39         0.1860
    833  O3'       -5.7730  -30.2310   37.1350 O.3    39  A39        -0.3112
    834  C2'       -3.7540  -31.2850   36.1860 C.3    39  A39         0.2309
    835  O2'       -3.5720  -31.9340   37.4370 O.3    39  A39        -0.2156
    836  C1'       -3.6050  -32.3340   35.0850 C.3    39  A39         0.2408
    837  N1         0.5540  -30.6270   32.5690 N.ar   39  A39        -0.2040
    838  C2         0.3920  -31.1620   33.7860 C.ar   39  A39         0.2016
    839  N3        -0.7230  -31.5770   34.3790 N.ar   39  A39        -0.2048
    840  C4        -1.7840  -31.4130   33.5740 C.ar   39  A39         0.1692
    841  C5        -1.7770  -30.8790   32.2950 C.ar   39  A39         0.1518
    842  C6        -0.5320  -30.4610   31.7800 C.ar   39  A39         0.1919
    843  N6        -0.3570  -29.9160   30.5620 N.pl3  39  A39        -0.1054
    844  N7        -3.0660  -30.8640   31.7700 N.ar   39  A39        -0.2193
    845  C8        -3.8040  -31.3710   32.7280 C.ar   39  A39         0.1816
    846  N9        -3.0910  -31.7370   33.8410 N.ar   39  A39        -0.2693
    847  OP1       -9.5730  -30.6820   33.8910 O.3    39  A39        -0.4373
    848  OP2       -8.0600  -30.0900   31.9140 O.co2  39  A39        -0.5172
    849  P         -5.8390  -28.6240   37.2110 P.3    40  U40         0.2141
    850  C5'       -3.5030  -28.4820   38.3510 C.3    40  U40         0.1812
    851  O5'       -4.3120  -28.1620   37.2310 O.3    40  U40        -0.3114
    852  C4'       -2.0400  -28.2400   38.0960 C.3    40  U40         0.1773
    853  O4'       -1.5790  -28.9620   36.9230 O.3    40  U40        -0.3307
    854  C3'       -1.6460  -26.8140   37.8030 C.3    40  U40         0.1860
    855  O3'       -1.6460  -26.0060   38.9670 O.3    40  U40        -0.3112
    856  C2'       -0.2760  -26.9970   37.1610 C.3    40  U40         0.2309
    857  O2'        0.7030  -27.3140   38.1390 O.3    40  U40        -0.2156
    858  C1'       -0.5130  -28.2510   36.3230 C.3    40  U40         0.2420
    859  N1        -0.8720  -27.9080   34.9280 N.ar   40  U40        -0.2534
    860  C2         0.1430  -27.4840   34.0830 C.ar   40  U40         0.3546
    861  O2         1.3110  -27.3870   34.4320 O.2    40  U40        -0.2443
    862  N3        -0.2570  -27.1750   32.8000 N.ar   40  U40        -0.1530
    863  C4        -1.5400  -27.2400   32.2910 C.ar   40  U40         0.2846
    864  O4        -1.7610  -26.9280   31.1130 O.2    40  U40        -0.2650
    865  C5        -2.5290  -27.6740   33.2300 C.ar   40  U40         0.0814
    866  C6        -2.1690  -27.9900   34.4810 C.ar   40  U40         0.0870
    867  OP1       -6.4080  -28.3140   38.5500 O.3    40  U40        -0.4373
    868  OP2       -6.4930  -28.1030   35.9790 O.co2  40  U40        -0.5172
    869  P         -2.0450  -24.4480   38.8820 P.3    41  G41         0.2141
    870  C5'        0.4300  -23.8010   38.3250 C.3    41  G41         0.1812
    871  O5'       -0.9280  -23.8330   37.9260 O.3    41  G41        -0.3114
    872  C4'        1.2930  -23.2720   37.2150 C.3    41  G41         0.1773
    873  O4'        1.2200  -24.1550   36.0640 O.3    41  G41        -0.3307
    874  C3'        0.8990  -21.9180   36.6460 C.3    41  G41         0.1860
    875  O3'        1.2720  -20.8420   37.4910 O.3    41  G41        -0.3112
    876  C2'        1.5970  -21.9310   35.2930 C.3    41  G41         0.2309
    877  O2'        2.9880  -21.7030   35.4610 O.3    41  G41        -0.2156
    878  C1'        1.4120  -23.3980   34.8780 C.3    41  G41         0.2408
    879  N1        -0.1610  -23.3670   30.0290 N.ar   41  G41        -0.1709
    880  C2         1.0890  -23.1350   30.5520 C.ar   41  G41         0.2606
    881  N2         2.0510  -22.8590   29.6630 N.pl3  41  G41        -0.0859
    882  N3         1.3750  -23.1730   31.8510 N.ar   41  G41        -0.1918
    883  C4         0.2840  -23.4650   32.5960 C.ar   41  G41         0.1723
    884  C5        -1.0080  -23.7180   32.1640 C.ar   41  G41         0.1748
    885  C6        -1.3000  -23.6750   30.7740 C.ar   41  G41         0.3023
    886  O6        -2.3890  -23.8770   30.2040 O.2    41  G41        -0.2633
    887  N7        -1.8400  -23.9960   33.2380 N.ar   41  G41        -0.2173
    888  C8        -1.0510  -23.8960   34.2860 C.ar   41  G41         0.1817
    889  N9         0.2560  -23.5820   33.9720 N.ar   41  G41        -0.2693
    890  OP1       -1.9020  -23.9170   40.2700 O.3    41  G41        -0.4373
    891  OP2       -3.3420  -24.2770   38.1770 O.co2  41  G41        -0.5172
    892  P          0.8690  -19.3220   37.1470 P.3    42  U42         0.2141
    893  C5'        3.4400  -19.0650   36.6730 C.3    42  U42         0.1812
    894  O5'        2.0960  -18.8350   36.2680 O.3    42  U42        -0.3114
    895  C4'        4.3740  -18.3520   35.7400 C.3    42  U42         0.1773
    896  O4'        4.2530  -18.9470   34.4150 O.3    42  U42        -0.3307
    897  C3'        4.0360  -16.8710   35.5750 C.3    42  U42         0.1860
    898  O3'        5.2200  -16.1130   35.3740 O.3    42  U42        -0.3112
    899  C2'        3.1950  -16.8490   34.3070 C.3    42  U42         0.2309
    900  O2'        3.1830  -15.6080   33.6300 O.3    42  U42        -0.2156
    901  C1'        3.8470  -17.9570   33.4820 C.3    42  U42         0.2420
    902  N1         2.9220  -18.5380   32.4920 N.ar   42  U42        -0.2534
    903  C2         3.3080  -18.5160   31.1620 C.ar   42  U42         0.3546
    904  O2         4.3930  -18.0960   30.7950 O.2    42  U42        -0.2443
    905  N3         2.3950  -19.0180   30.2640 N.ar   42  U42        -0.1530
    906  C4         1.1420  -19.5140   30.5480 C.ar   42  U42         0.2846
    907  O4         0.4390  -19.9210   29.6210 O.2    42  U42        -0.2650
    908  C5         0.8010  -19.4940   31.9410 C.ar   42  U42         0.0814
    909  C6         1.6720  -19.0080   32.8390 C.ar   42  U42         0.0870
    910  OP1        0.8860  -18.5730   38.4360 O.3    42  U42        -0.4373
    911  OP2       -0.3360  -19.2480   36.2760 O.co2  42  U42        -0.5172
    912  P          5.3620  -14.6960   36.0990 P.3    43  C43         0.2141
    913  C5'        6.2790  -12.6560   34.7390 C.3    43  C43         0.1812
    914  O5'        6.4950  -13.9630   35.2590 O.3    43  C43        -0.3114
    915  C4'        6.8930  -12.5040   33.3730 C.3    43  C43         0.1773
    916  O4'        8.3050  -12.8350   33.4680 O.3    43  C43        -0.3307
    917  C3'        6.3080  -13.4130   32.2900 C.3    43  C43         0.1860
    918  O3'        6.3180  -12.7310   31.0310 O.3    43  C43        -0.3112
    919  C2'        7.2940  -14.5780   32.2600 C.3    43  C43         0.2309
    920  O2'        7.3420  -15.2710   31.0320 O.3    43  C43        -0.2156
    921  C1'        8.6180  -13.8780   32.5680 C.3    43  C43         0.2420
    922  N1         9.6140  -14.7460   33.2160 N.ar   43  C43        -0.2535
    923  C2        10.9250  -14.8000   32.7210 C.ar   43  C43         0.3532
    924  O2        11.2310  -14.1020   31.7420 O.2    43  C43        -0.2443
    925  N3        11.8270  -15.6140   33.3290 N.ar   43  C43        -0.1739
    926  C4        11.4660  -16.3560   34.3830 C.ar   43  C43         0.1759
    927  N4        12.3880  -17.1420   34.9520 N.pl3  43  C43        -0.1070
    928  C5        10.1380  -16.3190   34.9040 C.ar   43  C43         0.0566
    929  C6         9.2560  -15.5100   34.2970 C.ar   43  C43         0.0850
    930  OP1        5.8500  -14.9520   37.4760 O.3    43  C43        -0.4373
    931  OP2        4.0930  -13.9460   35.9020 O.co2  43  C43        -0.5172
    932  P          5.0540  -11.8420   30.5710 P.3    44  G44         0.2141
    933  C5'        5.0500  -12.7920   28.1260 C.3    44  G44         0.1812
    934  O5'        4.4000  -12.6840   29.3850 O.3    44  G44        -0.3114
    935  C4'        4.2620  -13.6460   27.1650 C.3    44  G44         0.1773
    936  O4'        4.1590  -14.9990   27.6860 O.3    44  G44        -0.3307
    937  C3'        2.8170  -13.2280   26.9400 C.3    44  G44         0.1860
    938  O3'        2.6730  -12.1660   26.0180 O.3    44  G44        -0.3112
    939  C2'        2.1690  -14.5230   26.4810 C.3    44  G44         0.2309
    940  O2'        2.4730  -14.7840   25.1200 O.3    44  G44        -0.2156
    941  C1'        2.8960  -15.5450   27.3580 C.3    44  G44         0.2408
    942  N1        -1.4900  -17.1170   29.3920 N.ar   44  G44        -0.1709
    943  C2        -1.1000  -17.0760   28.0670 C.ar   44  G44         0.2606
    944  N2        -1.9880  -17.4970   27.1490 N.pl3  44  G44        -0.0859
    945  N3         0.0850  -16.6460   27.6590 N.ar   44  G44        -0.1918
    946  C4         0.8650  -16.2580   28.6960 C.ar   44  G44         0.1723
    947  C5         0.5770  -16.2700   30.0460 C.ar   44  G44         0.1748
    948  C6        -0.6960  -16.7310   30.4760 C.ar   44  G44         0.3023
    949  O6        -1.1230  -16.8020   31.6410 O.2    44  G44        -0.2633
    950  N7         1.6540  -15.7900   30.7840 N.ar   44  G44        -0.2173
    951  C8         2.5590  -15.5040   29.8870 C.ar   44  G44         0.1817
    952  N9         2.1490  -15.7690   28.6050 N.ar   44  G44        -0.2693
    953  OP1        5.5480  -10.5720   29.9790 O.2    44  G44        -0.5172
    954  OP2        4.0940  -11.7890   31.7030 O.co2  44  G44        -0.4373
    955  P          1.5970  -11.0070   26.2990 P.3    45  U45         0.2141
    956  C5'       -0.3060  -12.3090   25.0410 C.3    45  U45         0.1812
    957  O5'        0.1900  -11.7490   26.2470 O.3    45  U45        -0.3114
    958  C4'       -1.7210  -12.8160   25.2060 C.3    45  U45         0.1773
    959  O4'       -1.7390  -13.9920   26.0600 O.3    45  U45        -0.3307
    960  C3'       -2.6940  -11.8700   25.8840 C.3    45  U45         0.1860
    961  O3'       -3.1900  -10.8590   25.0300 O.3    45  U45        -0.3112
    962  C2'       -3.7720  -12.8150   26.3790 C.3    45  U45         0.2309
    963  O2'       -4.5970  -13.2120   25.3030 O.3    45  U45        -0.2156
    964  C1'       -2.9360  -14.0160   26.8130 C.3    45  U45         0.2420
    965  N1        -2.6010  -13.9240   28.2490 N.ar   45  U45        -0.2534
    966  C2        -3.6170  -14.2560   29.1240 C.ar   45  U45         0.3546
    967  O2        -4.7160  -14.6200   28.7380 O.2    45  U45        -0.2443
    968  N3        -3.2940  -14.1640   30.4550 N.ar   45  U45        -0.1530
    969  C4        -2.0820  -13.7590   30.9810 C.ar   45  U45         0.2846
    970  O4        -1.9370  -13.7170   32.2090 O.2    45  U45        -0.2650
    971  C5        -1.0820  -13.4240   30.0080 C.ar   45  U45         0.0814
    972  C6        -1.3710  -13.5090   28.7050 C.ar   45  U45         0.0870
    973  OP1        1.6280  -10.0420   25.1700 O.2    45  U45        -0.5172
    974  OP2        1.8030  -10.5410   27.6950 O.co2  45  U45        -0.4373
    975  P         -3.6680   -9.4630   25.6640 P.3    46  C46         0.2141
    976  C5'       -6.1450  -10.3690   25.6290 C.3    46  C46         0.1812
    977  O5'       -5.0590   -9.8140   26.3600 O.3    46  C46        -0.3114
    978  C4'       -7.2420  -10.8270   26.5590 C.3    46  C46         0.1773
    979  O4'       -6.7280  -11.8370   27.4700 O.3    46  C46        -0.3307
    980  C3'       -7.8120   -9.7600   27.4790 C.3    46  C46         0.1860
    981  O3'       -8.7860   -8.9530   26.8430 O.3    46  C46        -0.3112
    982  C2'       -8.3730  -10.5750   28.6320 C.3    46  C46         0.2309
    983  O2'       -9.6230  -11.1290   28.2730 O.3    46  C46        -0.2156
    984  C1'       -7.3550  -11.7120   28.7310 C.3    46  C46         0.2420
    985  N1        -6.3210  -11.4430   29.7570 N.ar   46  C46        -0.2535
    986  C2        -6.6630  -11.5790   31.1020 C.ar   46  C46         0.3532
    987  O2        -7.8130  -11.9310   31.3840 O.2    46  C46        -0.2443
    988  N3        -5.7330  -11.3480   32.0530 N.ar   46  C46        -0.1739
    989  C4        -4.5000  -10.9680   31.7120 C.ar   46  C46         0.1759
    990  N4        -3.6130  -10.7450   32.6880 N.pl3  46  C46        -0.1070
    991  C5        -4.1200  -10.8030   30.3440 C.ar   46  C46         0.0566
    992  C6        -5.0560  -11.0510   29.4150 C.ar   46  C46         0.0850
    993  OP1       -3.9090   -8.4900   24.5610 O.2    46  C46        -0.5172
    994  OP2       -2.7370   -9.1060   26.7740 O.co2  46  C46        -0.4373
    995  P         -9.0920   -7.4720   27.3800 P.3    47  A47         0.2141
    996  C5'      -11.3100   -8.1850   28.6150 C.3    47  A47         0.1812
    997  O5'       -9.9780   -7.6930   28.6930 O.3    47  A47        -0.3114
    998  C4'      -11.9150   -8.3560   29.9880 C.3    47  A47         0.1773
    999  O4'      -11.1570   -9.3380   30.7470 O.3    47  A47        -0.3307
   1000  C3'      -11.8990   -7.1220   30.8700 C.3    47  A47         0.1860
   1001  O3'      -12.9510   -6.2260   30.5650 O.3    47  A47        -0.3112
   1002  C2'      -11.9780   -7.7200   32.2650 C.3    47  A47         0.2309
   1003  O2'      -13.2920   -8.1850   32.5240 O.3    47  A47        -0.2156
   1004  C1'      -11.0920   -8.9480   32.1030 C.3    47  A47         0.2408
   1005  N1        -7.5760   -8.5310   35.8250 N.ar   47  A47        -0.2040
   1006  C2        -8.8900   -8.7940   35.8430 C.ar   47  A47         0.2016
   1007  N3        -9.7500   -8.8830   34.8370 N.ar   47  A47        -0.2048
   1008  C4        -9.1250   -8.6550   33.6740 C.ar   47  A47         0.1692
   1009  C5        -7.7870   -8.3730   33.4790 C.ar   47  A47         0.1518
   1010  C6        -6.9820   -8.3030   34.6290 C.ar   47  A47         0.1919
   1011  N6        -5.6710   -8.0360   34.5900 N.pl3  47  A47        -0.1054
   1012  N7        -7.4950   -8.2000   32.1260 N.ar   47  A47        -0.2193
   1013  C8        -8.6590   -8.3890   31.5490 C.ar   47  A47         0.1816
   1014  N9        -9.6830   -8.6650   32.4280 N.ar   47  A47        -0.2693
   1015  OP1       -9.9110   -6.7920   26.3420 O.2    47  A47        -0.5172
   1016  OP2       -7.8300   -6.8290   27.8430 O.co2  47  A47        -0.4373
   1017  P        -12.7690   -4.6500   30.7750 P.3    48  C48         0.2141
   1018  C5'      -13.9490   -4.8040   33.1040 C.3    48  C48         0.1812
   1019  O5'      -12.7970   -4.4640   32.3530 O.3    48  C48        -0.3114
   1020  C4'      -13.6400   -4.7870   34.5770 C.3    48  C48         0.1773
   1021  O4'      -12.6290   -5.7890   34.8640 O.3    48  C48        -0.3307
   1022  C3'      -13.0300   -3.4970   35.0990 C.3    48  C48         0.1860
   1023  O3'      -13.9830   -2.4780   35.3380 O.3    48  C48        -0.3112
   1024  C2'      -12.3000   -3.9670   36.3470 C.3    48  C48         0.2309
   1025  O2'      -13.2200   -4.1950   37.4020 O.3    48  C48        -0.2156
   1026  C1'      -11.7660   -5.3230   35.8790 C.3    48  C48         0.2420
   1027  N1       -10.3920   -5.2010   35.3330 N.ar   48  C48        -0.2535
   1028  C2        -9.3480   -5.2750   36.2460 C.ar   48  C48         0.3532
   1029  O2        -9.6300   -5.4610   37.4370 O.2    48  C48        -0.2443
   1030  N3        -8.0720   -5.1590   35.8200 N.ar   48  C48        -0.1739
   1031  C4        -7.8150   -4.9580   34.5310 C.ar   48  C48         0.1759
   1032  N4        -6.5350   -4.8530   34.1670 N.pl3  48  C48        -0.1070
   1033  C5        -8.8600   -4.8630   33.5650 C.ar   48  C48         0.0566
   1034  C6       -10.1190   -4.9870   34.0120 C.ar   48  C48         0.0850
   1035  OP1      -13.9880   -3.9980   30.2380 O.2    48  C48        -0.5172
   1036  OP2      -11.4130   -4.2210   30.3350 O.co2  48  C48        -0.4373
   1037  P        -13.5190   -0.9410   35.3660 P.3    49  A49         0.2141
   1038  C5'      -13.3960   -0.9190   37.9880 C.3    49  A49         0.1812
   1039  O5'      -12.7280   -0.8060   36.7390 O.3    49  A49        -0.3114
   1040  C4'      -12.4420   -0.6690   39.1270 C.3    49  A49         0.1773
   1041  O4'      -11.4510   -1.7330   39.1640 O.3    49  A49        -0.3307
   1042  C3'      -11.6130    0.6060   39.0270 C.3    49  A49         0.1860
   1043  O3'      -12.3100    1.7730   39.4540 O.3    49  A49        -0.3112
   1044  C2'      -10.3870    0.2680   39.8670 C.3    49  A49         0.2309
   1045  O2'      -10.6920    0.3380   41.2500 O.3    49  A49        -0.2156
   1046  C1'      -10.1880   -1.2050   39.5160 C.3    49  A49         0.2408
   1047  N1        -5.2760   -1.6850   37.9760 N.ar   49  A49        -0.2040
   1048  C2        -5.8230   -1.5270   39.1870 C.ar   49  A49         0.2016
   1049  N3        -7.1110   -1.4090   39.5180 N.ar   49  A49        -0.2048
   1050  C4        -7.8940   -1.4610   38.4260 C.ar   49  A49         0.1692
   1051  C5        -7.4720   -1.6140   37.1160 C.ar   49  A49         0.1518
   1052  C6        -6.0860   -1.7400   36.8930 C.ar   49  A49         0.1919
   1053  N6        -5.5350   -1.9100   35.6750 N.pl3  49  A49        -0.1054
   1054  N7        -8.5610   -1.6400   36.2510 N.ar   49  A49        -0.2193
   1055  C8        -9.5950   -1.4850   37.0440 C.ar   49  A49         0.1816
   1056  N9        -9.2660   -1.3780   38.3730 N.ar   49  A49        -0.2693
   1057  OP1      -14.7170   -0.0690   35.4540 O.3    49  A49        -0.4373
   1058  OP2      -12.5590   -0.7290   34.2520 O.co2  49  A49        -0.5172
   1059  P        -12.0650    3.1960   38.7350 P.3    50  C50         0.2141
   1060  C5'      -10.3510    3.8610   40.6020 C.3    50  C50         0.1812
   1061  O5'      -10.6090    3.6230   39.2250 O.3    50  C50        -0.3114
   1062  C4'       -8.8730    3.9110   40.9020 C.3    50  C50         0.1773
   1063  O4'       -8.2680    2.6230   40.6020 O.3    50  C50        -0.3307
   1064  C3'       -8.0350    4.8900   40.0940 C.3    50  C50         0.1860
   1065  O3'       -8.1590    6.2450   40.5110 O.3    50  C50        -0.3112
   1066  C2'       -6.6370    4.3100   40.2640 C.3    50  C50         0.2309
   1067  O2'       -6.1330    4.5710   41.5660 O.3    50  C50        -0.2156
   1068  C1'       -6.9340    2.8130   40.1730 C.3    50  C50         0.2420
   1069  N1        -6.7970    2.3370   38.7790 N.ar   50  C50        -0.2535
   1070  C2        -5.5150    1.9990   38.3560 C.ar   50  C50         0.3532
   1071  O2        -4.5870    2.0840   39.1830 O.2    50  C50        -0.2443
   1072  N3        -5.3290    1.5690   37.0810 N.ar   50  C50        -0.1739
   1073  C4        -6.3630    1.5040   36.2440 C.ar   50  C50         0.1759
   1074  N4        -6.1290    1.0860   34.9940 N.pl3  50  C50        -0.1070
   1075  C5        -7.6820    1.8570   36.6410 C.ar   50  C50         0.0566
   1076  C6        -7.8500    2.2750   37.9070 C.ar   50  C50         0.0850
   1077  OP1      -13.0250    4.1630   39.3250 O.3    50  C50        -0.4373
   1078  OP2      -12.0550    3.0260   37.2580 O.co2  50  C50        -0.5172
   1079  P         -7.9750    7.4450   39.4530 P.3    51  A51         0.2141
   1080  C5'       -5.4710    7.6270   40.1620 C.3    51  A51         0.1812
   1081  O5'       -6.4220    7.4370   39.1290 O.3    51  A51        -0.3114
   1082  C4'       -4.0740    7.4920   39.6270 C.3    51  A51         0.1773
   1083  O4'       -3.8440    6.1270   39.1870 O.3    51  A51        -0.3307
   1084  C3'       -3.7730    8.3200   38.3930 C.3    51  A51         0.1860
   1085  O3'       -3.5320    9.6830   38.6920 O.3    51  A51        -0.3112
   1086  C2'       -2.5870    7.5850   37.7910 C.3    51  A51         0.2309
   1087  O2'       -1.3970    7.8650   38.5200 O.3    51  A51        -0.2156
   1088  C1'       -2.9830    6.1320   38.0610 C.3    51  A51         0.2408
   1089  N1        -2.5060    3.9100   33.4590 N.ar   51  A51        -0.2040
   1090  C2        -1.6070    4.4030   34.3200 C.ar   51  A51         0.2016
   1091  N3        -1.8100    4.9760   35.5090 N.ar   51  A51        -0.2048
   1092  C4        -3.1230    5.0120   35.7960 C.ar   51  A51         0.1692
   1093  C5        -4.1650    4.5370   35.0150 C.ar   51  A51         0.1518
   1094  C6        -3.8200    3.9600   33.7780 C.ar   51  A51         0.1919
   1095  N6        -4.7040    3.4580   32.9090 N.pl3  51  A51        -0.1054
   1096  N7        -5.3860    4.7550   35.6430 N.ar   51  A51        -0.2193
   1097  C8        -5.0550    5.3500   36.7710 C.ar   51  A51         0.1816
   1098  N9        -3.7020    5.5330   36.9230 N.ar   51  A51        -0.2693
   1099  OP1       -8.2750    8.7090   40.1780 O.3    51  A51        -0.4373
   1100  OP2       -8.6770    7.1350   38.1810 O.co2  51  A51        -0.5172
   1101  P         -3.8410   10.8040   37.5910 P.3    52  A52         0.2141
   1102  C5'       -1.3430   11.0480   36.9560 C.3    52  A52         0.1812
   1103  O5'       -2.6420   10.6430   36.5670 O.3    52  A52        -0.3114
   1104  C4'       -0.3070   10.5940   35.9700 C.3    52  A52         0.1773
   1105  O4'       -0.4380    9.1720   35.7320 O.3    52  A52        -0.3307
   1106  C3'       -0.4130   11.1930   34.5840 C.3    52  A52         0.1860
   1107  O3'        0.0970   12.5060   34.5160 O.3    52  A52        -0.3112
   1108  C2'        0.3640   10.1920   33.7470 C.3    52  A52         0.2309
   1109  O2'        1.7600   10.3680   33.9380 O.3    52  A52        -0.2156
   1110  C1'       -0.0570    8.8780   34.4030 C.3    52  A52         0.2408
   1111  N1        -1.4790    6.0230   30.3880 N.ar   52  A52        -0.2040
   1112  C2        -0.2860    6.4560   30.8130 C.ar   52  A52         0.2016
   1113  N3         0.0030    7.2010   31.8860 N.ar   52  A52        -0.2048
   1114  C4        -1.1150    7.5120   32.5620 C.ar   52  A52         0.1692
   1115  C5        -2.4070    7.1420   32.2530 C.ar   52  A52         0.1518
   1116  C6        -2.5820    6.3540   31.1020 C.ar   52  A52         0.1919
   1117  N6        -3.7740    5.9230   30.6800 N.pl3  52  A52        -0.1054
   1118  N7        -3.2990    7.6590   33.1860 N.ar   52  A52        -0.2193
   1119  C8        -2.5330    8.3220   34.0260 C.ar   52  A52         0.1816
   1120  N9        -1.2020    8.2700   33.7050 N.ar   52  A52        -0.2693
   1121  OP1       -3.6500   12.1080   38.2920 O.3    52  A52        -0.4373
   1122  OP2       -5.1070   10.5180   36.8640 O.co2  52  A52        -0.5172
   1123  P         -0.5810   13.5720   33.5320 P.3    53  C53         0.2141
   1124  C5'        1.0530   12.7950   31.6350 C.3    53  C53         0.1812
   1125  O5'       -0.2820   12.9880   32.0780 O.3    53  C53        -0.3114
   1126  C4'        1.1400   11.9230   30.4030 C.3    53  C53         0.1773
   1127  O4'        0.4820   10.6510   30.6120 O.3    53  C53        -0.3307
   1128  C3'        0.4860   12.4430   29.1390 C.3    53  C53         0.1860
   1129  O3'        1.2360   13.4600   28.5170 O.3    53  C53        -0.3112
   1130  C2'        0.3610   11.1820   28.2930 C.3    53  C53         0.2309
   1131  O2'        1.5990   10.8650   27.6750 O.3    53  C53        -0.2156
   1132  C1'        0.0810   10.1210   29.3610 C.3    53  C53         0.2420
   1133  N1        -1.3470    9.7230   29.3990 N.ar   53  C53        -0.2535
   1134  C2        -1.7500    8.7850   28.4540 C.ar   53  C53         0.3532
   1135  O2        -0.9000    8.3590   27.6730 O.2    53  C53        -0.2443
   1136  N3        -3.0310    8.3710   28.4030 N.ar   53  C53        -0.1739
   1137  C4        -3.9100    8.8720   29.2710 C.ar   53  C53         0.1759
   1138  N4        -5.1760    8.4430   29.2030 N.pl3  53  C53        -0.1070
   1139  C5        -3.5300    9.8370   30.2510 C.ar   53  C53         0.0566
   1140  C6        -2.2500   10.2370   30.2810 C.ar   53  C53         0.0850
   1141  OP1        0.1900   14.8180   33.7870 O.3    53  C53        -0.4373
   1142  OP2       -2.0600   13.5930   33.7190 O.co2  53  C53        -0.5172
   1143  P          0.5180   14.8310   28.1030 P.3    54  G54         0.2141
   1144  C5'       -0.5600   14.2660   25.8300 C.3    54  G54         0.1812
   1145  O5'        0.5450   14.7910   26.5270 O.3    54  G54        -0.3114
   1146  C4'       -0.1170   13.3420   24.7350 C.3    54  G54         0.1773
   1147  O4'       -0.2620   11.9700   25.1840 O.3    54  G54        -0.3307
   1148  C3'       -0.9530   13.4420   23.4680 C.3    54  G54         0.1860
   1149  O3'       -0.4280   14.4100   22.5750 O.3    54  G54        -0.3112
   1150  C2'       -0.9440   12.0230   22.9190 C.3    54  G54         0.2309
   1151  O2'        0.2370   11.7720   22.1720 O.3    54  G54        -0.2156
   1152  C1'       -0.8990   11.1970   24.2030 C.3    54  G54         0.2408
   1153  N1        -5.0960    8.5070   23.3800 N.ar   54  G54        -0.1709
   1154  C2        -3.9330    8.5800   22.6480 C.ar   54  G54         0.2606
   1155  N2        -3.8740    7.8250   21.5460 N.pl3  54  G54        -0.0859
   1156  N3        -2.8950    9.3280   22.9760 N.ar   54  G54        -0.1918
   1157  C4        -3.1270   10.0200   24.1130 C.ar   54  G54         0.1723
   1158  C5        -4.2480   10.0350   24.9210 C.ar   54  G54         0.1748
   1159  C6        -5.3490    9.2110   24.5590 C.ar   54  G54         0.3023
   1160  O6        -6.4350    9.0820   25.1370 O.2    54  G54        -0.2633
   1161  N7        -4.0740   10.8950   26.0030 N.ar   54  G54        -0.2173
   1162  C8        -2.8710   11.3710   25.8290 C.ar   54  G54         0.1817
   1163  N9        -2.2480   10.8810   24.7020 N.ar   54  G54        -0.2693
   1164  OP1        1.3820   15.9610   28.5430 O.3    54  G54        -0.4373
   1165  OP2       -0.9260   14.7650   28.4410 O.co2  54  G54        -0.5172
   1166  P         -1.4050   15.3530   21.7260 P.3    55  A55         0.2141
   1167  C5'       -1.1040   13.6580   19.7560 C.3    55  A55         0.1812
   1168  O5'       -1.9850   14.3620   20.6220 O.3    55  A55        -0.3114
   1169  C4'       -1.8410   12.9860   18.6250 C.3    55  A55         0.1773
   1170  O4'       -2.6310   11.8830   19.1550 O.3    55  A55        -0.3307
   1171  C3'       -2.8150   13.8740   17.8380 C.3    55  A55         0.1860
   1172  O3'       -2.7710   13.5200   16.4550 O.3    55  A55        -0.3112
   1173  C2'       -4.1710   13.4720   18.4120 C.3    55  A55         0.2309
   1174  O2'       -5.2710   13.6730   17.5520 O.3    55  A55        -0.2156
   1175  C1'       -3.9520   11.9920   18.6720 C.3    55  A55         0.2408
   1176  N1        -7.3010    8.2040   19.3900 N.ar   55  A55        -0.2040
   1177  C2        -6.4620    8.4990   18.3800 C.ar   55  A55         0.2016
   1178  N3        -5.6030    9.5100   18.2690 N.ar   55  A55        -0.2048
   1179  C4        -5.6560   10.2950   19.3630 C.ar   55  A55         0.1692
   1180  C5        -6.4580   10.1270   20.4710 C.ar   55  A55         0.1518
   1181  C6        -7.3160    9.0190   20.4720 C.ar   55  A55         0.1919
   1182  N6        -8.1420    8.7520   21.4810 N.pl3  55  A55        -0.1054
   1183  N7        -6.2370   11.1350   21.3980 N.ar   55  A55        -0.2193
   1184  C8        -5.3110   11.8820   20.8460 C.ar   55  A55         0.1816
   1185  N9        -4.9060   11.4130   19.6190 N.ar   55  A55        -0.2693
   1186  OP1       -0.5590   16.3550   21.0310 O.2    55  A55        -0.5172
   1187  OP2       -2.5130   15.8270   22.6000 O.co2  55  A55        -0.4373
   1188  P         -1.8180   14.3290   15.4400 P.3    56  A56         0.2141
   1189  C5'       -3.7700   15.8860   14.5640 C.3    56  A56         0.1812
   1190  O5'       -2.7980   14.8710   14.3060 O.3    56  A56        -0.3114
   1191  C4'       -5.0160   15.6380   13.7500 C.3    56  A56         0.1773
   1192  O4'       -4.6340   15.4520   12.3540 O.3    56  A56        -0.3307
   1193  C3'       -5.7870   14.3730   14.1370 C.3    56  A56         0.1860
   1194  O3'       -7.1600   14.5330   13.8030 O.3    56  A56        -0.3112
   1195  C2'       -5.2190   13.3480   13.1740 C.3    56  A56         0.2309
   1196  O2'       -6.0580   12.2310   12.9640 O.3    56  A56        -0.2156
   1197  C1'       -5.0900   14.1920   11.9150 C.3    56  A56         0.2408
   1198  N1        -4.7850   12.5020    7.1400 N.ar   56  A56        -0.2040
   1199  C2        -5.8060   12.9290    7.8940 C.ar   56  A56         0.2016
   1200  N3        -5.7980   13.3700    9.1460 N.ar   56  A56        -0.2048
   1201  C4        -4.5510   13.3250    9.6460 C.ar   56  A56         0.1692
   1202  C5        -3.4040   12.9110    9.0120 C.ar   56  A56         0.1518
   1203  C6        -3.5430   12.4720    7.6870 C.ar   56  A56         0.1919
   1204  N6        -2.5170   12.0420    6.9440 N.pl3  56  A56        -0.1054
   1205  N7        -2.3090   13.0100    9.8570 N.ar   56  A56        -0.2193
   1206  C8        -2.8130   13.4760   10.9730 C.ar   56  A56         0.1816
   1207  N9        -4.1670   13.6740   10.9070 N.ar   56  A56        -0.2693
   1208  OP1       -0.9240   13.3240   14.8010 O.2    56  A56        -0.5172
   1209  OP2       -1.2770   15.5220   16.1380 O.co2  56  A56        -0.4373
   1210  P         -8.1300   15.4430   14.6860 P.3    57  G57         0.2141
   1211  C5'       -8.7390   17.3980   13.0580 C.3    57  G57         0.1812
   1212  O5'       -7.9210   16.9090   14.1050 O.3    57  G57        -0.3114
   1213  C4'       -8.0360   17.3100   11.7320 C.3    57  G57         0.1773
   1214  O4'       -7.9640   15.9260   11.3090 O.3    57  G57        -0.3307
   1215  C3'       -8.7420   18.0040   10.5850 C.3    57  G57         0.1860
   1216  O3'       -8.5110   19.3950   10.5550 O.3    57  G57        -0.3112
   1217  C2'       -8.2250   17.2570    9.3700 C.3    57  G57         0.2309
   1218  O2'       -6.9000   17.6480    9.0630 O.3    57  G57        -0.2156
   1219  C1'       -8.1610   15.8380    9.9120 C.3    57  G57         0.2408
   1220  N1       -10.9350   13.0620    6.6590 N.ar   57  G57        -0.1709
   1221  C2        -9.7310   13.6950    6.4540 C.ar   57  G57         0.2606
   1222  N2        -9.1890   13.5730    5.2310 N.pl3  57  G57        -0.0859
   1223  N3        -9.0990   14.3980    7.3780 N.ar   57  G57        -0.1918
   1224  C4        -9.7820   14.4340    8.5310 C.ar   57  G57         0.1723
   1225  C5       -10.9830   13.8310    8.8400 C.ar   57  G57         0.1748
   1226  C6       -11.6540   13.0760    7.8600 C.ar   57  G57         0.3023
   1227  O6       -12.7390   12.4680    7.9670 O.2    57  G57        -0.2633
   1228  N7       -11.3440   14.0940   10.1460 N.ar   57  G57        -0.2173
   1229  C8       -10.3740   14.8320   10.6090 C.ar   57  G57         0.1817
   1230  N9        -9.3970   15.0770    9.6740 N.ar   57  G57        -0.2693
   1231  OP1       -7.6490   15.4920   16.0890 O.3    57  G57        -0.4373
   1232  OP2       -9.5120   15.0120   14.3200 O.co2  57  G57        -0.5172
   1233  P         -9.5410   20.3280    9.7820 P.3    58  C58         0.2141
   1234  C5'      -10.4920   19.8800    7.3980 C.3    58  C58         0.1812
   1235  O5'       -9.4130   19.8040    8.2980 O.3    58  C58        -0.3114
   1236  C4'      -10.1730   19.0940    6.1620 C.3    58  C58         0.1773
   1237  O4'      -10.1950   17.6790    6.4770 O.3    58  C58        -0.3307
   1238  C3'      -11.1650   19.2420    5.0240 C.3    58  C58         0.1860
   1239  O3'      -10.8820   20.3760    4.2290 O.3    58  C58        -0.3112
   1240  C2'      -10.9960   17.9430    4.2650 C.3    58  C58         0.2309
   1241  O2'       -9.8330   17.9990    3.4540 O.3    58  C58        -0.2156
   1242  C1'      -10.7400   16.9580    5.3990 C.3    58  C58         0.2420
   1243  N1       -11.9820   16.3000    5.8530 N.ar   58  C58        -0.2535
   1244  C2       -12.5430   15.3580    5.0050 C.ar   58  C58         0.3532
   1245  O2       -11.9900   15.1240    3.9150 O.2    58  C58        -0.2443
   1246  N3       -13.6630   14.7210    5.3980 N.ar   58  C58        -0.1739
   1247  C4       -14.2160   14.9960    6.5800 C.ar   58  C58         0.1759
   1248  N4       -15.3190   14.3190    6.9010 N.pl3  58  C58        -0.1070
   1249  C5       -13.6570   15.9500    7.4820 C.ar   58  C58         0.0566
   1250  C6       -12.5390   16.5740    7.0740 C.ar   58  C58         0.0850
   1251  OP1       -8.9810   21.7090    9.8160 O.2    58  C58        -0.5172
   1252  OP2      -10.9270   20.0710   10.2500 O.co2  58  C58        -0.4373
   1253  P        -12.0610   21.3470    3.7490 P.3    59  G59         0.2141
   1254  C5'      -11.9680   20.1700    1.4280 C.3    59  G59         0.1812
   1255  O5'      -12.7290   20.5340    2.5660 O.3    59  G59        -0.3114
   1256  C4'      -12.7130   19.1900    0.5710 C.3    59  G59         0.1773
   1257  O4'      -12.8580   17.9280    1.2730 O.3    59  G59        -0.3307
   1258  C3'      -14.1370   19.5820    0.2350 C.3    59  G59         0.1860
   1259  O3'      -14.1980   20.5630   -0.7880 O.3    59  G59        -0.3112
   1260  C2'      -14.7760   18.2330   -0.1080 C.3    59  G59         0.2309
   1261  O2'      -14.5270   17.8250   -1.4490 O.3    59  G59        -0.2156
   1262  C1'      -14.0330   17.2820    0.8500 C.3    59  G59         0.2408
   1263  N1       -17.8150   14.3880    2.1950 N.ar   59  G59        -0.1709
   1264  C2       -17.1050   14.4460    1.0240 C.ar   59  G59         0.2606
   1265  N2       -17.4730   13.5960    0.0410 N.pl3  59  G59        -0.0859
   1266  N3       -16.0930   15.2650    0.8380 N.ar   59  G59        -0.1918
   1267  C4       -15.8620   16.0390    1.9190 C.ar   59  G59         0.1723
   1268  C5       -16.5000   16.0730    3.1270 C.ar   59  G59         0.1748
   1269  C6       -17.5810   15.1740    3.3170 C.ar   59  G59         0.3023
   1270  O6       -18.2910   15.0420    4.3150 O.2    59  G59        -0.2633
   1271  N7       -15.9320   17.0410    3.9570 N.ar   59  G59        -0.2173
   1272  C8       -14.9730   17.5790    3.2390 C.ar   59  G59         0.1817
   1273  N9       -14.8820   16.9820    2.0030 N.ar   59  G59        -0.2693
   1274  OP1      -11.3760   22.5540    3.2100 O.2    59  G59        -0.5172
   1275  OP2      -13.0730   21.4710    4.8390 O.co2  59  G59        -0.4373
   1276  P        -15.1150   21.8770   -0.6250 P.3    60  A60         0.2141
   1277  C5'      -17.6440   22.0220    0.0290 C.3    60  A60         0.1812
   1278  O5'      -16.5610   21.2400   -0.4470 O.3    60  A60        -0.3114
   1279  C4'      -18.9220   21.6030   -0.6410 C.3    60  A60         0.1773
   1280  O4'      -18.8150   21.8480   -2.0630 O.3    60  A60        -0.3307
   1281  C3'      -19.2730   20.1240   -0.5470 C.3    60  A60         0.1860
   1282  O3'      -19.9190   19.8200    0.6740 O.3    60  A60        -0.3112
   1283  C2'      -20.1740   19.9250   -1.7520 C.3    60  A60         0.2309
   1284  O2'      -21.4610   20.4580   -1.4650 O.3    60  A60        -0.2156
   1285  C1'      -19.5330   20.8680   -2.7680 C.3    60  A60         0.2408
   1286  N1       -19.2410   17.8110   -6.8860 N.ar   60  A60        -0.2040
   1287  C2       -20.2710   18.1740   -6.1140 C.ar   60  A60         0.2016
   1288  N3       -20.2590   18.9650   -5.0450 N.ar   60  A60        -0.2048
   1289  C4       -19.0200   19.4100   -4.7780 C.ar   60  A60         0.1692
   1290  C5       -17.8650   19.1140   -5.4680 C.ar   60  A60         0.1518
   1291  C6       -18.0070   18.2750   -6.5840 C.ar   60  A60         0.1919
   1292  N6       -16.9880   17.9000   -7.3660 N.pl3  60  A60        -0.1054
   1293  N7       -16.7730   19.7470   -4.8940 N.ar   60  A60        -0.2193
   1294  C8       -17.2850   20.4080   -3.8810 C.ar   60  A60         0.1816
   1295  N9       -18.6370   20.2250   -3.7430 N.ar   60  A60        -0.2693
   1296  OP1      -15.0560   22.6060   -1.9190 O.2    60  A60        -0.5172
   1297  OP2      -14.8380   22.6510    0.6030 O.co2  60  A60        -0.4373
   1298  P        -19.4280   18.5790    1.5600 P.3    61  G61         0.2141
   1299  C5'      -21.3510   17.1700    0.4930 C.3    61  G61         0.1812
   1300  O5'      -19.9650   17.3350    0.7430 O.3    61  G61        -0.3114
   1301  C4'      -21.5770   16.2590   -0.6780 C.3    61  G61         0.1773
   1302  O4'      -20.9260   16.8220   -1.8390 O.3    61  G61        -0.3307
   1303  C3'      -20.9800   14.8570   -0.5590 C.3    61  G61         0.1860
   1304  O3'      -21.8500   13.9690    0.1340 O.3    61  G61        -0.3112
   1305  C2'      -20.7250   14.4590   -2.0070 C.3    61  G61         0.2309
   1306  O2'      -21.9160   14.0160   -2.6320 O.3    61  G61        -0.2156
   1307  C1'      -20.3710   15.8030   -2.6430 C.3    61  G61         0.2408
   1308  N1       -16.2620   15.5350   -5.6860 N.ar   61  G61        -0.1709
   1309  C2       -17.5390   15.0760   -5.9210 C.ar   61  G61         0.2606
   1310  N2       -17.7310   14.4870   -7.1220 N.pl3  61  G61        -0.0859
   1311  N3       -18.5410   15.1860   -5.0520 N.ar   61  G61        -0.1918
   1312  C4       -18.1530   15.8020   -3.9070 C.ar   61  G61         0.1723
   1313  C5       -16.9010   16.2920   -3.5850 C.ar   61  G61         0.1748
   1314  C6       -15.8360   16.1680   -4.5280 C.ar   61  G61         0.3023
   1315  O6       -14.6580   16.5470   -4.4340 O.2    61  G61        -0.2633
   1316  N7       -16.9030   16.8380   -2.3150 N.ar   61  G61        -0.2173
   1317  C8       -18.1300   16.6890   -1.8860 C.ar   61  G61         0.1817
   1318  N9       -18.9320   16.0470   -2.7910 N.ar   61  G61        -0.2693
   1319  OP1      -20.1300   18.6570    2.8710 O.3    61  G61        -0.4373
   1320  OP2      -17.9410   18.4990    1.5290 O.co2  61  G61        -0.5172
   1321  P        -21.2930   12.6270    0.8200 P.3    62  A62         0.2141
   1322  C5'      -22.2650   11.1460   -1.1030 C.3    62  A62         0.1812
   1323  O5'      -21.1300   11.6250   -0.3990 O.3    62  A62        -0.3114
   1324  C4'      -21.8500   10.2180   -2.2150 C.3    62  A62         0.1773
   1325  O4'      -21.2330   10.9840   -3.2750 O.3    62  A62        -0.3307
   1326  C3'      -20.8040    9.1890   -1.8340 C.3    62  A62         0.1860
   1327  O3'      -21.3790    8.0340   -1.2520 O.3    62  A62        -0.3112
   1328  C2'      -20.1050    8.8990   -3.1510 C.3    62  A62         0.2309
   1329  O2'      -20.8650    7.9730   -3.9020 O.3    62  A62        -0.2156
   1330  C1'      -20.1660   10.2570   -3.8450 C.3    62  A62         0.2408
   1331  N1       -15.7520   11.9910   -5.9060 N.ar   62  A62        -0.2040
   1332  C2       -16.7280   11.2190   -6.4220 C.ar   62  A62         0.2016
   1333  N3       -17.8580   10.7950   -5.8350 N.ar   62  A62        -0.2048
   1334  C4       -17.9350   11.2580   -4.5690 C.ar   62  A62         0.1692
   1335  C5       -17.0100   12.0450   -3.9140 C.ar   62  A62         0.1518
   1336  C6       -15.8630   12.4270   -4.6250 C.ar   62  A62         0.1919
   1337  N6       -14.9010   13.1860   -4.0750 N.pl3  62  A62        -0.1054
   1338  N7       -17.4110   12.3230   -2.6160 N.ar   62  A62        -0.2193
   1339  C8       -18.5600   11.6980   -2.5080 C.ar   62  A62         0.1816
   1340  N9       -18.9330   11.0370   -3.6510 N.ar   62  A62        -0.2693
   1341  OP1      -22.3550   12.1130    1.7290 O.3    62  A62        -0.4373
   1342  OP2      -19.9440   12.8960    1.3730 O.co2  62  A62        -0.5172
   1343  P        -20.5300    7.1930   -0.1950 P.3    63  G63         0.2141
   1344  C5'      -17.9410    6.8960   -0.3460 C.3    63  G63         0.1812
   1345  O5'      -19.1900    6.9120   -1.0030 O.3    63  G63        -0.3114
   1346  C4'      -16.9590    7.8320   -1.0070 C.3    63  G63         0.1773
   1347  O4'      -17.4150    9.2050   -0.8520 O.3    63  G63        -0.3307
   1348  C3'      -15.5740    7.8090   -0.3790 C.3    63  G63         0.1860
   1349  O3'      -14.7650    6.7970   -0.9520 O.3    63  G63        -0.3112
   1350  C2'      -15.0620    9.2280   -0.5990 C.3    63  G63         0.2309
   1351  O2'      -14.6030    9.3930   -1.9290 O.3    63  G63        -0.2156
   1352  C1'      -16.3450   10.0310   -0.4490 C.3    63  G63         0.2408
   1353  N1       -14.8270   12.9060    3.4560 N.ar   63  G63        -0.1709
   1354  C2       -14.2800   12.7630    2.2050 C.ar   63  G63         0.2606
   1355  N2       -13.1770   13.4900    1.9550 N.pl3  63  G63        -0.0859
   1356  N3       -14.7690   11.9640    1.2700 N.ar   63  G63        -0.1918
   1357  C4       -15.8700   11.3150    1.6860 C.ar   63  G63         0.1723
   1358  C5       -16.4990   11.3730    2.9120 C.ar   63  G63         0.1748
   1359  C6       -15.9580   12.2240    3.9170 C.ar   63  G63         0.3023
   1360  O6       -16.3710   12.4210    5.0720 O.2    63  G63        -0.2633
   1361  N7       -17.6130   10.5440    2.9240 N.ar   63  G63        -0.2173
   1362  C8       -17.6310    9.9960    1.7400 C.ar   63  G63         0.1817
   1363  N9       -16.5940   10.4190    0.9440 N.ar   63  G63        -0.2693
   1364  OP1      -21.1860    5.8790    0.0410 O.2    63  G63        -0.5172
   1365  OP2      -20.2790    8.0740    0.9710 O.co2  63  G63        -0.4373
   1366  P        -13.7290    5.9950   -0.0340 P.3    64  C64         0.2141
   1367  C5'      -11.9990    7.7150   -0.9570 C.3    64  C64         0.1812
   1368  O5'      -12.5620    7.0460    0.1600 O.3    64  C64        -0.3114
   1369  C4'      -11.0020    8.7470   -0.5130 C.3    64  C64         0.1773
   1370  O4'      -11.6790    9.8790    0.0830 O.3    64  C64        -0.3307
   1371  C3'      -10.0590    8.2840    0.5750 C.3    64  C64         0.1860
   1372  O3'       -9.0280    7.4570    0.0720 O.3    64  C64        -0.3112
   1373  C2'       -9.5940    9.5950    1.1820 C.3    64  C64         0.2309
   1374  O2'       -8.6360   10.2220    0.3420 O.3    64  C64        -0.2156
   1375  C1'      -10.8790   10.4210    1.1130 C.3    64  C64         0.2420
   1376  N1       -11.6480   10.3850    2.3780 N.ar   64  C64        -0.2535
   1377  C2       -11.2980   11.2630    3.3770 C.ar   64  C64         0.3532
   1378  O2       -10.3630   12.0700    3.1910 O.2    64  C64        -0.2443
   1379  N3       -11.9870   11.2410    4.5330 N.ar   64  C64        -0.1739
   1380  C4       -12.9950   10.4000    4.7050 C.ar   64  C64         0.1759
   1381  N4       -13.6230   10.4820    5.8800 N.pl3  64  C64        -0.1070
   1382  C5       -13.3860    9.4750    3.6970 C.ar   64  C64         0.0566
   1383  C6       -12.6780    9.4940    2.5580 C.ar   64  C64         0.0850
   1384  OP1      -13.2200    4.8520   -0.8310 O.2    64  C64        -0.5172
   1385  OP2      -14.3080    5.7450    1.3030 O.co2  64  C64        -0.4373
   1386  P         -8.1950    6.5120    1.0470 P.3    65  G65         0.2141
   1387  C5'       -7.0260    7.3550    3.2050 C.3    65  G65         0.1812
   1388  O5'       -7.2980    7.5470    1.8360 O.3    65  G65        -0.3114
   1389  C4'       -6.6920    8.6690    3.8460 C.3    65  G65         0.1773
   1390  O4'       -7.8900    9.4710    4.0090 O.3    65  G65        -0.3307
   1391  C3'       -6.1020    8.5880    5.2410 C.3    65  G65         0.1860
   1392  O3'       -4.7120    8.3480    5.1900 O.3    65  G65        -0.3112
   1393  C2'       -6.4310    9.9540    5.8130 C.3    65  G65         0.2309
   1394  O2'       -5.5380   10.9110    5.2630 O.3    65  G65        -0.2156
   1395  C1'       -7.8110   10.2070    5.2110 C.3    65  G65         0.2408
   1396  N1       -10.1830   10.7220    9.7400 N.ar   65  G65        -0.1709
   1397  C2        -9.0350   11.3350    9.2860 C.ar   65  G65         0.2606
   1398  N2        -8.4290   12.1890   10.1220 N.pl3  65  G65        -0.0859
   1399  N3        -8.5100   11.1190    8.0860 N.ar   65  G65        -0.1918
   1400  C4        -9.2160   10.2300    7.3580 C.ar   65  G65         0.1723
   1401  C5       -10.3640    9.5630    7.7170 C.ar   65  G65         0.1748
   1402  C6       -10.9250    9.7980    8.9960 C.ar   65  G65         0.3023
   1403  O6       -11.9530    9.2780    9.4520 O.2    65  G65        -0.2633
   1404  N7       -10.8010    8.7280    6.6970 N.ar   65  G65        -0.2173
   1405  C8        -9.9140    8.9010    5.7560 C.ar   65  G65         0.1817
   1406  N9        -8.9180    9.7820    6.0940 N.ar   65  G65        -0.2693
   1407  OP1       -7.3080    5.6950    0.1830 O.2    65  G65        -0.5172
   1408  OP2       -9.0690    5.8080    2.0220 O.co2  65  G65        -0.4373
   1409  P         -4.0760    7.1370    6.0040 P.3    66  C66         0.2141
   1410  C5'       -3.4190    8.7930    7.9130 C.3    66  C66         0.1812
   1411  O5'       -4.1110    7.6210    7.5160 O.3    66  C66        -0.3114
   1412  C4'       -3.9330    9.3320    9.2210 C.3    66  C66         0.1773
   1413  O4'       -5.2940    9.8120    9.0660 O.3    66  C66        -0.3307
   1414  C3'       -4.0250    8.3400   10.3730 C.3    66  C66         0.1860
   1415  O3'       -2.7830    8.1380   11.0170 O.3    66  C66        -0.3112
   1416  C2'       -5.0560    8.9920   11.2780 C.3    66  C66         0.2309
   1417  O2'       -4.4700   10.0760   11.9830 O.3    66  C66        -0.2156
   1418  C1'       -6.0270    9.5700   10.2510 C.3    66  C66         0.2420
   1419  N1        -7.1300    8.6300    9.9410 N.ar   66  C66        -0.2535
   1420  C2        -8.2030    8.5380   10.8360 C.ar   66  C66         0.3532
   1421  O2        -8.1940    9.2370   11.8580 O.2    66  C66        -0.2443
   1422  N3        -9.2230    7.7070   10.5630 N.ar   66  C66        -0.1739
   1423  C4        -9.1960    6.9760    9.4510 C.ar   66  C66         0.1759
   1424  N4       -10.2320    6.1720    9.2240 N.pl3  66  C66        -0.1070
   1425  C5        -8.1240    7.0320    8.5130 C.ar   66  C66         0.0566
   1426  C6        -7.1230    7.8720    8.8060 C.ar   66  C66         0.0850
   1427  OP1       -2.6490    7.1080    5.5650 O.2    66  C66        -0.5172
   1428  OP2       -4.9660    5.9600    5.8380 O.co2  66  C66        -0.4373
   1429  P         -2.4350    6.7030   11.6380 P.3    67  G67         0.2141
   1430  C5'       -3.3770    7.5250   13.9570 C.3    67  G67         0.1812
   1431  O5'       -3.4280    6.5970   12.8790 O.3    67  G67        -0.3114
   1432  C4'       -4.2490    7.0570   15.1000 C.3    67  G67         0.1773
   1433  O4'       -5.6230    6.9650   14.6260 O.3    67  G67        -0.3307
   1434  C3'       -3.9000    5.6730   15.6550 C.3    67  G67         0.1860
   1435  O3'       -4.2340    5.6170   17.0420 O.3    67  G67        -0.3112
   1436  C2'       -4.8470    4.7620   14.8890 C.3    67  G67         0.2309
   1437  O2'       -5.1330    3.5360   15.5290 O.3    67  G67        -0.2156
   1438  C1'       -6.0910    5.6370   14.7790 C.3    67  G67         0.2408
   1439  N1       -10.6380    3.9680   13.3580 N.ar   67  G67        -0.1709
   1440  C2       -10.1600    4.2300   14.6110 C.ar   67  G67         0.2606
   1441  N2       -11.0150    3.9890   15.6250 N.pl3  67  G67        -0.0859
   1442  N3        -8.9370    4.6710   14.8560 N.ar   67  G67        -0.1918
   1443  C4        -8.2320    4.8350   13.7150 C.ar   67  G67         0.1723
   1444  C5        -8.6210    4.6030   12.4110 C.ar   67  G67         0.1748
   1445  C6        -9.9340    4.1380   12.1640 C.ar   67  G67         0.3023
   1446  O6       -10.4650    3.8680   11.0710 O.2    67  G67        -0.2633
   1447  N7        -7.5910    4.8940   11.5240 N.ar   67  G67        -0.2173
   1448  C8        -6.6080    5.2990   12.3020 C.ar   67  G67         0.1817
   1449  N9        -6.9390    5.2860   13.6380 N.ar   67  G67        -0.2693
   1450  OP1       -1.0330    6.8110   12.1280 O.3    67  G67        -0.4373
   1451  OP2       -2.8480    5.6200   10.7300 O.co2  67  G67        -0.5172
   1452  P         -3.1110    5.9120   18.1460 P.3    68  G68         0.2141
   1453  C5'       -2.5770    3.3550   18.1550 C.3    68  G68         0.1812
   1454  O5'       -2.1200    4.6880   18.0090 O.3    68  G68        -0.3114
   1455  C4'       -1.6350    2.4150   17.4550 C.3    68  G68         0.1773
   1456  O4'       -0.3380    2.4710   18.0650 O.3    68  G68        -0.3307
   1457  C3'       -2.0160    0.9440   17.4570 C.3    68  G68         0.1860
   1458  O3'       -2.7960    0.6980   16.2980 O.3    68  G68        -0.3112
   1459  C2'       -0.6670    0.1930   17.4540 C.3    68  G68         0.2309
   1460  O2'       -0.3670   -0.3140   16.1620 O.3    68  G68        -0.2156
   1461  C1'        0.3540    1.2910   17.7950 C.3    68  G68         0.2408
   1462  N1         5.0640    2.0960   19.2450 N.ar   68  G68        -0.1709
   1463  C2         4.4010    2.4390   18.0870 C.ar   68  G68         0.2606
   1464  N2         5.1030    3.1100   17.1600 N.pl3  68  G68        -0.0859
   1465  N3         3.1310    2.1410   17.8530 N.ar   68  G68        -0.1918
   1466  C4         2.5660    1.4620   18.8810 C.ar   68  G68         0.1723
   1467  C5         3.1300    1.0710   20.0730 C.ar   68  G68         0.1748
   1468  C6         4.4980    1.3970   20.3150 C.ar   68  G68         0.3023
   1469  O6         5.1880    1.1410   21.3140 O.2    68  G68        -0.2633
   1470  N7         2.1840    0.3970   20.8430 N.ar   68  G68        -0.2173
   1471  C8         1.0890    0.3910   20.1200 C.ar   68  G68         0.1817
   1472  N9         1.2700    1.0130   18.9110 N.ar   68  G68        -0.2693
   1473  OP1       -3.7950    5.8480   19.4740 O.3    68  G68        -0.4373
   1474  OP2       -2.3170    7.1060   17.7640 O.co2  68  G68        -0.5172
   1475  P         -3.8050   -0.5300   16.1610 P.3    69  U69         0.2141
   1476  C5'       -5.6280    0.4770   17.7700 C.3    69  U69         0.1812
   1477  O5'       -5.2250    0.1190   16.4590 O.3    69  U69        -0.3114
   1478  C4'       -7.1300    0.5320   17.8510 C.3    69  U69         0.1773
   1479  O4'       -7.6190    1.5180   16.9140 O.3    69  U69        -0.3307
   1480  C3'       -7.8390   -0.7490   17.4480 C.3    69  U69         0.1860
   1481  O3'       -7.9250   -1.6590   18.5310 O.3    69  U69        -0.3112
   1482  C2'       -9.1980   -0.2580   16.9700 C.3    69  U69         0.2309
   1483  O2'      -10.0500   -0.0140   18.0830 O.3    69  U69        -0.2156
   1484  C1'       -8.8350    1.0870   16.3430 C.3    69  U69         0.2420
   1485  N1        -8.6650    1.0320   14.8680 N.ar   69  U69        -0.2534
   1486  C2        -9.7760    0.8510   14.0730 C.ar   69  U69         0.3546
   1487  O2       -10.8980    0.7120   14.5200 O.2    69  U69        -0.2443
   1488  N3        -9.5420    0.8550   12.7220 N.ar   69  U69        -0.1530
   1489  C4        -8.3320    1.0240   12.0920 C.ar   69  U69         0.2846
   1490  O4        -8.2920    1.0000   10.8570 O.2    69  U69        -0.2650
   1491  C5        -7.2220    1.2200   12.9770 C.ar   69  U69         0.0814
   1492  C6        -7.4250    1.2250   14.3040 C.ar   69  U69         0.0870
   1493  OP1       -3.4910   -1.5760   17.1610 O.3    69  U69        -0.4373
   1494  OP2       -3.8230   -0.8780   14.7150 O.co2  69  U69        -0.5172
   1495  P         -7.9990   -3.2400   18.2560 P.3    70  G70         0.2141
   1496  C5'      -10.4410   -3.4150   19.1590 C.3    70  G70         0.1812
   1497  O5'       -9.5480   -3.5370   18.0620 O.3    70  G70        -0.3114
   1498  C4'      -11.8150   -3.8870   18.7770 C.3    70  G70         0.1773
   1499  O4'      -12.3850   -2.9720   17.8120 O.3    70  G70        -0.3307
   1500  C3'      -11.8670   -5.2340   18.0790 C.3    70  G70         0.1860
   1501  O3'      -11.8110   -6.3150   18.9930 O.3    70  G70        -0.3112
   1502  C2'      -13.1690   -5.1440   17.3010 C.3    70  G70         0.2309
   1503  O2'      -14.2610   -5.2850   18.1890 O.3    70  G70        -0.2156
   1504  C1'      -13.1470   -3.6820   16.8660 C.3    70  G70         0.2408
   1505  N1       -13.7380   -3.8490   11.7920 N.ar   70  G70        -0.1709
   1506  C2       -14.6260   -4.2020   12.7850 C.ar   70  G70         0.2606
   1507  N2       -15.8250   -4.6400   12.3700 N.pl3  70  G70        -0.0859
   1508  N3       -14.3670   -4.1170   14.0840 N.ar   70  G70        -0.1918
   1509  C4       -13.1200   -3.6620   14.3150 C.ar   70  G70         0.1723
   1510  C5       -12.1600   -3.2860   13.3970 C.ar   70  G70         0.1748
   1511  C6       -12.4450   -3.3710   12.0080 C.ar   70  G70         0.3023
   1512  O6       -11.7040   -3.0730   11.0540 O.2    70  G70        -0.2633
   1513  N7       -11.0010   -2.8750   14.0320 N.ar   70  G70        -0.2173
   1514  C8       -11.2720   -2.9960   15.3060 C.ar   70  G70         0.1817
   1515  N9       -12.5360   -3.4720   15.5420 N.ar   70  G70        -0.2693
   1516  OP1       -7.5850   -3.8310   19.5540 O.3    70  G70        -0.4373
   1517  OP2       -7.3430   -3.5680   16.9610 O.co2  70  G70        -0.5172
   1518  P        -11.2690   -7.7500   18.5150 P.3    71  A71         0.2141
   1519  C5'      -13.6990   -8.5920   17.9500 C.3    71  A71         0.1812
   1520  O5'      -12.3860   -8.2650   17.5120 O.3    71  A71        -0.3114
   1521  C4'      -14.6020   -8.8290   16.7640 C.3    71  A71         0.1773
   1522  O4'      -14.5890   -7.6600   15.9100 O.3    71  A71        -0.3307
   1523  C3'      -14.1870   -9.9620   15.8380 C.3    71  A71         0.1860
   1524  O3'      -14.6060  -11.2250   16.3150 O.3    71  A71        -0.3112
   1525  C2'      -14.8330   -9.5710   14.5170 C.3    71  A71         0.2309
   1526  O2'      -16.2160   -9.8820   14.5400 O.3    71  A71        -0.2156
   1527  C1'      -14.6910   -8.0500   14.5510 C.3    71  A71         0.2408
   1528  N1       -12.6680   -6.6990    9.9960 N.ar   71  A71        -0.2040
   1529  C2       -13.8850   -7.1320   10.3520 C.ar   71  A71         0.2016
   1530  N3       -14.3420   -7.4720   11.5560 N.ar   71  A71        -0.2048
   1531  C4       -13.3860   -7.3230   12.4860 C.ar   71  A71         0.1692
   1532  C5       -12.0890   -6.8910   12.2770 C.ar   71  A71         0.1518
   1533  C6       -11.7300   -6.5600   10.9560 C.ar   71  A71         0.1919
   1534  N6       -10.5190   -6.1330   10.5940 N.pl3  71  A71        -0.1054
   1535  N7       -11.3840   -6.8660   13.4740 N.ar   71  A71        -0.2193
   1536  C8       -12.2620   -7.2860   14.3570 C.ar   71  A71         0.1816
   1537  N9       -13.4930   -7.5750   13.8290 N.ar   71  A71        -0.2693
   1538  OP1      -11.2420   -8.5560   19.7660 O.3    71  A71        -0.4373
   1539  OP2      -10.0430   -7.6120   17.6950 O.co2  71  A71        -0.5172
   1540  P        -13.8690  -12.5650   15.8360 P.3    72  A72         0.2141
   1541  C5'      -15.7700  -12.9950   14.0760 C.3    72  A72         0.1812
   1542  O5'      -14.3950  -12.7830   14.3530 O.3    72  A72        -0.3114
   1543  C4'      -15.9920  -13.0910   12.5910 C.3    72  A72         0.1773
   1544  O4'      -15.7520  -11.7950   11.9820 O.3    72  A72        -0.3307
   1545  C3'      -15.0440  -14.0280   11.8610 C.3    72  A72         0.1860
   1546  O3'      -15.4640  -15.3840   11.9260 O.3    72  A72        -0.3112
   1547  C2'      -15.0170  -13.4510   10.4500 C.3    72  A72         0.2309
   1548  O2'      -16.1720  -13.8490    9.7280 O.3    72  A72        -0.2156
   1549  C1'      -15.1200  -11.9530   10.7290 C.3    72  A72         0.2408
   1550  N1       -11.3570   -9.4310    8.1990 N.ar   72  A72        -0.2040
   1551  C2       -12.5280   -9.9310    7.7890 C.ar   72  A72         0.2016
   1552  N3       -13.4630  -10.5730    8.4850 N.ar   72  A72        -0.2048
   1553  C4       -13.0990  -10.6970    9.7730 C.ar   72  A72         0.1692
   1554  C5       -11.9250  -10.2320   10.3420 C.ar   72  A72         0.1518
   1555  C6       -11.0160   -9.5650    9.5000 C.ar   72  A72         0.1919
   1556  N6        -9.8450   -9.0560    9.9160 N.pl3  72  A72        -0.1054
   1557  N7       -11.8830  -10.5360   11.6960 N.ar   72  A72        -0.2193
   1558  C8       -13.0110  -11.1660   11.9110 C.ar   72  A72         0.1816
   1559  N9       -13.7980  -11.3010   10.7950 N.ar   72  A72        -0.2693
   1560  OP1      -14.3950  -13.6370   16.7190 O.3    72  A72        -0.4373
   1561  OP2      -12.4050  -12.3570   15.7120 O.co2  72  A72        -0.5172
   1562  P        -14.3900  -16.5840   11.9850 P.3    73  U73         0.2141
   1563  C5'      -14.7010  -16.7790    9.4150 C.3    73  U73         0.1812
   1564  O5'      -13.8190  -16.6270   10.5110 O.3    73  U73        -0.3114
   1565  C4'      -13.9880  -16.5160    8.1200 C.3    73  U73         0.1773
   1566  O4'      -13.7300  -15.0940    7.9790 O.3    73  U73        -0.3307
   1567  C3'      -12.6130  -17.1420    7.9920 C.3    73  U73         0.1860
   1568  O3'      -12.6450  -18.5320    7.6940 O.3    73  U73        -0.3112
   1569  C2'      -11.9730  -16.2840    6.9110 C.3    73  U73         0.2309
   1570  O2'      -12.4650  -16.6490    5.6330 O.3    73  U73        -0.2156
   1571  C1'      -12.5240  -14.9000    7.2650 C.3    73  U73         0.2420
   1572  N1       -11.5710  -14.1360    8.1030 N.ar   73  U73        -0.2534
   1573  C2       -10.5950  -13.4250    7.4290 C.ar   73  U73         0.3546
   1574  O2       -10.5300  -13.4150    6.2140 O.2    73  U73        -0.2443
   1575  N3        -9.7100  -12.7210    8.2150 N.ar   73  U73        -0.1530
   1576  C4        -9.7020  -12.6750    9.5960 C.ar   73  U73         0.2846
   1577  O4        -8.8400  -12.0090   10.1760 O.2    73  U73        -0.2650
   1578  C5       -10.7380  -13.4440   10.2260 C.ar   73  U73         0.0814
   1579  C6       -11.6150  -14.1350    9.4820 C.ar   73  U73         0.0870
   1580  OP1      -15.1280  -17.8450   12.2390 O.2    73  U73        -0.5172
   1581  OP2      -13.2560  -16.2300   12.8640 O.co2  73  U73        -0.4373
   1582  P        -11.4030  -19.4730    8.1010 P.3    74  C74         0.2141
   1583  C5'      -10.3210  -19.0300    5.7680 C.3    74  C74         0.1812
   1584  O5'      -10.2150  -18.9410    7.1800 O.3    74  C74        -0.3114
   1585  C4'       -9.2560  -18.2370    5.0520 C.3    74  C74         0.1773
   1586  O4'       -9.2950  -16.8310    5.4190 O.3    74  C74        -0.3307
   1587  C3'       -7.8190  -18.6280    5.3250 C.3    74  C74         0.1860
   1588  O3'       -7.4440  -19.8290    4.6810 O.3    74  C74        -0.3112
   1589  C2'       -7.0610  -17.4010    4.8360 C.3    74  C74         0.2309
   1590  O2'       -7.0070  -17.3790    3.4190 O.3    74  C74        -0.2156
   1591  C1'       -7.9930  -16.2780    5.2980 C.3    74  C74         0.2420
   1592  N1        -7.5660  -15.7350    6.6070 N.ar   74  C74        -0.2535
   1593  C2        -6.5040  -14.8280    6.6170 C.ar   74  C74         0.3532
   1594  O2        -5.9760  -14.5050    5.5390 O.2    74  C74        -0.2443
   1595  N3        -6.0810  -14.3150    7.8000 N.ar   74  C74        -0.1739
   1596  C4        -6.6710  -14.6800    8.9440 C.ar   74  C74         0.1759
   1597  N4        -6.2180  -14.1480   10.0850 N.pl3  74  C74        -0.1070
   1598  C5        -7.7510  -15.6080    8.9640 C.ar   74  C74         0.0566
   1599  C6        -8.1580  -16.1100    7.7860 C.ar   74  C74         0.0850
   1600  OP1      -11.7160  -20.8690    7.6870 O.2    74  C74        -0.5172
   1601  OP2      -11.0700  -19.2310    9.5290 O.co2  74  C74        -0.4373
   1602  P         -6.4450  -20.8520    5.4110 P.3    75  A75         0.2141
   1603  C5'       -4.3480  -20.0700    4.0590 C.3    75  A75         0.1812
   1604  O5'       -5.0290  -20.1240    5.3010 O.3    75  A75        -0.3114
   1605  C4'       -3.2620  -19.0250    4.0460 C.3    75  A75         0.1773
   1606  O4'       -3.7850  -17.7580    4.5140 O.3    75  A75        -0.3307
   1607  C3'       -2.0630  -19.2690    4.9480 C.3    75  A75         0.1860
   1608  O3'       -1.1410  -20.2060    4.4250 O.3    75  A75        -0.3112
   1609  C2'       -1.4810  -17.8730    5.0960 C.3    75  A75         0.2309
   1610  O2'       -0.7530  -17.5180    3.9310 O.3    75  A75        -0.2156
   1611  C1'       -2.7540  -17.0260    5.1520 C.3    75  A75         0.2408
   1612  N1        -1.5790  -14.3890    9.4190 N.ar   75  A75        -0.2040
   1613  C2        -0.9840  -14.4780    8.2170 C.ar   75  A75         0.2016
   1614  N3        -1.3500  -15.1870    7.1510 N.ar   75  A75        -0.2048
   1615  C4        -2.4780  -15.8830    7.3990 C.ar   75  A75         0.1692
   1616  C5        -3.2010  -15.8910    8.5780 C.ar   75  A75         0.1518
   1617  C6        -2.7140  -15.0940    9.6300 C.ar   75  A75         0.1919
   1618  N6        -3.3170  -15.0230   10.8170 N.pl3  75  A75        -0.1054
   1619  N7        -4.3130  -16.7140    8.4750 N.ar   75  A75        -0.2193
   1620  C8        -4.2410  -17.1880    7.2500 C.ar   75  A75         0.1816
   1621  N9        -3.1540  -16.7240    6.5420 N.ar   75  A75        -0.2693
   1622  OP1       -6.4030  -22.0910    4.5870 O.2    75  A75        -0.5172
   1623  OP2       -6.8360  -20.9880    6.8420 O.co2  75  A75        -0.4373
   1624  P         -0.4580  -21.2830    5.4030 P.3    76  U76         0.2141
   1625  C5'        1.7940  -19.9280    5.5180 C.3    76  U76         0.1812
   1626  O5'        0.6570  -20.4520    6.1880 O.3    76  U76        -0.3114
   1627  C4'        2.5630  -18.9700    6.3950 C.3    76  U76         0.1773
   1628  O4'        1.7230  -17.8350    6.7350 O.3    76  U76        -0.3307
   1629  C3'        3.0030  -19.4980    7.7520 C.3    76  U76         0.1860
   1630  O3'        4.1400  -20.3390    7.7090 O.3    76  U76        -0.3112
   1631  C2'        3.2110  -18.2180    8.5450 C.3    76  U76         0.2309
   1632  O2'        4.4230  -17.5790    8.1690 O.3    76  U76        -0.2156
   1633  C1'        2.0430  -17.3740    8.0380 C.3    76  U76         0.2420
   1634  N1         0.8550  -17.5300    8.9120 N.ar   76  U76        -0.2534
   1635  C2         0.8440  -16.8300   10.1100 C.ar   76  U76         0.3546
   1636  O2         1.7580  -16.0960   10.4560 O.2    76  U76        -0.2443
   1637  N3        -0.2790  -17.0220   10.8860 N.ar   76  U76        -0.1530
   1638  C4        -1.3660  -17.8250   10.5840 C.ar   76  U76         0.2846
   1639  O4        -2.3130  -17.9010   11.3690 O.2    76  U76        -0.2650
   1640  C5        -1.2790  -18.5160    9.3320 C.ar   76  U76         0.0814
   1641  C6        -0.1960  -18.3460    8.5640 C.ar   76  U76         0.0870
   1642  OP1        0.2110  -22.3080    4.5560 O.2    76  U76        -0.5172
   1643  OP2       -1.4980  -21.7010    6.3760 O.co2  76  U76        -0.4373
   1644  P          4.2080  -21.6250    8.6750 P.3    77  U77         0.2141
   1645  C5'        5.3550  -20.2010   10.5410 C.3    77  U77         0.1812
   1646  O5'        4.2670  -21.0140   10.1390 O.3    77  U77        -0.3114
   1647  C4'        5.1110  -19.5980   11.8980 C.3    77  U77         0.1773
   1648  O4'        3.9560  -18.7140   11.8550 O.3    77  U77        -0.3307
   1649  C3'        4.7670  -20.5660   13.0210 C.3    77  U77         0.1860
   1650  O3'        5.8840  -21.2840   13.5200 O.3    77  U77        -0.3112
   1651  C2'        4.1230  -19.6340   14.0340 C.3    77  U77         0.2309
   1652  O2'        5.1160  -18.8360   14.6580 O.3    77  U77        -0.2156
   1653  C1'        3.3030  -18.7300   13.1100 C.3    77  U77         0.2420
   1654  N1         1.9210  -19.2480   12.9490 N.ar   77  U77        -0.2534
   1655  C2         1.0450  -18.9110   13.9640 C.ar   77  U77         0.3546
   1656  O2         1.3730  -18.2160   14.9060 O.2    77  U77        -0.2443
   1657  N3        -0.2270  -19.3990   13.8380 N.ar   77  U77        -0.1530
   1658  C4        -0.7190  -20.1850   12.8230 C.ar   77  U77         0.2846
   1659  O4        -1.9030  -20.5410   12.8710 O.2    77  U77        -0.2650
   1660  C5         0.2450  -20.5040   11.8050 C.ar   77  U77         0.0814
   1661  C6         1.5010  -20.0370   11.9040 C.ar   77  U77         0.0870
   1662  OP1        5.5070  -22.2970    8.4060 O.2    77  U77        -0.5172
   1663  OP2        2.9170  -22.3580    8.5950 O.co2  77  U77        -0.4373
   1664  P          5.7450  -22.8340   13.9570 P.3    78  G78         0.2141
   1665  C5'        5.5390  -21.8720   16.3910 C.3    78  G78         0.1812
   1666  O5'        5.0630  -22.7640   15.3960 O.3    78  G78        -0.3114
   1667  C4'        4.4910  -21.6050   17.4480 C.3    78  G78         0.1773
   1668  O4'        3.4020  -20.8160   16.8950 O.3    78  G78        -0.3307
   1669  C3'        3.7850  -22.8200   18.0390 C.3    78  G78         0.1860
   1670  O3'        4.5680  -23.5290   18.9910 O.3    78  G78        -0.3112
   1671  C2'        2.5270  -22.1950   18.6300 C.3    78  G78         0.2309
   1672  O2'        2.8270  -21.5530   19.8610 O.3    78  G78        -0.2156
   1673  C1'        2.2020  -21.1200   17.5780 C.3    78  G78         0.2408
   1674  N1        -2.7480  -21.8590   16.9300 N.ar   78  G78        -0.1709
   1675  C2        -2.0520  -21.3130   17.9870 C.ar   78  G78         0.2606
   1676  N2        -2.7880  -20.9060   19.0430 N.pl3  78  G78        -0.0859
   1677  N3        -0.7340  -21.1680   18.0140 N.ar   78  G78        -0.1918
   1678  C4        -0.1630  -21.6270   16.8830 C.ar   78  G78         0.1723
   1679  C5        -0.7640  -22.1830   15.7720 C.ar   78  G78         0.1748
   1680  C6        -2.1790  -22.3260   15.7480 C.ar   78  G78         0.3023
   1681  O6        -2.9030  -22.7980   14.8610 O.2    78  G78        -0.2633
   1682  N7         0.1930  -22.5160   14.8280 N.ar   78  G78        -0.2173
   1683  C8         1.3330  -22.1620   15.3750 C.ar   78  G78         0.1817
   1684  N9         1.1870  -21.6060   16.6210 N.ar   78  G78        -0.2693
   1685  OP1        7.1280  -23.3620   14.0670 O.3    78  G78        -0.4373
   1686  OP2        4.7780  -23.5800   13.1120 O.co2  78  G78        -0.5172
   1687  P          4.3730  -25.1160   19.1970 P.3    79  C79         0.2141
   1688  C5'        3.3510  -24.6950   21.5710 C.3    79  C79         0.1812
   1689  O5'        4.3730  -25.2810   20.7760 O.3    79  C79        -0.3114
   1690  C4'        3.7730  -24.6610   23.0140 C.3    79  C79         0.1773
   1691  O4'        2.6850  -24.1480   23.8430 O.3    79  C79        -0.3307
   1692  C3'        4.1590  -26.0280   23.6070 C.3    79  C79         0.1860
   1693  O3'        5.2530  -25.8520   24.5070 O.3    79  C79        -0.3112
   1694  C2'        2.9130  -26.3900   24.4070 C.3    79  C79         0.2309
   1695  O2'        3.1080  -27.3380   25.4400 O.3    79  C79        -0.2156
   1696  C1'        2.5230  -25.0160   24.9400 C.3    79  C79         0.2420
   1697  N1         1.1800  -24.9400   25.5330 N.ar   79  C79        -0.2535
   1698  C2         1.0200  -24.1170   26.6600 C.ar   79  C79         0.3532
   1699  O2         1.9760  -23.4240   27.0410 O.2    79  C79        -0.2443
   1700  N3        -0.1800  -24.0760   27.2850 N.ar   79  C79        -0.1739
   1701  C4        -1.1850  -24.8440   26.8400 C.ar   79  C79         0.1759
   1702  N4        -2.3570  -24.7840   27.4810 N.pl3  79  C79        -0.1070
   1703  C5        -1.0430  -25.6970   25.7060 C.ar   79  C79         0.0566
   1704  C6         0.1520  -25.7290   25.0990 C.ar   79  C79         0.0850
   1705  OP1        5.5860  -25.8030   18.6970 O.2    79  C79        -0.5172
   1706  OP2        3.0410  -25.5560   18.7060 O.co2  79  C79        -0.4373
   1707  P          6.5620  -26.7890   24.4220 P.3    80  A80         0.2141
   1708  C5'        8.2150  -25.8850   26.2940 C.3    80  A80         0.1812
   1709  O5'        7.1420  -26.7370   25.9140 O.3    80  A80        -0.3114
   1710  C4'        8.2850  -25.7550   27.7970 C.3    80  A80         0.1773
   1711  O4'        7.2000  -24.9030   28.2460 O.3    80  A80        -0.3307
   1712  C3'        8.0940  -27.0540   28.5740 C.3    80  A80         0.1860
   1713  O3'        9.2930  -27.8040   28.7080 O.3    80  A80        -0.3112
   1714  C2'        7.4970  -26.5860   29.8980 C.3    80  A80         0.2309
   1715  O2'        8.5070  -26.1060   30.7720 O.3    80  A80        -0.2156
   1716  C1'        6.6460  -25.4010   29.4450 C.3    80  A80         0.2408
   1717  N1         1.9070  -26.3550   31.2860 N.ar   80  A80        -0.2040
   1718  C2         3.0520  -26.0060   31.8930 C.ar   80  A80         0.2016
   1719  N3         4.2510  -25.7690   31.3660 N.ar   80  A80        -0.2048
   1720  C4         4.2180  -25.9370   30.0340 C.ar   80  A80         0.1692
   1721  C5         3.1220  -26.2970   29.2650 C.ar   80  A80         0.1518
   1722  C6         1.9040  -26.5070   29.9400 C.ar   80  A80         0.1919
   1723  N6         0.7600  -26.8570   29.3310 N.pl3  80  A80        -0.1054
   1724  N7         3.4680  -26.3600   27.9160 N.ar   80  A80        -0.2193
   1725  C8         4.7440  -26.0440   27.9020 C.ar   80  A80         0.1816
   1726  N9         5.2570  -25.7890   29.1510 N.ar   80  A80        -0.2693
   1727  OP1        7.5440  -26.1800   23.4770 O.2    80  A80        -0.5172
   1728  OP2        6.0970  -28.1870   24.2060 O.co2  80  A80        -0.4373
   1729  P          9.2440  -29.4160   28.6990 P.3    81  U81         0.2141
   1730  C5'        9.3160  -29.3880   31.3190 C.3    81  U81         0.1812
   1731  O5'        8.6570  -29.7890   30.1290 O.3    81  U81        -0.3114
   1732  C4'        8.6540  -30.0190   32.5150 C.3    81  U81         0.1773
   1733  O4'        7.4330  -29.3030   32.8270 O.3    81  U81        -0.3307
   1734  C3'        8.2130  -31.4550   32.2980 C.3    81  U81         0.1860
   1735  O3'        9.2680  -32.3650   32.5450 O.3    81  U81        -0.3112
   1736  C2'        7.0270  -31.6080   33.2440 C.3    81  U81         0.2309
   1737  O2'        7.4700  -31.8540   34.5740 O.3    81  U81        -0.2156
   1738  C1'        6.4170  -30.2050   33.2000 C.3    81  U81         0.2420
   1739  N1         5.2960  -30.0590   32.2400 N.ar   81  U81        -0.2534
   1740  C2         4.0320  -30.2910   32.7370 C.ar   81  U81         0.3546
   1741  O2         3.8350  -30.6530   33.8900 O.2    81  U81        -0.2443
   1742  N3         3.0070  -30.1080   31.8380 N.ar   81  U81        -0.1530
   1743  C4         3.1080  -29.6990   30.5230 C.ar   81  U81         0.2846
   1744  O4         2.0730  -29.5790   29.8560 O.2    81  U81        -0.2650
   1745  C5         4.4530  -29.4620   30.0820 C.ar   81  U81         0.0814
   1746  C6         5.4740  -29.6440   30.9380 C.ar   81  U81         0.0870
   1747  OP1       10.6430  -29.9090   28.6200 O.3    81  U81        -0.4373
   1748  OP2        8.2510  -29.8710   27.6900 O.co2  81  U81        -0.5172
   1749  P          9.2750  -33.8090   31.8560 P.3    82  C82         0.2141
   1750  C5'        7.1840  -35.3600   31.9270 C.3    82  C82         0.1812
   1751  O5'        8.1300  -34.5840   32.6320 O.3    82  C82        -0.3114
   1752  C4'        5.9740  -35.5920   32.7820 C.3    82  C82         0.1773
   1753  O4'        5.2420  -34.3500   32.9470 O.3    82  C82        -0.3307
   1754  C3'        4.9460  -36.5600   32.2330 C.3    82  C82         0.1860
   1755  O3'        5.3130  -37.9140   32.4640 O.3    82  C82        -0.3112
   1756  C2'        3.6860  -36.1320   32.9700 C.3    82  C82         0.2309
   1757  O2'        3.7440  -36.5730   34.3240 O.3    82  C82        -0.2156
   1758  C1'        3.8570  -34.6130   32.9750 C.3    82  C82         0.2420
   1759  N1         3.2410  -33.9580   31.7950 N.ar   82  C82        -0.2535
   1760  C2         1.8560  -33.8130   31.7360 C.ar   82  C82         0.3532
   1761  O2         1.1620  -34.2610   32.6720 O.2    82  C82        -0.2443
   1762  N3         1.3020  -33.1960   30.6540 N.ar   82  C82        -0.1739
   1763  C4         2.0780  -32.7260   29.6680 C.ar   82  C82         0.1759
   1764  N4         1.4780  -32.1340   28.6250 N.pl3  82  C82        -0.1070
   1765  C5         3.4980  -32.8460   29.7120 C.ar   82  C82         0.0566
   1766  C6         4.0250  -33.4590   30.7860 C.ar   82  C82         0.0850
   1767  OP1       10.5780  -34.4280   32.2130 O.3    82  C82        -0.4373
   1768  OP2        8.8470  -33.7550   30.4370 O.co2  82  C82        -0.5172
   1769  P          5.3680  -38.9610   31.2520 P.3    83  C83         0.2141
   1770  C5'        3.1010  -39.9700   32.0060 C.3    83  C83         0.1812
   1771  O5'        3.8410  -39.3140   30.9910 O.3    83  C83        -0.3114
   1772  C4'        1.6180  -39.7830   31.8500 C.3    83  C83         0.1773
   1773  O4'        1.2690  -38.3700   31.9160 O.3    83  C83        -0.3307
   1774  C3'        1.0090  -40.2270   30.5350 C.3    83  C83         0.1860
   1775  O3'        0.8840  -41.6320   30.4020 O.3    83  C83        -0.3112
   1776  C2'       -0.3170  -39.4890   30.5570 C.3    83  C83         0.2309
   1777  O2'       -1.1960  -40.0940   31.4930 O.3    83  C83        -0.2156
   1778  C1'        0.1240  -38.1360   31.1220 C.3    83  C83         0.2420
   1779  N1         0.4810  -37.2200   30.0200 N.ar   83  C83        -0.2535
   1780  C2        -0.5730  -36.6270   29.3350 C.ar   83  C83         0.3532
   1781  O2        -1.7230  -36.8710   29.7110 O.2    83  C83        -0.2443
   1782  N3        -0.3260  -35.7970   28.2950 N.ar   83  C83        -0.1739
   1783  C4         0.9340  -35.5510   27.9320 C.ar   83  C83         0.1759
   1784  N4         1.1440  -34.7340   26.8950 N.pl3  83  C83        -0.1070
   1785  C5         2.0350  -36.1590   28.6010 C.ar   83  C83         0.0566
   1786  C6         1.7670  -36.9810   29.6390 C.ar   83  C83         0.0850
   1787  OP1        6.0100  -40.1910   31.8060 O.3    83  C83        -0.4373
   1788  OP2        5.9180  -38.2950   30.0440 O.co2  83  C83        -0.5172
   1789  P          0.9600  -42.3190   28.9460 P.3    84  G84         0.2141
   1790  C5'       -1.6540  -42.2050   28.6780 C.3    84  G84         0.1812
   1791  O5'       -0.3630  -41.8400   28.2020 O.3    84  G84        -0.3114
   1792  C4'       -2.7430  -41.4510   27.9500 C.3    84  G84         0.1773
   1793  O4'       -2.4830  -40.0210   28.0120 O.3    84  G84        -0.3307
   1794  C3'       -2.8670  -41.7310   26.4600 C.3    84  G84         0.1860
   1795  O3'       -3.5980  -42.9080   26.1730 O.3    84  G84        -0.3112
   1796  C2'       -3.5510  -40.4790   25.9430 C.3    84  G84         0.2309
   1797  O2'       -4.9380  -40.5340   26.2180 O.3    84  G84        -0.2156
   1798  C1'       -2.9290  -39.4040   26.8250 C.3    84  G84         0.2408
   1799  N1        -1.4300  -36.3360   23.0730 N.ar   84  G84        -0.1709
   1800  C2        -2.6910  -36.7880   23.3760 C.ar   84  G84         0.2606
   1801  N2        -3.6750  -36.3580   22.5760 N.pl3  84  G84        -0.0859
   1802  N3        -2.9690  -37.5960   24.3870 N.ar   84  G84        -0.1918
   1803  C4        -1.8520  -37.9220   25.0770 C.ar   84  G84         0.1723
   1804  C5        -0.5520  -37.5280   24.8540 C.ar   84  G84         0.1748
   1805  C6        -0.2710  -36.6620   23.7740 C.ar   84  G84         0.3023
   1806  O6         0.8260  -36.2030   23.4300 O.2    84  G84        -0.2633
   1807  N7         0.3080  -38.0800   25.7860 N.ar   84  G84        -0.2173
   1808  C8        -0.4730  -38.7940   26.5540 C.ar   84  G84         0.1817
   1809  N9        -1.7880  -38.7510   26.1690 N.ar   84  G84        -0.2693
   1810  OP1        0.8790  -43.7890   29.1550 O.3    84  G84        -0.4373
   1811  OP2        2.0970  -41.7600   28.1890 O.co2  84  G84        -0.5172
   1812  P         -3.2240  -43.7830   24.8820 P.3    85  C85         0.2141
   1813  C5'       -4.9090  -42.3760   23.4230 C.3    85  C85         0.1812
   1814  O5'       -3.6020  -42.8800   23.6300 O.3    85  C85        -0.3114
   1815  C4'       -4.9170  -41.4570   22.2300 C.3    85  C85         0.1773
   1816  O4'       -4.1770  -40.2440   22.5210 O.3    85  C85        -0.3307
   1817  C3'       -4.2360  -42.0040   20.9910 C.3    85  C85         0.1860
   1818  O3'       -5.0620  -42.9000   20.2800 O.3    85  C85        -0.3112
   1819  C2'       -3.8920  -40.7420   20.2120 C.3    85  C85         0.2309
   1820  O2'       -5.0300  -40.2540   19.5210 O.3    85  C85        -0.2156
   1821  C1'       -3.5640  -39.7640   21.3400 C.3    85  C85         0.2420
   1822  N1        -2.1090  -39.6360   21.5710 N.ar   85  C85        -0.2535
   1823  C2        -1.3710  -38.8540   20.6830 C.ar   85  C85         0.3532
   1824  O2        -1.9500  -38.3100   19.7340 O.2    85  C85        -0.2443
   1825  N3        -0.0440  -38.7010   20.8710 N.ar   85  C85        -0.1739
   1826  C4         0.5450  -39.2980   21.9080 C.ar   85  C85         0.1759
   1827  N4         1.8590  -39.1050   22.0440 N.pl3  85  C85        -0.1070
   1828  C5        -0.1740  -40.1110   22.8380 C.ar   85  C85         0.0566
   1829  C6        -1.4940  -40.2530   22.6310 C.ar   85  C85         0.0850
   1830  OP1       -4.0800  -44.9880   24.9380 O.3    85  C85        -0.4373
   1831  OP2       -1.7440  -43.8480   24.7750 O.co2  85  C85        -0.5172
   1832  P         -4.4120  -44.0920   19.4300 P.3    86  U86         0.2141
   1833  C5'       -4.4910  -42.7100   17.2090 C.3    86  U86         0.1812
   1834  O5'       -3.7090  -43.3450   18.2110 O.3    86  U86        -0.3114
   1835  C4'       -3.6300  -42.1210   16.1220 C.3    86  U86         0.1773
   1836  O4'       -2.8710  -41.0100   16.6570 O.3    86  U86        -0.3307
   1837  C3'       -2.5680  -43.0410   15.5410 C.3    86  U86         0.1860
   1838  O3'       -3.0800  -43.9340   14.5700 O.3    86  U86        -0.3112
   1839  C2'       -1.5520  -42.0560   14.9820 C.3    86  U86         0.2309
   1840  O2'       -2.0100  -41.5180   13.7500 O.3    86  U86        -0.2156
   1841  C1'       -1.6080  -40.9430   16.0270 C.3    86  U86         0.2420
   1842  N1        -0.5460  -41.0580   17.0540 N.ar   86  U86        -0.2534
   1843  C2         0.6970  -40.5850   16.6990 C.ar   86  U86         0.3546
   1844  O2         0.9240  -40.1040   15.6000 O.2    86  U86        -0.2443
   1845  N3         1.6650  -40.6870   17.6660 N.ar   86  U86        -0.1530
   1846  C4         1.5070  -41.2030   18.9380 C.ar   86  U86         0.2846
   1847  O4         2.4810  -41.2140   19.6930 O.2    86  U86        -0.2650
   1848  C5         0.1850  -41.6770   19.2440 C.ar   86  U86         0.0814
   1849  C6        -0.7730  -41.5880   18.3060 C.ar   86  U86         0.0870
   1850  OP1       -5.5680  -44.8830   18.9420 O.2    86  U86        -0.5172
   1851  OP2       -3.3560  -44.7410   20.2440 O.co2  86  U86        -0.4373
   1852  P         -2.4570  -45.4100   14.4100 P.3    87  C87         0.2141
   1853  C5'       -1.1700  -44.5030   12.3130 C.3    87  C87         0.1812
   1854  O5'       -1.1280  -45.1710   13.5630 O.3    87  C87        -0.3114
   1855  C4'        0.1950  -44.0120   11.9020 C.3    87  C87         0.1773
   1856  O4'        0.6560  -42.9890   12.8210 O.3    87  C87        -0.3307
   1857  C3'        1.3060  -45.0400   11.9220 C.3    87  C87         0.1860
   1858  O3'        1.2860  -45.8890   10.7880 O.3    87  C87        -0.3112
   1859  C2'        2.5570  -44.1770   12.0300 C.3    87  C87         0.2309
   1860  O2'        2.8860  -43.6140   10.7680 O.3    87  C87        -0.2156
   1861  C1'        2.0640  -43.0490   12.9390 C.3    87  C87         0.2420
   1862  N1         2.4110  -43.2660   14.3640 N.ar   87  C87        -0.2535
   1863  C2         3.6730  -42.8620   14.7960 C.ar   87  C87         0.3532
   1864  O2         4.4460  -42.3570   13.9650 O.2    87  C87        -0.2443
   1865  N3         4.0150  -43.0190   16.1000 N.ar   87  C87        -0.1739
   1866  C4         3.1470  -43.5770   16.9550 C.ar   87  C87         0.1759
   1867  N4         3.5310  -43.7280   18.2280 N.pl3  87  C87        -0.1070
   1868  C5         1.8510  -44.0060   16.5420 C.ar   87  C87         0.0566
   1869  C6         1.5260  -43.8260   15.2460 C.ar   87  C87         0.0850
   1870  OP1       -3.4270  -46.2050   13.6190 O.2    87  C87        -0.5172
   1871  OP2       -2.0410  -45.9260   15.7410 O.co2  87  C87        -0.4373
   1872  P          1.7660  -47.4130   10.9430 P.3    88  C88         0.2141
   1873  C5'        4.1740  -46.7500   10.1810 C.3    88  C88         0.1812
   1874  O5'        3.3310  -47.2520   11.2040 O.3    88  C88        -0.3114
   1875  C4'        5.5820  -46.4790   10.6600 C.3    88  C88         0.1773
   1876  O4'        5.5820  -45.4800   11.7130 O.3    88  C88        -0.3307
   1877  C3'        6.3500  -47.6320   11.2760 C.3    88  C88         0.1860
   1878  O3'        6.8420  -48.5670   10.3330 O.3    88  C88        -0.3112
   1879  C2'        7.4500  -46.9040   12.0290 C.3    88  C88         0.2309
   1880  O2'        8.4290  -46.4160   11.1250 O.3    88  C88        -0.2156
   1881  C1'        6.6790  -45.7080   12.5770 C.3    88  C88         0.2420
   1882  N1         6.1730  -45.9670   13.9410 N.ar   88  C88        -0.2535
   1883  C2         7.0760  -45.8470   15.0010 C.ar   88  C88         0.3532
   1884  O2         8.2550  -45.5400   14.7630 O.2    88  C88        -0.2443
   1885  N3         6.6420  -46.0630   16.2630 N.ar   88  C88        -0.1739
   1886  C4         5.3650  -46.3890   16.4780 C.ar   88  C88         0.1759
   1887  N4         4.9870  -46.5960   17.7450 N.pl3  88  C88        -0.1070
   1888  C5         4.4210  -46.5200   15.4190 C.ar   88  C88         0.0566
   1889  C6         4.8660  -46.3020   14.1730 C.ar   88  C88         0.0850
   1890  OP1        1.5480  -48.0850    9.6330 O.2    88  C88        -0.5172
   1891  OP2        1.1030  -48.0270   12.1240 O.co2  88  C88        -0.4373
   1892  P          7.1440  -50.0770   10.7890 P.3    89  A89         0.2141
   1893  C5'        9.5920  -49.7540   11.6590 C.3    89  A89         0.1813
   1894  O5'        8.2210  -49.9520   11.9590 O.3    89  A89        -0.3114
   1895  C4'       10.4360  -49.6760   12.9030 C.3    89  A89         0.1801
   1896  O4'        9.9280  -48.6290   13.7750 O.3    89  A89        -0.3306
   1897  C3'       10.4580  -50.9100   13.7960 C.3    89  A89         0.2161
   1898  O3'       11.3230  -51.9330   13.3300 O.3    89  A89        -0.2175
   1899  C2'       10.8780  -50.3230   15.1340 C.3    89  A89         0.2337
   1900  O2'       12.2680  -50.0210   15.1360 O.3    89  A89        -0.2155
   1901  C1'       10.1000  -49.0100   15.1280 C.3    89  A89         0.2409
   1902  N1         7.4290  -49.4040   19.4920 N.ar   89  A89        -0.2040
   1903  C2         8.7300  -49.1870   19.2490 C.ar   89  A89         0.2016
   1904  N3         9.3650  -49.0840   18.0800 N.ar   89  A89        -0.2048
   1905  C4         8.4980  -49.2510   17.0680 C.ar   89  A89         0.1692
   1906  C5         7.1390  -49.4790   17.1540 C.ar   89  A89         0.1518
   1907  C6         6.5880  -49.5570   18.4430 C.ar   89  A89         0.1919
   1908  N6         5.2890  -49.7820   18.6710 N.pl3  89  A89        -0.1054
   1909  N7         6.5740  -49.5920   15.8910 N.ar   89  A89        -0.2193
   1910  C8         7.5890  -49.4330   15.0770 C.ar   89  A89         0.1816
   1911  N9         8.7720  -49.2050   15.7270 N.ar   89  A89        -0.2693
   1912  OP1        7.7970  -50.7100    9.6090 O.2    89  A89        -0.5172
   1913  OP2        5.9300  -50.6950   11.3810 O.co2  89  A89        -0.4373
@<TRIPOS>BOND
     1  1292  1291    1
     2  1310  1309    1
     3  1286  1291   ar
     4  1286  1287   ar
     5  1291  1290   ar
     6  1332  1331   ar
     7  1332  1333   ar
     8  1287  1288   ar
     9  1309  1308   ar
    10  1309  1311   ar
    11  1331  1336   ar
    12  1333  1334   ar
    13  1308  1314   ar
    14  1290  1293   ar
    15  1290  1289   ar
    16  1311  1312   ar
    17  1288  1289   ar
    18  1293  1294   ar
    19  1289  1295   ar
    20  1336  1337    1
    21  1336  1335   ar
    22  1334  1335   ar
    23  1334  1340   ar
    24  1314  1315    2
    25  1314  1313   ar
    26  1335  1338   ar
    27  1312  1313   ar
    28  1312  1318   ar
    29  1329  1328    1
    30  1294  1295   ar
    31  1330  1340    1
    32  1330  1325    1
    33  1330  1328    1
    34  1295  1285    1
    35  1340  1339   ar
    36  1313  1316   ar
    37  1325  1324    1
    38  1328  1326    1
    39  1318  1307    1
    40  1318  1317   ar
    41  1285  1280    1
    42  1285  1283    1
    43  1307  1305    1
    44  1307  1302    1
    45  1306  1305    1
    46  1338  1339   ar
    47  1316  1317   ar
    48  1324  1326    1
    49  1324  1322    1
    50  1280  1279    1
    51  1305  1303    1
    52  1351  1350    1
    53  1296  1276    2
    54  1302  1301    1
    55  1326  1327    1
    56  1283  1284    1
    57  1283  1281    1
    58  1261  1260    1
    59  1327  1343    1
    60  1322  1323    1
    61  1346  1347    1
    62  1346  1348    1
    63  1346  1344    1
    64  1345  1344    1
    65  1345  1343    1
    66  1367  1369    1
    67  1367  1368    1
    68  1349  1348    1
    69  1349  1366    1
    70  1347  1352    1
    71  1384  1366    2
    72  1259  1276    1
    73  1259  1258    1
    74   327   309    2
    75  1301  1303    1
    76  1301  1299    1
    77  1279  1281    1
    78  1279  1277    1
    79  1276  1278    1
    80  1276  1297    1
    81  1350  1352    1
    82  1350  1348    1
    83  1303  1304    1
    84  1281  1282    1
    85  1369  1370    1
    86  1369  1371    1
    87  1352  1363    1
    88  1278  1277    1
    89  1323  1321    1
    90  1343  1364    2
    91  1343  1365    1
    92  1260  1258    1
    93  1260  1262    1
    94  1366  1368    1
    95  1366  1385    1
    96  1265  1264    1
    97  1372  1371    1
    98  1372  1386    1
    99  1370  1375    1
   100  1304  1321    1
   101  1407  1386    2
   102  1258  1256    1
   103   295   309    1
   104   295   294    1
   105  1374  1373    1
   106  1299  1300    1
   107  1256  1257    1
   108  1256  1254    1
   109  1371  1373    1
   110   309   311    1
   111   309   328    1
   112   290   292    1
   113   290   291    1
   114   307   289    2
   115  1282  1298    1
   116  1300  1298    1
   117  1321  1342    2
   118  1321  1341    1
   119   310   311    1
   120   310   312    1
   121  1266  1264   ar
   122  1266  1267   ar
   123   292   294    1
   124   292   293    1
   125  1262  1257    1
   126  1262  1273    1
   127   297   296    1
   128  1363  1357   ar
   129  1363  1362   ar
   130  1264  1263   ar
   131  1386  1388    1
   132  1386  1408    1
   133  1375  1373    1
   134  1375  1376    1
   135   347   329    2
   136  1356  1357   ar
   137  1356  1354   ar
   138   294   296    1
   139  1254  1255    1
   140  1320  1298    2
   141   275   274    1
   142  1298  1319    1
   143  1357  1358   ar
   144  1362  1361   ar
   145   291   289    1
   146  1388  1387    1
   147   312   314    1
   148   312   313    1
   149   273   289    1
   150   273   272    1
   151   289   308    1
   152   293   298    1
   153   296   298    1
   154  1267  1273   ar
   155  1267  1268   ar
   156  1355  1354    1
   157   315   329    1
   158   315   314    1
   159  1273  1272   ar
   160   329   348    1
   161   329   331    1
   162  1263  1269   ar
   163  1354  1353   ar
   164  1376  1383   ar
   165  1376  1377   ar
   166  1383  1382   ar
   167  1255  1253    1
   168   298   299    1
   169   314   316    1
   170   313   318    1
   171   274   272    1
   172   274   276    1
   173  1358  1361   ar
   174  1358  1359   ar
   175   272   270    1
   176  1268  1269   ar
   177  1268  1271   ar
   178   270   268    1
   179   270   271    1
   180  1378  1377    2
   181  1387  1389    1
   182  1274  1253    2
   183  1272  1271   ar
   184  1269  1270    2
   185  1377  1379   ar
   186  1590  1589    1
   187  1241  1240    1
   188  1353  1359   ar
   189   331   330    1
   190   317   316    1
   191   330   332    1
   192  1382  1380   ar
   193  1253  1239    1
   194  1253  1275    1
   195   268   269    1
   196   276   271    1
   197   276   286    1
   198  1389  1390    1
   199  1389  1391    1
   200   316   318    1
   201  1245  1244    2
   202  1359  1360    2
   203  1610  1609    1
   204   299   306   ar
   205   299   300   ar
   206  1390  1395    1
   207  1605  1603    1
   208  1605  1606    1
   209  1605  1607    1
   210  1603  1604    1
   211   318   319    1
   212  1239  1238    1
   213  1240  1238    1
   214  1240  1242    1
   215   306   305   ar
   216  1608  1607    1
   217  1608  1624    1
   218  1606  1611    1
   219  1379  1380   ar
   220  1642  1624    2
   221   301   300    2
   222  1622  1602    2
   223   326   319   ar
   224   326   325   ar
   225  1588  1587    1
   226  1588  1602    1
   227  1380  1381    1
   228  1589  1591    1
   229  1589  1587    1
   230   300   302   ar
   231  1607  1609    1
   232  1244  1246   ar
   233  1244  1243   ar
   234   269   267    1
   235  1238  1236    1
   236  1585  1587    1
   237  1585  1586    1
   238  1585  1583    1
   239   319   320   ar
   240   332   333    1
   241   332   334    1
   242  1609  1611    1
   243   279   280   ar
   244   279   278   ar
   245   287   267    2
   246  1611  1621    1
   247  1392  1391    1
   248  1392  1409    1
   249   286   280   ar
   250   286   285   ar
   251  1395  1393    1
   252  1395  1406    1
   253  1222  1221    1
   254  1391  1393    1
   255  1394  1393    1
   256  1591  1586    1
   257  1591  1592    1
   258  1604  1602    1
   259  1246  1247   ar
   260  1242  1243    1
   261  1242  1237    1
   262  1624  1626    1
   263  1624  1643    1
   264  1602  1623    1
   265   252   251    1
   266   325   323   ar
   267  1625  1626    1
   268  1625  1627    1
   269  1594  1593    2
   270  1427  1409    2
   271  1570  1569    1
   272   333   338    1
   273   305   303   ar
   274   280   281   ar
   275   370   349    2
   276  1405  1406   ar
   277  1405  1404   ar
   278  1583  1584    1
   279   371   349    1
   280  1428  1409    1
   281  1243  1250   ar
   282   256   255    1
   283   335   334    1
   284   335   349    1
   285   267   250    1
   286   267   288    1
   287   278   277   ar
   288  1409  1411    1
   289   334   336    1
   290  1406  1400   ar
   291  1236  1237    1
   292  1236  1234    1
   293   285   284   ar
   294   302   303   ar
   295  1574  1573    2
   296   349   351    1
   297   250   249    1
   298   346   345   ar
   299   346   339   ar
   300  1627  1628    1
   301  1627  1629    1
   302   320   321    2
   303   320   322   ar
   304  1221  1220   ar
   305  1221  1223   ar
   306  1621  1620   ar
   307  1621  1615   ar
   308  1247  1248    1
   309  1247  1249   ar
   310   251   249    1
   311   251   253    1
   312  1592  1593   ar
   313  1592  1599   ar
   314   345   343   ar
   315  1593  1595   ar
   316  1220  1226   ar
   317   303   304    2
   318  1404  1401   ar
   319  1628  1633    1
   320   323   322   ar
   321   323   324    2
   322  1569  1571    1
   323  1569  1567    1
   324  1204  1203    1
   325   255   257   ar
   326   255   254   ar
   327   257   258   ar
   328   281   284   ar
   329   281   282   ar
   330   338   339    1
   331   338   336    1
   332  1250  1249   ar
   333  1198  1203   ar
   334  1198  1199   ar
   335  1614  1615   ar
   336  1614  1613   ar
   337  1584  1582    1
   338   249   247    1
   339  1620  1619   ar
   340   277   282   ar
   341  1571  1566    1
   342  1571  1572    1
   343   339   340   ar
   344  1400  1401   ar
   345  1400  1399   ar
   346  1223  1224   ar
   347   336   337    1
   348  1234  1235    1
   349  1615  1616   ar
   350  1573  1572   ar
   351  1573  1575   ar
   352  1411  1410    1
   353   253   248    1
   354   253   264    1
   355  1203  1202   ar
   356  1600  1582    2
   357  1568  1567    1
   358  1568  1582    1
   359  1630  1629    1
   360  1630  1644    1
   361  1401  1402   ar
   362  1629  1631    1
   363  1599  1598   ar
   364  1551  1550   ar
   365  1551  1552   ar
   366  1595  1596   ar
   367   351   350    1
   368   282   283    1
   369  1226  1227    2
   370  1226  1225   ar
   371  1199  1200   ar
   372  1410  1412    1
   373   247   248    1
   374   247   245    1
   375   343   344    1
   376   343   342   ar
   377  1566  1565    1
   378  1567  1565    1
   379  1633  1631    1
   380  1633  1634    1
   381   254   260   ar
   382  1399  1397   ar
   383  1582  1601    1
   384  1572  1579   ar
   385  1565  1563    1
   386  1632  1631    1
   387  1550  1555   ar
   388   258   264   ar
   389   258   259   ar
   390  1575  1576   ar
   391  1613  1612   ar
   392  1235  1233    1
   393  1662  1644    2
   394  1619  1616   ar
   395  1552  1553   ar
   396  1425  1426   ar
   397  1425  1423   ar
   398  1224  1225   ar
   399  1224  1230   ar
   400   350   352    1
   401   264   263   ar
   402  1641  1634   ar
   403  1641  1640   ar
   404  1616  1617   ar
   405  1663  1644    1
   406   340   342   ar
   407   340   341    2
   408  1644  1646    1
   409  1426  1419   ar
   410  1225  1228   ar
   411  1634  1635   ar
   412  1596  1598   ar
   413  1596  1597    1
   414  1402  1403    2
   415  1402  1396   ar
   416  1202  1201   ar
   417  1202  1205   ar
   418  1218  1217    1
   419  1413  1412    1
   420  1413  1418    1
   421   245   246    1
   422  1200  1201   ar
   423  1412  1414    1
   424  1424  1423    1
   425  1397  1396   ar
   426  1397  1398    1
   427   260   259   ar
   428   260   261    2
   429  1640  1638   ar
   430   259   262   ar
   431  1217  1219    1
   432  1217  1215    1
   433  1563  1564    1
   434  1612  1617   ar
   435  1423  1422   ar
   436  1579  1578   ar
   437  1555  1556    1
   438  1555  1554   ar
   439   368   367   ar
   440   368   369   ar
   441  1576  1577    2
   442  1576  1578   ar
   443  1912  1892    2
   444   367   364   ar
   445  1617  1618    1
   446  1890  1872    2
   447  1201  1207   ar
   448  1230  1219    1
   449  1230  1229   ar
   450  1548  1547    1
   451  1553  1554   ar
   452  1553  1559   ar
   453  1233  1251    2
   454  1233  1252    1
   455  1233  1216    1
   456   263   262   ar
   457  1205  1206   ar
   458   353   352    1
   459   353   358    1
   460   352   354    1
   461  1219  1214    1
   462  1419  1418    1
   463  1419  1420   ar
   464  1528  1529   ar
   465  1528  1533   ar
   466   246   244    1
   467  1635  1636    2
   468  1635  1637   ar
   469  1646  1645    1
   470  1228  1229   ar
   471  1873  1875    1
   472  1873  1874    1
   473  1418  1416    1
   474  1878  1892    1
   475  1878  1877    1
   476  1554  1557   ar
   477  1529  1530   ar
   478  1414  1415    1
   479  1414  1416    1
   480  1547  1549    1
   481  1547  1545    1
   482  1564  1562    1
   483  1645  1647    1
   484  1216  1215    1
   485  1422  1420   ar
   486  1638  1637   ar
   487  1638  1639    2
   488  1215  1213    1
   489  1534  1533    1
   490  1875  1877    1
   491  1875  1876    1
   492   236   235    2
   493  1549  1559    1
   494  1549  1544    1
   495  1451  1429    2
   496  1860  1859    1
   497  1858  1872    1
   498  1858  1857    1
   499  1892  1913    1
   500  1892  1894    1
   501   391   372    2
   502  1559  1558   ar
   503   369   358    1
   504   369   363   ar
   505  1420  1421    2
   506  1490  1489    2
   507   387   386    1
   508  1207  1206   ar
   509  1207  1197    1
   510  1872  1874    1
   511  1872  1891    1
   512  1533  1532   ar
   513   364   365   ar
   514   364   363   ar
   515   409   408    2
   516   354   355    1
   517   354   356    1
   518  1415  1429    1
   519  1512  1511    2
   520  1446  1445    2
   521   232   231    1
   522   358   356    1
   523  1880  1879    1
   524   430   429    2
   525   366   365    2
   526  1877  1879    1
   527  1416  1417    1
   528  1214  1213    1
   529   265   244    2
   530   355   372    1
   531  1447  1448   ar
   532  1447  1444   ar
   533   244   230    1
   534   244   266    1
   535  1530  1531   ar
   536   235   237   ar
   537   235   234   ar
   538   231   233    1
   539   231   229    1
   540  1429  1450    1
   541  1429  1431    1
   542   365   359   ar
   543  1893  1894    1
   544  1893  1895    1
   545   237   238   ar
   546  1557  1558   ar
   547   363   362   ar
   548  1876  1881    1
   549  1213  1211    1
   550   388   386   ar
   551   388   389   ar
   552  1505  1511   ar
   553  1505  1506   ar
   554  1660  1661   ar
   555  1660  1658   ar
   556  1648  1647    1
   557  1648  1653    1
   558  1545  1546    1
   559  1545  1543    1
   560   372   390    1
   561   372   374    1
   562  1647  1649    1
   563  1855  1857    1
   564  1855  1853    1
   565  1855  1856    1
   566  1661  1654   ar
   567   386   385   ar
   568  1197  1192    1
   569  1197  1195    1
   570  1857  1859    1
   571  1546  1562    1
   572   428   429   ar
   573   428   426   ar
   574  1544  1543    1
   575  1562  1580    2
   576  1562  1581    1
   577   356   357    1
   578  1511  1510   ar
   579  1879  1881    1
   580  1859  1861    1
   581   230   229    1
   582  1489  1488   ar
   583  1489  1491   ar
   584   429   431   ar
   585  1445  1444   ar
   586  1445  1439   ar
   587   408   402   ar
   588   408   407   ar
   589  1532  1531   ar
   590  1532  1535   ar
   591  1448  1449   ar
   592  1853  1854    1
   593  1192  1191    1
   594  1507  1506    1
   595  1444  1443   ar
   596  1531  1537   ar
   597   402   403   ar
   598  1881  1882    1
   599   233   234    1
   600   233   228    1
   601   229   227    1
   602  1543  1541    1
   603   239   238    2
   604   135   114    2
   605    55    54    1
   606   234   241   ar
   607   427   426    2
   608   112    92    2
   609   238   240   ar
   610  1488  1486   ar
   611  1506  1508   ar
   612  1856  1861    1
   613  1658  1659    2
   614  1658  1657   ar
   615   389   382   ar
   616  1431  1430    1
   617   426   425   ar
   618  1895  1896    1
   619  1895  1897    1
   620    93    95    1
   621    93    94    1
   622  1861  1862    1
   623  1654  1653    1
   624  1654  1655   ar
   625  1196  1195    1
   626  1491  1492   ar
   627    77    76    1
   628   359   360   ar
   629  1649  1650    1
   630  1649  1651    1
   631   362   360   ar
   632  1211  1212    1
   633    75    92    1
   634    75    74    1
   635   385   383   ar
   636  1653  1651    1
   637  1686  1664    2
   638   374   373    1
   639  1195  1193    1
   640   407   410   ar
   641   407   406   ar
   642    70    72    1
   643    70    71    1
   644    72    74    1
   645    72    73    1
   646   410   411   ar
   647  1898  1897    1
   648  1439  1440   ar
   649   212   213   ar
   650   212   217   ar
   651  1510  1513   ar
   652  1510  1509   ar
   653   431   432   ar
   654  1535  1536   ar
   655    95    97    1
   656    95    96    1
   657  1650  1664    1
   658    98   114    1
   659    98    97    1
   660  1854  1852    1
   661  1870  1852    2
   662  1449  1443   ar
   663  1449  1438    1
   664   360   361    1
   665   241   240   ar
   666   213   214   ar
   667  1443  1442   ar
   668    92    94    1
   669    92   113    1
   670   114   136    1
   671   114   116    1
   672  1191  1193    1
   673  1191  1189    1
   674  1840  1839    1
   675  1896  1901    1
   676  1897  1899    1
   677   227   228    1
   678   227   225    1
   679  1194  1193    1
   680  1194  1210    1
   681  1537  1536   ar
   682  1537  1527    1
   683  1657  1655   ar
   684   218   217    1
   685    90    69    2
   686   403   404    1
   687   403   405   ar
   688    74    76    1
   689  1882  1889   ar
   690  1882  1883   ar
   691  1430  1432    1
   692  1664  1685    1
   693  1664  1666    1
   694    53    52    1
   695    53    69    1
   696  1655  1656    2
   697  1864  1863    2
   698  1513  1514   ar
   699  1651  1652    1
   700    73    78    1
   701    54    56    1
   702    54    52    1
   703  1486  1487    2
   704  1486  1485   ar
   705  1541  1542    1
   706   382   383   ar
   707   382   381    1
   708  1508  1509   ar
   709  1212  1210    1
   710   425   432   ar
   711   425   424    1
   712  1889  1888   ar
   713    76    78    1
   714   217   216   ar
   715   383   384    2
   716    50    52    1
   717    50    51    1
   718    50    48    1
   719  1492  1485   ar
   720  1190  1189    1
   721  1190  1188    1
   722  1509  1515   ar
   723  1232  1210    2
   724    97    99    1
   725  1542  1540    1
   726  1862  1863   ar
   727  1862  1869   ar
   728   373   375    1
   729    96   101    1
   730  1852  1838    1
   731  1852  1871    1
   732    36    35    1
   733  1525  1526    1
   734  1525  1527    1
   735  1525  1523    1
   736    56    51    1
   737    56    66    1
   738  1527  1522    1
   739   406   405   ar
   740   406   412   ar
   741    71    69    1
   742  1838  1837    1
   743    78    89    1
   744   411   412   ar
   745  1440  1442   ar
   746  1440  1441    1
   747  1433  1438    1
   748  1433  1432    1
   749    69    91    1
   750  1210  1231    1
   751  1494  1475    2
   752   414   392    2
   753   100    99    1
   754  1884  1883    2
   755  1438  1436    1
   756   214   215   ar
   757  1863  1865   ar
   758  1208  1188    2
   759  1682  1683   ar
   760  1682  1679   ar
   761  1681  1680    2
   762  1485  1484    1
   763  1436  1437    1
   764  1436  1434    1
   765   376   381    1
   766   376   375    1
   767    48    49    1
   768  1839  1837    1
   769  1839  1841    1
   770  1883  1885   ar
   771    32    31    1
   772  1910  1911   ar
   773  1910  1909   ar
   774   116   115    1
   775  1432  1434    1
   776   225   226    1
   777    59    58   ar
   778    59    60   ar
   779  1901  1899    1
   780  1901  1911    1
   781  1899  1900    1
   782   424   422    1
   783   424   419    1
   784   422   423    1
   785   422   420    1
   786   115   117    1
   787  1869  1868   ar
   788   381   379    1
   789  1514  1515   ar
   790    99   101    1
   791  1683  1684   ar
   792   216   215   ar
   793   216   219   ar
   794   375   377    1
   795  1666  1665    1
   796   412   401    1
   797  1888  1886   ar
   798   226   224    1
   799  1188  1209    1
   800  1188  1172    1
   801   101   111    1
   802   453   435    2
   803  1837  1835    1
   804  1515  1504    1
   805   377   379    1
   806   377   378    1
   807   215   221   ar
   808  1844  1843    2
   809  1434  1435    1
   810    58    57   ar
   811  1561  1540    2
   812    35    37   ar
   813    35    34   ar
   814  1911  1905   ar
   815  1680  1679   ar
   816  1680  1674   ar
   817  1679  1678   ar
   818  1540  1524    1
   819  1540  1560    1
   820  1523  1524    1
   821  1523  1521    1
   822    66    60   ar
   823    66    65   ar
   824    37    38   ar
   825  1909  1906   ar
   826  1522  1521    1
   827  1841  1836    1
   828  1841  1842    1
   829    89    88   ar
   830    89    83   ar
   831   196   195    2
   832    60    61   ar
   833  1865  1866   ar
   834  1835  1836    1
   835  1835  1833    1
   836   379   380    1
   837  1475  1458    1
   838  1475  1477    1
   839  1475  1493    1
   840  1460  1459    1
   841   392   378    1
   842   392   394    1
   843   392   413    1
   844   420   421    1
   845   420   418    1
   846  1885  1886   ar
   847   454   435    1
   848  1458  1457    1
   849    31    33    1
   850    31    29    1
   851  1484  1479    1
   852  1484  1482    1
   853   450   449    2
   854   471   470    1
   855    49    47    1
   856  1665  1667    1
   857   219   220   ar
   858   419   418    1
   859  1172  1171    1
   860  1477  1476    1
   861  1886  1887    1
   862   435   421    1
   863   435   437    1
   864    82    83   ar
   865    82    80   ar
   866  1868  1866   ar
   867  1684  1678   ar
   868  1684  1673    1
   869    13    12    1
   870    67    47    2
   871  1843  1842   ar
   872  1843  1845   ar
   873   117   118    1
   874   117   119    1
   875   111   110   ar
   876   111   105   ar
   877   451   449   ar
   878   451   452   ar
   879   394   393    1
   880   465   470   ar
   881   465   466   ar
   882  1521  1519    1
   883    33    28    1
   884    33    44    1
   885    34    40   ar
   886   221   220   ar
   887   221   211    1
   888   243   224    2
   889    88    87   ar
   890    83    84   ar
   891  1504  1502    1
   892  1504  1499    1
   893   110   109   ar
   894   209   210    1
   895   209   211    1
   896   209   207    1
   897  1678  1677   ar
   898   401   396    1
   899   401   399    1
   900   224   242    1
   901   224   208    1
   902  1668  1667    1
   903  1668  1673    1
   904  1479  1478    1
   905  1674  1675   ar
   906  1866  1867    1
   907  1517  1495    2
   908  1482  1480    1
   909  1482  1483    1
   910    57    62   ar
   911   195   189   ar
   912   195   194   ar
   913    30    47    1
   914    30    29    1
   915  1435  1452    1
   916  1842  1849   ar
   917  1905  1906   ar
   918  1905  1904   ar
   919   189   190   ar
   920    65    64   ar
   921   434   415    2
   922   449   448   ar
   923    38    44   ar
   924    38    39   ar
   925  1906  1907   ar
   926   470   469   ar
   927  1464  1463    1
   928   155   137    2
   929  1833  1834    1
   930   118   123    1
   931   418   416    1
   932    47    68    1
   933  1502  1500    1
   934  1502  1503    1
   935    81    80    1
   936   396   395    1
   937   156   137    1
   938    29    27    1
   939   417   415    1
   940   417   416    1
   941    61    62   ar
   942    61    64   ar
   943  1480  1478    1
   944  1480  1481    1
   945  1667  1669    1
   946  1459  1457    1
   947  1459  1461    1
   948  1455  1457    1
   949  1455  1456    1
   950  1455  1453    1
   951   211   206    1
   952   399   397    1
   953   399   400    1
   954  1520  1519    1
   955  1520  1518    1
   956    80    79   ar
   957    28    27    1
   958  1174  1173    1
   959   466   467   ar
   960  1673  1671    1
   961   120   119    1
   962   120   137    1
   963    44    43   ar
   964   119   121    1
   965   452   445   ar
   966  1845  1846   ar
   967  1539  1518    2
   968    27    25    1
   969   397   395    1
   970   397   398    1
   971   207   208    1
   972   207   205    1
   973  1474  1452    2
   974  1476  1478    1
   975  1461  1456    1
   976  1461  1472    1
   977  1499  1498    1
   978   137   139    1
   979  1171  1173    1
   980  1171  1169    1
   981   437   436    1
   982  1465  1463   ar
   983  1465  1466   ar
   984   133   132   ar
   985   133   134   ar
   986    12    11   ar
   987    12    14   ar
   988    62    63    1
   989   105   104   ar
   990   105   106   ar
   991   191   190    1
   992  1675  1677   ar
   993  1675  1676    1
   994  1454  1452    1
   995  1454  1453    1
   996  1669  1671    1
   997  1669  1670    1
   998   393   395    1
   999  1497  1495    1
  1000  1497  1496    1
  1001   109   106   ar
  1002  1500  1498    1
  1003  1500  1501    1
  1004  1904  1903   ar
  1005  1463  1462   ar
  1006   190   192   ar
  1007    87    84   ar
  1008    84    85   ar
  1009    40    39   ar
  1010    40    41    2
  1011   415   398    1
  1012   415   433    1
  1013  1452  1473    1
  1014   194   197   ar
  1015   194   193   ar
  1016    11    17   ar
  1017  1834  1832    1
  1018  1495  1481    1
  1019  1495  1516    1
  1020   104   103   ar
  1021  1178  1177   ar
  1022  1178  1179   ar
  1023    39    42   ar
  1024  1849  1848   ar
  1025   511   510    1
  1026   132   129   ar
  1027   487   488   ar
  1028   487   492   ar
  1029  1177  1176   ar
  1030   469   472   ar
  1031   469   468   ar
  1032  1173  1175    1
  1033  1907  1908    1
  1034  1907  1902   ar
  1035   448   446   ar
  1036   197   198   ar
  1037  1518  1501    1
  1038  1518  1538    1
  1039   493   492    1
  1040   123   134    1
  1041   123   121    1
  1042  1169  1170    1
  1043  1169  1167    1
  1044  1671  1672    1
  1045  1175  1170    1
  1046  1175  1185    1
  1047   134   128   ar
  1048  1705  1687    2
  1049  1706  1687    1
  1050   106   107   ar
  1051   467   468   ar
  1052  1498  1496    1
  1053   770   769    1
  1054   206   205    1
  1055   488   489   ar
  1056    79    85   ar
  1057    14    15   ar
  1058  1466  1472   ar
  1059  1466  1467   ar
  1060  1472  1471   ar
  1061   436   438    1
  1062  1846  1848   ar
  1063  1846  1847    2
  1064  1850  1832    2
  1065   121   122    1
  1066    43    42   ar
  1067  1670  1687    1
  1068   445   446   ar
  1069   445   444    1
  1070   492   491   ar
  1071   223   202    2
  1072   472   473   ar
  1073    25    26    1
  1074   205   203    1
  1075   468   474   ar
  1076   193   192   ar
  1077   193   199   ar
  1078  1687  1689    1
  1079    85    86    2
  1080  1462  1468   ar
  1081  1903  1902   ar
  1082   204   202    1
  1083   204   203    1
  1084  1179  1185   ar
  1085  1179  1180   ar
  1086  1176  1181   ar
  1087   139   138    1
  1088  1832  1851    1
  1089  1832  1818    1
  1090   446   447    2
  1091    17    18    2
  1092    17    16   ar
  1093  1820  1819    1
  1094   510   512   ar
  1095   510   509   ar
  1096   103   102   ar
  1097   129   128   ar
  1098   129   130   ar
  1099  1185  1184   ar
  1100   198   199   ar
  1101  1824  1823    2
  1102   178   157    2
  1103  1167  1168    1
  1104   128   127   ar
  1105   439   444    1
  1106   439   438    1
  1107   442   444    1
  1108   442   443    1
  1109   442   440    1
  1110   512   513   ar
  1111   489   490   ar
  1112   769   768   ar
  1113   769   771   ar
  1114   202   222    1
  1115   202   185    1
  1116   107   102   ar
  1117   107   108    1
  1118    26    24    1
  1119  1467  1468   ar
  1120  1467  1470   ar
  1121    15    16   ar
  1122    15    21   ar
  1123   199   188    1
  1124  1471  1470   ar
  1125   138   140    1
  1126   438   440    1
  1127  1819  1817    1
  1128  1819  1821    1
  1129   473   474   ar
  1130   491   490   ar
  1131   491   494   ar
  1132   509   515   ar
  1133  1818  1817    1
  1134   474   464    1
  1135  1468  1469    2
  1136   768   774   ar
  1137    16    19   ar
  1138  1180  1181   ar
  1139  1180  1183   ar
  1140  1181  1182    1
  1141     9     8    1
  1142   131   130    2
  1143   130   124   ar
  1144   530   529    1
  1145   440   441    1
  1146   490   496   ar
  1147  1168  1166    1
  1148   177   157    1
  1149   507   506    1
  1150  1823  1825   ar
  1151  1823  1822   ar
  1152   771   772   ar
  1153  1689  1688    1
  1154   157   143    1
  1155   157   159    1
  1156   127   125   ar
  1157     8    10    1
  1158     8     6    1
  1159  1184  1183   ar
  1160  1825  1826   ar
  1161   153   154   ar
  1162   153   151   ar
  1163  1817  1815    1
  1164   184   186    1
  1165   184   185    1
  1166   184   182    1
  1167  1186  1166    2
  1168   459   464    1
  1169   459   458    1
  1170   173   172    1
  1171   186   188    1
  1172   186   187    1
  1173   802   781    2
  1174   494   495   ar
  1175   513   519   ar
  1176   513   514   ar
  1177   526   531    1
  1178   526   525    1
  1179    21    10    1
  1180    21    20   ar
  1181  1821  1822    1
  1182  1821  1816    1
  1183   188   183    1
  1184   464   462    1
  1185   143   142    1
  1186   154   147   ar
  1187   508   506    1
  1188   508   519    1
  1189   508   503    1
  1190   531   529    1
  1191   531   532    1
  1192    10     5    1
  1193   774   775    2
  1194   774   773   ar
  1195   525   523    1
  1196   525   527    1
  1197   201   179    2
  1198   140   142    1
  1199   140   141    1
  1200   515   514   ar
  1201   515   516    2
  1202  1155  1154    1
  1203  1688  1690    1
  1204  1822  1829   ar
  1205   174   175   ar
  1206   174   171   ar
  1207   124   125   ar
  1208   506   504    1
  1209   142   144    1
  1210    24    45    2
  1211    24     7    1
  1212    24    46    1
  1213   152   151    2
  1214  1166  1149    1
  1215  1166  1187    1
  1216   125   126    1
  1217   534   533    2
  1218   529   527    1
  1219   766   765    1
  1220   496   495   ar
  1221   496   486    1
  1222   772   773   ar
  1223   772   778   ar
  1224    19    20   ar
  1225   151   150   ar
  1226   519   518   ar
  1227  1826  1827    1
  1228  1826  1828   ar
  1229   180   182    1
  1230   180   181    1
  1231     7     6    1
  1232   441   455    1
  1233   514   517   ar
  1234   159   158    1
  1235     6     4    1
  1236   183   182    1
  1237   523   524    1
  1238   503   502    1
  1239  1151  1150    1
  1240   172   171   ar
  1241   172   167   ar
  1242   141   146    1
  1243   456   458    1
  1244   456   457    1
  1245  1815  1816    1
  1246  1815  1813    1
  1247   773   776   ar
  1248   458   460    1
  1249   175   176   ar
  1250   764   781    1
  1251   764   763    1
  1252   527   528    1
  1253   171   170   ar
  1254   457   455    1
  1255   528   542    1
  1256   532   533   ar
  1257   532   539   ar
  1258   781   783    1
  1259   781   803    1
  1260   533   535   ar
  1261   486   484    1
  1262   486   481    1
  1263  1149  1148    1
  1264  1801  1800    1
  1265   476   455    2
  1266  1829  1828   ar
  1267   147   146    1
  1268   147   148   ar
  1269  1154  1156   ar
  1270  1154  1153   ar
  1271   462   463    1
  1272   462   460    1
  1273   767   778    1
  1274   767   765    1
  1275   767   762    1
  1276   778   777   ar
  1277     5     4    1
  1278   179   181    1
  1279   179   200    1
  1280   179   163    1
  1281   455   475    1
  1282  1150  1148    1
  1283  1150  1152    1
  1284   502   504    1
  1285   502   500    1
  1286   765   763    1
  1287  1156  1157   ar
  1288   504   505    1
  1289  1690  1692    1
  1290  1690  1691    1
  1291   144   146    1
  1292   144   145    1
  1293   518   517   ar
  1294  1799  1800   ar
  1295  1799  1805   ar
  1296   543   545    1
  1297   543   544    1
  1298   150   148   ar
  1299   783   782    1
  1300   546   545    1
  1301   546   551    1
  1302   167   168   ar
  1303   782   784    1
  1304     4     2    1
  1305   484   485    1
  1306   484   482    1
  1307   158   160    1
  1308   524   522    1
  1309   505   522    1
  1310  1800  1802   ar
  1311  1153  1159   ar
  1312   539   538   ar
  1313   545   547    1
  1314   460   461    1
  1315  1813  1814    1
  1316  1806  1805    2
  1317   763   761    1
  1318   776   777   ar
  1319  1148  1146    1
  1320  1727  1707    2
  1321   148   149    2
  1322   176   170   ar
  1323   176   166    1
  1324   785   784    1
  1325   785   790    1
  1326   535   536   ar
  1327   170   169   ar
  1328   481   480    1
  1329  1692  1694    1
  1330  1692  1693    1
  1331  1814  1812    1
  1332   563   542    2
  1333   800   799   ar
  1334   800   801   ar
  1335   162   163    1
  1336   162   160    1
  1337   162   164    1
  1338   762   761    1
  1339  1805  1804   ar
  1340   542   544    1
  1341   542   564    1
  1342  1691  1696    1
  1343   799   796   ar
  1344   461   477    1
  1345   784   786    1
  1346   761   759    1
  1347  1157  1163   ar
  1348  1157  1158   ar
  1349   551   549    1
  1350   551   562    1
  1351   540   522    2
  1352   522   541    1
  1353   160   161    1
  1354  1152  1163    1
  1355  1152  1147    1
  1356  1728  1707    1
  1357   500   501    1
  1358   550   549    1
  1359   168   169   ar
  1360  1802  1803   ar
  1361   538   536   ar
  1362  1694  1696    1
  1363  1694  1695    1
  1364   161   166    1
  1365  1707  1693    1
  1366  1707  1709    1
  1367   536   537    2
  1368  1159  1158   ar
  1369  1159  1160    2
  1370   993   975    2
  1371     2     3    1
  1372   164   166    1
  1373   164   165    1
  1374   801   790    1
  1375   801   795   ar
  1376   790   788    1
  1377   482   480    1
  1378   482   483    1
  1379  1163  1162   ar
  1380     3     1    1
  1381  1146  1147    1
  1382  1146  1144    1
  1383  1831  1812    2
  1384   547   549    1
  1385   547   548    1
  1386  1804  1803   ar
  1387  1804  1807   ar
  1388   480   478    1
  1389  1812  1830    1
  1390  1812  1795    1
  1391  1158  1161   ar
  1392  1696  1697    1
  1393   501   499    1
  1394   796   795   ar
  1395   796   797   ar
  1396   961   975    1
  1397   961   960    1
  1398   562   561   ar
  1399   562   556   ar
  1400   956   958    1
  1401   956   957    1
  1402  1803  1809   ar
  1403  1704  1697   ar
  1404  1704  1703   ar
  1405   940   939    1
  1406   561   560   ar
  1407   548   565    1
  1408   973   955    2
  1409   958   960    1
  1410   958   959    1
  1411   963   962    1
  1412   795   794   ar
  1413   798   797    2
  1414   477   479    1
  1415   477   498    2
  1416   477   497    1
  1417   786   788    1
  1418   786   787    1
  1419  1697  1698   ar
  1420   479   478    1
  1421   759   760    1
  1422   483   499    1
  1423   976   977    1
  1424   976   978    1
  1425   975   977    1
  1426   975   994    1
  1427  1703  1701   ar
  1428   797   791   ar
  1429  1807  1808   ar
  1430  1162  1161   ar
  1431  1144  1145    1
  1432   960   962    1
  1433   788   789    1
  1434  1709  1708    1
  1435  1796  1797    1
  1436  1796  1794    1
  1437  1796  1798    1
  1438   760   758    1
  1439   556   555   ar
  1440   556   557   ar
  1441   938   955    1
  1442   938   937    1
  1443     1    23    1
  1444     1    22    1
  1445   959   964    1
  1446   560   557   ar
  1447   746   745    1
  1448  1809  1808   ar
  1449  1809  1798    1
  1450  1795  1794    1
  1451   555   553   ar
  1452   499   521    2
  1453   499   520    1
  1454   957   955    1
  1455  1708  1710    1
  1456   955   974    1
  1457   787   804    1
  1458  1015   995    2
  1459   962   964    1
  1460  1794  1792    1
  1461   939   937    1
  1462   939   941    1
  1463   794   792   ar
  1464  1145  1143    1
  1465   978   979    1
  1466   978   980    1
  1467   583   565    2
  1468   565   584    1
  1469   565   567    1
  1470   557   558   ar
  1471  1698  1699    2
  1472  1698  1700   ar
  1473   791   792   ar
  1474   964   965    1
  1475  1798  1793    1
  1476  1701  1700   ar
  1477  1701  1702    1
  1478   981   995    1
  1479   981   980    1
  1480  1784  1783    1
  1481   937   935    1
  1482   744   758    1
  1483   744   743    1
  1484   944   943    1
  1485   792   793    1
  1486   935   936    1
  1487   935   933    1
  1488   553   554    1
  1489   553   552   ar
  1490   826   804    2
  1491   758   779    2
  1492   758   780    1
  1493   941   936    1
  1494   941   952    1
  1495   566   567    1
  1496   566   568    1
  1497   995  1016    1
  1498   995   997    1
  1499   745   743    1
  1500   745   747    1
  1501   979   984    1
  1502   980   982    1
  1503   804   825    1
  1504   804   806    1
  1505   945   943   ar
  1506   945   946   ar
  1507  1135  1134    2
  1508  1131  1130    1
  1509  1748  1729    2
  1510   558   552   ar
  1511   558   559    2
  1512  1710  1711    1
  1513  1710  1712    1
  1514  1725  1724   ar
  1515  1725  1726   ar
  1516  1724  1721   ar
  1517  1783  1782   ar
  1518  1783  1785   ar
  1519  1792  1793    1
  1520  1792  1790    1
  1521   743   741    1
  1522   943   942   ar
  1523  1143  1165    2
  1524  1143  1129    1
  1525  1143  1164    1
  1526   933   934    1
  1527  1811  1789    2
  1528  1791  1790    1
  1529  1791  1789    1
  1530   750   749    2
  1531  1711  1716    1
  1532   965   972   ar
  1533   965   966   ar
  1534   983   982    1
  1535  1130  1128    1
  1536  1130  1132    1
  1537  1782  1780   ar
  1538   569   568    1
  1539   569   574    1
  1540   822   823   ar
  1541   822   819   ar
  1542   747   742    1
  1543   747   748    1
  1544   741   742    1
  1545   741   739    1
  1546  1136  1134   ar
  1547  1136  1137   ar
  1548   568   570    1
  1549  1134  1133   ar
  1550   821   820    2
  1551  1129  1128    1
  1552  1712  1713    1
  1553  1712  1714    1
  1554  1785  1786   ar
  1555   952   946   ar
  1556   952   951   ar
  1557   996   997    1
  1558   996   998    1
  1559  1747  1729    1
  1560  1764  1763    1
  1561   982   984    1
  1562   806   805    1
  1563   946   947   ar
  1564  1729  1713    1
  1565  1729  1731    1
  1566   972   971   ar
  1567   984   985    1
  1568   967   966    2
  1569   823   824   ar
  1570   724   723    1
  1571  1789  1810    1
  1572  1789  1775    1
  1573   582   581   ar
  1574   582   575   ar
  1575   966   968   ar
  1576  1128  1126    1
  1577  1726  1716    1
  1578  1726  1720   ar
  1579  1138  1137    1
  1580  1721  1722   ar
  1581  1721  1720   ar
  1582  1137  1139   ar
  1583   819   820   ar
  1584   819   818   ar
  1585   805   807    1
  1586   820   814   ar
  1587   749   748   ar
  1588   749   751   ar
  1589  1723  1722    1
  1590   581   579   ar
  1591  1780  1781    2
  1592  1780  1779   ar
  1593  1132  1133    1
  1594  1132  1127    1
  1595   934   932    1
  1596   942   948   ar
  1597   740   739    1
  1598   740   738    1
  1599  1133  1140   ar
  1600   992   985   ar
  1601   992   991   ar
  1602   727   728   ar
  1603   727   726   ar
  1604  1716  1714    1
  1605   748   755   ar
  1606   574   575    1
  1607   574   572    1
  1608   728   729   ar
  1609   907   906    2
  1610  1786  1779   ar
  1611   881   880    1
  1612  1763  1765   ar
  1613  1763  1762   ar
  1614  1765  1766   ar
  1615   985   986   ar
  1616   575   576   ar
  1617  1744  1743    2
  1618   570   571    1
  1619   570   572    1
  1620   808   807    1
  1621   808   813    1
  1622   951   950   ar
  1623  1714  1715    1
  1624  1722  1717   ar
  1625   824   818   ar
  1626   824   813    1
  1627   953   932    2
  1628   998   999    1
  1629   998  1000    1
  1630   971   969   ar
  1631  1779  1778    1
  1632   879   880   ar
  1633   879   885   ar
  1634  1720  1719   ar
  1635  1788  1769    2
  1636   947   948   ar
  1637   947   950   ar
  1638  1745  1743   ar
  1639  1745  1746   ar
  1640   723   725    1
  1641   723   721    1
  1642  1731  1730    1
  1643   886   885    2
  1644  1035  1017    2
  1645   756   738    2
  1646  1139  1140   ar
  1647   905   906   ar
  1648   905   903   ar
  1649   818   817   ar
  1650  1036  1017    1
  1651   991   989   ar
  1652   726   731   ar
  1653   571   585    1
  1654   579   580    2
  1655   579   578   ar
  1656  1111  1112   ar
  1657  1111  1116   ar
  1658  1775  1774    1
  1659  1126  1127    1
  1660  1126  1124    1
  1661   807   809    1
  1662   814   815   ar
  1663  1768  1749    2
  1664   968   969   ar
  1665   751   752   ar
  1666   948   949    2
  1667  1743  1742   ar
  1668  1774  1776    1
  1669  1774  1772    1
  1670   906   908   ar
  1671   880   882   ar
  1672  1776  1778    1
  1673  1776  1777    1
  1674   843   842    1
  1675  1001  1017    1
  1676  1001  1000    1
  1677   932   918    1
  1678   932   954    1
  1679   572   573    1
  1680   738   722    1
  1681   738   757    1
  1682  1762  1760   ar
  1683  1117  1116    1
  1684   722   721    1
  1685   725   735    1
  1686   725   720    1
  1687   813   811    1
  1688   999  1004    1
  1689   885   884   ar
  1690  1017  1019    1
  1691   755   754   ar
  1692  1766  1759   ar
  1693   904   903    2
  1694  1112  1113   ar
  1695   576   578   ar
  1696   576   577    2
  1697  1000  1002    1
  1698   729   735   ar
  1699   729   730   ar
  1700  1746  1739   ar
  1701   969   970    2
  1702  1771  1769    1
  1703  1771  1770    1
  1704   918   917    1
  1705   920   919    1
  1706  1116  1115   ar
  1707   986   987    2
  1708   986   988   ar
  1709   864   863    2
  1710  1778  1773    1
  1711   903   902   ar
  1712   721   719    1
  1713   607   585    2
  1714  1769  1787    1
  1715  1769  1755    1
  1716  1717  1718   ar
  1717  1730  1732    1
  1718   817   815   ar
  1719   809   811    1
  1720   809   810    1
  1721  1719  1718   ar
  1722   815   816    1
  1723   735   734   ar
  1724   585   606    1
  1725   585   587    1
  1726  1013  1012   ar
  1727  1013  1014   ar
  1728   720   719    1
  1729   731   730   ar
  1730   731   732    1
  1731  1124  1125    1
  1732   719   717    1
  1733   989   988   ar
  1734   989   990    1
  1735  1760  1759   ar
  1736  1760  1761    2
  1737   924   923    2
  1738   752   754   ar
  1739   752   753    2
  1740   844   841   ar
  1741   844   845   ar
  1742   842   841   ar
  1743   842   837   ar
  1744  1759  1758    1
  1745  1742  1740   ar
  1746  1772  1773    1
  1747  1772  1770    1
  1748   882   883   ar
  1749  1749  1767    1
  1750  1749  1735    1
  1751  1749  1751    1
  1752   705   704   ar
  1753   705   706   ar
  1754  1113  1114   ar
  1755   848   827    2
  1756  1750  1751    1
  1757  1750  1752    1
  1758   908   909   ar
  1759   730   733   ar
  1760   811   812    1
  1761  1125  1123    1
  1762  1004  1002    1
  1763  1004  1014    1
  1764  1012  1009   ar
  1765   884   883   ar
  1766   884   887   ar
  1767  1754  1755    1
  1768  1754  1752    1
  1769  1754  1756    1
  1770  1739  1740   ar
  1771  1739  1738    1
  1772  1115  1114   ar
  1773  1115  1118   ar
  1774   919   917    1
  1775   919   921    1
  1776  1002  1003    1
  1777   917   915    1
  1778   863   862   ar
  1779   863   865   ar
  1780   841   840   ar
  1781  1734  1732    1
  1782  1734  1735    1
  1783  1734  1736    1
  1784   704   709   ar
  1785   810   827    1
  1786  1019  1018    1
  1787  1014  1008   ar
  1788   902   909   ar
  1789   902   901    1
  1790  1732  1733    1
  1791   706   707   ar
  1792  1114  1120   ar
  1793   921   922    1
  1794   921   916    1
  1795   837   838   ar
  1796   883   889   ar
  1797   923   922   ar
  1798   923   925   ar
  1799   845   846   ar
  1800  1740  1741    2
  1801   734   733   ar
  1802  1752  1753    1
  1803   587   586    1
  1804   862   860   ar
  1805  1733  1738    1
  1806  1095  1094    1
  1807  1753  1758    1
  1808  1756  1758    1
  1809  1756  1757    1
  1810   827   829    1
  1811   827   847    1
  1812   717   718    1
  1813  1018  1020    1
  1814  1118  1119   ar
  1815  1738  1736    1
  1816   922   929   ar
  1817   865   866   ar
  1818   887   888   ar
  1819  1736  1737    1
  1820   925   926   ar
  1821   586   588    1
  1822   915   916    1
  1823   915   913    1
  1824  1089  1094   ar
  1825  1089  1090   ar
  1826   603   604   ar
  1827   603   600   ar
  1828  1009  1008   ar
  1829  1009  1010   ar
  1830   901   899    1
  1831   901   896    1
  1832  1123  1142    2
  1833  1123  1141    1
  1834  1123  1107    1
  1835  1033  1034   ar
  1836  1033  1031   ar
  1837   840   846   ar
  1838   840   839   ar
  1839   900   899    1
  1840   709   710    1
  1841   709   708   ar
  1842   604   605   ar
  1843   702   701    1
  1844  1008  1007   ar
  1845  1120  1119   ar
  1846  1120  1110    1
  1847  1108  1109    1
  1848  1108  1110    1
  1849  1108  1106    1
  1850  1094  1093   ar
  1851   838   839   ar
  1852   829   828    1
  1853   846   836    1
  1854   707   708   ar
  1855   707   713   ar
  1856   683   682    1
  1857   718   716    1
  1858   889   888   ar
  1859   889   878    1
  1860  1034  1027   ar
  1861   860   861    2
  1862   860   859   ar
  1863  1032  1031    1
  1864  1058  1037    2
  1865   929   928   ar
  1866   589   588    1
  1867   589   594    1
  1868   899   897    1
  1869   602   601    2
  1870  1090  1091   ar
  1871   701   703    1
  1872   701   699    1
  1873   926   928   ar
  1874   926   927    1
  1875  1110  1105    1
  1876   896   895    1
  1877   708   711   ar
  1878   866   859   ar
  1879  1107  1106    1
  1880  1031  1030   ar
  1881  1020  1021    1
  1882  1020  1022    1
  1883  1106  1104    1
  1884   600   601   ar
  1885   600   599   ar
  1886  1011  1010    1
  1887   588   590    1
  1888  1010  1005   ar
  1889   913   914    1
  1890   681   682   ar
  1891   681   687   ar
  1892   703   713    1
  1893   703   698    1
  1894   831   836    1
  1895   831   830    1
  1896  1007  1006   ar
  1897   605   594    1
  1898   605   599   ar
  1899  1021  1026    1
  1900   878   876    1
  1901   878   873    1
  1902   713   712   ar
  1903   859   858    1
  1904   601   595   ar
  1905   828   830    1
  1906  1074  1073    1
  1907   682   684   ar
  1908  1093  1096   ar
  1909  1093  1092   ar
  1910   836   834    1
  1911  1022  1023    1
  1912  1022  1024    1
  1913   914   912    1
  1914   876   877    1
  1915   876   874    1
  1916  1027  1026    1
  1917  1027  1028   ar
  1918  1023  1037    1
  1919   688   687    2
  1920   594   592    1
  1921  1037  1057    1
  1922  1037  1039    1
  1923   898   897    1
  1924   898   912    1
  1925   599   598   ar
  1926  1091  1092   ar
  1927   716   700    1
  1928   716   736    2
  1929   716   737    1
  1930   897   895    1
  1931   590   591    1
  1932   590   592    1
  1933  1096  1097   ar
  1934  1053  1052    1
  1935   830   832    1
  1936   687   686   ar
  1937   700   699    1
  1938   623   622    2
  1939  1105  1104    1
  1940   699   697    1
  1941   895   893    1
  1942  1092  1098   ar
  1943  1030  1028   ar
  1944  1005  1006   ar
  1945   711   712   ar
  1946  1026  1024    1
  1947   627   608    2
  1948   931   912    2
  1949  1104  1102    1
  1950   868   849    2
  1951   832   834    1
  1952   832   833    1
  1953   698   697    1
  1954   873   872    1
  1955   912   930    1
  1956   595   596   ar
  1957   834   835    1
  1958   645   644    2
  1959   684   685   ar
  1960  1073  1075   ar
  1961  1073  1072   ar
  1962  1028  1029    2
  1963  1054  1055   ar
  1964  1054  1051   ar
  1965   894   893    1
  1966   894   892    1
  1967   911   892    2
  1968   858   853    1
  1969   858   856    1
  1970  1024  1025    1
  1971   591   608    1
  1972   592   593    1
  1973   697   695    1
  1974   624   622   ar
  1975   624   625   ar
  1976  1103  1102    1
  1977  1103  1101    1
  1978   622   621   ar
  1979   598   596   ar
  1980  1075  1076   ar
  1981   874   872    1
  1982   874   875    1
  1983  1039  1038    1
  1984  1097  1098   ar
  1985  1122  1101    2
  1986  1052  1051   ar
  1987  1052  1047   ar
  1988   608   626    1
  1989   608   610    1
  1990  1098  1088    1
  1991   853   852    1
  1992   596   597    1
  1993   686   685   ar
  1994   686   689   ar
  1995  1055  1056   ar
  1996  1072  1070   ar
  1997  1051  1050   ar
  1998   833   849    1
  1999   892   875    1
  2000   892   910    1
  2001   666   665    2
  2002   856   854    1
  2003   856   857    1
  2004   685   691   ar
  2005   849   851    1
  2006   849   867    1
  2007   872   870    1
  2008   851   850    1
  2009  1078  1059    2
  2010   644   638   ar
  2011   644   643   ar
  2012  1101  1121    1
  2013  1101  1085    1
  2014   625   618   ar
  2015  1086  1088    1
  2016  1086  1084    1
  2017  1086  1087    1
  2018   621   619   ar
  2019   854   852    1
  2020   854   855    1
  2021   638   639   ar
  2022  1076  1069   ar
  2023   871   870    1
  2024   871   869    1
  2025  1047  1048   ar
  2026  1038  1040    1
  2027   695   696    1
  2028  1088  1083    1
  2029   610   609    1
  2030   852   850    1
  2031   891   869    2
  2032  1100  1079    2
  2033   665   664   ar
  2034   665   667   ar
  2035   689   690   ar
  2036   664   662   ar
  2037  1070  1069   ar
  2038  1070  1071    2
  2039   696   694    1
  2040  1056  1050   ar
  2041  1056  1046    1
  2042  1084  1085    1
  2043  1084  1082    1
  2044  1050  1049   ar
  2045   643   646   ar
  2046   643   642   ar
  2047   646   647   ar
  2048   691   690   ar
  2049   691   680    1
  2050  1059  1061    1
  2051  1059  1077    1
  2052  1059  1043    1
  2053   618   619   ar
  2054   618   617    1
  2055  1069  1068    1
  2056   869   855    1
  2057   869   890    1
  2058   619   620    2
  2059   678   679    1
  2060   678   680    1
  2061   678   676    1
  2062  1042  1040    1
  2063  1042  1043    1
  2064  1042  1044    1
  2065  1040  1041    1
  2066  1081  1079    1
  2067  1081  1080    1
  2068   639   640    1
  2069   639   641   ar
  2070  1041  1046    1
  2071  1083  1082    1
  2072  1048  1049   ar
  2073   680   675    1
  2074  1061  1060    1
  2075   609   611    1
  2076   663   662    2
  2077   662   661   ar
  2078  1079  1099    1
  2079  1079  1065    1
  2080   667   668   ar
  2081  1046  1044    1
  2082   612   617    1
  2083   612   611    1
  2084  1082  1080    1
  2085   647   648   ar
  2086   642   641   ar
  2087   642   648   ar
  2088  1044  1045    1
  2089   715   694    2
  2090   694   677    1
  2091   694   714    1
  2092   617   615    1
  2093   676   677    1
  2094   676   674    1
  2095  1064  1066    1
  2096  1064  1065    1
  2097  1064  1062    1
  2098  1068  1066    1
  2099  1068  1063    1
  2100   611   613    1
  2101   650   628    2
  2102  1066  1067    1
  2103   648   637    1
  2104   613   615    1
  2105   613   614    1
  2106   675   674    1
  2107   661   668   ar
  2108   661   660    1
  2109  1060  1062    1
  2110  1063  1062    1
  2111   615   616    1
  2112   674   672    1
  2113   614   628    1
  2114   628   630    1
  2115   628   649    1
  2116   660   658    1
  2117   660   655    1
  2118   637   632    1
  2119   637   635    1
  2120   630   629    1
  2121   672   673    1
  2122   632   631    1
  2123   658   659    1
  2124   658   656    1
  2125   670   651    2
  2126   635   633    1
  2127   635   636    1
  2128   655   654    1
  2129   633   631    1
  2130   633   634    1
  2131   629   631    1
  2132   673   671    1
  2133   656   654    1
  2134   656   657    1
  2135   693   671    2
  2136   653   651    1
  2137   653   652    1
  2138   651   634    1
  2139   651   669    1
  2140   654   652    1
  2141   671   657    1
  2142   671   692    1
