2fd0_lig
 OpenBabel02221317003D

 52 56  0  0  1  0  0  0  0  0999 V2000
    5.4700  -49.2860   14.5970 C   0  0  2  0  0  0  0  0  0  0  0  0
    6.0980  -48.0020   14.7150 O   0  0  0  0  0  0  0  0  0  0  0  0
    7.7740  -44.9460   12.1180 C   0  0  2  0  0  0  0  0  0  0  0  0
    8.5930  -44.2800   11.0920 N   0  0  0  0  0  0  0  0  0  0  0  0
    4.0100  -47.6540   11.3140 C   0  0  1  0  0  0  0  0  0  0  0  0
    1.6450  -49.6400    8.3160 C   0  0  1  0  0  0  0  0  0  0  0  0
   -2.2860  -50.8110    4.9170 C   0  0  1  0  0  0  0  0  0  0  0  0
    4.2140  -49.3170   15.5420 C   0  0  2  0  0  0  0  0  0  0  0  0
    3.2790  -48.2430   15.2370 N   0  0  0  0  0  0  0  0  0  0  0  0
    8.7070  -45.6300   13.2110 C   0  0  0  0  0  0  0  0  0  0  0  0
    3.7920  -48.8520   10.4080 C   0  0  2  0  0  0  0  0  0  0  0  0
    4.2730  -48.6150    9.0550 O   0  0  0  0  0  0  0  0  0  0  0  0
    1.2340  -48.8140    7.0090 C   0  0  2  0  0  0  0  0  0  0  0  0
   -0.0630  -48.1150    7.2200 N   0  0  0  0  0  0  0  0  0  0  0  0
   -3.2410  -49.7760    5.5530 C   0  0  1  0  0  0  0  0  0  0  0  0
   -2.7940  -48.4430    5.2020 O   0  0  0  0  0  0  0  0  0  0  0  0
    4.6620  -49.2760   17.0500 C   0  0  0  0  0  0  0  0  0  0  0  0
    7.8130  -46.3450   14.3330 C   0  0  2  0  0  0  0  0  0  0  0  0
    8.6520  -46.9880   15.3550 N   0  0  0  0  0  0  0  0  0  0  0  0
    2.3030  -49.1190   10.5500 C   0  0  2  0  0  0  0  0  0  0  0  0
    1.6030  -48.7500    9.3930 O   0  0  0  0  0  0  0  0  0  0  0  0
    1.2780  -49.8370    5.7590 C   0  0  1  0  0  0  0  0  0  0  0  0
    2.5980  -50.4070    5.6980 O   0  0  0  0  0  0  0  0  0  0  0  0
   -4.7500  -49.8860    5.2040 C   0  0  1  0  0  0  0  0  0  0  0  0
   -5.0070  -49.0320    4.0820 O   0  0  0  0  0  0  0  0  0  0  0  0
    5.6530  -50.4580   17.3060 C   0  0  2  0  0  0  0  0  0  0  0  0
    6.0690  -50.4670   18.6680 O   0  0  0  0  0  0  0  0  0  0  0  0
    6.8930  -47.3990   13.6560 C   0  0  2  0  0  0  0  0  0  0  0  0
    1.7420  -48.2130   11.6720 C   0  0  2  0  0  0  0  0  0  0  0  0
    2.9190  -47.6350   12.2180 O   0  0  0  0  0  0  0  0  0  0  0  0
    0.2530  -51.0720    5.9550 C   0  0  2  0  0  0  0  0  0  0  0  0
   -1.0490  -50.4580    5.9930 O   0  0  0  0  0  0  0  0  0  0  0  0
   -5.2710  -51.3050    4.8790 C   0  0  2  0  0  0  0  0  0  0  0  0
   -6.5600  -51.4060    5.5230 O   0  0  0  0  0  0  0  0  0  0  0  0
    6.8900  -50.3070   16.3750 C   0  0  2  0  0  0  0  0  0  0  0  0
    6.4170  -50.3190   14.9730 O   0  0  0  0  0  0  0  0  0  0  0  0
    5.9980  -46.7880   12.5350 C   0  0  2  0  0  0  0  0  0  0  0  0
    5.2270  -47.8680   11.9560 O   0  0  0  0  0  0  0  0  0  0  0  0
    1.0060  -48.9460   12.7880 C   0  0  0  0  0  0  0  0  0  0  0  0
    1.7450  -50.1460   13.0620 O   0  0  0  0  0  0  0  0  0  0  0  0
    0.5580  -51.6430    7.3270 C   0  0  1  0  0  0  0  0  0  0  0  0
    0.7240  -50.8560    8.5250 O   0  0  0  0  0  0  0  0  0  0  0  0
   -4.2770  -52.3710    5.3320 C   0  0  2  0  0  0  0  0  0  0  0  0
   -2.9120  -52.1650    4.8740 O   0  0  0  0  0  0  0  0  0  0  0  0
    7.8630  -51.4300   16.5460 C   0  0  0  0  0  0  0  0  0  0  0  0
    8.9410  -51.2060   15.6780 O   0  0  0  0  0  0  0  0  0  0  0  0
    6.8940  -46.0800   11.4540 C   0  0  1  0  0  0  0  0  0  0  0  0
    6.0160  -45.4730   10.4440 O   0  0  0  0  0  0  0  0  0  0  0  0
   -0.3790  -52.8390    7.7220 C   0  0  0  0  0  0  0  0  0  0  0  0
   -0.4940  -53.0460    9.1860 N   0  0  0  0  0  0  0  0  0  0  0  0
   -4.5380  -53.8610    5.1230 C   0  0  0  0  0  0  0  0  0  0  0  0
   -5.8290  -54.2360    5.6950 O   0  0  0  0  0  0  0  0  0  0  0  0
  1  2  1  1  0  0  0
  1  8  1  0  0  0  0
  1 36  1  0  0  0  0
  3  4  1  6  0  0  0
  3 10  1  0  0  0  0
  3 47  1  0  0  0  0
  5 11  1  0  0  0  0
  5 30  1  0  0  0  0
  5 38  1  1  0  0  0
  6 21  1  1  0  0  0
  6 42  1  0  0  0  0
  7 15  1  0  0  0  0
  7 44  1  0  0  0  0
  7 32  1  1  0  0  0
  8  9  1  1  0  0  0
  8 17  1  0  0  0  0
 11 12  1  6  0  0  0
 11 20  1  0  0  0  0
 13  6  1  0  0  0  0
 13 14  1  1  0  0  0
 15 16  1  6  0  0  0
 15 24  1  0  0  0  0
 17 26  1  0  0  0  0
 18 10  1  0  0  0  0
 18 19  1  6  0  0  0
 20 21  1  6  0  0  0
 20 29  1  0  0  0  0
 22 13  1  0  0  0  0
 22 23  1  1  0  0  0
 24 25  1  6  0  0  0
 24 33  1  0  0  0  0
 26 27  1  1  0  0  0
 26 35  1  0  0  0  0
 28  2  1  1  0  0  0
 28 18  1  0  0  0  0
 29 30  1  0  0  0  0
 29 39  1  1  0  0  0
 31 22  1  0  0  0  0
 31 32  1  1  0  0  0
 31 41  1  0  0  0  0
 33 34  1  1  0  0  0
 33 43  1  0  0  0  0
 35 36  1  0  0  0  0
 35 45  1  6  0  0  0
 37 28  1  0  0  0  0
 37 38  1  6  0  0  0
 39 40  1  0  0  0  0
 41 42  1  0  0  0  0
 41 49  1  1  0  0  0
 43 44  1  0  0  0  0
 43 51  1  6  0  0  0
 45 46  1  0  0  0  0
 47 37  1  0  0  0  0
 47 48  1  1  0  0  0
 49 50  1  0  0  0  0
 51 52  1  0  0  0  0
M  END
$$$$
